data_PCOD9446926
_publ_section_title
;
Structure prediction by ZEFSAII (Michael W. Deem and Ramdas Pophale) SiO2 
 PCOD9446926
Probable space group: P M M N
;
_chemical_formula_sum "Si O2"
_cell_formula_units_Z 48
_cell_length_a 12.564076
_cell_length_b 13.984539
_cell_length_c 15.584043
_cell_angle_alpha 90.000000
_cell_angle_beta 90.000000
_cell_angle_gamma 90.000000
_cell_volume 2738.160159
_symmetry_space_group_name_H-M "P M M N"
_symmetry_group_IT_number 59
_space_group.IT_coordinate_system_code '2'
_symmetry_cell_setting 'orthorhombic'
loop_
_space_group_symop_operation_xyz
x,y,z
1/2-x,1/2-y,z
1/2+x,-y,-z
-x,1/2+y,-z
-x,-y,-z
1/2+x,1/2+y,-z
1/2-x,y,z
x,1/2-y,z
loop_
_atom_site_type_symbol
_atom_site_label
_atom_site_fract_x
_atom_site_fract_y
_atom_site_fract_z
Si Si1 0.622093 0.458436 0.396963
Si Si2 0.124870 0.954113 0.798266
Si Si3 0.555565 0.863113 0.496332
Si Si4 0.124146 0.360034 0.895518
Si Si5 0.250000 0.132997 0.182822
Si Si6 0.957268 0.635041 0.922122
Si Si7 0.250000 0.135026 0.378110
O O1 0.750000 0.452801 0.405922
O O2 0.593243 0.431482 0.299211
O O3 0.557748 0.391693 0.462919
O O4 0.583782 0.566423 0.418214
O O5 0.250000 0.933490 0.806705
O O6 0.059227 0.899464 0.870479
O O7 0.109163 0.066459 0.818463
O O8 0.562667 0.750000 0.478026
O O9 0.644974 0.889533 0.567884
O O10 0.250000 0.362865 0.919914
O O11 0.099027 0.250000 0.874666
O O12 0.057471 0.392662 0.978622
O O13 0.250000 0.250000 0.183422
O O14 0.145387 0.101787 0.131870
O O15 0.250000 0.098546 0.280979
O O16 0.955229 0.750000 0.922580
O O17 0.250000 0.250000 0.372131
#
# Coordination Sequence:
#
# PCOD9446926 Si02
#       7
#     8   8   8   8   4   8   4
#     4  10  21  36  52  76 107 137 171 210 256 314
#     4  10  21  33  49  76 107 136 167 202 250 309
#     4  10  20  35  55  76 101 134 171 214 260 305
#     4   9  17  32  52  74 100 133 172 213 251 289
#     4   9  16  26  46  73  96 122 161 207 248 286
#     4  10  18  31  50  73 103 134 168 209 251 295
#     4   9  16  28  48  73  96 122 161 207 254 296
#
# _framework density 17.530017999999998
#
# number of rings (size 3 to 8) (size 9 to 14) (size 15 to 20)
#    0.000    2.333    1.667    1.500    0.000    3.333 
#    0.000    3.333    0.000    0.000    0.000    0.000 
#    0.000    0.000    0.000    0.000    0.000    0.000 
#
# Total GULP energy -267542.725647 kJ/mol
# GULP energy per Si atom -5573.806784 kJ/mol
# Density = 1.749012 g / cm^3
# Si number density = 17.530018 Si / 1000 Ang^3
#
#
#
# Elastic Constant Matrix: (Units=GPa)
#
#
# Indices 1 2 3 4 5 6 
#
# 1 49.8144 -0.0365 8.3784 0.0000 0.0000 0.0000
# 2 -0.0365 17.9167 -15.6706 0.0000 0.0000 0.0000
# 3 8.3784 -15.6706 28.2482 0.0000 0.0000 0.0000
# 4 0.0000 0.0000 0.0000 17.4293 0.0000 0.0000
# 5 0.0000 0.0000 0.0000 0.0000 20.4164 0.0000
# 6 0.0000 0.0000 0.0000 0.0000 0.0000 19.3942
#
#
#
# Elastic Compliance Matrix: (Units=1/GPa)
#
#
# Indices 1 2 3 4 5 6 
#
# 1 0.022210 -0.011104 -0.012748 0.000000 0.000000 0.000000
# 2 -0.011104 0.113971 0.066519 0.000000 0.000000 0.000000
# 3 -0.012748 0.066519 0.076083 0.000000 0.000000 0.000000
# 4 0.000000 0.000000 0.000000 0.057375 0.000000 0.000000
# 5 0.000000 0.000000 0.000000 0.000000 0.048980 0.000000
# 6 0.000000 0.000000 0.000000 0.000000 0.000000 0.051562
#
#
# Mechanical properties :
#
#
# Convention : Reuss Voigt Hill
#
# Bulk Modulus (GPa) = 3.36024 9.03575 6.19800
# Shear Modulus (GPa) = 13.01926 18.33518 15.67722
#
# Velocity S-wave (km/s) = 2.72818 3.23759 2.99374
# Velocity P-wave (km/s) = 3.44165 4.37512 3.93615
#
# Compressibility (1/GPa) = 0.29759735
#
# Stress axis : x y z
#
# Youngs Moduli (GPa) = 45.02391 8.77418 13.14359
#
# Poissons Ratio (x) = 0.09743 0.16755
# Poissons Ratio (y) = 0.49996 -0.87429
# Poissons Ratio (z) = 0.57395 -0.58365
#
# Static dielectric constant tensor:
#      x y z
#    x 1.595930 0.000000 0.000000 
#    y 0.000000 1.597240 0.000000 
#    z 0.000000 0.000000 1.594140 
# 
# From -- ./inp_files/22415.got.cif
#   From: 2010.05.17/outbox.cif.g08.bks.cpg/sg59_12_cif.got.tgz:22415.got - 2010.06.03 14:40:33.
