data_PCOD9446804
_publ_section_title
;
Structure prediction by ZEFSAII (Michael W. Deem and Ramdas Pophale) SiO2 
 PCOD9446804
Probable space group: P M M N
;
_chemical_formula_sum "Si O2"
_cell_formula_units_Z 64
_cell_length_a 25.205326
_cell_length_b 14.914382
_cell_length_c 8.993958
_cell_angle_alpha 90.000000
_cell_angle_beta 90.000000
_cell_angle_gamma 90.000000
_cell_volume 3381.025424
_symmetry_space_group_name_H-M "P M M N"
_symmetry_group_IT_number 59
_space_group.IT_coordinate_system_code '2'
_symmetry_cell_setting 'orthorhombic'
loop_
_space_group_symop_operation_xyz
x,y,z
1/2-x,1/2-y,z
1/2+x,-y,-z
-x,1/2+y,-z
-x,-y,-z
1/2+x,1/2+y,-z
1/2-x,y,z
x,1/2-y,z
loop_
_atom_site_type_symbol
_atom_site_label
_atom_site_fract_x
_atom_site_fract_y
_atom_site_fract_z
Si Si1 0.514231 0.359580 0.517059
Si Si2 0.585986 0.856508 0.312755
Si Si3 0.963343 0.911203 0.999229
Si Si4 0.689850 0.972368 0.247632
Si Si5 0.946286 0.351499 0.194554
Si Si6 0.309681 0.651256 0.561012
Si Si7 0.371072 0.971851 0.015501
Si Si8 0.890138 0.147057 0.711362
O O1 0.515606 0.250000 0.515844
O O2 0.454088 0.385907 0.555391
O O3 0.537864 0.387443 0.357858
O O4 0.553537 0.388200 0.650074
O O5 0.595364 0.750000 0.324796
O O6 0.552482 0.874797 0.161169
O O7 0.641543 0.909138 0.301682
O O8 0.907523 0.944655 0.934641
O O9 0.999328 0.847874 0.899902
O O10 0.000000 0.000000 0.000000
O O11 0.750000 0.938864 0.272382
O O12 0.684717 0.067815 0.330395
O O13 0.679083 0.992247 0.073790
O O14 0.925531 0.250000 0.208522
O O15 0.905530 0.415120 0.106741
O O16 0.250000 0.646861 0.498090
O O17 0.314811 0.750000 0.633333
O O18 0.352025 0.646492 0.430521
O O19 0.365157 0.908855 0.156097
O O20 0.897857 0.250000 0.761243
#
# Coordination Sequence:
#
# PCOD9446804 Si02
#       8
#     8   8   8   8   8   8   8   8
#     4   9  18  30  48  76 106 136 170 210 255 309
#     4  10  20  36  56  78 107 141 181 227 273 322
#     4   9  18  31  46  71 104 138 171 205 252 306
#     4  10  22  39  57  77 101 134 180 231 280 325
#     4  10  18  30  49  73 105 140 172 204 246 307
#     4   9  19  36  55  75 103 140 179 218 264 321
#     4  10  20  32  47  72 103 135 171 213 257 310
#     4  10  19  32  52  78 110 145 177 210 256 316
#
# _framework density 18.929168000000001
#
# number of rings (size 3 to 8) (size 9 to 14) (size 15 to 20)
#    0.000    2.375    0.000    3.000    0.000    4.750 
#    0.000    6.875    0.000    0.000    0.000    0.000 
#    0.000    5.000    0.000    0.000    0.000    0.000 
#
# Total GULP energy -356842.041496 kJ/mol
# GULP energy per Si atom -5575.656898 kJ/mol
# Density = 1.888608 g / cm^3
# Si number density = 18.929168 Si / 1000 Ang^3
#
#
#
# Elastic Constant Matrix: (Units=GPa)
#
#
# Indices 1 2 3 4 5 6 
#
# 1 109.0597 27.7193 19.9271 0.0000 0.0000 0.0000
# 2 27.7193 55.0310 2.5890 0.0000 0.0000 0.0000
# 3 19.9271 2.5890 30.4204 0.0000 0.0000 0.0000
# 4 0.0000 0.0000 0.0000 63.1788 0.0000 0.0000
# 5 0.0000 0.0000 0.0000 0.0000 25.0134 0.0000
# 6 0.0000 0.0000 0.0000 0.0000 0.0000 23.7901
#
#
#
# Elastic Compliance Matrix: (Units=1/GPa)
#
#
# Indices 1 2 3 4 5 6 
#
# 1 0.011954 -0.005676 -0.007348 0.000000 0.000000 0.000000
# 2 -0.005676 0.020939 0.001936 0.000000 0.000000 0.000000
# 3 -0.007348 0.001936 0.037521 0.000000 0.000000 0.000000
# 4 0.000000 0.000000 0.000000 0.015828 0.000000 0.000000
# 5 0.000000 0.000000 0.000000 0.000000 0.039979 0.000000
# 6 0.000000 0.000000 0.000000 0.000000 0.000000 0.042034
#
#
# Mechanical properties :
#
#
# Convention : Reuss Voigt Hill
#
# Bulk Modulus (GPa) = 20.72984 32.77576 26.75280
# Shear Modulus (GPa) = 24.21174 32.01484 28.11329
#
# Velocity S-wave (km/s) = 3.58029 4.11700 3.85799
# Velocity P-wave (km/s) = 5.29777 6.32077 5.83174
#
# Compressibility (1/GPa) = 0.04823964
#
# Stress axis : x y z
#
# Youngs Moduli (GPa) = 83.65066 47.75677 26.65161
#
# Poissons Ratio (x) = 0.27106 0.19583
# Poissons Ratio (y) = 0.47479 -0.05160
# Poissons Ratio (z) = 0.61465 -0.09245
#
# Static dielectric constant tensor:
#      x y z
#    x 1.693380 0.000000 0.000000 
#    y 0.000000 1.696790 0.000000 
#    z 0.000000 0.000000 1.665180 
# 
# From -- ./inp_files/10810.got.cif
#   From: 2010.05.17/outbox.cif.g08.bks.cpg/sg59_6_cif.got.tgz:10810.got - 2010.06.03 14:40:33.
