data_PCOD9446748
_publ_section_title
;
Structure prediction by ZEFSAII (Michael W. Deem and Ramdas Pophale) SiO2 
 PCOD9446748
Probable space group: P M M N
;
_chemical_formula_sum "Si O2"
_cell_formula_units_Z 40
_cell_length_a 8.221454
_cell_length_b 10.563170
_cell_length_c 25.537289
_cell_angle_alpha 90.000000
_cell_angle_beta 90.000000
_cell_angle_gamma 90.000000
_cell_volume 2217.776063
_symmetry_space_group_name_H-M "P M M N"
_symmetry_group_IT_number 59
_space_group.IT_coordinate_system_code '2'
_symmetry_cell_setting 'orthorhombic'
loop_
_space_group_symop_operation_xyz
x,y,z
1/2-x,1/2-y,z
1/2+x,-y,-z
-x,1/2+y,-z
-x,-y,-z
1/2+x,1/2+y,-z
1/2-x,y,z
x,1/2-y,z
loop_
_atom_site_type_symbol
_atom_site_label
_atom_site_fract_x
_atom_site_fract_y
_atom_site_fract_z
Si Si1 0.051057 0.504909 0.121169
Si Si2 0.448880 0.602469 0.232129
Si Si3 0.446420 0.750000 0.055554
Si Si4 0.058507 0.106202 0.540142
Si Si5 0.053406 0.250000 0.064465
Si Si6 0.062718 0.596569 0.345921
O O1 0.250000 0.504982 0.121437
O O2 0.999434 0.525020 0.181220
O O3 0.998837 0.624986 0.086543
O O4 0.996225 0.375730 0.094311
O O5 0.250000 0.601300 0.234075
O O6 0.495545 0.750000 0.224860
O O7 0.504773 0.555304 0.289313
O O8 0.250000 0.750000 0.056461
O O9 0.501628 0.750000 0.995791
O O10 0.250000 0.116464 0.533440
O O11 0.988414 0.250000 0.532942
O O12 0.023736 0.064992 0.599981
O O13 0.000000 0.000000 0.500000
O O14 0.250000 0.250000 0.065813
O O15 0.250000 0.554828 0.350356
O O16 0.062405 0.750000 0.342554
#
# Coordination Sequence:
#
# PCOD9446748 Si02
#       6
#     8   8   4   8   4   8
#     4   9  16  27  44  66  88 114 149 188 228 270
#     4   8  12  22  43  68  88 111 152 195 225 265
#     4  10  18  30  48  64  82 116 157 186 215 272
#     4  10  20  33  51  75 103 134 168 204 242 289
#     4  10  20  30  42  64  94 116 139 186 239 274
#     4   8  14  25  45  71  94 119 154 197 239 277
#
# _framework density 18.036086000000001
#
# number of rings (size 3 to 8) (size 9 to 14) (size 15 to 20)
#    0.000    3.000    1.000    2.400    0.000    1.200 
#    0.000    0.000    2.200    2.400    0.000    0.000 
#    0.000    0.000    0.000    0.000    0.000    0.000 
#
# Total GULP energy -222784.318632 kJ/mol
# GULP energy per Si atom -5569.607966 kJ/mol
# Density = 1.799504 g / cm^3
# Si number density = 18.036086 Si / 1000 Ang^3
#
#
#
# Elastic Constant Matrix: (Units=GPa)
#
#
# Indices 1 2 3 4 5 6 
#
# 1 10.9623 15.1367 19.1992 0.0000 0.0000 0.0000
# 2 15.1367 112.7490 93.6398 0.0000 0.0000 0.0000
# 3 19.1992 93.6398 204.5113 0.0000 0.0000 0.0000
# 4 0.0000 0.0000 0.0000 17.0325 0.0000 0.0000
# 5 0.0000 0.0000 0.0000 0.0000 24.8195 0.0000
# 6 0.0000 0.0000 0.0000 0.0000 0.0000 7.6718
#
#
#
# Elastic Compliance Matrix: (Units=1/GPa)
#
#
# Indices 1 2 3 4 5 6 
#
# 1 0.116502 -0.010581 -0.006092 0.000000 0.000000 0.000000
# 2 -0.010581 0.015272 -0.005999 0.000000 0.000000 0.000000
# 3 -0.006092 -0.005999 0.008209 0.000000 0.000000 0.000000
# 4 0.000000 0.000000 0.000000 0.058711 0.000000 0.000000
# 5 0.000000 0.000000 0.000000 0.000000 0.040291 0.000000
# 6 0.000000 0.000000 0.000000 0.000000 0.000000 0.130348
#
#
# Mechanical properties :
#
#
# Convention : Reuss Voigt Hill
#
# Bulk Modulus (GPa) = 10.56660 64.90822 37.73741
# Shear Modulus (GPa) = 11.20513 23.25454 17.22983
#
# Velocity S-wave (km/s) = 2.49522 3.59463 3.09414
# Velocity P-wave (km/s) = 3.76467 7.30031 5.80807
#
# Compressibility (1/GPa) = 0.09463783
#
# Stress axis : x y z
#
# Youngs Moduli (GPa) = 8.58354 65.47755 121.82264
#
# Poissons Ratio (x) = 0.69280 0.74220
# Poissons Ratio (y) = 0.09082 0.73087
# Poissons Ratio (z) = 0.05229 0.39283
#
# Static dielectric constant tensor:
#      x y z
#    x 1.646990 0.000000 0.000000 
#    y 0.000000 1.622520 0.000000 
#    z 0.000000 0.000000 1.629380 
# 
# From -- ./inp_files/28790.got.cif
#   From: 2010.05.17/outbox.cif.g08.bks.cpg/sg59_15_cif.got.tgz:28790.got - 2010.06.03 14:40:33.
