data_PCOD9446418
_publ_section_title
;
Structure prediction by ZEFSAII (Michael W. Deem and Ramdas Pophale) SiO2 
 PCOD9446418
Probable space group: P M M N
;
_chemical_formula_sum "Si O2"
_cell_formula_units_Z 64
_cell_length_a 27.581303
_cell_length_b 8.638737
_cell_length_c 17.650102
_cell_angle_alpha 90.000000
_cell_angle_beta 90.000000
_cell_angle_gamma 90.000000
_cell_volume 4205.447845
_symmetry_space_group_name_H-M "P M M N"
_symmetry_group_IT_number 59
_space_group.IT_coordinate_system_code '2'
_symmetry_cell_setting 'orthorhombic'
loop_
_space_group_symop_operation_xyz
x,y,z
1/2-x,1/2-y,z
1/2+x,-y,-z
-x,1/2+y,-z
-x,-y,-z
1/2+x,1/2+y,-z
1/2-x,y,z
x,1/2-y,z
loop_
_atom_site_type_symbol
_atom_site_label
_atom_site_fract_x
_atom_site_fract_y
_atom_site_fract_z
Si Si1 0.040173 0.933557 0.899752
Si Si2 0.118716 0.065349 0.787377
Si Si3 0.464464 0.064759 0.323252
Si Si4 0.553118 0.064534 0.520442
Si Si5 0.111044 0.435742 0.024863
Si Si6 0.922859 0.063806 0.356670
Si Si7 0.695182 0.562279 0.088329
Si Si8 0.060064 0.566140 0.160669
O O1 0.034291 0.750000 0.907774
O O2 0.076078 0.974259 0.830576
O O3 0.989257 0.010241 0.880156
O O4 0.066906 0.003629 0.972655
O O5 0.110899 0.250000 0.796229
O O6 0.167593 0.024569 0.833125
O O7 0.113977 0.017730 0.700349
O O8 0.463535 0.250000 0.320963
O O9 0.521562 0.019096 0.333370
O O10 0.436102 0.005674 0.397566
O O11 0.443327 0.997960 0.245768
O O12 0.551100 0.250000 0.525929
O O13 0.583962 0.024952 0.445453
O O14 0.500000 0.000000 0.500000
O O15 0.109550 0.250000 0.025987
O O16 0.103230 0.500249 0.108739
O O17 0.159768 0.486130 0.980407
O O18 0.919621 0.250000 0.348698
O O19 0.750000 0.503354 0.084086
O O20 0.697050 0.750000 0.085109
O O21 0.061863 0.750000 0.161917
#
# Coordination Sequence:
#
# PCOD9446418 Si02
#       8
#     8   8   8   8   8   8   8   8
#     4  11  20  31  44  60  88 119 150 186 223 263
#     4  10  18  27  45  69  89 116 153 187 224 267
#     4  10  19  30  43  61  86 120 155 189 226 260
#     4   9  17  28  41  58  83 118 156 189 220 257
#     4  10  20  33  48  66  86 112 148 185 225 271
#     4   9  17  28  42  60  88 120 151 186 221 258
#     4   8  16  32  51  69  89 113 144 185 229 271
#     4  12  22  31  44  62  88 120 153 187 223 264
#
# _framework density 15.218355000000001
#
# number of rings (size 3 to 8) (size 9 to 14) (size 15 to 20)
#    0.000    2.125    1.250    5.625    0.000    2.500 
#    0.000    0.000    0.000   13.500    0.000    0.000 
#    0.000    1.000    0.000    9.750    0.000    2.750 
#
# Total GULP energy -356801.549647 kJ/mol
# GULP energy per Si atom -5575.024213 kJ/mol
# Density = 1.518372 g / cm^3
# Si number density = 15.218355 Si / 1000 Ang^3
#
#
#
# Elastic Constant Matrix: (Units=GPa)
#
#
# Indices 1 2 3 4 5 6 
#
# 1 59.5771 16.7640 56.7899 0.0000 0.0000 0.0000
# 2 16.7640 61.8584 42.9010 0.0000 0.0000 0.0000
# 3 56.7899 42.9010 141.7014 0.0000 0.0000 0.0000
# 4 0.0000 0.0000 0.0000 29.6805 0.0000 0.0000
# 5 0.0000 0.0000 0.0000 0.0000 8.9028 0.0000
# 6 0.0000 0.0000 0.0000 0.0000 0.0000 9.7672
#
#
#
# Elastic Compliance Matrix: (Units=1/GPa)
#
#
# Indices 1 2 3 4 5 6 
#
# 1 0.027164 0.000239 -0.010959 0.000000 0.000000 0.000000
# 2 0.000239 0.020465 -0.006291 0.000000 0.000000 0.000000
# 3 -0.010959 -0.006291 0.013354 0.000000 0.000000 0.000000
# 4 0.000000 0.000000 0.000000 0.033692 0.000000 0.000000
# 5 0.000000 0.000000 0.000000 0.000000 0.112324 0.000000
# 6 0.000000 0.000000 0.000000 0.000000 0.000000 0.102384
#
#
# Mechanical properties :
#
#
# Convention : Reuss Voigt Hill
#
# Bulk Modulus (GPa) = 37.09295 55.11632 46.10464
# Shear Modulus (GPa) = 14.18872 19.44887 16.81880
#
# Velocity S-wave (km/s) = 3.05674 3.57877 3.32801
# Velocity P-wave (km/s) = 6.07330 7.30565 6.71779
#
# Compressibility (1/GPa) = 0.02695930
#
# Stress axis : x y z
#
# Youngs Moduli (GPa) = 36.81345 48.86484 74.88464
#
# Poissons Ratio (x) = -0.01167 0.82065
# Poissons Ratio (y) = -0.00879 0.47113
# Poissons Ratio (z) = 0.40343 0.30743
#
# Static dielectric constant tensor:
#      x y z
#    x 1.484870 0.000000 0.000000 
#    y 0.000000 1.512430 0.000000 
#    z 0.000000 0.000000 1.550720 
# 
# From -- ./inp_files/28535.got.cif
#   From: 2010.05.17/outbox.cif.g08.bks.cpg/sg59_15_cif.got.tgz:28535.got - 2010.06.03 14:40:33.
