data_PCOD9446305
_publ_section_title
;
Structure prediction by ZEFSAII (Michael W. Deem and Ramdas Pophale) SiO2 
 PCOD9446305
Probable space group: P M M N
;
_chemical_formula_sum "Si O2"
_cell_formula_units_Z 64
_cell_length_a 16.104222
_cell_length_b 7.728956
_cell_length_c 24.532200
_cell_angle_alpha 90.000000
_cell_angle_beta 90.000000
_cell_angle_gamma 90.000000
_cell_volume 3053.494066
_symmetry_space_group_name_H-M "P M M N"
_symmetry_group_IT_number 59
_space_group.IT_coordinate_system_code '2'
_symmetry_cell_setting 'orthorhombic'
loop_
_space_group_symop_operation_xyz
x,y,z
1/2-x,1/2-y,z
1/2+x,-y,-z
-x,1/2+y,-z
-x,-y,-z
1/2+x,1/2+y,-z
1/2-x,y,z
x,1/2-y,z
loop_
_atom_site_type_symbol
_atom_site_label
_atom_site_fract_x
_atom_site_fract_y
_atom_site_fract_z
Si Si1 0.657121 0.961897 0.866870
Si Si2 0.591431 0.959553 0.749227
Si Si3 0.342087 0.461556 0.367889
Si Si4 0.501508 0.954612 0.936667
Si Si5 0.499620 0.041573 0.436518
Si Si6 0.658350 0.957947 0.134679
Si Si7 0.658912 0.046659 0.371738
Si Si8 0.897634 0.546720 0.252797
O O1 0.750000 0.017444 0.882331
O O2 0.657050 0.750000 0.867795
O O3 0.635824 0.013901 0.804916
O O4 0.582897 0.025804 0.905595
O O5 0.589107 0.750000 0.749192
O O6 0.637374 0.013908 0.694104
O O7 0.496688 0.021915 0.748247
O O8 0.250000 0.518620 0.383967
O O9 0.342218 0.250000 0.368619
O O10 0.416212 0.521796 0.406764
O O11 0.508281 0.750000 0.932535
O O12 0.416856 0.002679 0.905800
O O13 0.500000 0.000000 0.000000
O O14 0.499555 0.250000 0.430323
O O15 0.581662 0.973092 0.405779
O O16 0.500000 0.000000 0.500000
O O17 0.750000 0.019176 0.117390
O O18 0.661291 0.750000 0.138213
O O19 0.637769 0.023166 0.195675
O O20 0.750000 0.970443 0.382722
O O21 0.662861 0.250000 0.385330
O O22 0.638645 0.033682 0.307639
O O23 0.878228 0.750000 0.255563
#
# Coordination Sequence:
#
# PCOD9446305 Si02
#       8
#     8   8   8   8   8   8   8   8
#     4   9  18  33  57  87 113 142 183 230 279 334
#     4  10  17  32  58  85 112 142 181 226 277 339
#     4   9  17  31  55  83 108 137 176 224 272 323
#     4  11  23  39  60  85 115 151 196 241 284 336
#     4  10  21  37  55  78 108 143 186 230 274 325
#     4  10  22  40  60  83 115 154 192 234 288 344
#     4  10  21  38  59  82 110 147 189 230 275 333
#     4  11  21  34  57  87 120 150 181 227 287 344
#
# _framework density 20.959593999999999
#
# number of rings (size 3 to 8) (size 9 to 14) (size 15 to 20)
#    0.000    2.000    2.500    1.500    0.000    4.500 
#    0.000    1.250    0.000    4.875    0.000    0.000 
#    0.000    0.000    0.000    0.000    0.000    0.000 
#
# Total GULP energy -357514.881554 kJ/mol
# GULP energy per Si atom -5586.170024 kJ/mol
# Density = 2.091189 g / cm^3
# Si number density = 20.959594 Si / 1000 Ang^3
#
#
#
# Elastic Constant Matrix: (Units=GPa)
#
#
# Indices 1 2 3 4 5 6 
#
# 1 235.1755 8.0055 113.1957 0.0000 0.0000 0.0000
# 2 8.0055 32.2860 0.8215 0.0000 0.0000 0.0000
# 3 113.1957 0.8215 167.8079 0.0000 0.0000 0.0000
# 4 0.0000 0.0000 0.0000 20.5231 0.0000 0.0000
# 5 0.0000 0.0000 0.0000 0.0000 1.8125 0.0000
# 6 0.0000 0.0000 0.0000 0.0000 0.0000 8.2793
#
#
#
# Elastic Compliance Matrix: (Units=1/GPa)
#
#
# Indices 1 2 3 4 5 6 
#
# 1 0.006365 -0.001469 -0.004287 0.000000 0.000000 0.000000
# 2 -0.001469 0.031316 0.000838 0.000000 0.000000 0.000000
# 3 -0.004287 0.000838 0.008847 0.000000 0.000000 0.000000
# 4 0.000000 0.000000 0.000000 0.048726 0.000000 0.000000
# 5 0.000000 0.000000 0.000000 0.000000 0.551712 0.000000
# 6 0.000000 0.000000 0.000000 0.000000 0.000000 0.120783
#
#
# Mechanical properties :
#
#
# Convention : Reuss Voigt Hill
#
# Bulk Modulus (GPa) = 27.25383 75.47941 51.36662
# Shear Modulus (GPa) = 6.33059 27.00611 16.66835
#
# Velocity S-wave (km/s) = 1.73981 3.59344 2.82310
# Velocity P-wave (km/s) = 4.13124 7.30117 5.93188
#
# Compressibility (1/GPa) = 0.03669208
#
# Stress axis : x y z
#
# Youngs Moduli (GPa) = 157.09888 31.93234 113.03699
#
# Poissons Ratio (x) = 0.04692 0.48455
# Poissons Ratio (y) = 0.23082 -0.09470
# Poissons Ratio (z) = 0.67343 -0.02675
#
# Static dielectric constant tensor:
#      x y z
#    x 1.729390 0.000000 0.000000 
#    y 0.000000 1.777100 0.000000 
#    z 0.000000 0.000000 1.678880 
# 
# From -- ./inp_files/32136.got.cif
#   From: 2010.05.17/outbox.cif.g08.bks.cpg/sg59_17_cif.got.tgz:32136.got - 2010.06.03 14:40:33.
