data_PCOD9446967
_publ_section_title
;
Structure prediction by ZEFSAII (Michael W. Deem and Ramdas Pophale) SiO2 
 PCOD9446967
Probable space group: P M M N
;
_chemical_formula_sum "Si O2"
_cell_formula_units_Z 56
_cell_length_a 17.566362
_cell_length_b 18.457919
_cell_length_c 7.075541
_cell_angle_alpha 90.000000
_cell_angle_beta 90.000000
_cell_angle_gamma 90.000000
_cell_volume 2294.162708
_symmetry_space_group_name_H-M "P M M N"
_symmetry_group_IT_number 59
_space_group.IT_coordinate_system_code '2'
_symmetry_cell_setting 'orthorhombic'
loop_
_space_group_symop_operation_xyz
x,y,z
1/2-x,1/2-y,z
1/2+x,-y,-z
-x,1/2+y,-z
-x,-y,-z
1/2+x,1/2+y,-z
1/2-x,y,z
x,1/2-y,z
loop_
_atom_site_type_symbol
_atom_site_label
_atom_site_fract_x
_atom_site_fract_y
_atom_site_fract_z
Si Si1 0.250000 0.833633 0.882236
Si Si2 0.835242 0.905291 0.051338
Si Si3 0.442178 0.167532 0.505333
Si Si4 0.750000 0.332256 0.576015
Si Si5 0.094297 0.909267 0.427123
Si Si6 0.834702 0.944937 0.619469
Si Si7 0.391020 0.931921 0.876355
Si Si8 0.022107 0.169207 0.050212
O O1 0.250000 0.750000 0.940474
O O2 0.250000 0.833220 0.653027
O O3 0.322773 0.879806 0.940779
O O4 0.750000 0.892831 0.128195
O O5 0.826414 0.909778 0.823554
O O6 0.901381 0.845839 0.068176
O O7 0.867041 0.985026 0.101727
O O8 0.428013 0.250000 0.559663
O O9 0.516884 0.134115 0.604097
O O10 0.371001 0.113221 0.521887
O O11 0.460215 0.169200 0.277290
O O12 0.750000 0.250000 0.637658
O O13 0.828940 0.368793 0.634321
O O14 0.098813 0.919151 0.653407
O O15 0.104318 0.990713 0.354094
O O16 0.750000 0.971483 0.560037
O O17 0.465353 0.898712 0.975421
O O18 0.990725 0.250000 0.009354
#
# Coordination Sequence:
#
# PCOD9446967 Si02
#       8
#     4   8   8   4   8   8   8   8
#     4   9  16  26  45  73  98 121 154 198 243 283
#     4  10  20  33  50  73 102 134 164 198 243 296
#     4   9  18  32  51  75  99 126 166 211 247 282
#     4   9  16  26  45  73  98 121 154 198 243 283
#     4  10  18  31  52  75  98 126 163 207 248 288
#     4  10  20  33  50  73 102 134 164 198 243 296
#     4  10  18  31  52  75  98 126 163 207 248 288
#     4   9  18  32  51  75  99 126 166 211 247 282
#
# _framework density 24.409779
#
# number of rings (size 3 to 8) (size 9 to 14) (size 15 to 20)
#    0.000    2.429    1.429    1.714    0.000    4.000 
#    0.000    2.857    0.000    6.857    0.000    2.000 
#    0.000    0.000    0.000    0.000    0.000    0.000 
#
# Total GULP energy -313160.349105 kJ/mol
# GULP energy per Si atom -5592.149091 kJ/mol
# Density = 2.435422 g / cm^3
# Si number density = 24.409779 Si / 1000 Ang^3
#
#
#
# Elastic Constant Matrix: (Units=GPa)
#
#
# Indices 1 2 3 4 5 6 
#
# 1 116.2843 59.1792 -0.5895 0.0000 0.0000 0.0000
# 2 59.1792 105.6055 -12.0448 0.0000 0.0000 0.0000
# 3 -0.5895 -12.0448 77.9612 0.0000 0.0000 0.0000
# 4 0.0000 0.0000 0.0000 19.0223 0.0000 0.0000
# 5 0.0000 0.0000 0.0000 0.0000 -12.7640 0.0000
# 6 0.0000 0.0000 0.0000 0.0000 0.0000 17.5929
#
#
#
# Elastic Compliance Matrix: (Units=1/GPa)
#
#
# Indices 1 2 3 4 5 6 
#
# 1 0.012103 -0.006893 -0.000973 0.000000 0.000000 0.000000
# 2 -0.006893 0.013565 0.002044 0.000000 0.000000 0.000000
# 3 -0.000973 0.002044 0.013135 0.000000 0.000000 0.000000
# 4 0.000000 0.000000 0.000000 0.052570 0.000000 0.000000
# 5 0.000000 0.000000 0.000000 0.000000 -0.078346 0.000000
# 6 0.000000 0.000000 0.000000 0.000000 0.000000 0.056841
#
#
# Mechanical properties :
#
#
# Convention : Reuss Voigt Hill
#
# Bulk Modulus (GPa) = 36.82272 43.66008 40.24140
# Shear Modulus (GPa) = 55.20791 21.65732 38.43261
#
# Velocity S-wave (km/s) = 4.76091 2.98189 3.97227
# Velocity P-wave (km/s) = 6.73347 5.45717 6.12863
#
# Compressibility (1/GPa) = 0.02715714
#
# Stress axis : x y z
#
# Youngs Moduli (GPa) = 82.62601 73.71877 76.13090
#
# Poissons Ratio (x) = 0.50815 0.07411
# Poissons Ratio (y) = 0.56955 -0.15558
# Poissons Ratio (z) = 0.08043 -0.15065
#
# Static dielectric constant tensor:
#      x y z
#    x 1.937770 0.000000 0.000000 
#    y 0.000000 1.877310 0.000000 
#    z 0.000000 0.000000 2.021260 
# 
# From -- ./inp_files/11470.got.cif
#   From: 2010.05.17/outbox.cif.g08.bks.cpg/sg59_6_cif.got.tgz:11470.got - 2010.06.03 14:40:33.
