data_PCOD9446772
_publ_section_title
;
Structure prediction by ZEFSAII (Michael W. Deem and Ramdas Pophale) SiO2 
 PCOD9446772
Probable space group: P M M N
;
_chemical_formula_sum "Si O2"
_cell_formula_units_Z 64
_cell_length_a 25.277770
_cell_length_b 8.412284
_cell_length_c 15.648336
_cell_angle_alpha 90.000000
_cell_angle_beta 90.000000
_cell_angle_gamma 90.000000
_cell_volume 3327.521320
_symmetry_space_group_name_H-M "P M M N"
_symmetry_group_IT_number 59
_space_group.IT_coordinate_system_code '2'
_symmetry_cell_setting 'orthorhombic'
loop_
_space_group_symop_operation_xyz
x,y,z
1/2-x,1/2-y,z
1/2+x,-y,-z
-x,1/2+y,-z
-x,-y,-z
1/2+x,1/2+y,-z
1/2-x,y,z
x,1/2-y,z
loop_
_atom_site_type_symbol
_atom_site_label
_atom_site_fract_x
_atom_site_fract_y
_atom_site_fract_z
Si Si1 0.504536 0.929181 0.753003
Si Si2 0.381440 0.060069 0.278730
Si Si3 0.345887 0.567907 0.096347
Si Si4 0.310375 0.943567 0.626979
Si Si5 0.613715 0.057329 0.219623
Si Si6 0.807949 0.561362 0.076778
Si Si7 0.188095 0.558381 0.433987
Si Si8 0.953717 0.571665 0.945220
O O1 0.497958 0.750000 0.716172
O O2 0.557831 0.003891 0.712317
O O3 0.445963 0.002315 0.760780
O O4 0.523672 0.914914 0.850342
O O5 0.385854 0.250000 0.269306
O O6 0.352302 0.998861 0.192497
O O7 0.347713 0.016351 0.361178
O O8 0.329297 0.750000 0.100628
O O9 0.404800 0.546418 0.058586
O O10 0.312478 0.478901 0.023947
O O11 0.250000 0.995937 0.642183
O O12 0.309996 0.750000 0.627417
O O13 0.349145 0.994463 0.701866
O O14 0.326217 0.991186 0.530820
O O15 0.610579 0.250000 0.216701
O O16 0.643594 0.006250 0.132903
O O17 0.750000 0.500917 0.107305
O O18 0.809083 0.750000 0.086739
O O19 0.250000 0.518581 0.421090
O O20 0.183661 0.750000 0.429025
O O21 0.062769 0.250000 0.026956
O O22 0.000000 0.500000 0.000000
#
# Coordination Sequence:
#
# PCOD9446772 Si02
#       8
#     8   8   8   8   8   8   8   8
#     4   8  17  31  48  73 104 137 172 214 260 309
#     4  10  20  36  55  77 109 143 176 218 272 329
#     4  11  22  36  54  75 100 135 179 221 264 316
#     4   8  15  29  52  81 108 135 173 223 271 314
#     4  10  18  33  58  82 105 139 184 224 262 313
#     4  11  24  39  53  75 110 145 176 219 275 329
#     4   9  18  34  55  79 106 136 175 221 267 319
#     4  10  18  30  48  72 103 138 177 219 263 309
#
# _framework density 19.233533999999999
#
# number of rings (size 3 to 8) (size 9 to 14) (size 15 to 20)
#    0.000    2.375    0.000    4.875    0.000    3.250 
#    0.000    4.375    0.000    0.750    0.000    0.000 
#    0.000    0.000    0.000    0.000    0.000    0.000 
#
# Total GULP energy -356623.774505 kJ/mol
# GULP energy per Si atom -5572.246477 kJ/mol
# Density = 1.918976 g / cm^3
# Si number density = 19.233534 Si / 1000 Ang^3
#
#
#
# Elastic Constant Matrix: (Units=GPa)
#
#
# Indices 1 2 3 4 5 6 
#
# 1 93.7988 9.9023 59.0301 0.0000 0.0000 0.0000
# 2 9.9023 28.1516 10.1611 0.0000 0.0000 0.0000
# 3 59.0301 10.1611 97.3148 0.0000 0.0000 0.0000
# 4 0.0000 0.0000 0.0000 14.7066 0.0000 0.0000
# 5 0.0000 0.0000 0.0000 0.0000 34.4125 0.0000
# 6 0.0000 0.0000 0.0000 0.0000 0.0000 17.7068
#
#
#
# Elastic Compliance Matrix: (Units=1/GPa)
#
#
# Indices 1 2 3 4 5 6 
#
# 1 0.017399 -0.002401 -0.010303 0.000000 0.000000 0.000000
# 2 -0.002401 0.037244 -0.002432 0.000000 0.000000 0.000000
# 3 -0.010303 -0.002432 0.016780 0.000000 0.000000 0.000000
# 4 0.000000 0.000000 0.000000 0.067997 0.000000 0.000000
# 5 0.000000 0.000000 0.000000 0.000000 0.029059 0.000000
# 6 0.000000 0.000000 0.000000 0.000000 0.000000 0.056476
#
#
# Mechanical properties :
#
#
# Convention : Reuss Voigt Hill
#
# Bulk Modulus (GPa) = 24.30163 41.93915 33.12039
# Shear Modulus (GPa) = 18.59121 22.70993 20.65057
#
# Velocity S-wave (km/s) = 3.11240 3.43993 3.28025
# Velocity P-wave (km/s) = 5.05752 6.13433 5.62177
#
# Compressibility (1/GPa) = 0.04114950
#
# Stress axis : x y z
#
# Youngs Moduli (GPa) = 57.47572 26.84964 59.59589
#
# Poissons Ratio (x) = 0.06447 0.61402
# Poissons Ratio (y) = 0.13801 0.14496
# Poissons Ratio (z) = 0.59218 0.06531
#
# Static dielectric constant tensor:
#      x y z
#    x 1.683220 0.000000 0.000000 
#    y 0.000000 1.687210 0.000000 
#    z 0.000000 0.000000 1.620040 
# 
# From -- ./inp_files/24678.got.cif
#   From: 2010.05.17/outbox.cif.g08.bks.cpg/sg59_13_cif.got.tgz:24678.got - 2010.06.03 14:40:33.
