data_PCOD9446655
_publ_section_title
;
Structure prediction by ZEFSAII (Michael W. Deem and Ramdas Pophale) SiO2 
 PCOD9446655
Probable space group: P M M N
;
_chemical_formula_sum "Si O2"
_cell_formula_units_Z 64
_cell_length_a 31.167818
_cell_length_b 8.784516
_cell_length_c 14.797072
_cell_angle_alpha 90.000000
_cell_angle_beta 90.000000
_cell_angle_gamma 90.000000
_cell_volume 4051.352430
_symmetry_space_group_name_H-M "P M M N"
_symmetry_group_IT_number 59
_space_group.IT_coordinate_system_code '2'
_symmetry_cell_setting 'orthorhombic'
loop_
_space_group_symop_operation_xyz
x,y,z
1/2-x,1/2-y,z
1/2+x,-y,-z
-x,1/2+y,-z
-x,-y,-z
1/2+x,1/2+y,-z
1/2-x,y,z
x,1/2-y,z
loop_
_atom_site_type_symbol
_atom_site_label
_atom_site_fract_x
_atom_site_fract_y
_atom_site_fract_z
Si Si1 0.459276 0.435120 0.444969
Si Si2 0.381242 0.072676 0.937886
Si Si3 0.566160 0.923386 0.246500
Si Si4 0.298973 0.434198 0.658836
Si Si5 0.299260 0.931921 0.859456
Si Si6 0.023200 0.428408 0.239557
Si Si7 0.541976 0.069512 0.949907
Si Si8 0.882611 0.929840 0.433334
O O1 0.500000 0.500000 0.500000
O O2 0.461280 0.250000 0.451461
O O3 0.461566 0.476226 0.339425
O O4 0.414999 0.490489 0.490924
O O5 0.377980 0.250000 0.962349
O O6 0.402684 0.063148 0.838479
O O7 0.334540 0.999419 0.926805
O O8 0.414782 0.990452 0.003311
O O9 0.548275 0.750000 0.245860
O O10 0.591890 0.943160 0.338887
O O11 0.527736 0.041078 0.239037
O O12 0.250000 0.470066 0.632526
O O13 0.302790 0.250000 0.666557
O O14 0.306525 0.502074 0.758530
O O15 0.335107 0.489940 0.588648
O O16 0.250000 0.970360 0.883970
O O17 0.303381 0.750000 0.855920
O O18 0.032258 0.250000 0.227590
O O19 0.041313 0.519056 0.154401
O O20 0.539028 0.250000 0.957860
O O21 0.500000 0.000000 0.000000
O O22 0.877477 0.750000 0.453286
#
# Coordination Sequence:
#
# PCOD9446655 Si02
#       8
#     8   8   8   8   8   8   8   8
#     4  10  20  32  48  69  96 129 167 205 246 293
#     4  11  21  34  52  75 100 132 170 207 250 297
#     4  10  18  29  48  69  97 133 164 200 247 293
#     4   9  16  28  47  69  94 127 166 203 243 293
#     4  10  20  32  47  71 104 137 167 203 248 296
#     4  11  22  34  48  70  98 132 172 211 248 294
#     4  12  24  37  53  73  99 132 168 209 253 303
#     4   9  16  29  46  68  96 128 162 199 243 288
#
# _framework density 15.797193999999999
#
# number of rings (size 3 to 8) (size 9 to 14) (size 15 to 20)
#    0.000    1.750    3.750    2.250    0.000    1.750 
#    0.000    0.625    0.000    0.000    0.000    0.875 
#    0.000    3.000    0.000    0.000    0.000    0.000 
#
# Total GULP energy -356974.222735 kJ/mol
# GULP energy per Si atom -5577.722230 kJ/mol
# Density = 1.576124 g / cm^3
# Si number density = 15.797194 Si / 1000 Ang^3
#
#
#
# Elastic Constant Matrix: (Units=GPa)
#
#
# Indices 1 2 3 4 5 6 
#
# 1 133.1419 45.6746 56.2452 0.0000 0.0000 0.0000
# 2 45.6746 57.1743 41.5995 0.0000 0.0000 0.0000
# 3 56.2452 41.5995 91.2176 0.0000 0.0000 0.0000
# 4 0.0000 0.0000 0.0000 16.1298 0.0000 0.0000
# 5 0.0000 0.0000 0.0000 0.0000 18.5962 0.0000
# 6 0.0000 0.0000 0.0000 0.0000 0.0000 19.0303
#
#
#
# Elastic Compliance Matrix: (Units=1/GPa)
#
#
# Indices 1 2 3 4 5 6 
#
# 1 0.011368 -0.005959 -0.004292 0.000000 0.000000 0.000000
# 2 -0.005959 0.029299 -0.009688 0.000000 0.000000 0.000000
# 3 -0.004292 -0.009688 0.018027 0.000000 0.000000 0.000000
# 4 0.000000 0.000000 0.000000 0.061997 0.000000 0.000000
# 5 0.000000 0.000000 0.000000 0.000000 0.053775 0.000000
# 6 0.000000 0.000000 0.000000 0.000000 0.000000 0.052548
#
#
# Mechanical properties :
#
#
# Convention : Reuss Voigt Hill
#
# Bulk Modulus (GPa) = 53.14151 63.17472 58.15811
# Shear Modulus (GPa) = 18.30403 19.95221 19.12812
#
# Velocity S-wave (km/s) = 3.40764 3.55776 3.48351
# Velocity P-wave (km/s) = 7.01396 7.54684 7.28527
#
# Compressibility (1/GPa) = 0.01881768
#
# Stress axis : x y z
#
# Youngs Moduli (GPa) = 87.96510 34.13063 55.47099
#
# Poissons Ratio (x) = 0.20337 0.23809
# Poissons Ratio (y) = 0.52415 0.53738
# Poissons Ratio (z) = 0.37757 0.33065
#
# Static dielectric constant tensor:
#      x y z
#    x 1.539660 0.000000 0.000000 
#    y 0.000000 1.542050 0.000000 
#    z 0.000000 0.000000 1.516850 
# 
# From -- ./inp_files/25036.got.cif
#   From: 2010.05.17/outbox.cif.g08.bks.cpg/sg59_13_cif.got.tgz:25036.got - 2010.06.03 14:40:33.
