data_PCOD9446653
_publ_section_title
;
Structure prediction by ZEFSAII (Michael W. Deem and Ramdas Pophale) SiO2 
 PCOD9446653
Probable space group: P M M N
;
_chemical_formula_sum "Si O2"
_cell_formula_units_Z 56
_cell_length_a 7.999214
_cell_length_b 33.012945
_cell_length_c 13.833883
_cell_angle_alpha 90.000000
_cell_angle_beta 90.000000
_cell_angle_gamma 90.000000
_cell_volume 3653.218785
_symmetry_space_group_name_H-M "P M M N"
_symmetry_group_IT_number 59
_space_group.IT_coordinate_system_code '2'
_symmetry_cell_setting 'orthorhombic'
loop_
_space_group_symop_operation_xyz
x,y,z
1/2-x,1/2-y,z
1/2+x,-y,-z
-x,1/2+y,-z
-x,-y,-z
1/2+x,1/2+y,-z
1/2-x,y,z
x,1/2-y,z
loop_
_atom_site_type_symbol
_atom_site_label
_atom_site_fract_x
_atom_site_fract_y
_atom_site_fract_z
Si Si1 0.555352 0.146466 0.134040
Si Si2 0.945644 0.984439 0.362687
Si Si3 0.553765 0.022614 0.849051
Si Si4 0.554363 0.934605 0.546237
Si Si5 0.750000 0.796272 0.866499
Si Si6 0.562908 0.148267 0.366392
Si Si7 0.951689 0.441371 0.049914
Si Si8 0.250000 0.203515 0.368499
O O1 0.750000 0.156288 0.110437
O O2 0.418102 0.179695 0.104993
O O3 0.546804 0.142025 0.250506
O O4 0.510736 0.103459 0.086315
O O5 0.750000 0.991221 0.382660
O O6 0.033817 0.027426 0.381208
O O7 0.005556 0.952368 0.443089
O O8 0.968628 0.970380 0.253430
O O9 0.750000 0.030109 0.836760
O O10 0.526193 0.976172 0.882042
O O11 0.492523 0.049034 0.940340
O O12 0.750000 0.924189 0.539145
O O13 0.460519 0.895142 0.583374
O O14 0.750000 0.750000 0.900593
O O15 0.750000 0.795458 0.748984
O O16 0.750000 0.164014 0.384979
O O17 0.416055 0.178788 0.397089
O O18 0.750000 0.446319 0.052944
O O19 0.250000 0.250000 0.402217
#
# Coordination Sequence:
#
# PCOD9446653 Si02
#       8
#     8   8   8   8   4   8   8   4
#     4   9  18  30  45  66  92 121 152 186 223 269
#     4  10  20  31  43  62  90 121 154 193 231 268
#     4  10  19  29  44  63  87 120 154 191 230 266
#     4  10  19  31  46  63  87 121 158 193 230 269
#     4   9  18  30  46  68  91 119 153 187 228 274
#     4  10  18  29  48  69  91 122 155 188 226 272
#     4   9  18  31  44  62  87 118 156 190 225 267
#     4   9  18  32  46  66  97 123 151 191 228 274
#
# _framework density 15.328949
#
# number of rings (size 3 to 8) (size 9 to 14) (size 15 to 20)
#    0.000    2.429    0.714    2.143    1.000    4.000 
#    0.000    2.857    0.000    0.000    0.000    0.000 
#    0.000    2.286    0.000    3.714    0.000    0.286 
#
# Total GULP energy -312183.881722 kJ/mol
# GULP energy per Si atom -5574.712174 kJ/mol
# Density = 1.529406 g / cm^3
# Si number density = 15.328949 Si / 1000 Ang^3
#
#
#
# Elastic Constant Matrix: (Units=GPa)
#
#
# Indices 1 2 3 4 5 6 
#
# 1 75.2714 55.1200 21.1042 0.0000 0.0000 0.0000
# 2 55.1200 103.5033 23.2134 0.0000 0.0000 0.0000
# 3 21.1042 23.2134 52.7473 0.0000 0.0000 0.0000
# 4 0.0000 0.0000 0.0000 16.0599 0.0000 0.0000
# 5 0.0000 0.0000 0.0000 0.0000 15.5106 0.0000
# 6 0.0000 0.0000 0.0000 0.0000 0.0000 19.8245
#
#
#
# Elastic Compliance Matrix: (Units=1/GPa)
#
#
# Indices 1 2 3 4 5 6 
#
# 1 0.022568 -0.011088 -0.004150 0.000000 0.000000 0.000000
# 2 -0.011088 0.016167 -0.002679 0.000000 0.000000 0.000000
# 3 -0.004150 -0.002679 0.021798 0.000000 0.000000 0.000000
# 4 0.000000 0.000000 0.000000 0.062267 0.000000 0.000000
# 5 0.000000 0.000000 0.000000 0.000000 0.064472 0.000000
# 6 0.000000 0.000000 0.000000 0.000000 0.000000 0.050443
#
#
# Mechanical properties :
#
#
# Convention : Reuss Voigt Hill
#
# Bulk Modulus (GPa) = 40.48591 47.82191 44.15391
# Shear Modulus (GPa) = 17.74432 19.08463 18.41447
#
# Velocity S-wave (km/s) = 3.40600 3.53229 3.46972
# Velocity P-wave (km/s) = 6.47584 6.92105 6.70214
#
# Compressibility (1/GPa) = 0.02469995
#
# Stress axis : x y z
#
# Youngs Moduli (GPa) = 44.31010 61.85433 45.87673
#
# Poissons Ratio (x) = 0.68583 0.19039
# Poissons Ratio (y) = 0.49130 0.12289
# Poissons Ratio (z) = 0.18389 0.16569
#
# Static dielectric constant tensor:
#      x y z
#    x 1.539380 0.000000 0.000000 
#    y 0.000000 1.483550 0.000000 
#    z 0.000000 0.000000 1.505300 
# 
# From -- ./inp_files/21800.got.cif
#   From: 2010.05.17/outbox.cif.g08.bks.cpg/sg59_11_cif.got.tgz:21800.got - 2010.06.03 14:40:33.
