data_PCOD9446550
_publ_section_title
;
Structure prediction by ZEFSAII (Michael W. Deem and Ramdas Pophale) SiO2 
 PCOD9446550
Probable space group: P M M N
;
_chemical_formula_sum "Si O2"
_cell_formula_units_Z 56
_cell_length_a 22.031596
_cell_length_b 7.648738
_cell_length_c 15.050185
_cell_angle_alpha 90.000000
_cell_angle_beta 90.000000
_cell_angle_gamma 90.000000
_cell_volume 2536.165453
_symmetry_space_group_name_H-M "P M M N"
_symmetry_group_IT_number 59
_space_group.IT_coordinate_system_code '2'
_symmetry_cell_setting 'orthorhombic'
loop_
_space_group_symop_operation_xyz
x,y,z
1/2-x,1/2-y,z
1/2+x,-y,-z
-x,1/2+y,-z
-x,-y,-z
1/2+x,1/2+y,-z
1/2-x,y,z
x,1/2-y,z
loop_
_atom_site_type_symbol
_atom_site_label
_atom_site_fract_x
_atom_site_fract_y
_atom_site_fract_z
Si Si1 0.680638 0.462227 0.240212
Si Si2 0.443636 0.450586 0.224202
Si Si3 0.179625 0.961885 0.558194
Si Si4 0.063346 0.451643 0.867477
Si Si5 0.250000 0.452298 0.053941
Si Si6 0.135296 0.955095 0.375828
Si Si7 0.383285 0.465840 0.044699
Si Si8 0.250000 0.536502 0.260213
O O1 0.750000 0.512670 0.218242
O O2 0.678010 0.250000 0.237345
O O3 0.667295 0.521822 0.341595
O O4 0.629473 0.534597 0.176218
O O5 0.425691 0.250000 0.231639
O O6 0.513066 0.460527 0.193837
O O7 0.425628 0.528446 0.318734
O O8 0.405232 0.526307 0.141396
O O9 0.250000 0.002825 0.536891
O O10 0.175498 0.750000 0.563666
O O11 0.139203 0.026446 0.475927
O O12 0.045118 0.250000 0.873573
O O13 0.071482 0.523366 0.966977
O O14 0.250000 0.250000 0.025939
O O15 0.250000 0.462831 0.161126
O O16 0.314792 0.527352 0.025263
O O17 0.148126 0.750000 0.385420
O O18 0.190471 0.021665 0.314380
O O19 0.383271 0.250000 0.044802
O O20 0.250000 0.750000 0.253070
#
# Coordination Sequence:
#
# PCOD9446550 Si02
#       8
#     8   8   8   8   4   8   8   4
#     4   9  19  37  60  85 111 140 178 225 273 321
#     4  11  22  38  56  78 109 147 185 223 267 320
#     4   8  14  29  55  83 111 143 177 216 268 325
#     4  11  23  39  58  79 105 143 188 229 271 317
#     4  10  18  34  54  77 110 144 176 213 268 329
#     4  10  18  31  54  84 114 144 179 217 264 322
#     4   9  20  35  56  80 107 143 181 221 269 324
#     4  10  18  28  48  81 116 142 172 219 266 311
#
# _framework density 22.080580000000001
#
# number of rings (size 3 to 8) (size 9 to 14) (size 15 to 20)
#    0.000    2.286    2.143    2.143    1.000    0.286 
#    0.000    5.000    0.000    0.857    0.000    0.000 
#    0.000    0.000    0.000    0.000    0.000    0.000 
#
# Total GULP energy -312653.947818 kJ/mol
# GULP energy per Si atom -5583.106211 kJ/mol
# Density = 2.203032 g / cm^3
# Si number density = 22.080580 Si / 1000 Ang^3
#
#
#
# Elastic Constant Matrix: (Units=GPa)
#
#
# Indices 1 2 3 4 5 6 
#
# 1 73.1501 -4.4913 11.3849 0.0000 0.0000 0.0000
# 2 -4.4913 42.3367 -5.3658 0.0000 0.0000 0.0000
# 3 11.3849 -5.3658 61.2582 0.0000 0.0000 0.0000
# 4 0.0000 0.0000 0.0000 16.2191 0.0000 0.0000
# 5 0.0000 0.0000 0.0000 0.0000 20.8303 0.0000
# 6 0.0000 0.0000 0.0000 0.0000 0.0000 5.2370
#
#
#
# Elastic Compliance Matrix: (Units=1/GPa)
#
#
# Indices 1 2 3 4 5 6 
#
# 1 0.014136 0.001180 -0.002524 0.000000 0.000000 0.000000
# 2 0.001180 0.023984 0.001882 0.000000 0.000000 0.000000
# 3 -0.002524 0.001882 0.016958 0.000000 0.000000 0.000000
# 4 0.000000 0.000000 0.000000 0.061656 0.000000 0.000000
# 5 0.000000 0.000000 0.000000 0.000000 0.048007 0.000000
# 6 0.000000 0.000000 0.000000 0.000000 0.000000 0.190947
#
#
# Mechanical properties :
#
#
# Convention : Reuss Voigt Hill
#
# Bulk Modulus (GPa) = 17.80858 19.97785 18.89321
# Shear Modulus (GPa) = 13.39296 20.13844 16.76570
#
# Velocity S-wave (km/s) = 2.46549 3.02328 2.75852
# Velocity P-wave (km/s) = 4.02339 4.61024 4.32678
#
# Compressibility (1/GPa) = 0.05615271
#
# Stress axis : x y z
#
# Youngs Moduli (GPa) = 70.74259 41.69481 58.96844
#
# Poissons Ratio (x) = -0.04919 0.14883
# Poissons Ratio (y) = -0.08346 -0.11095
# Poissons Ratio (z) = 0.17854 -0.07845
#
# Static dielectric constant tensor:
#      x y z
#    x 1.798890 0.000000 0.000000 
#    y 0.000000 1.868750 0.000000 
#    z 0.000000 0.000000 1.821230 
# 
# From -- ./inp_files/24385.got.cif
#   From: 2010.05.17/outbox.cif.g08.bks.cpg/sg59_13_cif.got.tgz:24385.got - 2010.06.03 14:40:33.
