data_PCOD9446192
_publ_section_title
;
Structure prediction by ZEFSAII (Michael W. Deem and Ramdas Pophale) SiO2 
 PCOD9446192
Probable space group: P M M N
;
_chemical_formula_sum "Si O2"
_cell_formula_units_Z 32
_cell_length_a 5.280830
_cell_length_b 12.801390
_cell_length_c 31.214013
_cell_angle_alpha 90.000000
_cell_angle_beta 90.000000
_cell_angle_gamma 90.000000
_cell_volume 2110.128594
_symmetry_space_group_name_H-M "P M M N"
_symmetry_group_IT_number 59
_space_group.IT_coordinate_system_code '2'
_symmetry_cell_setting 'orthorhombic'
loop_
_space_group_symop_operation_xyz
x,y,z
1/2-x,1/2-y,z
1/2+x,-y,-z
-x,1/2+y,-z
-x,-y,-z
1/2+x,1/2+y,-z
1/2-x,y,z
x,1/2-y,z
loop_
_atom_site_type_symbol
_atom_site_label
_atom_site_fract_x
_atom_site_fract_y
_atom_site_fract_z
Si Si1 0.750000 0.931438 0.447823
Si Si2 0.750000 0.376991 0.702864
Si Si3 0.750000 0.875840 0.969199
Si Si4 0.250000 0.376728 0.650611
Si Si5 0.750000 0.364844 0.503203
Si Si6 0.750000 0.376336 0.800960
Si Si7 0.750000 0.002998 0.057322
Si Si8 0.750000 0.623453 0.145584
O O1 0.750000 0.922403 0.396973
O O2 0.498018 0.879827 0.467497
O O3 0.750000 0.048451 0.466424
O O4 0.750000 0.250000 0.704283
O O5 0.499059 0.407584 0.677101
O O6 0.750000 0.414416 0.751961
O O7 0.750000 0.750000 0.968381
O O8 0.499192 0.925096 0.947655
O O9 0.750000 0.920603 0.017835
O O10 0.250000 0.250000 0.646503
O O11 0.750000 0.250000 0.484358
O O12 0.750000 0.250000 0.798633
O O13 0.498533 0.404681 0.827000
O O14 0.750000 0.937874 0.101046
O O15 0.750000 0.750000 0.138698
#
# Coordination Sequence:
#
# PCOD9446192 Si02
#       8
#     4   4   4   4   4   4   4   4
#     4  10  20  30  45  67  87 118 155 182 217 266
#     4   9  17  27  40  60  87 119 146 173 217 266
#     4  10  20  34  49  67  96 125 153 192 231 264
#     4  10  17  26  41  60  86 115 147 182 212 258
#     4  10  19  32  46  62  90 119 148 187 224 257
#     4   9  17  28  42  62  90 122 150 180 222 267
#     4  10  20  32  49  71  92 123 160 188 222 271
#     4  10  18  29  46  67  94 123 153 186 217 263
#
# _framework density 15.164951
#
# number of rings (size 3 to 8) (size 9 to 14) (size 15 to 20)
#    0.000    2.250    0.000    4.125    0.000    4.000 
#    0.000    3.750    0.000    0.000    0.000    0.000 
#    0.000   20.000    0.000    0.000    0.000    0.000 
#
# Total GULP energy -178449.571511 kJ/mol
# GULP energy per Si atom -5576.549110 kJ/mol
# Density = 1.513044 g / cm^3
# Si number density = 15.164951 Si / 1000 Ang^3
#
#
#
# Elastic Constant Matrix: (Units=GPa)
#
#
# Indices 1 2 3 4 5 6 
#
# 1 168.7731 43.8073 82.9665 0.0000 0.0000 0.0000
# 2 43.8073 76.9390 44.4766 0.0000 0.0000 0.0000
# 3 82.9665 44.4766 151.0730 0.0000 0.0000 0.0000
# 4 0.0000 0.0000 0.0000 -111.9035 0.0000 0.0000
# 5 0.0000 0.0000 0.0000 0.0000 12.7478 0.0000
# 6 0.0000 0.0000 0.0000 0.0000 0.0000 238.3077
#
#
#
# Elastic Compliance Matrix: (Units=1/GPa)
#
#
# Indices 1 2 3 4 5 6 
#
# 1 0.008523 -0.002587 -0.003919 0.000000 0.000000 0.000000
# 2 -0.002587 0.016448 -0.003422 0.000000 0.000000 0.000000
# 3 -0.003919 -0.003422 0.009779 0.000000 0.000000 0.000000
# 4 0.000000 0.000000 0.000000 -0.008936 0.000000 0.000000
# 5 0.000000 0.000000 0.000000 0.000000 0.078445 0.000000
# 6 0.000000 0.000000 0.000000 0.000000 0.000000 0.004196
#
#
# Mechanical properties :
#
#
# Convention : Reuss Voigt Hill
#
# Bulk Modulus (GPa) = 67.13858 82.14287 74.64072
# Shear Modulus (GPa) = 37.51601 42.86606 40.19103
#
# Velocity S-wave (km/s) = 4.97919 5.32240 5.15365
# Velocity P-wave (km/s) = 8.79913 9.59450 9.20541
#
# Compressibility (1/GPa) = 0.01489457
#
# Stress axis : x y z
#
# Youngs Moduli (GPa) = 117.32572 60.79602 102.26091
#
# Poissons Ratio (x) = 0.15731 0.40077
# Poissons Ratio (y) = 0.30357 0.34989
# Poissons Ratio (z) = 0.45981 0.20801
#
# Static dielectric constant tensor:
#      x y z
#    x 1.516730 0.000000 0.000000 
#    y 0.000000 1.478980 0.000000 
#    z 0.000000 0.000000 1.479590 
# 
# From -- ./inp_files/31097.got.cif
#   From: 2010.05.17/outbox.cif.g08.bks.cpg/sg59_16_cif.got.tgz:31097.got - 2010.06.03 14:40:33.
