data_PCOD9446345
_publ_section_title
;
Structure prediction by ZEFSAII (Michael W. Deem and Ramdas Pophale) SiO2 
 PCOD9446345
Probable space group: P M M N
;
_chemical_formula_sum "Si O2"
_cell_formula_units_Z 64
_cell_length_a 9.317109
_cell_length_b 27.440980
_cell_length_c 17.304420
_cell_angle_alpha 90.000000
_cell_angle_beta 90.000000
_cell_angle_gamma 90.000000
_cell_volume 4424.231474
_symmetry_space_group_name_H-M "P M M N"
_symmetry_group_IT_number 59
_space_group.IT_coordinate_system_code '2'
_symmetry_cell_setting 'orthorhombic'
loop_
_space_group_symop_operation_xyz
x,y,z
1/2-x,1/2-y,z
1/2+x,-y,-z
-x,1/2+y,-z
-x,-y,-z
1/2+x,1/2+y,-z
1/2-x,y,z
x,1/2-y,z
loop_
_atom_site_type_symbol
_atom_site_label
_atom_site_fract_x
_atom_site_fract_y
_atom_site_fract_z
Si Si1 0.422129 0.306934 0.583993
Si Si2 0.583693 0.453653 0.611503
Si Si3 0.420611 0.379654 0.718707
Si Si4 0.421648 0.550275 0.977016
Si Si5 0.921421 0.535170 0.827497
Si Si6 0.920057 0.563150 0.651760
Si Si7 0.580138 0.079437 0.856537
Si Si8 0.417340 0.620158 0.528141
O O1 0.250000 0.312101 0.573690
O O2 0.458060 0.250000 0.584268
O O3 0.458314 0.333032 0.665612
O O4 0.502230 0.336491 0.516692
O O5 0.750000 0.448453 0.638506
O O6 0.480488 0.425299 0.669669
O O7 0.551998 0.510715 0.611712
O O8 0.572086 0.426226 0.530105
O O9 0.250000 0.382107 0.725982
O O10 0.493784 0.384396 0.801807
O O11 0.250000 0.543340 0.970967
O O12 0.490678 0.562431 0.894560
O O13 0.500000 0.500000 0.000000
O O14 0.448202 0.584099 0.051744
O O15 0.750000 0.539375 0.841368
O O16 0.953136 0.555054 0.742158
O O17 0.954569 0.477025 0.833181
O O18 0.750000 0.573064 0.644573
O O19 0.008792 0.604089 0.607496
O O20 0.750000 0.085437 0.843803
O O21 0.250000 0.631495 0.538172
#
# Coordination Sequence:
#
# PCOD9446345 Si02
#       8
#     8   8   8   8   8   8   8   8
#     4   9  19  36  52  64  84 113 142 176 222 270
#     4   9  17  30  42  55  84 119 145 175 215 255
#     4  10  18  26  43  68  85 106 145 185 216 254
#     4   9  17  27  39  55  79 113 149 181 212 246
#     4   9  17  28  41  57  81 117 153 181 212 247
#     4  10  18  29  43  58  85 121 150 176 213 258
#     4   9  16  28  41  56  84 117 145 175 215 257
#     4  10  20  30  44  66  86 108 143 183 219 257
#
# _framework density 14.465788999999999
#
# number of rings (size 3 to 8) (size 9 to 14) (size 15 to 20)
#    0.000    2.625    1.250    2.250    0.000    4.750 
#    0.000    0.000    0.000    0.000    0.000    0.000 
#    0.000    1.000    0.000    5.500    0.000    3.750 
#
# Total GULP energy -356471.811970 kJ/mol
# GULP energy per Si atom -5569.872062 kJ/mol
# Density = 1.443286 g / cm^3
# Si number density = 14.465789 Si / 1000 Ang^3
#
#
#
# Elastic Constant Matrix: (Units=GPa)
#
#
# Indices 1 2 3 4 5 6 
#
# 1 50.8824 42.5832 55.4397 0.0000 0.0000 0.0000
# 2 42.5832 65.5649 51.5830 0.0000 0.0000 0.0000
# 3 55.4397 51.5830 97.0643 0.0000 0.0000 0.0000
# 4 0.0000 0.0000 0.0000 11.5764 0.0000 0.0000
# 5 0.0000 0.0000 0.0000 0.0000 29.6920 0.0000
# 6 0.0000 0.0000 0.0000 0.0000 0.0000 15.0285
#
#
#
# Elastic Compliance Matrix: (Units=1/GPa)
#
#
# Indices 1 2 3 4 5 6 
#
# 1 0.068005 -0.023387 -0.026413 0.000000 0.000000 0.000000
# 2 -0.023387 0.034254 -0.004846 0.000000 0.000000 0.000000
# 3 -0.026413 -0.004846 0.027964 0.000000 0.000000 0.000000
# 4 0.000000 0.000000 0.000000 0.086383 0.000000 0.000000
# 5 0.000000 0.000000 0.000000 0.000000 0.033679 0.000000
# 6 0.000000 0.000000 0.000000 0.000000 0.000000 0.066540
#
#
# Mechanical properties :
#
#
# Convention : Reuss Voigt Hill
#
# Bulk Modulus (GPa) = 47.77760 56.96928 52.37344
# Shear Modulus (GPa) = 11.54485 15.51976 13.53231
#
# Velocity S-wave (km/s) = 2.82810 3.27901 3.06186
# Velocity P-wave (km/s) = 6.61543 7.33508 6.98453
#
# Compressibility (1/GPa) = 0.02093031
#
# Stress axis : x y z
#
# Youngs Moduli (GPa) = 14.70487 29.19361 35.76062
#
# Poissons Ratio (x) = 0.68276 0.94455
# Poissons Ratio (y) = 0.34391 0.17328
# Poissons Ratio (z) = 0.38840 0.14146
#
# Static dielectric constant tensor:
#      x y z
#    x 1.482640 0.000000 0.000000 
#    y 0.000000 1.444380 0.000000 
#    z 0.000000 0.000000 1.510540 
# 
# From -- ./inp_files/26517.got.cif
#   From: 2010.05.17/outbox.cif.g08.bks.cpg/sg59_14_cif.got.tgz:26517.got - 2010.06.03 14:40:33.
