data_PCOD9446636
_publ_section_title
;
Structure prediction by ZEFSAII (Michael W. Deem and Ramdas Pophale) SiO2 
 PCOD9446636
Probable space group: P M M N
;
_chemical_formula_sum "Si O2"
_cell_formula_units_Z 48
_cell_length_a 8.600812
_cell_length_b 27.075080
_cell_length_c 12.146771
_cell_angle_alpha 90.000000
_cell_angle_beta 90.000000
_cell_angle_gamma 90.000000
_cell_volume 2828.590297
_symmetry_space_group_name_H-M "P M M N"
_symmetry_group_IT_number 59
_space_group.IT_coordinate_system_code '2'
_symmetry_cell_setting 'orthorhombic'
loop_
_space_group_symop_operation_xyz
x,y,z
1/2-x,1/2-y,z
1/2+x,-y,-z
-x,1/2+y,-z
-x,-y,-z
1/2+x,1/2+y,-z
1/2-x,y,z
x,1/2-y,z
loop_
_atom_site_type_symbol
_atom_site_label
_atom_site_fract_x
_atom_site_fract_y
_atom_site_fract_z
Si Si1 0.064040 0.947643 0.544509
Si Si2 0.432828 0.873627 0.991475
Si Si3 0.933425 0.889252 0.347874
Si Si4 0.061320 0.692962 0.187670
Si Si5 0.431891 0.539735 0.167682
Si Si6 0.938709 0.064836 0.202270
O O1 0.250000 0.950793 0.542998
O O2 0.013851 0.936767 0.669944
O O3 0.009073 0.904442 0.463085
O O4 0.000000 0.000000 0.500000
O O5 0.250000 0.862056 0.976924
O O6 0.496306 0.831133 0.072121
O O7 0.444256 0.923408 0.064748
O O8 0.494560 0.888918 0.871678
O O9 0.750000 0.884570 0.359884
O O10 0.001161 0.841171 0.286844
O O11 0.973858 0.934554 0.266003
O O12 0.250000 0.689667 0.187994
O O13 0.016849 0.750000 0.197584
O O14 0.250000 0.537474 0.198480
O O15 0.497335 0.485545 0.149614
O O16 0.750000 0.063947 0.197847
#
# Coordination Sequence:
#
# PCOD9446636 Si02
#       6
#     8   8   8   8   8   8
#     4  11  21  32  48  70 102 142 180 215 248 294
#     4   8  16  30  47  72 100 127 160 200 249 305
#     4  11  21  33  50  73 102 135 173 213 253 298
#     4   9  18  35  59  81 100 124 158 207 263 310
#     4  10  18  29  47  69  99 133 167 206 246 294
#     4  10  19  30  46  68 100 137 170 202 245 299
#
# _framework density 16.969583
#
# number of rings (size 3 to 8) (size 9 to 14) (size 15 to 20)
#    0.000    2.167    1.667    4.000    0.000    1.000 
#    0.000    3.333    0.000    1.000    0.000    4.667 
#    0.000    0.000    0.000    0.000    0.000    0.000 
#
# Total GULP energy -267587.311120 kJ/mol
# GULP energy per Si atom -5574.735648 kJ/mol
# Density = 1.693096 g / cm^3
# Si number density = 16.969583 Si / 1000 Ang^3
#
#
#
# Elastic Constant Matrix: (Units=GPa)
#
#
# Indices 1 2 3 4 5 6 
#
# 1 27.6682 17.1718 28.6740 0.0000 0.0000 0.0000
# 2 17.1718 103.3528 44.6690 0.0000 0.0000 0.0000
# 3 28.6740 44.6690 71.8871 0.0000 0.0000 0.0000
# 4 0.0000 0.0000 0.0000 14.6647 0.0000 0.0000
# 5 0.0000 0.0000 0.0000 0.0000 12.7705 0.0000
# 6 0.0000 0.0000 0.0000 0.0000 0.0000 19.3571
#
#
#
# Elastic Compliance Matrix: (Units=1/GPa)
#
#
# Indices 1 2 3 4 5 6 
#
# 1 0.061632 0.000526 -0.024910 0.000000 0.000000 0.000000
# 2 0.000526 0.013233 -0.008432 0.000000 0.000000 0.000000
# 3 -0.024910 -0.008432 0.029087 0.000000 0.000000 0.000000
# 4 0.000000 0.000000 0.000000 0.068191 0.000000 0.000000
# 5 0.000000 0.000000 0.000000 0.000000 0.078306 0.000000
# 6 0.000000 0.000000 0.000000 0.000000 0.000000 0.051661
#
#
# Mechanical properties :
#
#
# Convention : Reuss Voigt Hill
#
# Bulk Modulus (GPa) = 26.09742 42.65974 34.37858
# Shear Modulus (GPa) = 13.14012 16.85134 14.99573
#
# Velocity S-wave (km/s) = 2.78570 3.15466 2.97591
# Velocity P-wave (km/s) = 5.07535 6.20183 5.66665
#
# Compressibility (1/GPa) = 0.03831797
#
# Stress axis : x y z
#
# Youngs Moduli (GPa) = 16.22538 75.57081 34.38017
#
# Poissons Ratio (x) = -0.03977 0.85642
# Poissons Ratio (y) = -0.00854 0.28991
# Poissons Ratio (z) = 0.40418 0.63724
#
# Static dielectric constant tensor:
#      x y z
#    x 1.579200 0.000000 0.000000 
#    y 0.000000 1.560790 0.000000 
#    z 0.000000 0.000000 1.612050 
# 
# From -- ./inp_files/14397.got.cif
#   From: 2010.05.17/outbox.cif.g08.bks.cpg/sg59_8_cif.got.tgz:14397.got - 2010.06.03 14:40:33.
