data_PCOD9446977
_publ_section_title
;
Structure prediction by ZEFSAII (Michael W. Deem and Ramdas Pophale) SiO2 
 PCOD9446977
Probable space group: P M M N
;
_chemical_formula_sum "Si O2"
_cell_formula_units_Z 56
_cell_length_a 15.901894
_cell_length_b 8.201742
_cell_length_c 20.743838
_cell_angle_alpha 90.000000
_cell_angle_beta 90.000000
_cell_angle_gamma 90.000000
_cell_volume 2705.478394
_symmetry_space_group_name_H-M "P M M N"
_symmetry_group_IT_number 59
_space_group.IT_coordinate_system_code '2'
_symmetry_cell_setting 'orthorhombic'
loop_
_space_group_symop_operation_xyz
x,y,z
1/2-x,1/2-y,z
1/2+x,-y,-z
-x,1/2+y,-z
-x,-y,-z
1/2+x,1/2+y,-z
1/2-x,y,z
x,1/2-y,z
loop_
_atom_site_type_symbol
_atom_site_label
_atom_site_fract_x
_atom_site_fract_y
_atom_site_fract_z
Si Si1 0.899058 0.556317 0.572870
Si Si2 0.902201 0.057263 0.710871
Si Si3 0.100002 0.447917 0.705374
Si Si4 0.905487 0.551396 0.433904
Si Si5 0.158061 0.449774 0.843830
Si Si6 0.498475 0.057032 0.926732
Si Si7 0.157777 0.442311 0.153612
O O1 0.887919 0.750000 0.578143
O O2 0.867679 0.479199 0.639397
O O3 0.865888 0.501603 0.502436
O O4 0.998725 0.514062 0.568899
O O5 0.898655 0.250000 0.722440
O O6 0.001090 0.008382 0.710879
O O7 0.857830 0.971637 0.770502
O O8 0.103705 0.250000 0.705583
O O9 0.132940 0.499209 0.634873
O O10 0.145463 0.504091 0.769839
O O11 0.909862 0.750000 0.434920
O O12 0.250000 0.498005 0.867681
O O13 0.155316 0.250000 0.843085
O O14 0.081624 0.510283 0.887386
O O15 0.489118 0.250000 0.927543
O O16 0.582561 0.016670 0.887512
O O17 0.500000 0.000000 0.000000
O O18 0.250000 0.508571 0.136491
O O19 0.157160 0.250000 0.141439
#
# Coordination Sequence:
#
# PCOD9446977 Si02
#       7
#     8   8   8   8   8   8   8
#     4   9  15  23  38  66 102 142 187 236 290 341
#     4  10  18  31  52  77 107 147 193 239 289 348
#     4   8  13  25  46  73 103 140 186 234 280 331
#     4   8  14  23  38  63 100 141 186 238 287 341
#     4   9  17  31  55  86 116 146 185 231 278 331
#     4  11  23  41  64  92 122 156 192 231 283 341
#     4  11  24  41  62  89 119 152 193 243 297 352
#
# _framework density 20.698741999999999
#
# number of rings (size 3 to 8) (size 9 to 14) (size 15 to 20)
#    0.000    2.571    1.429    2.571    0.000    2.286 
#    0.000    1.429    0.000    2.143    0.000    4.000 
#    0.000    0.000    0.000    0.000    0.000    0.000 
#
# Total GULP energy -312265.873284 kJ/mol
# GULP energy per Si atom -5576.176309 kJ/mol
# Density = 2.065163 g / cm^3
# Si number density = 20.698742 Si / 1000 Ang^3
#
#
#
# Elastic Constant Matrix: (Units=GPa)
#
#
# Indices 1 2 3 4 5 6 
#
# 1 98.7096 6.6907 66.0959 0.0000 0.0000 0.0000
# 2 6.6907 13.5033 5.3010 0.0000 0.0000 0.0000
# 3 66.0959 5.3010 153.8908 0.0000 0.0000 0.0000
# 4 0.0000 0.0000 0.0000 30.6028 0.0000 0.0000
# 5 0.0000 0.0000 0.0000 0.0000 -9.5089 0.0000
# 6 0.0000 0.0000 0.0000 0.0000 0.0000 11.1730
#
#
#
# Elastic Compliance Matrix: (Units=1/GPa)
#
#
# Indices 1 2 3 4 5 6 
#
# 1 0.014522 -0.004812 -0.006072 0.000000 0.000000 0.000000
# 2 -0.004812 0.076666 -0.000574 0.000000 0.000000 0.000000
# 3 -0.006072 -0.000574 0.009126 0.000000 0.000000 0.000000
# 4 0.000000 0.000000 0.000000 0.032677 0.000000 0.000000
# 5 0.000000 0.000000 0.000000 0.000000 -0.105165 0.000000
# 6 0.000000 0.000000 0.000000 0.000000 0.000000 0.089502
#
#
# Mechanical properties :
#
#
# Convention : Reuss Voigt Hill
#
# Bulk Modulus (GPa) = 12.92021 46.91989 29.92005
# Shear Modulus (GPa) = 30.11286 18.98779 24.55032
#
# Velocity S-wave (km/s) = 3.81834 3.03205 3.44768
# Velocity P-wave (km/s) = 5.06905 5.91396 5.50773
#
# Compressibility (1/GPa) = 0.07739813
#
# Stress axis : x y z
#
# Youngs Moduli (GPa) = 68.85895 13.04365 109.58135
#
# Poissons Ratio (x) = 0.06277 0.66534
# Poissons Ratio (y) = 0.33136 0.06291
# Poissons Ratio (z) = 0.41808 0.00749
#
# Static dielectric constant tensor:
#      x y z
#    x 1.759180 0.000000 0.000000 
#    y 0.000000 1.869360 0.000000 
#    z 0.000000 0.000000 1.771050 
# 
# From -- ./inp_files/30390.got.cif
#   From: 2010.05.17/outbox.cif.g08.bks.cpg/sg59_16_cif.got.tgz:30390.got - 2010.06.03 14:40:33.
