data_PCOD9446788
_publ_section_title
;
Structure prediction by ZEFSAII (Michael W. Deem and Ramdas Pophale) SiO2 
 PCOD9446788
Probable space group: P M M N
;
_chemical_formula_sum "Si O2"
_cell_formula_units_Z 64
_cell_length_a 7.987469
_cell_length_b 20.409779
_cell_length_c 21.311481
_cell_angle_alpha 90.000000
_cell_angle_beta 90.000000
_cell_angle_gamma 90.000000
_cell_volume 3474.250422
_symmetry_space_group_name_H-M "P M M N"
_symmetry_group_IT_number 59
_space_group.IT_coordinate_system_code '2'
_symmetry_cell_setting 'orthorhombic'
loop_
_space_group_symop_operation_xyz
x,y,z
1/2-x,1/2-y,z
1/2+x,-y,-z
-x,1/2+y,-z
-x,-y,-z
1/2+x,1/2+y,-z
1/2-x,y,z
x,1/2-y,z
loop_
_atom_site_type_symbol
_atom_site_label
_atom_site_fract_x
_atom_site_fract_y
_atom_site_fract_z
Si Si1 0.554146 0.677760 0.862127
Si Si2 0.952605 0.537442 0.820606
Si Si3 0.054060 0.822589 0.003103
Si Si4 0.552895 0.954883 0.058708
Si Si5 0.549596 0.821988 0.637215
Si Si6 0.047935 0.958200 0.438863
Si Si7 0.047179 0.822573 0.491614
Si Si8 0.455104 0.037980 0.317859
O O1 0.750000 0.680362 0.844346
O O2 0.481316 0.750000 0.847559
O O3 0.483149 0.611706 0.832175
O O4 0.541903 0.668628 0.937354
O O5 0.750000 0.540276 0.821990
O O6 0.004799 0.515121 0.751323
O O7 0.004974 0.490814 0.877167
O O8 0.250000 0.823010 0.986524
O O9 0.011877 0.750000 0.028160
O O10 0.022314 0.882841 0.048865
O O11 0.750000 0.947783 0.056061
O O12 0.500000 0.000000 0.000000
O O13 0.750000 0.820254 0.646018
O O14 0.483152 0.750000 0.656017
O O15 0.514092 0.830567 0.563154
O O16 0.487745 0.886987 0.671600
O O17 0.250000 0.957008 0.435641
O O18 0.989015 0.883906 0.450500
O O19 0.986658 0.993388 0.375703
O O20 0.000000 0.000000 0.500000
O O21 0.250000 0.823787 0.493195
O O22 0.994565 0.750000 0.470096
O O23 0.250000 0.038548 0.319937
#
# Coordination Sequence:
#
# PCOD9446788 Si02
#       8
#     8   8   8   8   8   8   8   8
#     4   9  17  29  47  72 101 135 174 210 249 304
#     4  10  20  34  51  72 103 141 174 214 260 308
#     4  10  20  34  55  82 109 135 167 212 261 307
#     4  12  23  36  56  80 106 138 176 217 259 307
#     4   9  16  27  45  69  98 131 166 203 245 297
#     4  10  18  30  49  71  96 128 166 211 254 300
#     4   9  17  28  44  68  96 126 162 205 253 300
#     4   9  18  31  47  70 100 133 170 210 256 300
#
# _framework density 18.421239
#
# number of rings (size 3 to 8) (size 9 to 14) (size 15 to 20)
#    0.000    2.250    2.500    1.500    0.000    1.250 
#    0.000    3.750    0.000    0.750    0.000    7.000 
#    0.000    0.000    0.000    0.000    0.000    0.000 
#
# Total GULP energy -356951.181318 kJ/mol
# GULP energy per Si atom -5577.362208 kJ/mol
# Density = 1.837931 g / cm^3
# Si number density = 18.421239 Si / 1000 Ang^3
#
#
#
# Elastic Constant Matrix: (Units=GPa)
#
#
# Indices 1 2 3 4 5 6 
#
# 1 20.4031 2.3623 -3.1925 0.0000 0.0000 0.0000
# 2 2.3623 124.6099 59.4411 0.0000 0.0000 0.0000
# 3 -3.1925 59.4411 101.8560 0.0000 0.0000 0.0000
# 4 0.0000 0.0000 0.0000 23.1165 0.0000 0.0000
# 5 0.0000 0.0000 0.0000 0.0000 15.2567 0.0000
# 6 0.0000 0.0000 0.0000 0.0000 0.0000 14.9884
#
#
#
# Elastic Compliance Matrix: (Units=1/GPa)
#
#
# Indices 1 2 3 4 5 6 
#
# 1 0.049740 -0.002337 0.002923 0.000000 0.000000 0.000000
# 2 -0.002337 0.011231 -0.006627 0.000000 0.000000 0.000000
# 3 0.002923 -0.006627 0.013777 0.000000 0.000000 0.000000
# 4 0.000000 0.000000 0.000000 0.043259 0.000000 0.000000
# 5 0.000000 0.000000 0.000000 0.000000 0.065545 0.000000
# 6 0.000000 0.000000 0.000000 0.000000 0.000000 0.066718
#
#
# Mechanical properties :
#
#
# Convention : Reuss Voigt Hill
#
# Bulk Modulus (GPa) = 15.95796 40.45453 28.20624
# Shear Modulus (GPa) = 17.65278 23.22286 20.43782
#
# Velocity S-wave (km/s) = 3.09898 3.55442 3.33448
# Velocity P-wave (km/s) = 4.63535 6.23328 5.49273
#
# Compressibility (1/GPa) = 0.06266466
#
# Stress axis : x y z
#
# Youngs Moduli (GPa) = 20.10450 89.04191 72.58513
#
# Poissons Ratio (x) = 0.20812 -0.21217
# Poissons Ratio (y) = 0.04699 0.48104
# Poissons Ratio (z) = -0.05877 0.59010
#
# Static dielectric constant tensor:
#      x y z
#    x 1.659650 0.000000 0.000000 
#    y 0.000000 1.667200 0.000000 
#    z 0.000000 0.000000 1.611800 
# 
# From -- ./inp_files/26288.got.cif
#   From: 2010.05.17/outbox.cif.g08.bks.cpg/sg59_14_cif.got.tgz:26288.got - 2010.06.03 14:40:33.
