data_PCOD9446064
_publ_section_title
;
Structure prediction by ZEFSAII (Michael W. Deem and Ramdas Pophale) SiO2 
 PCOD9446064
Probable space group: P N N M
;
_chemical_formula_sum "Si O2"
_cell_formula_units_Z 64
_cell_length_a 15.000000
_cell_length_b 24.000000
_cell_length_c 9.000000
_cell_angle_alpha 90.000000
_cell_angle_beta 90.000000
_cell_angle_gamma 90.000000
_cell_volume 3240.000000
_symmetry_space_group_name_H-M "P N N M"
_symmetry_group_IT_number 58
_symmetry_cell_setting 'orthorhombic'
loop_
_space_group_symop_operation_xyz
x,y,z
-x,-y,z
1/2+x,1/2-y,1/2-z
1/2-x,1/2+y,1/2-z
-x,-y,-z
x,y,-z
1/2-x,1/2+y,1/2+z
1/2+x,1/2-y,1/2+z
loop_
_atom_site_type_symbol
_atom_site_label
_atom_site_fract_x
_atom_site_fract_y
_atom_site_fract_z
Si Si1 0.748358 0.582521 0.676420
Si Si2 0.573902 0.251083 0.674515
Si Si3 0.616496 0.791483 0.323793
Si Si4 0.088131 0.130543 0.674758
Si Si5 0.897710 0.497742 0.319333
Si Si6 0.270181 0.300438 0.173307
Si Si7 0.447604 0.442474 0.332615
Si Si8 0.723184 0.892445 0.821474
O O1 0.756615 0.595516 0.500000
O O2 0.837205 0.550333 0.723338
O O3 0.732482 0.636774 0.772407
O O4 0.657041 0.547607 0.694462
O O5 0.564093 0.266561 0.500000
O O6 0.488865 0.212463 0.711183
O O7 0.574879 0.306256 0.772322
O O8 0.669826 0.222679 0.691949
O O9 0.627039 0.800505 0.500000
O O10 0.661426 0.733709 0.274398
O O11 0.671123 0.837942 0.234884
O O12 0.102250 0.127504 0.500000
O O13 0.177190 0.107263 0.755254
O O14 0.999282 0.097739 0.721810
O O15 0.900818 0.496889 0.500000
O O16 0.839675 0.444010 0.275239
O O17 0.000000 0.500000 0.266214
O O18 0.294718 0.294929 0.000000
O O19 0.500000 0.500000 0.329874
O O20 0.454805 0.418328 0.500000
O O21 0.730602 0.891991 0.000000
#
# Coordination Sequence:
#
# PCOD9446064 Si02
#       8
#     8   8   8   8   8   8   8   8
#     4  10  21  38  62  90 122 159 202 257 309 359
#     4  10  23  41  60  83 120 163 202 246 306 373
#     4  11  23  40  62  91 123 160 205 255 308 365
#     4  12  24  38  61  92 124 159 203 256 308 365
#     4   9  20  39  63  92 122 159 208 255 299 358
#     4  11  23  40  61  88 123 165 203 246 304 367
#     4  10  21  39  63  89 119 162 205 246 308 374
#     4  11  22  39  64  91 123 162 204 254 309 368
#
# _framework density 19.753086
#
# number of rings (size 3 to 8) (size 9 to 14) (size 15 to 20)
#    0.000    1.500    1.250    3.750    1.750    7.250 
#    0.000    2.500    0.000    1.875    0.000    0.000 
#    0.000    0.000    0.000    0.000    0.000    0.000 
#
# Total GULP energy -357562.349194 kJ/mol
# GULP energy per Si atom -5586.911706 kJ/mol
# Density = 1.970813 g / cm^3
# Si number density = 19.753086 Si / 1000 Ang^3
#
#
#
# Elastic Constant Matrix: (Units=GPa)
#
#
# Indices 1 2 3 4 5 6 
#
# 1 63.9749 -21.0539 18.8677 0.0000 0.0000 0.0000
# 2 -21.0539 29.1146 -1.7424 0.0000 0.0000 0.0000
# 3 18.8677 -1.7424 47.4378 0.0000 0.0000 0.0000
# 4 0.0000 0.0000 0.0000 -30.3250 0.0000 0.0000
# 5 0.0000 0.0000 0.0000 0.0000 21.8380 0.0000
# 6 0.0000 0.0000 0.0000 0.0000 0.0000 29.6887
#
#
#
# Elastic Compliance Matrix: (Units=1/GPa)
#
#
# Indices 1 2 3 4 5 6 
#
# 1 0.023697 0.016608 -0.008815 0.000000 0.000000 0.000000
# 2 0.016608 0.046063 -0.004914 0.000000 0.000000 0.000000
# 3 -0.008815 -0.004914 0.024406 0.000000 0.000000 0.000000
# 4 0.000000 0.000000 0.000000 -0.032976 0.000000 0.000000
# 5 0.000000 0.000000 0.000000 0.000000 0.045792 0.000000
# 6 0.000000 0.000000 0.000000 0.000000 0.000000 0.033683
#
#
# Mechanical properties :
#
#
# Convention : Reuss Voigt Hill
#
# Bulk Modulus (GPa) = 10.00751 14.74110 12.37430
# Shear Modulus (GPa) = 29.72419 13.87073 21.79746
#
# Velocity S-wave (km/s) = 3.88337 2.65279 3.32550
# Velocity P-wave (km/s) = 5.01843 4.10633 4.58512
#
# Compressibility (1/GPa) = 0.09992500
#
# Stress axis : x y z
#
# Youngs Moduli (GPa) = 42.20001 21.70929 40.97393
#
# Poissons Ratio (x) = -0.36056 0.36118
# Poissons Ratio (y) = -0.70088 0.20134
# Poissons Ratio (z) = 0.37199 0.10668
#
# Static dielectric constant tensor:
#      x y z
#    x 1.695130 0.000000 0.000000 
#    y 0.000000 1.694900 0.000000 
#    z 0.000000 0.000000 1.669040 
# 
# From -- ./inp_files/6843.got.cif
#   From: 2010.05.17/outbox.ucp.g08.bks.cvg/sg58_4_cif.got.tgz:6843.got - 2010.06.11 16:41:41.
