data_PCOD9446601
_publ_section_title
;
Structure prediction by ZEFSAII (Michael W. Deem and Ramdas Pophale) SiO2 
 PCOD9446601
Probable space group: P M M N
;
_chemical_formula_sum "Si O2"
_cell_formula_units_Z 56
_cell_length_a 7.370202
_cell_length_b 19.477328
_cell_length_c 18.730763
_cell_angle_alpha 90.000000
_cell_angle_beta 90.000000
_cell_angle_gamma 90.000000
_cell_volume 2688.835527
_symmetry_space_group_name_H-M "P M M N"
_symmetry_group_IT_number 59
_space_group.IT_coordinate_system_code '2'
_symmetry_cell_setting 'orthorhombic'
loop_
_space_group_symop_operation_xyz
x,y,z
1/2-x,1/2-y,z
1/2+x,-y,-z
-x,1/2+y,-z
-x,-y,-z
1/2+x,1/2+y,-z
1/2-x,y,z
x,1/2-y,z
loop_
_atom_site_type_symbol
_atom_site_label
_atom_site_fract_x
_atom_site_fract_y
_atom_site_fract_z
Si Si1 0.972365 0.670353 0.320149
Si Si2 0.471831 0.328896 0.090491
Si Si3 0.531541 0.587178 0.770131
Si Si4 0.036041 0.070435 0.803618
Si Si5 0.966925 0.574023 0.035329
Si Si6 0.972067 0.670215 0.632099
Si Si7 0.038917 0.166560 0.523891
O O1 0.750000 0.669056 0.322211
O O2 0.023475 0.750000 0.309979
O O3 0.035983 0.622447 0.255957
O O4 0.035713 0.646054 0.398842
O O5 0.250000 0.329621 0.090611
O O6 0.528415 0.250000 0.093140
O O7 0.530943 0.370894 0.160295
O O8 0.533208 0.368122 0.019320
O O9 0.750000 0.591289 0.769774
O O10 0.483298 0.507798 0.778199
O O11 0.468191 0.622961 0.697335
O O12 0.250000 0.085416 0.808587
O O13 0.961112 0.077026 0.883957
O O14 0.750000 0.581875 0.039535
O O15 0.000000 0.500000 0.000000
O O16 0.750000 0.669754 0.630457
O O17 0.023830 0.750000 0.643319
O O18 0.035997 0.646515 0.553517
O O19 0.250000 0.145763 0.523650
O O20 0.033872 0.250000 0.523990
#
# Coordination Sequence:
#
# PCOD9446601 Si02
#       7
#     8   8   8   8   8   8   8
#     4   8  14  26  44  65  89 117 150 188 228 266
#     4   9  17  29  47  70  90 111 146 190 228 258
#     4  10  18  29  46  67  93 123 150 181 222 269
#     4  10  20  31  46  68  93 120 149 183 224 271
#     4  10  19  32  49  67  89 119 150 183 223 270
#     4   8  13  22  40  66  90 114 151 194 226 255
#     4   7  10  19  37  61  88 115 144 184 230 265
#
# _framework density 20.82686
#
# number of rings (size 3 to 8) (size 9 to 14) (size 15 to 20)
#    0.000    3.143    1.429    2.143    0.000    2.286 
#    0.000    3.571    0.000    3.429    0.000    2.000 
#    0.000    3.429    0.000    0.000    0.000    0.000 
#
# Total GULP energy -312374.429020 kJ/mol
# GULP energy per Si atom -5578.114804 kJ/mol
# Density = 2.077946 g / cm^3
# Si number density = 20.826860 Si / 1000 Ang^3
#
#
#
# Elastic Constant Matrix: (Units=GPa)
#
#
# Indices 1 2 3 4 5 6 
#
# 1 75.0420 -3.8714 10.8978 0.0000 0.0000 0.0000
# 2 -3.8714 114.6789 107.2869 0.0000 0.0000 0.0000
# 3 10.8978 107.2869 260.2565 0.0000 0.0000 0.0000
# 4 0.0000 0.0000 0.0000 32.0739 0.0000 0.0000
# 5 0.0000 0.0000 0.0000 0.0000 -5.8010 0.0000
# 6 0.0000 0.0000 0.0000 0.0000 0.0000 14.0314
#
#
#
# Elastic Compliance Matrix: (Units=1/GPa)
#
#
# Indices 1 2 3 4 5 6 
#
# 1 0.013588 0.001613 -0.001234 0.000000 0.000000 0.000000
# 2 0.001613 0.014386 -0.005998 0.000000 0.000000 0.000000
# 3 -0.001234 -0.005998 0.006367 0.000000 0.000000 0.000000
# 4 0.000000 0.000000 0.000000 0.031178 0.000000 0.000000
# 5 0.000000 0.000000 0.000000 0.000000 -0.172386 0.000000
# 6 0.000000 0.000000 0.000000 0.000000 0.000000 0.071269
#
#
# Mechanical properties :
#
#
# Convention : Reuss Voigt Hill
#
# Bulk Modulus (GPa) = 43.28395 75.40045 59.34220
# Shear Modulus (GPa) = -300.11854 30.43848 -134.84003
#
# Velocity S-wave (km/s) = -12.01726 3.82711 -8.05505
# Velocity P-wave (km/s) = 13.10438 7.47068 7.61294
#
# Compressibility (1/GPa) = 0.02310325
#
# Stress axis : x y z
#
# Youngs Moduli (GPa) = 73.59267 69.51348 157.07073
#
# Poissons Ratio (x) = -0.11214 0.19383
# Poissons Ratio (y) = -0.11872 0.94209
# Poissons Ratio (z) = 0.09081 0.41693
#
# Static dielectric constant tensor:
#      x y z
#    x 1.866100 0.000000 0.000000 
#    y 0.000000 1.676960 0.000000 
#    z 0.000000 0.000000 1.767280 
# 
# From -- ./inp_files/27139.got.cif
#   From: 2010.05.17/outbox.cif.g08.bks.cpg/sg59_14_cif.got.tgz:27139.got - 2010.06.03 14:40:33.
