data_PCOD9446378
_publ_section_title
;
Structure prediction by ZEFSAII (Michael W. Deem and Ramdas Pophale) SiO2 
 PCOD9446378
Probable space group: P M M N
;
_chemical_formula_sum "Si O2"
_cell_formula_units_Z 64
_cell_length_a 14.501064
_cell_length_b 7.863171
_cell_length_c 32.802738
_cell_angle_alpha 90.000000
_cell_angle_beta 90.000000
_cell_angle_gamma 90.000000
_cell_volume 3740.310745
_symmetry_space_group_name_H-M "P M M N"
_symmetry_group_IT_number 59
_space_group.IT_coordinate_system_code '2'
_symmetry_cell_setting 'orthorhombic'
loop_
_space_group_symop_operation_xyz
x,y,z
1/2-x,1/2-y,z
1/2+x,-y,-z
-x,1/2+y,-z
-x,-y,-z
1/2+x,1/2+y,-z
1/2-x,y,z
x,1/2-y,z
loop_
_atom_site_type_symbol
_atom_site_label
_atom_site_fract_x
_atom_site_fract_y
_atom_site_fract_z
Si Si1 0.854510 0.954138 0.482464
Si Si2 0.855679 0.041518 0.058508
Si Si3 0.034148 0.452538 0.438502
Si Si4 0.640201 0.453120 0.967191
Si Si5 0.644432 0.454803 0.641468
Si Si6 0.145436 0.048782 0.180595
Si Si7 0.638225 0.446645 0.730044
Si Si8 0.478370 0.447788 0.108772
O O1 0.750000 0.018314 0.476717
O O2 0.848905 0.750000 0.485726
O O3 0.901239 0.020100 0.524460
O O4 0.929464 0.992364 0.447581
O O5 0.750000 0.990390 0.064713
O O6 0.857371 0.250000 0.058071
O O7 0.925309 0.978066 0.092861
O O8 0.885882 0.989189 0.012873
O O9 0.035912 0.250000 0.440998
O O10 0.077856 0.503443 0.395655
O O11 0.750000 0.479907 0.963302
O O12 0.623721 0.250000 0.964139
O O13 0.587290 0.542036 0.930705
O O14 0.750000 0.515332 0.633676
O O15 0.649291 0.250000 0.645037
O O16 0.610710 0.518911 0.685870
O O17 0.250000 0.977296 0.177253
O O18 0.152894 0.250000 0.172331
O O19 0.075843 0.975248 0.147103
O O20 0.112285 0.029221 0.227123
O O21 0.750000 0.451979 0.728554
O O22 0.609622 0.250000 0.732407
O O23 0.496504 0.250000 0.118653
#
# Coordination Sequence:
#
# PCOD9446378 Si02
#       8
#     8   8   8   8   8   8   8   8
#     4   9  18  32  46  61  88 125 159 188 219 258
#     4   8  15  28  43  58  78 105 137 171 204 238
#     4  10  19  29  44  68  93 117 150 189 225 262
#     4   9  17  28  41  58  81 108 136 165 198 239
#     4   9  17  29  45  65  89 116 146 180 216 256
#     4   9  17  27  38  57  85 109 129 160 204 251
#     4   8  15  28  44  61  82 110 141 169 202 250
#     4  10  18  27  42  62  82 106 136 169 204 244
#
# _framework density 17.110878
#
# number of rings (size 3 to 8) (size 9 to 14) (size 15 to 20)
#    0.000    3.000    0.000    3.000    0.000    3.250 
#    0.000    2.500    0.000    1.125    0.000    0.875 
#    0.000    3.000    0.000    0.000    0.000    0.000 
#
# Total GULP energy -356506.362972 kJ/mol
# GULP energy per Si atom -5570.411921 kJ/mol
# Density = 1.707193 g / cm^3
# Si number density = 17.110878 Si / 1000 Ang^3
#
#
#
# Elastic Constant Matrix: (Units=GPa)
#
#
# Indices 1 2 3 4 5 6 
#
# 1 96.5982 6.2170 73.3914 0.0000 0.0000 0.0000
# 2 6.2170 15.7728 -0.2778 0.0000 0.0000 0.0000
# 3 73.3914 -0.2778 133.7353 0.0000 0.0000 0.0000
# 4 0.0000 0.0000 0.0000 16.2497 0.0000 0.0000
# 5 0.0000 0.0000 0.0000 0.0000 26.3521 0.0000
# 6 0.0000 0.0000 0.0000 0.0000 0.0000 10.3620
#
#
#
# Elastic Compliance Matrix: (Units=1/GPa)
#
#
# Indices 1 2 3 4 5 6 
#
# 1 0.018605 -0.007513 -0.010225 0.000000 0.000000 0.000000
# 2 -0.007513 0.066437 0.004261 0.000000 0.000000 0.000000
# 3 -0.010225 0.004261 0.013098 0.000000 0.000000 0.000000
# 4 0.000000 0.000000 0.000000 0.061539 0.000000 0.000000
# 5 0.000000 0.000000 0.000000 0.000000 0.037948 0.000000
# 6 0.000000 0.000000 0.000000 0.000000 0.000000 0.096507
#
#
# Mechanical properties :
#
#
# Convention : Reuss Voigt Hill
#
# Bulk Modulus (GPa) = 14.04808 44.97417 29.51113
# Shear Modulus (GPa) = 14.50046 21.71113 18.10580
#
# Velocity S-wave (km/s) = 2.91424 3.56596 3.25644
# Velocity P-wave (km/s) = 4.42172 6.57995 5.60568
#
# Compressibility (1/GPa) = 0.07118412
#
# Stress axis : x y z
#
# Youngs Moduli (GPa) = 53.75012 15.05188 76.34841
#
# Poissons Ratio (x) = 0.11309 0.78070
# Poissons Ratio (y) = 0.40384 -0.32534
# Poissons Ratio (z) = 0.54962 -0.06414
#
# Static dielectric constant tensor:
#      x y z
#    x 1.585960 0.000000 0.000000 
#    y 0.000000 1.615630 0.000000 
#    z 0.000000 0.000000 1.597310 
# 
# From -- ./inp_files/33326.got.cif
#   From: 2010.05.17/outbox.cif.g08.bks.cpg/sg59_17_cif.got.tgz:33326.got - 2010.06.03 14:40:33.
