data_PCOD9446573
_publ_section_title
;
Structure prediction by ZEFSAII (Michael W. Deem and Ramdas Pophale) SiO2 
 PCOD9446573
Probable space group: P M M N
;
_chemical_formula_sum "Si O2"
_cell_formula_units_Z 56
_cell_length_a 29.224947
_cell_length_b 8.910745
_cell_length_c 13.732794
_cell_angle_alpha 90.000000
_cell_angle_beta 90.000000
_cell_angle_gamma 90.000000
_cell_volume 3576.239974
_symmetry_space_group_name_H-M "P M M N"
_symmetry_group_IT_number 59
_space_group.IT_coordinate_system_code '2'
_symmetry_cell_setting 'orthorhombic'
loop_
_space_group_symop_operation_xyz
x,y,z
1/2-x,1/2-y,z
1/2+x,-y,-z
-x,1/2+y,-z
-x,-y,-z
1/2+x,1/2+y,-z
1/2-x,y,z
x,1/2-y,z
loop_
_atom_site_type_symbol
_atom_site_label
_atom_site_fract_x
_atom_site_fract_y
_atom_site_fract_z
Si Si1 0.605468 0.570513 0.082667
Si Si2 0.980855 0.928883 0.598126
Si Si3 0.604606 0.425344 0.694177
Si Si4 0.946719 0.074477 0.901574
Si Si5 0.531388 0.070599 0.202261
Si Si6 0.301518 0.069626 0.010760
Si Si7 0.301807 0.568779 0.224636
O O1 0.601975 0.750000 0.090110
O O2 0.580555 0.494213 0.173731
O O3 0.658162 0.527515 0.062988
O O4 0.578374 0.512987 0.987356
O O5 0.980592 0.750000 0.590151
O O6 0.013173 0.970027 0.690311
O O7 0.930101 0.985899 0.625559
O O8 0.000000 0.000000 0.500000
O O9 0.604241 0.250000 0.665642
O O10 0.583734 0.434309 0.803454
O O11 0.656886 0.479491 0.704997
O O12 0.952312 0.250000 0.927116
O O13 0.994873 0.000999 0.872634
O O14 0.530725 0.250000 0.193054
O O15 0.250000 0.029304 0.979227
O O16 0.303529 0.250000 0.022839
O O17 0.309269 0.996544 0.116553
O O18 0.250000 0.527750 0.254743
O O19 0.304328 0.750000 0.218167
#
# Coordination Sequence:
#
# PCOD9446573 Si02
#       7
#     8   8   8   8   8   8   8
#     4  11  20  29  44  65  92 126 160 193 228 267
#     4  10  21  36  54  72  91 117 149 192 240 289
#     4   9  17  29  46  69  96 127 158 190 229 275
#     4  10  18  29  44  64  93 127 159 190 225 263
#     4  10  21  34  47  66  91 119 152 187 227 277
#     4   9  18  30  43  62  91 127 164 198 231 268
#     4   9  16  27  44  67  95 127 162 195 228 267
#
# _framework density 15.658904
#
# number of rings (size 3 to 8) (size 9 to 14) (size 15 to 20)
#    0.000    2.286    1.429    2.143    0.000    3.429 
#    0.000    0.000    0.000    0.000    0.000    1.000 
#    0.000    1.143    0.000    0.000    0.000    0.000 
#
# Total GULP energy -312282.191671 kJ/mol
# GULP energy per Si atom -5576.467708 kJ/mol
# Density = 1.562326 g / cm^3
# Si number density = 15.658904 Si / 1000 Ang^3
#
#
#
# Elastic Constant Matrix: (Units=GPa)
#
#
# Indices 1 2 3 4 5 6 
#
# 1 147.6464 38.8166 55.7040 0.0000 0.0000 0.0000
# 2 38.8166 35.2850 24.4842 0.0000 0.0000 0.0000
# 3 55.7040 24.4842 56.6158 0.0000 0.0000 0.0000
# 4 0.0000 0.0000 0.0000 21.7736 0.0000 0.0000
# 5 0.0000 0.0000 0.0000 0.0000 20.1504 0.0000
# 6 0.0000 0.0000 0.0000 0.0000 0.0000 21.2356
#
#
#
# Elastic Compliance Matrix: (Units=1/GPa)
#
#
# Indices 1 2 3 4 5 6 
#
# 1 0.011897 -0.007094 -0.008637 0.000000 0.000000 0.000000
# 2 -0.007094 0.044722 -0.012361 0.000000 0.000000 0.000000
# 3 -0.008637 -0.012361 0.031506 0.000000 0.000000 0.000000
# 4 0.000000 0.000000 0.000000 0.045927 0.000000 0.000000
# 5 0.000000 0.000000 0.000000 0.000000 0.049627 0.000000
# 6 0.000000 0.000000 0.000000 0.000000 0.000000 0.047091
#
#
# Mechanical properties :
#
#
# Convention : Reuss Voigt Hill
#
# Bulk Modulus (GPa) = 31.30757 53.06186 42.18472
# Shear Modulus (GPa) = 16.80108 20.66809 18.73459
#
# Velocity S-wave (km/s) = 3.27913 3.63698 3.46268
# Velocity P-wave (km/s) = 5.86292 7.18306 6.55630
#
# Compressibility (1/GPa) = 0.03194115
#
# Stress axis : x y z
#
# Youngs Moduli (GPa) = 84.05792 22.36049 31.73957
#
# Poissons Ratio (x) = 0.15863 0.27414
# Poissons Ratio (y) = 0.59631 0.39232
# Poissons Ratio (z) = 0.72601 0.27639
#
# Static dielectric constant tensor:
#      x y z
#    x 1.561550 0.000000 0.000000 
#    y 0.000000 1.522590 0.000000 
#    z 0.000000 0.000000 1.493920 
# 
# From -- ./inp_files/24984.got.cif
#   From: 2010.05.17/outbox.cif.g08.bks.cpg/sg59_13_cif.got.tgz:24984.got - 2010.06.03 14:40:33.
