data_PCOD9446352
_publ_section_title
;
Structure prediction by ZEFSAII (Michael W. Deem and Ramdas Pophale) SiO2 
 PCOD9446352
Probable space group: P M M N
;
_chemical_formula_sum "Si O2"
_cell_formula_units_Z 64
_cell_length_a 8.783396
_cell_length_b 19.097169
_cell_length_c 27.173853
_cell_angle_alpha 90.000000
_cell_angle_beta 90.000000
_cell_angle_gamma 90.000000
_cell_volume 4558.087695
_symmetry_space_group_name_H-M "P M M N"
_symmetry_group_IT_number 59
_space_group.IT_coordinate_system_code '2'
_symmetry_cell_setting 'orthorhombic'
loop_
_space_group_symop_operation_xyz
x,y,z
1/2-x,1/2-y,z
1/2+x,-y,-z
-x,1/2+y,-z
-x,-y,-z
1/2+x,1/2+y,-z
1/2-x,y,z
x,1/2-y,z
loop_
_atom_site_type_symbol
_atom_site_label
_atom_site_fract_x
_atom_site_fract_y
_atom_site_fract_z
Si Si1 0.567755 0.042034 0.046407
Si Si2 0.567113 0.090282 0.604661
Si Si3 0.066933 0.089844 0.896045
Si Si4 0.934253 0.669569 0.490536
Si Si5 0.933012 0.539631 0.547281
Si Si6 0.932190 0.668389 0.302544
Si Si7 0.068147 0.831344 0.196292
Si Si8 0.933472 0.830950 0.002542
O O1 0.750000 0.044084 0.042672
O O2 0.501898 0.119569 0.039905
O O3 0.528424 0.991289 0.092032
O O4 0.500000 0.000000 0.000000
O O5 0.750000 0.094868 0.606093
O O6 0.506273 0.136219 0.558632
O O7 0.498958 0.120614 0.654528
O O8 0.521629 0.009367 0.593013
O O9 0.250000 0.095006 0.891451
O O10 0.990576 0.120815 0.847848
O O11 0.023077 0.135850 0.944320
O O12 0.750000 0.667362 0.485051
O O13 0.980186 0.750000 0.496376
O O14 0.976138 0.620131 0.537083
O O15 0.750000 0.536685 0.545366
O O16 0.000000 0.500000 0.500000
O O17 0.750000 0.664058 0.302405
O O18 0.974789 0.750000 0.311920
O O19 0.995868 0.649632 0.248820
O O20 0.250000 0.835113 0.199874
O O21 0.025405 0.750000 0.186110
O O22 0.750000 0.834597 0.999802
O O23 0.980043 0.750000 0.999502
#
# Coordination Sequence:
#
# PCOD9446352 Si02
#       8
#     8   8   8   8   8   8   8   8
#     4   9  17  28  41  58  81 109 140 172 204 240
#     4  10  18  27  40  57  79 105 132 164 199 233
#     4   9  17  29  43  58  80 111 141 167 200 242
#     4   9  16  26  40  57  78 105 136 164 190 228
#     4   8  15  26  38  54  76 102 130 160 194 229
#     4  10  20  32  44  57  76 104 135 165 197 234
#     4  10  20  31  43  61  82 103 132 170 205 236
#     4   9  17  28  42  61  85 112 141 172 205 241
#
# _framework density 14.040975
#
# number of rings (size 3 to 8) (size 9 to 14) (size 15 to 20)
#    0.000    2.750    0.000    3.000    0.000    7.000 
#    0.000    0.000    0.000    0.000    0.000    0.000 
#    0.000    1.000    0.000    5.250    0.000    2.625 
#
# Total GULP energy -356275.347640 kJ/mol
# GULP energy per Si atom -5566.802307 kJ/mol
# Density = 1.400902 g / cm^3
# Si number density = 14.040975 Si / 1000 Ang^3
#
#
#
# Elastic Constant Matrix: (Units=GPa)
#
#
# Indices 1 2 3 4 5 6 
#
# 1 23.1923 31.8158 31.0368 0.0000 0.0000 0.0000
# 2 31.8158 119.5267 65.7972 0.0000 0.0000 0.0000
# 3 31.0368 65.7972 94.0237 0.0000 0.0000 0.0000
# 4 0.0000 0.0000 0.0000 27.5160 0.0000 0.0000
# 5 0.0000 0.0000 0.0000 0.0000 21.2296 0.0000
# 6 0.0000 0.0000 0.0000 0.0000 0.0000 20.0391
#
#
#
# Elastic Compliance Matrix: (Units=1/GPa)
#
#
# Indices 1 2 3 4 5 6 
#
# 1 0.086505 -0.011886 -0.020237 0.000000 0.000000 0.000000
# 2 -0.011886 0.015242 -0.006743 0.000000 0.000000 0.000000
# 3 -0.020237 -0.006743 0.022034 0.000000 0.000000 0.000000
# 4 0.000000 0.000000 0.000000 0.036342 0.000000 0.000000
# 5 0.000000 0.000000 0.000000 0.000000 0.047104 0.000000
# 6 0.000000 0.000000 0.000000 0.000000 0.000000 0.049902
#
#
# Mechanical properties :
#
#
# Convention : Reuss Voigt Hill
#
# Bulk Modulus (GPa) = 21.71560 54.89359 38.30459
# Shear Modulus (GPa) = 14.27705 20.96314 17.62009
#
# Velocity S-wave (km/s) = 3.19221 3.86812 3.54631
# Velocity P-wave (km/s) = 5.39318 7.68960 6.64140
#
# Compressibility (1/GPa) = 0.04604985
#
# Stress axis : x y z
#
# Youngs Moduli (GPa) = 11.55996 65.60888 45.38362
#
# Poissons Ratio (x) = 0.77982 0.91845
# Poissons Ratio (y) = 0.13740 0.30601
# Poissons Ratio (z) = 0.23394 0.44238
#
# Static dielectric constant tensor:
#      x y z
#    x 1.469750 0.000000 0.000000 
#    y 0.000000 1.496920 0.000000 
#    z 0.000000 0.000000 1.435410 
# 
# From -- ./inp_files/31710.got.cif
#   From: 2010.05.17/outbox.cif.g08.bks.cpg/sg59_16_cif.got.tgz:31710.got - 2010.06.03 14:40:33.
