data_PCOD9446638
_publ_section_title
;
Structure prediction by ZEFSAII (Michael W. Deem and Ramdas Pophale) SiO2 
 PCOD9446638
Probable space group: P M M N
;
_chemical_formula_sum "Si O2"
_cell_formula_units_Z 64
_cell_length_a 8.391062
_cell_length_b 22.377780
_cell_length_c 19.750967
_cell_angle_alpha 90.000000
_cell_angle_beta 90.000000
_cell_angle_gamma 90.000000
_cell_volume 3708.705030
_symmetry_space_group_name_H-M "P M M N"
_symmetry_group_IT_number 59
_space_group.IT_coordinate_system_code '2'
_symmetry_cell_setting 'orthorhombic'
loop_
_space_group_symop_operation_xyz
x,y,z
1/2-x,1/2-y,z
1/2+x,-y,-z
-x,1/2+y,-z
-x,-y,-z
1/2+x,1/2+y,-z
1/2-x,y,z
x,1/2-y,z
loop_
_atom_site_type_symbol
_atom_site_label
_atom_site_fract_x
_atom_site_fract_y
_atom_site_fract_z
Si Si1 0.942426 0.007442 0.319821
Si Si2 0.565952 0.873693 0.345267
Si Si3 0.941866 0.938567 0.965878
Si Si4 0.557166 0.059172 0.459523
Si Si5 0.058755 0.006330 0.168057
Si Si6 0.060637 0.683271 0.474053
Si Si7 0.059877 0.383517 0.900954
Si Si8 0.071839 0.819741 0.218214
O O1 0.750000 0.005905 0.314757
O O2 0.994284 0.941634 0.345321
O O3 0.987432 0.051773 0.380501
O O4 0.007873 0.018500 0.244831
O O5 0.750000 0.872913 0.366429
O O6 0.470435 0.830832 0.395193
O O7 0.548183 0.851913 0.268667
O O8 0.750000 0.937787 0.966957
O O9 0.990044 0.943139 0.887335
O O10 0.994443 0.889697 0.020928
O O11 0.000000 0.000000 0.000000
O O12 0.750000 0.058691 0.463910
O O13 0.498802 0.122935 0.488900
O O14 0.500000 0.000000 0.500000
O O15 0.250000 0.999880 0.165819
O O16 0.983793 0.944745 0.139478
O O17 0.250000 0.685010 0.486315
O O18 0.997155 0.750000 0.490893
O O19 0.250000 0.375982 0.899095
O O20 0.974954 0.332478 0.858587
O O21 0.250000 0.843416 0.231300
O O22 0.069173 0.750000 0.232359
#
# Coordination Sequence:
#
# PCOD9446638 Si02
#       8
#     8   8   8   8   8   8   8   8
#     4  10  20  32  47  71 100 130 163 201 244 292
#     4  11  21  33  50  71  98 131 166 203 241 289
#     4   8  16  28  43  66  92 118 150 186 226 274
#     4  10  20  35  53  72  99 129 163 205 250 299
#     4  10  18  29  47  70  96 125 155 190 235 287
#     4  10  21  36  54  75  98 128 166 207 250 298
#     4  10  18  30  47  66  92 124 158 198 238 282
#     4  11  23  35  46  64  93 129 169 207 240 283
#
# _framework density 17.256698
#
# number of rings (size 3 to 8) (size 9 to 14) (size 15 to 20)
#    0.000    2.000    2.500    1.875    0.000    4.750 
#    0.000    0.000    0.000    0.000    0.000    0.875 
#    0.000    3.000    0.000    0.000    0.000    0.000 
#
# Total GULP energy -356579.865195 kJ/mol
# GULP energy per Si atom -5571.560394 kJ/mol
# Density = 1.721742 g / cm^3
# Si number density = 17.256698 Si / 1000 Ang^3
#
#
#
# Elastic Constant Matrix: (Units=GPa)
#
#
# Indices 1 2 3 4 5 6 
#
# 1 15.6383 7.7917 6.1380 0.0000 0.0000 0.0000
# 2 7.7917 76.1294 38.0988 0.0000 0.0000 0.0000
# 3 6.1380 38.0988 96.0585 0.0000 0.0000 0.0000
# 4 0.0000 0.0000 0.0000 20.6414 0.0000 0.0000
# 5 0.0000 0.0000 0.0000 0.0000 21.5576 0.0000
# 6 0.0000 0.0000 0.0000 0.0000 0.0000 14.6555
#
#
#
# Elastic Compliance Matrix: (Units=1/GPa)
#
#
# Indices 1 2 3 4 5 6 
#
# 1 0.067679 -0.005942 -0.001968 0.000000 0.000000 0.000000
# 2 -0.005942 0.016910 -0.006327 0.000000 0.000000 0.000000
# 3 -0.001968 -0.006327 0.013046 0.000000 0.000000 0.000000
# 4 0.000000 0.000000 0.000000 0.048446 0.000000 0.000000
# 5 0.000000 0.000000 0.000000 0.000000 0.046387 0.000000
# 6 0.000000 0.000000 0.000000 0.000000 0.000000 0.068234
#
#
# Mechanical properties :
#
#
# Convention : Reuss Voigt Hill
#
# Bulk Modulus (GPa) = 14.45917 32.43147 23.44532
# Shear Modulus (GPa) = 16.01388 20.42410 18.21899
#
# Velocity S-wave (km/s) = 3.04958 3.44400 3.25278
# Velocity P-wave (km/s) = 4.56037 5.88636 5.26527
#
# Compressibility (1/GPa) = 0.06916025
#
# Stress axis : x y z
#
# Youngs Moduli (GPa) = 14.77570 59.13616 76.65440
#
# Poissons Ratio (x) = 0.35139 0.15085
# Poissons Ratio (y) = 0.08780 0.48501
# Poissons Ratio (z) = 0.02908 0.37417
#
# Static dielectric constant tensor:
#      x y z
#    x 1.636760 0.000000 0.000000 
#    y 0.000000 1.594570 0.000000 
#    z 0.000000 0.000000 1.610200 
# 
# From -- ./inp_files/26557.got.cif
#   From: 2010.05.17/outbox.cif.g08.bks.cpg/sg59_14_cif.got.tgz:26557.got - 2010.06.03 14:40:33.
