data_PCOD9446075
_publ_section_title
;
Structure prediction by ZEFSAII (Michael W. Deem and Ramdas Pophale) SiO2 
 PCOD9446075
Probable space group: P N N M
;
_chemical_formula_sum "Si O2"
_cell_formula_units_Z 64
_cell_length_a 9.000000
_cell_length_b 15.000000
_cell_length_c 24.000000
_cell_angle_alpha 90.000000
_cell_angle_beta 90.000000
_cell_angle_gamma 90.000000
_cell_volume 3240.000000
_symmetry_space_group_name_H-M "P N N M"
_symmetry_group_IT_number 58
_symmetry_cell_setting 'orthorhombic'
loop_
_space_group_symop_operation_xyz
x,y,z
-x,-y,z
1/2+x,1/2-y,1/2-z
1/2-x,1/2+y,1/2-z
-x,-y,-z
x,y,-z
1/2-x,1/2+y,1/2+z
1/2+x,1/2-y,1/2+z
loop_
_atom_site_type_symbol
_atom_site_label
_atom_site_fract_x
_atom_site_fract_y
_atom_site_fract_z
Si Si1 0.666719 0.207395 0.790721
Si Si2 0.617523 0.426629 0.648102
Si Si3 0.638105 0.942139 0.935278
Si Si4 0.105353 0.271106 0.163510
Si Si5 0.426677 0.245866 0.884757
Si Si6 0.332235 0.118626 0.339451
Si Si7 0.901959 0.911846 0.434722
Si Si8 0.173686 0.497102 0.733915
O O1 0.605090 0.232845 0.730254
O O2 0.536150 0.210698 0.836333
O O3 0.773134 0.288092 0.811252
O O4 0.723660 0.104924 0.780578
O O5 0.500000 0.500000 0.664181
O O6 0.706724 0.460680 0.594528
O O7 0.556801 0.326875 0.641633
O O8 0.741088 0.431264 0.696181
O O9 0.606476 0.838741 0.923389
O O10 0.500000 0.000000 0.912926
O O11 0.650737 0.960945 0.000000
O O12 0.273807 0.280048 0.142405
O O13 0.001082 0.353459 0.147063
O O14 0.501832 0.325075 0.918807
O O15 0.238554 0.095042 0.393900
O O16 0.313719 0.036886 0.296218
O O17 0.862722 0.911337 0.500000
O O18 0.000000 0.000000 0.423455
O O19 0.000000 0.500000 0.720930
#
# Coordination Sequence:
#
# PCOD9446075 Si02
#       8
#     8   8   8   8   8   8   8   8
#     4  11  21  38  59  88 128 167 202 250 303 385
#     4  11  23  38  57  88 127 164 201 247 315 366
#     4  10  21  39  64  90 118 160 215 255 294 360
#     4  11  21  38  57  91 131 157 198 257 309 379
#     4  10  22  39  65  87 125 164 207 253 316 372
#     4  11  24  40  62  95 126 164 208 259 317 376
#     4  10  24  46  68  90 119 163 218 269 315 375
#     4  12  22  37  61  86 125 166 205 245 310 378
#
# _framework density 19.753086
#
# number of rings (size 3 to 8) (size 9 to 14) (size 15 to 20)
#    0.000    1.250    2.500    4.500    1.750    1.750 
#    0.000    3.125    0.000    1.875    0.000    0.000 
#    0.000    0.000    0.000    0.000    0.000    0.000 
#
# Total GULP energy -357271.126538 kJ/mol
# GULP energy per Si atom -5582.361352 kJ/mol
# Density = 1.970813 g / cm^3
# Si number density = 19.753086 Si / 1000 Ang^3
#
#
#
# Elastic Constant Matrix: (Units=GPa)
#
#
# Indices 1 2 3 4 5 6 
#
# 1 56.6398 20.7998 32.5625 0.0000 0.0000 0.0000
# 2 20.7998 85.7771 26.3034 0.0000 0.0000 0.0000
# 3 32.5625 26.3034 89.1736 0.0000 0.0000 0.0000
# 4 0.0000 0.0000 0.0000 92.2568 0.0000 0.0000
# 5 0.0000 0.0000 0.0000 0.0000 29.6358 0.0000
# 6 0.0000 0.0000 0.0000 0.0000 0.0000 15.4566
#
#
#
# Elastic Compliance Matrix: (Units=1/GPa)
#
#
# Indices 1 2 3 4 5 6 
#
# 1 0.023179 -0.003326 -0.007483 0.000000 0.000000 0.000000
# 2 -0.003326 0.013295 -0.002707 0.000000 0.000000 0.000000
# 3 -0.007483 -0.002707 0.014745 0.000000 0.000000 0.000000
# 4 0.000000 0.000000 0.000000 0.010839 0.000000 0.000000
# 5 0.000000 0.000000 0.000000 0.000000 0.033743 0.000000
# 6 0.000000 0.000000 0.000000 0.000000 0.000000 0.064697
#
#
# Mechanical properties :
#
#
# Convention : Reuss Voigt Hill
#
# Bulk Modulus (GPa) = 41.34486 43.43578 42.39032
# Shear Modulus (GPa) = 25.56341 37.59815 31.58078
#
# Velocity S-wave (km/s) = 3.60133 4.36754 4.00281
# Velocity P-wave (km/s) = 6.18620 6.88992 6.54752
#
# Compressibility (1/GPa) = 0.02418681
#
# Stress axis : x y z
#
# Youngs Moduli (GPa) = 43.14298 75.21783 67.81956
#
# Poissons Ratio (x) = 0.25017 0.50749
# Poissons Ratio (y) = 0.14349 0.18359
# Poissons Ratio (z) = 0.32283 0.20362
#
# Static dielectric constant tensor:
#      x y z
#    x 1.749260 0.000000 0.000000 
#    y 0.000000 1.711960 0.000000 
#    z 0.000000 0.000000 1.675100 
# 
# From -- ./inp_files/31636.got.cif
#   From: 2010.05.17/outbox.ucp.g08.bks.cvg/sg58_16_cif.got.tgz:31636.got - 2010.06.11 16:41:41.
