data_PCOD9446271
_publ_section_title
;
Structure prediction by ZEFSAII (Michael W. Deem and Ramdas Pophale) SiO2 
 PCOD9446271
Probable space group: P M M N
;
_chemical_formula_sum "Si O2"
_cell_formula_units_Z 64
_cell_length_a 16.795734
_cell_length_b 23.526883
_cell_length_c 9.337116
_cell_angle_alpha 90.000000
_cell_angle_beta 90.000000
_cell_angle_gamma 90.000000
_cell_volume 3689.573234
_symmetry_space_group_name_H-M "P M M N"
_symmetry_group_IT_number 59
_space_group.IT_coordinate_system_code '2'
_symmetry_cell_setting 'orthorhombic'
loop_
_space_group_symop_operation_xyz
x,y,z
1/2-x,1/2-y,z
1/2+x,-y,-z
-x,1/2+y,-z
-x,-y,-z
1/2+x,1/2+y,-z
1/2-x,y,z
x,1/2-y,z
loop_
_atom_site_type_symbol
_atom_site_label
_atom_site_fract_x
_atom_site_fract_y
_atom_site_fract_z
Si Si1 0.431387 0.607167 0.717782
Si Si2 0.909050 0.874133 0.531019
Si Si3 0.660832 0.114141 0.553783
Si Si4 0.993373 0.366685 0.733757
Si Si5 0.997953 0.682577 0.953684
Si Si6 0.993501 0.002263 0.829510
Si Si7 0.337053 0.182125 0.202320
Si Si8 0.159227 0.483351 0.351500
O O1 0.507573 0.619096 0.615835
O O2 0.358302 0.620740 0.614254
O O3 0.440794 0.646769 0.856497
O O4 0.442472 0.541753 0.764431
O O5 0.856242 0.835301 0.634547
O O6 0.867817 0.935859 0.534606
O O7 0.934916 0.852680 0.375698
O O8 0.750000 0.133545 0.589450
O O9 0.590847 0.140643 0.650953
O O10 0.655922 0.046440 0.584177
O O11 0.002227 0.433578 0.773111
O O12 0.994395 0.332147 0.880248
O O13 0.006472 0.750000 0.928775
O O14 0.910468 0.663515 0.896934
O O15 0.906444 0.981439 0.774465
O O16 0.000000 0.000000 0.000000
O O17 0.250000 0.159854 0.160734
O O18 0.335385 0.250000 0.193430
O O19 0.250000 0.472466 0.305126
#
# Coordination Sequence:
#
# PCOD9446271 Si02
#       8
#     8   8   8   8   8   8   8   8
#     4   9  17  32  52  73  97 129 166 200 238 296
#     4   9  17  29  49  72  97 128 165 200 238 286
#     4   9  18  33  53  75  99 128 163 207 255 300
#     4  10  19  32  51  77 102 129 166 204 249 300
#     4  10  20  34  53  75 100 132 168 207 248 293
#     4  10  17  29  50  74 103 132 163 200 243 299
#     4   9  18  33  51  70  95 132 173 206 240 284
#     4   9  17  29  47  72 101 131 162 200 248 296
#
# _framework density 17.346178999999999
#
# number of rings (size 3 to 8) (size 9 to 14) (size 15 to 20)
#    0.000    2.625    1.250    1.125    0.000    3.500 
#    0.000    4.375    0.000    6.000    0.000    0.000 
#    0.000    0.000    0.000    0.000    0.000    0.000 
#
# Total GULP energy -356445.367397 kJ/mol
# GULP energy per Si atom -5569.458866 kJ/mol
# Density = 1.730670 g / cm^3
# Si number density = 17.346179 Si / 1000 Ang^3
#
#
#
# Elastic Constant Matrix: (Units=GPa)
#
#
# Indices 1 2 3 4 5 6 
#
# 1 80.0766 6.5830 37.6421 0.0000 0.0000 0.0000
# 2 6.5830 21.9158 2.8056 0.0000 0.0000 0.0000
# 3 37.6421 2.8056 105.3448 0.0000 0.0000 0.0000
# 4 0.0000 0.0000 0.0000 13.8724 0.0000 0.0000
# 5 0.0000 0.0000 0.0000 0.0000 18.1041 0.0000
# 6 0.0000 0.0000 0.0000 0.0000 0.0000 14.4753
#
#
#
# Elastic Compliance Matrix: (Units=1/GPa)
#
#
# Indices 1 2 3 4 5 6 
#
# 1 0.015337 -0.003919 -0.005376 0.000000 0.000000 0.000000
# 2 -0.003919 0.046787 0.000154 0.000000 0.000000 0.000000
# 3 -0.005376 0.000154 0.011410 0.000000 0.000000 0.000000
# 4 0.000000 0.000000 0.000000 0.072086 0.000000 0.000000
# 5 0.000000 0.000000 0.000000 0.000000 0.055236 0.000000
# 6 0.000000 0.000000 0.000000 0.000000 0.000000 0.069083
#
#
# Mechanical properties :
#
#
# Convention : Reuss Voigt Hill
#
# Bulk Modulus (GPa) = 18.09882 33.48876 25.79379
# Shear Modulus (GPa) = 16.30594 19.97747 18.14171
#
# Velocity S-wave (km/s) = 3.06932 3.39734 3.23749
# Velocity P-wave (km/s) = 4.79766 5.89383 5.37377
#
# Compressibility (1/GPa) = 0.05525222
#
# Stress axis : x y z
#
# Youngs Moduli (GPa) = 65.20036 21.37367 87.64625
#
# Poissons Ratio (x) = 0.08376 0.47119
# Poissons Ratio (y) = 0.25551 -0.01352
# Poissons Ratio (z) = 0.35052 -0.00330
#
# Static dielectric constant tensor:
#      x y z
#    x 1.612210 0.000000 0.000000 
#    y 0.000000 1.603830 0.000000 
#    z 0.000000 0.000000 1.581020 
# 
# From -- ./inp_files/10792.got.cif
#   From: 2010.05.17/outbox.cif.g08.bks.cpg/sg59_6_cif.got.tgz:10792.got - 2010.06.03 14:40:33.
