data_PCOD9446239
_publ_section_title
;
Structure prediction by ZEFSAII (Michael W. Deem and Ramdas Pophale) SiO2 
 PCOD9446239
Probable space group: P M M N
;
_chemical_formula_sum "Si O2"
_cell_formula_units_Z 64
_cell_length_a 31.619757
_cell_length_b 7.692112
_cell_length_c 15.079737
_cell_angle_alpha 90.000000
_cell_angle_beta 90.000000
_cell_angle_gamma 90.000000
_cell_volume 3667.734533
_symmetry_space_group_name_H-M "P M M N"
_symmetry_group_IT_number 59
_space_group.IT_coordinate_system_code '2'
_symmetry_cell_setting 'orthorhombic'
loop_
_space_group_symop_operation_xyz
x,y,z
1/2-x,1/2-y,z
1/2+x,-y,-z
-x,1/2+y,-z
-x,-y,-z
1/2+x,1/2+y,-z
1/2-x,y,z
x,1/2-y,z
loop_
_atom_site_type_symbol
_atom_site_label
_atom_site_fract_x
_atom_site_fract_y
_atom_site_fract_z
Si Si1 0.115724 0.540646 0.430343
Si Si2 0.620654 0.550462 0.932831
Si Si3 0.297323 0.957976 0.363014
Si Si4 0.575414 0.040387 0.755199
Si Si5 0.044140 0.460248 0.949653
Si Si6 0.702033 0.539335 0.842740
Si Si7 0.540995 0.545216 0.439892
Si Si8 0.476095 0.039143 0.755135
O O1 0.117169 0.750000 0.428330
O O2 0.164105 0.476454 0.423645
O O3 0.093443 0.483438 0.339157
O O4 0.084575 0.493848 0.509832
O O5 0.627416 0.750000 0.961625
O O6 0.598720 0.547066 0.836653
O O7 0.666777 0.472890 0.911426
O O8 0.585420 0.472098 0.998081
O O9 0.250000 0.028968 0.378984
O O10 0.295244 0.750000 0.374791
O O11 0.307845 0.988463 0.259104
O O12 0.581089 0.250000 0.762982
O O13 0.525945 0.003086 0.759130
O O14 0.046555 0.250000 0.949197
O O15 0.043076 0.523471 0.848072
O O16 0.000000 0.500000 0.000000
O O17 0.750000 0.481578 0.861212
O O18 0.701200 0.750000 0.845215
O O19 0.500000 0.500000 0.500000
O O20 0.537848 0.750000 0.429256
O O21 0.539597 0.470685 0.340017
O O22 0.471191 0.250000 0.755730
#
# Coordination Sequence:
#
# PCOD9446239 Si02
#       8
#     8   8   8   8   8   8   8   8
#     4  10  19  31  45  66  93 121 152 185 223 267
#     4  10  19  28  42  67  90 114 152 185 214 255
#     4   9  17  29  46  67  91 120 153 185 219 267
#     4  10  17  28  45  63  90 124 149 176 219 264
#     4  10  19  31  46  64  87 115 148 183 217 261
#     4   9  17  28  41  61  92 121 144 178 222 263
#     4  11  21  33  48  66  88 119 156 189 227 270
#     4   9  18  32  45  59  86 120 150 178 218 262
#
# _framework density 17.449462
#
# number of rings (size 3 to 8) (size 9 to 14) (size 15 to 20)
#    0.000    2.250    3.750    0.375    0.000    1.000 
#    0.000    1.250    0.000    0.000    0.000    0.875 
#    0.000    3.000    0.000    0.000    0.000    0.000 
#
# Total GULP energy -356729.577553 kJ/mol
# GULP energy per Si atom -5573.899649 kJ/mol
# Density = 1.740975 g / cm^3
# Si number density = 17.449462 Si / 1000 Ang^3
#
#
#
# Elastic Constant Matrix: (Units=GPa)
#
#
# Indices 1 2 3 4 5 6 
#
# 1 136.7415 8.7069 72.5840 0.0000 0.0000 0.0000
# 2 8.7069 28.6609 1.3845 0.0000 0.0000 0.0000
# 3 72.5840 1.3845 116.4758 0.0000 0.0000 0.0000
# 4 0.0000 0.0000 0.0000 8.6594 0.0000 0.0000
# 5 0.0000 0.0000 0.0000 0.0000 25.1134 0.0000
# 6 0.0000 0.0000 0.0000 0.0000 0.0000 9.7916
#
#
#
# Elastic Compliance Matrix: (Units=1/GPa)
#
#
# Indices 1 2 3 4 5 6 
#
# 1 0.011191 -0.003064 -0.006937 0.000000 0.000000 0.000000
# 2 -0.003064 0.035750 0.001485 0.000000 0.000000 0.000000
# 3 -0.006937 0.001485 0.012891 0.000000 0.000000 0.000000
# 4 0.000000 0.000000 0.000000 0.115481 0.000000 0.000000
# 5 0.000000 0.000000 0.000000 0.000000 0.039819 0.000000
# 6 0.000000 0.000000 0.000000 0.000000 0.000000 0.102129
#
#
# Mechanical properties :
#
#
# Convention : Reuss Voigt Hill
#
# Bulk Modulus (GPa) = 23.36583 49.69210 36.52896
# Shear Modulus (GPa) = 14.34473 21.99307 18.16890
#
# Velocity S-wave (km/s) = 2.87029 3.55404 3.23031
# Velocity P-wave (km/s) = 4.94008 6.73656 5.90701
#
# Compressibility (1/GPa) = 0.04279754
#
# Stress axis : x y z
#
# Youngs Moduli (GPa) = 89.36135 27.97209 77.57449
#
# Poissons Ratio (x) = 0.08572 0.53815
# Poissons Ratio (y) = 0.27384 -0.11518
# Poissons Ratio (z) = 0.61991 -0.04153
#
# Static dielectric constant tensor:
#      x y z
#    x 1.598290 0.000000 0.000000 
#    y 0.000000 1.648430 0.000000 
#    z 0.000000 0.000000 1.584360 
# 
# From -- ./inp_files/25006.got.cif
#   From: 2010.05.17/outbox.cif.g08.bks.cpg/sg59_13_cif.got.tgz:25006.got - 2010.06.03 14:40:33.
