data_PCOD9446660
_publ_section_title
;
Structure prediction by ZEFSAII (Michael W. Deem and Ramdas Pophale) SiO2 
 PCOD9446660
Probable space group: P M M N
;
_chemical_formula_sum "Si O2"
_cell_formula_units_Z 48
_cell_length_a 21.862929
_cell_length_b 19.701211
_cell_length_c 5.118326
_cell_angle_alpha 90.000000
_cell_angle_beta 90.000000
_cell_angle_gamma 90.000000
_cell_volume 2204.596992
_symmetry_space_group_name_H-M "P M M N"
_symmetry_group_IT_number 59
_space_group.IT_coordinate_system_code '2'
_symmetry_cell_setting 'orthorhombic'
loop_
_space_group_symop_operation_xyz
x,y,z
1/2-x,1/2-y,z
1/2+x,-y,-z
-x,1/2+y,-z
-x,-y,-z
1/2+x,1/2+y,-z
1/2-x,y,z
x,1/2-y,z
loop_
_atom_site_type_symbol
_atom_site_label
_atom_site_fract_x
_atom_site_fract_y
_atom_site_fract_z
Si Si1 0.317035 0.081681 0.491316
Si Si2 0.680232 0.333103 0.473253
Si Si3 0.469121 0.374385 0.097578
Si Si4 0.893719 0.331909 0.970939
Si Si5 0.342041 0.326390 0.989289
Si Si6 0.053246 0.048740 0.596720
O O1 0.250000 0.049376 0.509060
O O2 0.322310 0.122716 0.220164
O O3 0.375876 0.033158 0.531512
O O4 0.323574 0.138083 0.719386
O O5 0.750000 0.354983 0.516531
O O6 0.680954 0.250000 0.478098
O O7 0.653188 0.353868 0.195627
O O8 0.633369 0.355713 0.696467
O O9 0.538135 0.355093 0.035327
O O10 0.415828 0.324140 0.007650
O O11 0.459683 0.386874 0.405702
O O12 0.453805 0.437651 0.904380
O O13 0.894647 0.250000 0.968095
O O14 0.318779 0.250000 0.016011
O O15 0.000000 0.000000 0.500000
#
# Coordination Sequence:
#
# PCOD9446660 Si02
#       6
#     8   8   8   8   8   8
#     4  10  21  35  54  80 107 142 184 218 259 320
#     4   9  17  28  43  65  94 133 174 203 237 291
#     4  10  20  34  53  79 103 131 174 215 259 314
#     4  10  18  29  48  72 101 134 164 204 255 310
#     4  10  20  33  51  79 117 149 172 208 255 311
#     4  10  21  38  58  76  99 133 175 226 270 306
#
# _framework density 21.772687999999999
#
# number of rings (size 3 to 8) (size 9 to 14) (size 15 to 20)
#    0.000    2.167    0.000    3.500    0.000    4.000 
#    0.000    5.000    0.000    6.000    0.000    0.000 
#    0.000    0.000    0.000    0.000    0.000    0.000 
#
# Total GULP energy -267854.951479 kJ/mol
# GULP energy per Si atom -5580.311489 kJ/mol
# Density = 2.172313 g / cm^3
# Si number density = 21.772688 Si / 1000 Ang^3
#
#
#
# Elastic Constant Matrix: (Units=GPa)
#
#
# Indices 1 2 3 4 5 6 
#
# 1 163.9158 18.7764 -13.2881 0.0000 0.0000 0.0000
# 2 18.7764 13.8992 -2.8907 0.0000 0.0000 0.0000
# 3 -13.2881 -2.8907 87.0578 0.0000 0.0000 0.0000
# 4 0.0000 0.0000 0.0000 8.0969 0.0000 0.0000
# 5 0.0000 0.0000 0.0000 0.0000 14.0072 0.0000
# 6 0.0000 0.0000 0.0000 0.0000 0.0000 -46.4527
#
#
#
# Elastic Compliance Matrix: (Units=1/GPa)
#
#
# Indices 1 2 3 4 5 6 
#
# 1 0.007271 -0.009658 0.000789 0.000000 0.000000 0.000000
# 2 -0.009658 0.085276 0.001357 0.000000 0.000000 0.000000
# 3 0.000789 0.001357 0.011652 0.000000 0.000000 0.000000
# 4 0.000000 0.000000 0.000000 0.123504 0.000000 0.000000
# 5 0.000000 0.000000 0.000000 0.000000 0.071392 0.000000
# 6 0.000000 0.000000 0.000000 0.000000 0.000000 -0.021527
#
#
# Mechanical properties :
#
#
# Convention : Reuss Voigt Hill
#
# Bulk Modulus (GPa) = 11.21383 30.00755 20.61069
# Shear Modulus (GPa) = 15.51271 12.61531 14.06401
#
# Velocity S-wave (km/s) = 2.67214 2.40971 2.54431
# Velocity P-wave (km/s) = 3.83171 4.64267 4.25655
#
# Compressibility (1/GPa) = 0.08917562
#
# Stress axis : x y z
#
# Youngs Moduli (GPa) = 137.53262 11.72664 85.82113
#
# Poissons Ratio (x) = 0.11326 -0.06772
# Poissons Ratio (y) = 1.32832 -0.11649
# Poissons Ratio (z) = -0.10853 -0.01592
#
# Static dielectric constant tensor:
#      x y z
#    x 1.813330 0.000000 0.000000 
#    y 0.000000 1.829480 0.000000 
#    z 0.000000 0.000000 1.766460 
# 
# From -- ./inp_files/2858.got.cif
#   From: 2010.05.17/outbox.cif.g08.bks.cpg/sg59_2_cif.got.tgz:2858.got - 2010.06.03 14:40:33.
