data_PCOD9446727
_publ_section_title
;
Structure prediction by ZEFSAII (Michael W. Deem and Ramdas Pophale) SiO2 
 PCOD9446727
Probable space group: P M M N
;
_chemical_formula_sum "Si O2"
_cell_formula_units_Z 56
_cell_length_a 21.227664
_cell_length_b 9.269859
_cell_length_c 18.117090
_cell_angle_alpha 90.000000
_cell_angle_beta 90.000000
_cell_angle_gamma 90.000000
_cell_volume 3565.034811
_symmetry_space_group_name_H-M "P M M N"
_symmetry_group_IT_number 59
_space_group.IT_coordinate_system_code '2'
_symmetry_cell_setting 'orthorhombic'
loop_
_space_group_symop_operation_xyz
x,y,z
1/2-x,1/2-y,z
1/2+x,-y,-z
-x,1/2+y,-z
-x,-y,-z
1/2+x,1/2+y,-z
1/2-x,y,z
x,1/2-y,z
loop_
_atom_site_type_symbol
_atom_site_label
_atom_site_fract_x
_atom_site_fract_y
_atom_site_fract_z
Si Si1 0.450033 0.579583 0.098743
Si Si2 0.913640 0.416453 0.443340
Si Si3 0.064792 0.084083 0.412100
Si Si4 0.593437 0.919948 0.042532
Si Si5 0.674855 0.080930 0.162474
Si Si6 0.891631 0.579672 0.296287
Si Si7 0.541293 0.419976 0.733079
O O1 0.435749 0.750000 0.089866
O O2 0.524326 0.562653 0.080012
O O3 0.439716 0.538819 0.183911
O O4 0.412788 0.486203 0.039040
O O5 0.893232 0.250000 0.443483
O O6 0.904397 0.492700 0.522032
O O7 0.884209 0.506169 0.376114
O O8 0.989313 0.417099 0.428451
O O9 0.085344 0.250000 0.413199
O O10 0.072041 0.011561 0.332259
O O11 0.607598 0.750000 0.040895
O O12 0.642625 0.005659 0.092369
O O13 0.750000 0.069682 0.158572
O O14 0.657395 0.250000 0.165279
O O15 0.649162 0.000421 0.234900
O O16 0.877798 0.750000 0.298752
O O17 0.965434 0.564098 0.273984
O O18 0.554613 0.250000 0.722320
#
# Coordination Sequence:
#
# PCOD9446727 Si02
#       7
#     8   8   8   8   8   8   8
#     4   9  17  30  46  67  93 121 151 188 232 283
#     4   9  16  26  39  57  83 117 150 181 219 262
#     4   9  16  24  36  58  85 116 151 183 216 255
#     4  10  19  32  48  68  89 117 154 192 235 279
#     4  11  23  36  49  66  90 121 157 196 237 281
#     4  10  18  30  46  64  86 115 153 192 229 271
#     4   9  16  27  42  62  90 120 150 184 225 274
#
# _framework density 15.708121999999999
#
# number of rings (size 3 to 8) (size 9 to 14) (size 15 to 20)
#    0.000    2.429    1.429    2.143    0.000    6.286 
#    0.000    0.000    0.000    0.000    0.000    0.000 
#    0.000    1.143    0.000   10.000    0.000    5.857 
#
# Total GULP energy -312222.673372 kJ/mol
# GULP energy per Si atom -5575.404882 kJ/mol
# Density = 1.567237 g / cm^3
# Si number density = 15.708122 Si / 1000 Ang^3
#
#
#
# Elastic Constant Matrix: (Units=GPa)
#
#
# Indices 1 2 3 4 5 6 
#
# 1 24.6073 40.7580 30.3162 0.0000 0.0000 0.0000
# 2 40.7580 142.1294 103.4999 0.0000 0.0000 0.0000
# 3 30.3162 103.4999 172.7001 0.0000 0.0000 0.0000
# 4 0.0000 0.0000 0.0000 34.0463 0.0000 0.0000
# 5 0.0000 0.0000 0.0000 0.0000 5.2799 0.0000
# 6 0.0000 0.0000 0.0000 0.0000 0.0000 14.5335
#
#
#
# Elastic Compliance Matrix: (Units=1/GPa)
#
#
# Indices 1 2 3 4 5 6 
#
# 1 0.077429 -0.021836 -0.000506 0.000000 0.000000 0.000000
# 2 -0.021836 0.018642 -0.007339 0.000000 0.000000 0.000000
# 3 -0.000506 -0.007339 0.010278 0.000000 0.000000 0.000000
# 4 0.000000 0.000000 0.000000 0.029372 0.000000 0.000000
# 5 0.000000 0.000000 0.000000 0.000000 0.189399 0.000000
# 6 0.000000 0.000000 0.000000 0.000000 0.000000 0.068806
#
#
# Mechanical properties :
#
#
# Convention : Reuss Voigt Hill
#
# Bulk Modulus (GPa) = 21.28240 76.50945 48.89592
# Shear Modulus (GPa) = 10.66213 21.76280 16.21246
#
# Velocity S-wave (km/s) = 2.60814 3.72620 3.21613
# Velocity P-wave (km/s) = 4.75898 8.20521 6.70721
#
# Compressibility (1/GPa) = 0.04698719
#
# Stress axis : x y z
#
# Youngs Moduli (GPa) = 12.91505 53.64219 97.29936
#
# Poissons Ratio (x) = 1.17132 0.04922
# Poissons Ratio (y) = 0.28201 0.71409
# Poissons Ratio (z) = 0.00653 0.39369
#
# Static dielectric constant tensor:
#      x y z
#    x 1.487280 0.000000 0.000000 
#    y 0.000000 1.523710 0.000000 
#    z 0.000000 0.000000 1.521420 
# 
# From -- ./inp_files/25987.got.cif
#   From: 2010.05.17/outbox.cif.g08.bks.cpg/sg59_13_cif.got.tgz:25987.got - 2010.06.03 14:40:33.
