data_PCOD9446454
_publ_section_title
;
Structure prediction by ZEFSAII (Michael W. Deem and Ramdas Pophale) SiO2 
 PCOD9446454
Probable space group: P M M N
;
_chemical_formula_sum "Si O2"
_cell_formula_units_Z 64
_cell_length_a 7.522902
_cell_length_b 20.936840
_cell_length_c 20.375541
_cell_angle_alpha 90.000000
_cell_angle_beta 90.000000
_cell_angle_gamma 90.000000
_cell_volume 3209.265794
_symmetry_space_group_name_H-M "P M M N"
_symmetry_group_IT_number 59
_space_group.IT_coordinate_system_code '2'
_symmetry_cell_setting 'orthorhombic'
loop_
_space_group_symop_operation_xyz
x,y,z
1/2-x,1/2-y,z
1/2+x,-y,-z
-x,1/2+y,-z
-x,-y,-z
1/2+x,1/2+y,-z
1/2-x,y,z
x,1/2-y,z
loop_
_atom_site_type_symbol
_atom_site_label
_atom_site_fract_x
_atom_site_fract_y
_atom_site_fract_z
Si Si1 0.466893 0.178495 0.108883
Si Si2 0.539855 0.888040 0.385406
Si Si3 0.964553 0.966670 0.658813
Si Si4 0.962893 0.927165 0.521946
Si Si5 0.032160 0.058228 0.193089
Si Si6 0.535695 0.678544 0.042507
Si Si7 0.459591 0.920316 0.154846
Si Si8 0.542492 0.180357 0.743038
O O1 0.250000 0.177891 0.109056
O O2 0.521653 0.250000 0.129191
O O3 0.528212 0.121367 0.155224
O O4 0.520780 0.169212 0.032930
O O5 0.750000 0.877383 0.387988
O O6 0.468846 0.886363 0.460172
O O7 0.464998 0.839158 0.332777
O O8 0.509597 0.959610 0.357137
O O9 0.750000 0.963483 0.659252
O O10 0.029118 0.924435 0.596800
O O11 0.025141 0.946559 0.730948
O O12 0.750000 0.918224 0.524006
O O13 0.000000 0.000000 0.500000
O O14 0.250000 0.060522 0.192849
O O15 0.972675 0.992694 0.157436
O O16 0.750000 0.679532 0.043359
O O17 0.475683 0.750000 0.064175
O O18 0.479364 0.621076 0.089278
O O19 0.250000 0.927654 0.168126
O O20 0.536896 0.876064 0.212858
O O21 0.750000 0.184108 0.761420
O O22 0.462419 0.250000 0.754636
#
# Coordination Sequence:
#
# PCOD9446454 Si02
#       8
#     8   8   8   8   8   8   8   8
#     4   8  15  29  48  70  94 119 150 187 228 280
#     4  10  18  28  43  66  94 120 153 195 235 273
#     4   9  15  28  47  66  92 123 153 186 228 275
#     4   8  15  25  41  64  88 116 148 183 222 267
#     4   9  16  27  47  70  93 122 153 190 233 273
#     4   9  18  32  48  66  92 125 156 187 227 275
#     4  10  19  31  47  69  93 118 154 197 235 272
#     4  10  20  33  47  63  88 126 165 195 230 280
#
# _framework density 19.942254999999999
#
# number of rings (size 3 to 8) (size 9 to 14) (size 15 to 20)
#    0.000    2.875    1.250    1.500    0.000    2.500 
#    0.000    0.000    0.000    1.500    0.000    3.500 
#    0.000    0.000    0.000    0.000    0.000    0.000 
#
# Total GULP energy -356698.460314 kJ/mol
# GULP energy per Si atom -5573.413442 kJ/mol
# Density = 1.989687 g / cm^3
# Si number density = 19.942255 Si / 1000 Ang^3
#
#
#
# Elastic Constant Matrix: (Units=GPa)
#
#
# Indices 1 2 3 4 5 6 
#
# 1 49.5184 4.0230 -3.6816 0.0000 0.0000 0.0000
# 2 4.0230 136.0104 80.5499 0.0000 0.0000 0.0000
# 3 -3.6816 80.5499 109.1721 0.0000 0.0000 0.0000
# 4 0.0000 0.0000 0.0000 -3.4267 0.0000 0.0000
# 5 0.0000 0.0000 0.0000 0.0000 12.2687 0.0000
# 6 0.0000 0.0000 0.0000 0.0000 0.0000 7.3622
#
#
#
# Elastic Compliance Matrix: (Units=1/GPa)
#
#
# Indices 1 2 3 4 5 6 
#
# 1 0.020491 -0.001803 0.002022 0.000000 0.000000 0.000000
# 2 -0.001803 0.013217 -0.009813 0.000000 0.000000 0.000000
# 3 0.002022 -0.009813 0.016468 0.000000 0.000000 0.000000
# 4 0.000000 0.000000 0.000000 -0.291828 0.000000 0.000000
# 5 0.000000 0.000000 0.000000 0.000000 0.081509 0.000000
# 6 0.000000 0.000000 0.000000 0.000000 0.000000 0.135829
#
#
# Mechanical properties :
#
#
# Convention : Reuss Voigt Hill
#
# Bulk Modulus (GPa) = 32.27104 50.72038 41.49571
# Shear Modulus (GPa) = 960.64029 17.49481 489.06755
#
# Velocity S-wave (km/s) = 21.97173 2.96509 15.67719
# Velocity P-wave (km/s) = 25.68838 6.10010 18.66955
#
# Compressibility (1/GPa) = 0.03098754
#
# Stress axis : x y z
#
# Youngs Moduli (GPa) = 48.80118 75.65911 60.72330
#
# Poissons Ratio (x) = 0.13644 -0.12276
# Poissons Ratio (y) = 0.08801 0.59586
# Poissons Ratio (z) = -0.09866 0.74243
#
# Static dielectric constant tensor:
#      x y z
#    x 1.742710 0.000000 0.000000 
#    y 0.000000 1.690890 0.000000 
#    z 0.000000 0.000000 1.731490 
# 
# From -- ./inp_files/29770.got.cif
#   From: 2010.05.17/outbox.cif.g08.bks.cpg/sg59_15_cif.got.tgz:29770.got - 2010.06.03 14:40:33.
