data_PCOD9446972
_publ_section_title
;
Structure prediction by ZEFSAII (Michael W. Deem and Ramdas Pophale) SiO2 
 PCOD9446972
Probable space group: P M M N
;
_chemical_formula_sum "Si O2"
_cell_formula_units_Z 64
_cell_length_a 17.545624
_cell_length_b 8.580769
_cell_length_c 23.764201
_cell_angle_alpha 90.000000
_cell_angle_beta 90.000000
_cell_angle_gamma 90.000000
_cell_volume 3577.818010
_symmetry_space_group_name_H-M "P M M N"
_symmetry_group_IT_number 59
_space_group.IT_coordinate_system_code '2'
_symmetry_cell_setting 'orthorhombic'
loop_
_space_group_symop_operation_xyz
x,y,z
1/2-x,1/2-y,z
1/2+x,-y,-z
-x,1/2+y,-z
-x,-y,-z
1/2+x,1/2+y,-z
1/2-x,y,z
x,1/2-y,z
loop_
_atom_site_type_symbol
_atom_site_label
_atom_site_fract_x
_atom_site_fract_y
_atom_site_fract_z
Si Si1 0.559304 0.064219 0.136621
Si Si2 0.163083 0.562892 0.432932
Si Si3 0.484829 0.563380 0.244418
Si Si4 0.338569 0.063166 0.954705
Si Si5 0.486020 0.064970 0.368800
Si Si6 0.333335 0.562413 0.179034
Si Si7 0.925566 0.564003 0.467518
Si Si8 0.407638 0.062335 0.070804
O O1 0.555359 0.250000 0.143175
O O2 0.489053 0.012555 0.095961
O O3 0.545459 0.985871 0.196874
O O4 0.633547 0.014318 0.102667
O O5 0.250000 0.518086 0.417395
O O6 0.157751 0.750000 0.431221
O O7 0.095371 0.496806 0.393360
O O8 0.143723 0.505213 0.496271
O O9 0.484776 0.750000 0.251050
O O10 0.494753 0.483867 0.304324
O O11 0.402993 0.512779 0.218490
O O12 0.250000 0.032471 0.965973
O O13 0.348577 0.250000 0.949871
O O14 0.387203 0.006064 0.008519
O O15 0.486815 0.250000 0.375953
O O16 0.555734 0.992515 0.404817
O O17 0.250000 0.515863 0.200156
O O18 0.336279 0.750000 0.175733
O O19 0.347552 0.495691 0.116989
O O20 0.923197 0.750000 0.469875
O O21 0.000000 0.500000 0.500000
O O22 0.406108 0.250000 0.069553
#
# Coordination Sequence:
#
# PCOD9446972 Si02
#       8
#     8   8   8   8   8   8   8   8
#     4  10  20  34  52  74  99 129 168 212 256 301
#     4  10  20  34  53  79 112 145 174 208 253 300
#     4  10  20  35  53  72  98 134 174 211 251 299
#     4  10  20  33  50  73 100 130 163 202 254 312
#     4  11  21  34  53  77 105 136 176 218 254 298
#     4   9  18  31  47  69  98 131 165 203 248 298
#     4  10  18  31  52  76 104 137 173 209 248 293
#     4   9  18  32  50  72  98 129 164 202 248 305
#
# _framework density 17.887998
#
# number of rings (size 3 to 8) (size 9 to 14) (size 15 to 20)
#    0.000    2.125    0.000    5.625    0.000    4.000 
#    0.000    1.250    0.000    0.750    0.000    0.000 
#    0.000    0.000    0.000    0.000    0.000    0.000 
#
# Total GULP energy -357000.029512 kJ/mol
# GULP energy per Si atom -5578.125461 kJ/mol
# Density = 1.784728 g / cm^3
# Si number density = 17.887998 Si / 1000 Ang^3
#
#
#
# Elastic Constant Matrix: (Units=GPa)
#
#
# Indices 1 2 3 4 5 6 
#
# 1 19.2019 12.7726 15.6516 0.0000 0.0000 0.0000
# 2 12.7726 53.0875 19.2605 0.0000 0.0000 0.0000
# 3 15.6516 19.2605 112.2541 0.0000 0.0000 0.0000
# 4 0.0000 0.0000 0.0000 30.0908 0.0000 0.0000
# 5 0.0000 0.0000 0.0000 0.0000 13.4043 0.0000
# 6 0.0000 0.0000 0.0000 0.0000 0.0000 20.4849
#
#
#
# Elastic Compliance Matrix: (Units=1/GPa)
#
#
# Indices 1 2 3 4 5 6 
#
# 1 0.066775 -0.013530 -0.006989 0.000000 0.000000 0.000000
# 2 -0.013530 0.022829 -0.002030 0.000000 0.000000 0.000000
# 3 -0.006989 -0.002030 0.010231 0.000000 0.000000 0.000000
# 4 0.000000 0.000000 0.000000 0.033233 0.000000 0.000000
# 5 0.000000 0.000000 0.000000 0.000000 0.074603 0.000000
# 6 0.000000 0.000000 0.000000 0.000000 0.000000 0.048816
#
#
# Mechanical properties :
#
#
# Convention : Reuss Voigt Hill
#
# Bulk Modulus (GPa) = 18.26955 31.10144 24.68550
# Shear Modulus (GPa) = 15.63327 21.91993 18.77660
#
# Velocity S-wave (km/s) = 2.95948 3.50437 3.24339
# Velocity P-wave (km/s) = 4.68118 5.81366 5.27788
#
# Compressibility (1/GPa) = 0.05473588
#
# Stress axis : x y z
#
# Youngs Moduli (GPa) = 14.97572 43.80445 97.74009
#
# Poissons Ratio (x) = 0.59267 0.68310
# Poissons Ratio (y) = 0.20262 0.19846
# Poissons Ratio (z) = 0.10466 0.08894
#
# Static dielectric constant tensor:
#      x y z
#    x 1.619390 0.000000 0.000000 
#    y 0.000000 1.604650 0.000000 
#    z 0.000000 0.000000 1.607610 
# 
# From -- ./inp_files/30789.got.cif
#   From: 2010.05.17/outbox.cif.g08.bks.cpg/sg59_16_cif.got.tgz:30789.got - 2010.06.03 14:40:33.
