data_PCOD9446165
_publ_section_title
;
Structure prediction by ZEFSAII (Michael W. Deem and Ramdas Pophale) SiO2 
 PCOD9446165
Probable space group: P M M N
;
_chemical_formula_sum "Si O2"
_cell_formula_units_Z 64
_cell_length_a 7.407362
_cell_length_b 28.246925
_cell_length_c 17.674834
_cell_angle_alpha 90.000000
_cell_angle_beta 90.000000
_cell_angle_gamma 90.000000
_cell_volume 3698.197407
_symmetry_space_group_name_H-M "P M M N"
_symmetry_group_IT_number 59
_space_group.IT_coordinate_system_code '2'
_symmetry_cell_setting 'orthorhombic'
loop_
_space_group_symop_operation_xyz
x,y,z
1/2-x,1/2-y,z
1/2+x,-y,-z
-x,1/2+y,-z
-x,-y,-z
1/2+x,1/2+y,-z
1/2-x,y,z
x,1/2-y,z
loop_
_atom_site_type_symbol
_atom_site_label
_atom_site_fract_x
_atom_site_fract_y
_atom_site_fract_z
Si Si1 0.965600 0.945413 0.522591
Si Si2 0.528158 0.551668 0.849048
Si Si3 0.029034 0.195665 0.912472
Si Si4 0.462249 0.417052 0.634939
Si Si5 0.031097 0.378547 0.787820
Si Si6 0.531406 0.974327 0.680814
Si Si7 0.453836 0.123247 0.034947
Si Si8 0.040784 0.953439 0.086092
O O1 0.750000 0.938024 0.524766
O O2 0.037883 0.916245 0.450536
O O3 0.031362 0.942971 0.608984
O O4 0.000000 0.000000 0.500000
O O5 0.750000 0.551490 0.850257
O O6 0.471519 0.543744 0.762649
O O7 0.465952 0.599538 0.890158
O O8 0.470624 0.505809 0.897717
O O9 0.250000 0.194491 0.913918
O O10 0.972836 0.250000 0.912499
O O11 0.974191 0.166589 0.837525
O O12 0.965087 0.165807 0.985656
O O13 0.250000 0.406414 0.628430
O O14 0.534803 0.384050 0.701993
O O15 0.477751 0.471248 0.664934
O O16 0.250000 0.378891 0.786951
O O17 0.972206 0.424453 0.835504
O O18 0.750000 0.974043 0.680899
O O19 0.250000 0.137970 0.054079
O O20 0.446847 0.079393 0.975645
O O21 0.250000 0.956497 0.064118
#
# Coordination Sequence:
#
# PCOD9446165 Si02
#       8
#     8   8   8   8   8   8   8   8
#     4   8  14  22  33  47  66  92 119 142 163 191
#     4   9  16  24  35  51  71  94 119 144 171 203
#     4   8  14  25  40  54  66  84 113 149 185 215
#     4   9  15  23  34  51  71  91 118 146 170 198
#     4   9  16  25  38  54  72  93 117 147 179 208
#     4   9  15  24  35  48  69  97 121 141 166 197
#     4   9  17  28  39  51  68  90 116 147 179 211
#     4  10  17  25  36  51  72  94 118 144 169 208
#
# _framework density 17.305728999999999
#
# number of rings (size 3 to 8) (size 9 to 14) (size 15 to 20)
#    0.000    3.125    1.250    1.500    0.000    0.000 
#    0.000    1.250    0.000    6.000    0.000    0.000 
#    0.000    1.000    0.000   14.000    0.000    0.000 
#
# Total GULP energy -356412.625984 kJ/mol
# GULP energy per Si atom -5568.947281 kJ/mol
# Density = 1.726634 g / cm^3
# Si number density = 17.305729 Si / 1000 Ang^3
#
#
#
# Elastic Constant Matrix: (Units=GPa)
#
#
# Indices 1 2 3 4 5 6 
#
# 1 61.9764 0.2553 -1.9668 0.0000 0.0000 0.0000
# 2 0.2553 89.9047 44.1702 0.0000 0.0000 0.0000
# 3 -1.9668 44.1702 84.9998 0.0000 0.0000 0.0000
# 4 0.0000 0.0000 0.0000 14.6920 0.0000 0.0000
# 5 0.0000 0.0000 0.0000 0.0000 4.2091 0.0000
# 6 0.0000 0.0000 0.0000 0.0000 0.0000 4.2117
#
#
#
# Elastic Compliance Matrix: (Units=1/GPa)
#
#
# Indices 1 2 3 4 5 6 
#
# 1 0.016153 -0.000308 0.000534 0.000000 0.000000 0.000000
# 2 -0.000308 0.014942 -0.007772 0.000000 0.000000 0.000000
# 3 0.000534 -0.007772 0.015816 0.000000 0.000000 0.000000
# 4 0.000000 0.000000 0.000000 0.068064 0.000000 0.000000
# 5 0.000000 0.000000 0.000000 0.000000 0.237582 0.000000
# 6 0.000000 0.000000 0.000000 0.000000 0.000000 0.237436
#
#
# Mechanical properties :
#
#
# Convention : Reuss Voigt Hill
#
# Bulk Modulus (GPa) = 31.42770 35.75536 33.59153
# Shear Modulus (GPa) = 8.12095 17.58403 12.85249
#
# Velocity S-wave (km/s) = 2.16860 3.19106 2.72816
# Velocity P-wave (km/s) = 4.94673 5.85517 5.42002
#
# Compressibility (1/GPa) = 0.03181906
#
# Stress axis : x y z
#
# Youngs Moduli (GPa) = 61.90650 66.92521 63.22826
#
# Poissons Ratio (x) = 0.02063 -0.03376
# Poissons Ratio (y) = 0.01908 0.49140
# Poissons Ratio (z) = -0.03305 0.52013
#
# Static dielectric constant tensor:
#      x y z
#    x 1.566400 0.000000 0.000000 
#    y 0.000000 1.547950 0.000000 
#    z 0.000000 0.000000 1.655540 
# 
# From -- ./inp_files/26668.got.cif
#   From: 2010.05.17/outbox.cif.g08.bks.cpg/sg59_14_cif.got.tgz:26668.got - 2010.06.03 14:40:33.
