data_PCOD9446061
_publ_section_title
;
Structure prediction by ZEFSAII (Michael W. Deem and Ramdas Pophale) SiO2 
 PCOD9446061
Probable space group: P N N M
;
_chemical_formula_sum "Si O2"
_cell_formula_units_Z 56
_cell_length_a 9.000000
_cell_length_b 15.000000
_cell_length_c 21.000000
_cell_angle_alpha 90.000000
_cell_angle_beta 90.000000
_cell_angle_gamma 90.000000
_cell_volume 2835.000000
_symmetry_space_group_name_H-M "P N N M"
_symmetry_group_IT_number 58
_symmetry_cell_setting 'orthorhombic'
loop_
_space_group_symop_operation_xyz
x,y,z
-x,-y,z
1/2+x,1/2-y,1/2-z
1/2-x,1/2+y,1/2-z
-x,-y,-z
x,y,-z
1/2-x,1/2+y,1/2+z
1/2+x,1/2-y,1/2+z
loop_
_atom_site_type_symbol
_atom_site_label
_atom_site_fract_x
_atom_site_fract_y
_atom_site_fract_z
Si Si1 0.824498 0.984271 0.817187
Si Si2 0.142503 0.639352 0.000000
Si Si3 0.142231 0.200067 0.243513
Si Si4 0.573919 0.592538 0.097720
Si Si5 0.351629 0.944111 0.924445
Si Si6 0.827278 0.765529 0.393285
Si Si7 0.813626 0.573014 0.000000
Si Si8 0.178102 0.861747 0.268693
O O1 0.777106 0.001602 0.888878
O O2 0.752317 0.065052 0.777420
O O3 0.789588 0.888519 0.787731
O O4 0.000000 0.000000 0.809793
O O5 0.198911 0.693757 0.938159
O O6 0.193592 0.535315 0.000000
O O7 0.969110 0.621444 0.000000
O O8 0.185185 0.212047 0.318098
O O9 0.204702 0.288020 0.210590
O O10 0.964339 0.189211 0.238802
O O11 0.500000 0.500000 0.077095
O O12 0.469862 0.676801 0.085251
O O13 0.725506 0.603414 0.061470
O O14 0.607890 0.586996 0.172102
O O15 0.349249 0.840062 0.903339
O O16 0.500000 0.000000 0.907837
O O17 0.334876 0.944687 0.000000
#
# Coordination Sequence:
#
# PCOD9446061 Si02
#       8
#     8   4   8   8   8   8   4   8
#     4  10  22  42  63  89 127 160 202 261 318 375
#     4  11  23  40  62  89 136 163 211 267 326 377
#     4  10  22  37  64  91 121 161 206 258 313 380
#     4  11  21  38  64  91 125 170 209 252 318 388
#     4  11  25  43  65  93 125 169 221 263 305 379
#     4  11  21  41  67  91 127 175 209 261 326 378
#     4  11  24  39  58  98 126 166 211 267 318 386
#     4  10  21  38  60  93 121 157 206 253 313 376
#
# _framework density 19.753086
#
# number of rings (size 3 to 8) (size 9 to 14) (size 15 to 20)
#    0.000    1.429    3.571    2.786    4.000    1.429 
#    0.000    0.000    0.000    0.000    0.000    0.000 
#    0.000    0.000    0.000    0.000    0.000    0.000 
#
# Total GULP energy -312256.012138 kJ/mol
# GULP energy per Si atom -5576.000217 kJ/mol
# Density = 1.970813 g / cm^3
# Si number density = 19.753086 Si / 1000 Ang^3
#
#
#
# Elastic Constant Matrix: (Units=GPa)
#
#
# Indices 1 2 3 4 5 6 
#
# 1 49.2919 32.2453 21.9163 0.0000 0.0000 0.0000
# 2 32.2453 101.6688 33.2505 0.0000 0.0000 0.0000
# 3 21.9163 33.2505 41.0574 0.0000 0.0000 0.0000
# 4 0.0000 0.0000 0.0000 16.0901 0.0000 0.0000
# 5 0.0000 0.0000 0.0000 0.0000 29.5327 0.0000
# 6 0.0000 0.0000 0.0000 0.0000 0.0000 32.8408
#
#
#
# Elastic Compliance Matrix: (Units=1/GPa)
#
#
# Indices 1 2 3 4 5 6 
#
# 1 0.028751 -0.005576 -0.010831 0.000000 0.000000 0.000000
# 2 -0.005576 0.014461 -0.008735 0.000000 0.000000 0.000000
# 3 -0.010831 -0.008735 0.037212 0.000000 0.000000 0.000000
# 4 0.000000 0.000000 0.000000 0.062150 0.000000 0.000000
# 5 0.000000 0.000000 0.000000 0.000000 0.033861 0.000000
# 6 0.000000 0.000000 0.000000 0.000000 0.000000 0.030450
#
#
# Mechanical properties :
#
#
# Convention : Reuss Voigt Hill
#
# Bulk Modulus (GPa) = 33.17936 40.76027 36.96982
# Shear Modulus (GPa) = 18.71149 22.66645 20.68897
#
# Velocity S-wave (km/s) = 3.08111 3.39114 3.23983
# Velocity P-wave (km/s) = 5.43058 6.00106 5.72293
#
# Compressibility (1/GPa) = 0.03013922
#
# Stress axis : x y z
#
# Youngs Moduli (GPa) = 34.78138 69.15082 26.87330
#
# Poissons Ratio (x) = 0.38561 0.29107
# Poissons Ratio (y) = 0.19395 0.23473
# Poissons Ratio (z) = 0.37672 0.60401
#
# Static dielectric constant tensor:
#      x y z
#    x 1.717680 0.000000 0.000000 
#    y 0.000000 1.688070 0.000000 
#    z 0.000000 0.000000 0.834010 
# 
# From -- ./inp_files/29000.got.cif
#   From: 2010.05.17/outbox.ucp.g08.bks.cvg/sg58_15_cif.got.tgz:29000.got - 2010.06.11 16:41:41.
