data_PCOD9446725
_publ_section_title
;
Structure prediction by ZEFSAII (Michael W. Deem and Ramdas Pophale) SiO2 
 PCOD9446725
Probable space group: P M M N
;
_chemical_formula_sum "Si O2"
_cell_formula_units_Z 64
_cell_length_a 7.555012
_cell_length_b 23.982727
_cell_length_c 19.974237
_cell_angle_alpha 90.000000
_cell_angle_beta 90.000000
_cell_angle_gamma 90.000000
_cell_volume 3619.127813
_symmetry_space_group_name_H-M "P M M N"
_symmetry_group_IT_number 59
_space_group.IT_coordinate_system_code '2'
_symmetry_cell_setting 'orthorhombic'
loop_
_space_group_symop_operation_xyz
x,y,z
1/2-x,1/2-y,z
1/2+x,-y,-z
-x,1/2+y,-z
-x,-y,-z
1/2+x,1/2+y,-z
1/2-x,y,z
x,1/2-y,z
loop_
_atom_site_type_symbol
_atom_site_label
_atom_site_fract_x
_atom_site_fract_y
_atom_site_fract_z
Si Si1 0.540853 0.971600 0.105151
Si Si2 0.463410 0.813170 0.609053
Si Si3 0.031967 0.998685 0.750735
Si Si4 0.537124 0.369794 0.253594
Si Si5 0.459870 0.080300 0.472873
Si Si6 0.538634 0.812493 0.887545
Si Si7 0.964956 0.584902 0.973277
Si Si8 0.954426 0.972556 0.392741
O O1 0.750000 0.960601 0.110161
O O2 0.471097 0.972586 0.180625
O O3 0.517493 0.033500 0.074501
O O4 0.470158 0.930197 0.047895
O O5 0.250000 0.811201 0.612481
O O6 0.527113 0.750000 0.599172
O O7 0.527967 0.838873 0.679592
O O8 0.509759 0.857248 0.551501
O O9 0.250000 0.998554 0.750396
O O10 0.969843 0.026768 0.681797
O O11 0.975941 0.933803 0.750679
O O12 0.750000 0.371691 0.257851
O O13 0.491370 0.336479 0.186642
O O14 0.250000 0.069094 0.472894
O O15 0.530510 0.064355 0.546628
O O16 0.539605 0.036141 0.420275
O O17 0.750000 0.809679 0.897157
O O18 0.466820 0.750000 0.893869
O O19 0.470728 0.857809 0.940742
O O20 0.750000 0.585467 0.974621
O O21 0.750000 0.955550 0.385892
#
# Coordination Sequence:
#
# PCOD9446725 Si02
#       8
#     8   8   8   8   8   8   8   8
#     4   9  16  27  44  63  81 105 139 175 211 248
#     4  10  20  33  47  61  84 120 153 179 211 253
#     4   9  15  26  46  66  84 110 141 174 210 252
#     4  10  18  30  46  63  84 114 152 182 202 239
#     4  10  19  29  45  67  88 113 144 182 220 253
#     4  10  20  31  41  57  86 120 146 172 210 250
#     4   9  17  28  41  59  83 110 139 173 210 249
#     4   9  17  31  47  63  87 116 144 175 218 265
#
# _framework density 17.683819
#
# number of rings (size 3 to 8) (size 9 to 14) (size 15 to 20)
#    0.000    2.500    2.500    0.750    0.000    2.000 
#    0.000    0.625    0.000    0.000    0.000    0.875 
#    0.000    5.000    0.000    0.625    0.000    1.375 
#
# Total GULP energy -356921.232997 kJ/mol
# GULP energy per Si atom -5576.894266 kJ/mol
# Density = 1.764357 g / cm^3
# Si number density = 17.683819 Si / 1000 Ang^3
#
#
#
# Elastic Constant Matrix: (Units=GPa)
#
#
# Indices 1 2 3 4 5 6 
#
# 1 41.5430 -3.2634 -1.1834 0.0000 0.0000 0.0000
# 2 -3.2634 98.4885 73.3365 0.0000 0.0000 0.0000
# 3 -1.1834 73.3365 176.4970 0.0000 0.0000 0.0000
# 4 0.0000 0.0000 0.0000 19.5341 0.0000 0.0000
# 5 0.0000 0.0000 0.0000 0.0000 7.2812 0.0000
# 6 0.0000 0.0000 0.0000 0.0000 0.0000 10.5356
#
#
#
# Elastic Compliance Matrix: (Units=1/GPa)
#
#
# Indices 1 2 3 4 5 6 
#
# 1 0.024142 0.000984 -0.000247 0.000000 0.000000 0.000000
# 2 0.000984 0.014742 -0.006119 0.000000 0.000000 0.000000
# 3 -0.000247 -0.006119 0.008207 0.000000 0.000000 0.000000
# 4 0.000000 0.000000 0.000000 0.051192 0.000000 0.000000
# 5 0.000000 0.000000 0.000000 0.000000 0.137341 0.000000
# 6 0.000000 0.000000 0.000000 0.000000 0.000000 0.094916
#
#
# Mechanical properties :
#
#
# Convention : Reuss Voigt Hill
#
# Bulk Modulus (GPa) = 27.52815 50.47866 39.00340
# Shear Modulus (GPa) = 14.14774 23.97943 19.06359
#
# Velocity S-wave (km/s) = 2.83156 3.68640 3.28689
# Velocity P-wave (km/s) = 5.12747 6.83568 6.04225
#
# Compressibility (1/GPa) = 0.03632645
#
# Stress axis : x y z
#
# Youngs Moduli (GPa) = 41.42216 67.83138 121.85168
#
# Poissons Ratio (x) = -0.06673 0.03009
# Poissons Ratio (y) = -0.04075 0.74562
# Poissons Ratio (z) = 0.01023 0.41506
#
# Static dielectric constant tensor:
#      x y z
#    x 1.673560 0.000000 0.000000 
#    y 0.000000 1.582670 0.000000 
#    z 0.000000 0.000000 1.626690 
# 
# From -- ./inp_files/29654.got.cif
#   From: 2010.05.17/outbox.cif.g08.bks.cpg/sg59_15_cif.got.tgz:29654.got - 2010.06.03 14:40:33.
