data_PCOD9446705
_publ_section_title
;
Structure prediction by ZEFSAII (Michael W. Deem and Ramdas Pophale) SiO2 
 PCOD9446705
Probable space group: P M M N
;
_chemical_formula_sum "Si O2"
_cell_formula_units_Z 64
_cell_length_a 14.493602
_cell_length_b 7.654347
_cell_length_c 26.913377
_cell_angle_alpha 90.000000
_cell_angle_beta 90.000000
_cell_angle_gamma 90.000000
_cell_volume 2985.744719
_symmetry_space_group_name_H-M "P M M N"
_symmetry_group_IT_number 59
_space_group.IT_coordinate_system_code '2'
_symmetry_cell_setting 'orthorhombic'
loop_
_space_group_symop_operation_xyz
x,y,z
1/2-x,1/2-y,z
1/2+x,-y,-z
-x,1/2+y,-z
-x,-y,-z
1/2+x,1/2+y,-z
1/2-x,y,z
x,1/2-y,z
loop_
_atom_site_type_symbol
_atom_site_label
_atom_site_fract_x
_atom_site_fract_y
_atom_site_fract_z
Si Si1 0.857912 0.961790 0.473767
Si Si2 0.354623 0.958810 0.128410
Si Si3 0.526592 0.547721 0.183179
Si Si4 0.356517 0.458237 0.018709
Si Si5 0.645276 0.960754 0.585134
Si Si6 0.456846 0.042663 0.624230
Si Si7 0.856605 0.455397 0.089126
Si Si8 0.643505 0.964753 0.276118
O O1 0.750000 0.999996 0.465309
O O2 0.866730 0.750000 0.475030
O O3 0.881138 0.024462 0.529361
O O4 0.916364 0.030271 0.427555
O O5 0.250000 0.029179 0.131620
O O6 0.349490 0.750000 0.134824
O O7 0.428008 0.031115 0.167715
O O8 0.392401 0.988455 0.072572
O O9 0.509451 0.750000 0.196247
O O10 0.587565 0.542764 0.133236
O O11 0.584661 0.473121 0.228797
O O12 0.250000 0.524474 0.018832
O O13 0.356032 0.250000 0.016958
O O14 0.396805 0.521102 0.966464
O O15 0.750000 0.019389 0.595675
O O16 0.647090 0.750000 0.583663
O O17 0.566289 0.015052 0.623034
O O18 0.439272 0.250000 0.623317
O O19 0.404891 0.976514 0.672919
O O20 0.750000 0.519622 0.088434
O O21 0.855662 0.250000 0.099695
O O22 0.750000 0.019405 0.273436
O O23 0.644097 0.750000 0.275530
#
# Coordination Sequence:
#
# PCOD9446705 Si02
#       8
#     8   8   8   8   8   8   8   8
#     4   8  14  26  46  72 101 134 170 205 247 303
#     4   9  18  33  51  71  97 127 160 200 243 286
#     4  10  20  34  53  74  96 129 169 203 241 291
#     4   9  17  30  50  75 101 130 163 198 239 291
#     4   9  18  32  48  68 100 140 173 202 245 301
#     4  10  18  29  50  77 100 127 168 214 254 291
#     4  10  20  33  50  74 104 134 163 200 247 294
#     4   9  18  33  53  77 103 128 158 201 250 297
#
# _framework density 21.435186999999999
#
# number of rings (size 3 to 8) (size 9 to 14) (size 15 to 20)
#    0.000    2.750    0.000    2.625    0.000    5.500 
#    0.000    1.250    0.000    5.250    0.000    1.750 
#    0.000    0.000    0.000    0.000    0.000    0.000 
#
# Total GULP energy -357184.245727 kJ/mol
# GULP energy per Si atom -5581.003839 kJ/mol
# Density = 2.138640 g / cm^3
# Si number density = 21.435187 Si / 1000 Ang^3
#
#
#
# Elastic Constant Matrix: (Units=GPa)
#
#
# Indices 1 2 3 4 5 6 
#
# 1 132.1754 -3.0337 87.1499 0.0000 0.0000 0.0000
# 2 -3.0337 41.7344 -0.4346 0.0000 0.0000 0.0000
# 3 87.1499 -0.4346 102.8210 0.0000 0.0000 0.0000
# 4 0.0000 0.0000 0.0000 18.7656 0.0000 0.0000
# 5 0.0000 0.0000 0.0000 0.0000 40.1856 0.0000
# 6 0.0000 0.0000 0.0000 0.0000 0.0000 10.6461
#
#
#
# Elastic Compliance Matrix: (Units=1/GPa)
#
#
# Indices 1 2 3 4 5 6 
#
# 1 0.017200 0.001099 -0.014574 0.000000 0.000000 0.000000
# 2 0.001099 0.024032 -0.000830 0.000000 0.000000 0.000000
# 3 -0.014574 -0.000830 0.022075 0.000000 0.000000 0.000000
# 4 0.000000 0.000000 0.000000 0.053289 0.000000 0.000000
# 5 0.000000 0.000000 0.000000 0.000000 0.024885 0.000000
# 6 0.000000 0.000000 0.000000 0.000000 0.000000 0.093931
#
#
# Mechanical properties :
#
#
# Convention : Reuss Voigt Hill
#
# Bulk Modulus (GPa) = 28.82067 49.34377 39.08222
# Shear Modulus (GPa) = 18.14300 26.78943 22.46621
#
# Velocity S-wave (km/s) = 2.91247 3.53907 3.24095
# Velocity P-wave (km/s) = 4.97842 6.30634 5.68131
#
# Compressibility (1/GPa) = 0.03469732
#
# Stress axis : x y z
#
# Youngs Moduli (GPa) = 58.13801 41.61074 45.29992
#
# Poissons Ratio (x) = -0.04571 0.66021
# Poissons Ratio (y) = -0.06387 0.03758
# Poissons Ratio (z) = 0.84732 0.03452
#
# Static dielectric constant tensor:
#      x y z
#    x 1.809280 0.000000 0.000000 
#    y 0.000000 1.784910 0.000000 
#    z 0.000000 0.000000 1.761220 
# 
# From -- ./inp_files/32202.got.cif
#   From: 2010.05.17/outbox.cif.g08.bks.cpg/sg59_17_cif.got.tgz:32202.got - 2010.06.03 14:40:33.
