data_PCOD9446578
_publ_section_title
;
Structure prediction by ZEFSAII (Michael W. Deem and Ramdas Pophale) SiO2 
 PCOD9446578
Probable space group: P M M N
;
_chemical_formula_sum "Si O2"
_cell_formula_units_Z 64
_cell_length_a 9.016948
_cell_length_b 22.667791
_cell_length_c 21.009237
_cell_angle_alpha 90.000000
_cell_angle_beta 90.000000
_cell_angle_gamma 90.000000
_cell_volume 4294.168137
_symmetry_space_group_name_H-M "P M M N"
_symmetry_group_IT_number 59
_space_group.IT_coordinate_system_code '2'
_symmetry_cell_setting 'orthorhombic'
loop_
_space_group_symop_operation_xyz
x,y,z
1/2-x,1/2-y,z
1/2+x,-y,-z
-x,1/2+y,-z
-x,-y,-z
1/2+x,1/2+y,-z
1/2-x,y,z
x,1/2-y,z
loop_
_atom_site_type_symbol
_atom_site_label
_atom_site_fract_x
_atom_site_fract_y
_atom_site_fract_z
Si Si1 0.571088 0.436634 0.482705
Si Si2 0.573916 0.468585 0.206666
Si Si3 0.571694 0.602856 0.394991
Si Si4 0.424746 0.107657 0.824200
Si Si5 0.579287 0.082432 0.952398
Si Si6 0.570722 0.471013 0.347784
Si Si7 0.425570 0.819965 0.287546
Si Si8 0.420506 0.441750 0.078989
O O1 0.500000 0.500000 0.500000
O O2 0.750000 0.438693 0.488602
O O3 0.501268 0.393711 0.535114
O O4 0.532309 0.429908 0.407985
O O5 0.750000 0.456684 0.202166
O O6 0.555795 0.539328 0.197494
O O7 0.517460 0.454063 0.277600
O O8 0.492352 0.437002 0.148486
O O9 0.750000 0.604503 0.399463
O O10 0.528903 0.538538 0.365359
O O11 0.510489 0.651612 0.347260
O O12 0.250000 0.120486 0.821781
O O13 0.486319 0.111800 0.895801
O O14 0.512117 0.148796 0.775568
O O15 0.750000 0.101361 0.950701
O O16 0.576223 0.011986 0.937363
O O17 0.509676 0.089275 0.022178
O O18 0.750000 0.471729 0.344053
O O19 0.250000 0.831545 0.293507
O O20 0.448885 0.750000 0.284688
O O21 0.250000 0.423044 0.078892
#
# Coordination Sequence:
#
# PCOD9446578 Si02
#       8
#     8   8   8   8   8   8   8   8
#     4   9  16  26  41  61  83 108 138 173 210 252
#     4   9  15  25  39  56  80 110 138 168 204 243
#     4  10  18  31  46  60  79 106 140 178 217 258
#     4  10  18  29  45  60  77 104 137 175 213 251
#     4   9  16  26  39  54  75 103 135 169 204 243
#     4   8  14  25  40  59  82 108 138 169 204 248
#     4  11  23  35  46  62  83 107 140 182 223 262
#     4   9  16  24  34  54  78 103 136 170 200 236
#
# _framework density 14.903933
#
# number of rings (size 3 to 8) (size 9 to 14) (size 15 to 20)
#    0.000    2.625    1.250    3.000    0.000    4.500 
#    0.000    1.250    0.000    0.000    0.000    0.000 
#    0.000    0.000    0.000    1.125    0.000   20.750 
#
# Total GULP energy -356387.755573 kJ/mol
# GULP energy per Si atom -5568.558681 kJ/mol
# Density = 1.487001 g / cm^3
# Si number density = 14.903933 Si / 1000 Ang^3
#
#
#
# Elastic Constant Matrix: (Units=GPa)
#
#
# Indices 1 2 3 4 5 6 
#
# 1 70.7225 21.1766 53.8102 0.0000 0.0000 0.0000
# 2 21.1766 19.9299 20.5290 0.0000 0.0000 0.0000
# 3 53.8102 20.5290 154.8541 0.0000 0.0000 0.0000
# 4 0.0000 0.0000 0.0000 6.9074 0.0000 0.0000
# 5 0.0000 0.0000 0.0000 0.0000 28.1261 0.0000
# 6 0.0000 0.0000 0.0000 0.0000 0.0000 12.6341
#
#
#
# Elastic Compliance Matrix: (Units=1/GPa)
#
#
# Indices 1 2 3 4 5 6 
#
# 1 0.024652 -0.020118 -0.005899 0.000000 0.000000 0.000000
# 2 -0.020118 0.074528 -0.002890 0.000000 0.000000 0.000000
# 3 -0.005899 -0.002890 0.008891 0.000000 0.000000 0.000000
# 4 0.000000 0.000000 0.000000 0.144771 0.000000 0.000000
# 5 0.000000 0.000000 0.000000 0.000000 0.035554 0.000000
# 6 0.000000 0.000000 0.000000 0.000000 0.000000 0.079151
#
#
# Mechanical properties :
#
#
# Convention : Reuss Voigt Hill
#
# Bulk Modulus (GPa) = 19.89726 48.50423 34.20074
# Shear Modulus (GPa) = 11.30930 19.53291 15.42110
#
# Velocity S-wave (km/s) = 2.75764 3.62413 3.22017
# Velocity P-wave (km/s) = 4.84962 7.08009 6.06821
#
# Compressibility (1/GPa) = 0.05025819
#
# Stress axis : x y z
#
# Youngs Moduli (GPa) = 40.56418 13.41770 112.47646
#
# Poissons Ratio (x) = 0.26993 0.66355
# Poissons Ratio (y) = 0.81606 0.32501
# Poissons Ratio (z) = 0.23931 0.03877
#
# Static dielectric constant tensor:
#      x y z
#    x 1.497280 0.000000 0.000000 
#    y 0.000000 1.456580 0.000000 
#    z 0.000000 0.000000 1.527960 
# 
# From -- ./inp_files/29737.got.cif
#   From: 2010.05.17/outbox.cif.g08.bks.cpg/sg59_15_cif.got.tgz:29737.got - 2010.06.03 14:40:33.
