data_PCOD9446045
_publ_section_title
;
Structure prediction by ZEFSAII (Michael W. Deem and Ramdas Pophale) SiO2 
 PCOD9446045
Probable space group: P N N M
;
_chemical_formula_sum "Si O2"
_cell_formula_units_Z 48
_cell_length_a 15.000000
_cell_length_b 18.000000
_cell_length_c 9.000000
_cell_angle_alpha 90.000000
_cell_angle_beta 90.000000
_cell_angle_gamma 90.000000
_cell_volume 2430.000000
_symmetry_space_group_name_H-M "P N N M"
_symmetry_group_IT_number 58
_symmetry_cell_setting 'orthorhombic'
loop_
_space_group_symop_operation_xyz
x,y,z
-x,-y,z
1/2+x,1/2-y,1/2-z
1/2-x,1/2+y,1/2-z
-x,-y,-z
x,y,-z
1/2-x,1/2+y,1/2+z
1/2+x,1/2-y,1/2+z
loop_
_atom_site_type_symbol
_atom_site_label
_atom_site_fract_x
_atom_site_fract_y
_atom_site_fract_z
Si Si1 0.877321 0.647038 0.319070
Si Si2 0.453034 0.351144 0.329558
Si Si3 0.740998 0.286354 0.826795
Si Si4 0.217665 0.949540 0.828079
Si Si5 0.067707 0.698713 0.323566
Si Si6 0.891762 0.925333 0.670004
O O1 0.879059 0.652341 0.500000
O O2 0.816235 0.716411 0.266171
O O3 0.816591 0.575803 0.282806
O O4 0.980989 0.650719 0.271987
O O5 0.472912 0.330120 0.500000
O O6 0.351916 0.380822 0.325145
O O7 0.461399 0.282247 0.219117
O O8 0.522914 0.412624 0.274434
O O9 0.834161 0.308183 0.748756
O O10 0.670900 0.353176 0.821088
O O11 0.762869 0.270925 0.000000
O O12 0.171240 0.008952 0.724417
O O13 0.220339 0.975582 0.000000
O O14 0.076782 0.689463 0.500000
O O15 0.920749 0.935494 0.500000
#
# Coordination Sequence:
#
# PCOD9446045 Si02
#       6
#     8   8   8   8   8   8
#     4   9  18  37  59  79 111 151 186 228 282 333
#     4  11  21  35  58  86 117 153 187 228 286 347
#     4  10  20  39  59  79 114 154 186 228 286 338
#     4  10  21  38  58  80 112 153 190 226 281 349
#     4  11  21  35  59  90 115 143 191 242 280 328
#     4  11  23  38  57  83 118 152 186 237 288 332
#
# _framework density 19.753086
#
# number of rings (size 3 to 8) (size 9 to 14) (size 15 to 20)
#    0.000    1.667    3.333    2.000    0.000    4.667 
#    0.000    2.500    0.000    5.000    0.000    0.000 
#    0.000    0.000    0.000    0.000    0.000    0.000 
#
# Total GULP energy -267778.694863 kJ/mol
# GULP energy per Si atom -5578.722810 kJ/mol
# Density = 1.970813 g / cm^3
# Si number density = 19.753086 Si / 1000 Ang^3
#
#
#
# Elastic Constant Matrix: (Units=GPa)
#
#
# Indices 1 2 3 4 5 6 
#
# 1 96.6117 -11.1298 25.6798 0.0000 0.0000 0.0000
# 2 -11.1298 19.2247 -4.6970 0.0000 0.0000 0.0000
# 3 25.6798 -4.6970 38.3109 0.0000 0.0000 0.0000
# 4 0.0000 0.0000 0.0000 22.9393 0.0000 0.0000
# 5 0.0000 0.0000 0.0000 0.0000 160.0547 0.0000
# 6 0.0000 0.0000 0.0000 0.0000 0.0000 28.0384
#
#
#
# Elastic Compliance Matrix: (Units=1/GPa)
#
#
# Indices 1 2 3 4 5 6 
#
# 1 0.013161 0.005633 -0.008131 0.000000 0.000000 0.000000
# 2 0.005633 0.056033 0.003094 0.000000 0.000000 0.000000
# 3 -0.008131 0.003094 0.031932 0.000000 0.000000 0.000000
# 4 0.000000 0.000000 0.000000 0.043593 0.000000 0.000000
# 5 0.000000 0.000000 0.000000 0.000000 0.006248 0.000000
# 6 0.000000 0.000000 0.000000 0.000000 0.000000 0.035665
#
#
# Mechanical properties :
#
#
# Convention : Reuss Voigt Hill
#
# Bulk Modulus (GPa) = 9.77350 19.31703 14.54527
# Shear Modulus (GPa) = 22.77413 51.82609 37.30011
#
# Velocity S-wave (km/s) = 3.39918 5.12776 4.35019
# Velocity P-wave (km/s) = 4.51270 6.69769 5.71067
#
# Compressibility (1/GPa) = 0.10231751
#
# Stress axis : x y z
#
# Youngs Moduli (GPa) = 75.98251 17.84653 31.31658
#
# Poissons Ratio (x) = -0.10052 0.25464
# Poissons Ratio (y) = -0.42799 -0.09690
# Poissons Ratio (z) = 0.61783 -0.05522
#
# Static dielectric constant tensor:
#      x y z
#    x 1.694530 0.000000 0.000000 
#    y 0.000000 1.753070 0.000000 
#    z 0.000000 0.000000 1.670840 
# 
# From -- ./inp_files/5742.got.cif
#   From: 2010.05.17/outbox.ucp.g08.bks.cvg/sg58_3_cif.got.tgz:5742.got - 2010.06.11 16:41:41.
