data_PCOD9446247
_publ_section_title
;
Structure prediction by ZEFSAII (Michael W. Deem and Ramdas Pophale) SiO2 
 PCOD9446247
Probable space group: P M M N
;
_chemical_formula_sum "Si O2"
_cell_formula_units_Z 40
_cell_length_a 8.546139
_cell_length_b 20.604983
_cell_length_c 13.192848
_cell_angle_alpha 90.000000
_cell_angle_beta 90.000000
_cell_angle_gamma 90.000000
_cell_volume 2323.168827
_symmetry_space_group_name_H-M "P M M N"
_symmetry_group_IT_number 59
_space_group.IT_coordinate_system_code '2'
_symmetry_cell_setting 'orthorhombic'
loop_
_space_group_symop_operation_xyz
x,y,z
1/2-x,1/2-y,z
1/2+x,-y,-z
-x,1/2+y,-z
-x,-y,-z
1/2+x,1/2+y,-z
1/2-x,y,z
x,1/2-y,z
loop_
_atom_site_type_symbol
_atom_site_label
_atom_site_fract_x
_atom_site_fract_y
_atom_site_fract_z
Si Si1 0.562333 0.548663 0.271324
Si Si2 0.063830 0.572858 0.479556
Si Si3 0.437786 0.403476 0.312263
Si Si4 0.439113 0.068136 0.956731
Si Si5 0.440875 0.176329 0.116010
O O1 0.750000 0.547327 0.278253
O O2 0.496579 0.588347 0.367145
O O3 0.500951 0.474669 0.281175
O O4 0.514953 0.574481 0.160929
O O5 0.250000 0.571742 0.480875
O O6 0.000000 0.500000 0.500000
O O7 0.000717 0.612527 0.575670
O O8 0.250000 0.407093 0.316102
O O9 0.485415 0.353363 0.224937
O O10 0.250000 0.066369 0.960265
O O11 0.492892 0.126933 0.028242
O O12 0.500000 0.000000 0.000000
O O13 0.250000 0.176887 0.113758
O O14 0.494865 0.250000 0.102656
#
# Coordination Sequence:
#
# PCOD9446247 Si02
#       5
#     8   8   8   8   8
#     4  10  18  28  45  71 100 127 159 201 246 291
#     4  10  18  28  44  67  97 127 157 195 241 290
#     4  10  17  28  48  70  96 126 159 200 245 293
#     4  10  19  31  50  74 100 130 165 207 249 294
#     4   9  18  32  50  73 100 131 166 204 250 300
#
# _framework density 17.217862
#
# number of rings (size 3 to 8) (size 9 to 14) (size 15 to 20)
#    0.000    2.200    2.000    5.400    0.000    0.800 
#    0.000    0.000    0.000    6.600    0.000    5.600 
#    0.000    0.000    0.000    0.000    0.000    0.000 
#
# Total GULP energy -223005.134606 kJ/mol
# GULP energy per Si atom -5575.128365 kJ/mol
# Density = 1.717867 g / cm^3
# Si number density = 17.217862 Si / 1000 Ang^3
#
#
#
# Elastic Constant Matrix: (Units=GPa)
#
#
# Indices 1 2 3 4 5 6 
#
# 1 57.2670 14.8524 43.7436 0.0000 0.0000 0.0000
# 2 14.8524 91.7341 75.8185 0.0000 0.0000 0.0000
# 3 43.7436 75.8185 207.0100 0.0000 0.0000 0.0000
# 4 0.0000 0.0000 0.0000 18.3454 0.0000 0.0000
# 5 0.0000 0.0000 0.0000 0.0000 23.0335 0.0000
# 6 0.0000 0.0000 0.0000 0.0000 0.0000 12.6675
#
#
#
# Elastic Compliance Matrix: (Units=1/GPa)
#
#
# Indices 1 2 3 4 5 6 
#
# 1 0.020832 0.000381 -0.004542 0.000000 0.000000 0.000000
# 2 0.000381 0.015640 -0.005809 0.000000 0.000000 0.000000
# 3 -0.004542 -0.005809 0.007918 0.000000 0.000000 0.000000
# 4 0.000000 0.000000 0.000000 0.054510 0.000000 0.000000
# 5 0.000000 0.000000 0.000000 0.000000 0.043415 0.000000
# 6 0.000000 0.000000 0.000000 0.000000 0.000000 0.078942
#
#
# Mechanical properties :
#
#
# Convention : Reuss Voigt Hill
#
# Bulk Modulus (GPa) = 40.89754 69.42668 55.16211
# Shear Modulus (GPa) = 20.05235 25.58239 22.81737
#
# Velocity S-wave (km/s) = 3.41636 3.85880 3.64430
# Velocity P-wave (km/s) = 6.27428 7.76297 7.05799
#
# Compressibility (1/GPa) = 0.02445135
#
# Stress axis : x y z
#
# Youngs Moduli (GPa) = 48.00213 63.93671 126.29631
#
# Poissons Ratio (x) = -0.02434 0.57358
# Poissons Ratio (y) = -0.01827 0.73364
# Poissons Ratio (z) = 0.21800 0.37140
#
# Static dielectric constant tensor:
#      x y z
#    x 1.537410 0.000000 0.000000 
#    y 0.000000 1.546210 0.000000 
#    z 0.000000 0.000000 1.636670 
# 
# From -- ./inp_files/20656.got.cif
#   From: 2010.05.17/outbox.cif.g08.bks.cpg/sg59_11_cif.got.tgz:20656.got - 2010.06.03 14:40:33.
