data_PCOD9446486
_publ_section_title
;
Structure prediction by ZEFSAII (Michael W. Deem and Ramdas Pophale) SiO2 
 PCOD9446486
Probable space group: P M M N
;
_chemical_formula_sum "Si O2"
_cell_formula_units_Z 64
_cell_length_a 23.608991
_cell_length_b 7.456251
_cell_length_c 18.137730
_cell_angle_alpha 90.000000
_cell_angle_beta 90.000000
_cell_angle_gamma 90.000000
_cell_volume 3192.867370
_symmetry_space_group_name_H-M "P M M N"
_symmetry_group_IT_number 59
_space_group.IT_coordinate_system_code '2'
_symmetry_cell_setting 'orthorhombic'
loop_
_space_group_symop_operation_xyz
x,y,z
1/2-x,1/2-y,z
1/2+x,-y,-z
-x,1/2+y,-z
-x,-y,-z
1/2+x,1/2+y,-z
1/2-x,y,z
x,1/2-y,z
loop_
_atom_site_type_symbol
_atom_site_label
_atom_site_fract_x
_atom_site_fract_y
_atom_site_fract_z
Si Si1 0.913341 0.464263 0.680626
Si Si2 0.812876 0.964956 0.568505
Si Si3 0.812543 0.530731 0.250327
Si Si4 0.920576 0.544202 0.159281
Si Si5 0.567224 0.462348 0.996692
Si Si6 0.983115 0.535549 0.415881
Si Si7 0.050997 0.529983 0.162424
Si Si8 0.144796 0.469087 0.591475
O O1 0.919583 0.250000 0.684587
O O2 0.858287 0.497228 0.631672
O O3 0.915992 0.527559 0.764646
O O4 0.967982 0.536217 0.636875
O O5 0.750000 0.031572 0.585844
O O6 0.810432 0.750000 0.562406
O O7 0.832237 0.030704 0.487707
O O8 0.750000 0.473253 0.224552
O O9 0.812955 0.750000 0.247017
O O10 0.867417 0.467443 0.204223
O O11 0.820932 0.479459 0.335888
O O12 0.925734 0.750000 0.184824
O O13 0.984749 0.469494 0.167642
O O14 0.907797 0.541463 0.071680
O O15 0.577090 0.250000 0.000743
O O16 0.580424 0.527462 0.914063
O O17 0.500000 0.500000 0.000000
O O18 0.981252 0.750000 0.406194
O O19 0.920076 0.469789 0.400423
O O20 0.000000 0.500000 0.500000
O O21 0.049020 0.750000 0.158701
O O22 0.145090 0.250000 0.589724
#
# Coordination Sequence:
#
# PCOD9446486 Si02
#       8
#     8   8   8   8   8   8   8   8
#     4  10  19  31  48  69  92 121 157 195 233 276
#     4  10  20  33  48  66  90 121 157 197 239 278
#     4   9  16  26  44  70  95 123 163 202 230 267
#     4   9  16  28  47  71  99 126 153 189 233 280
#     4   9  16  28  48  72  97 122 149 183 226 280
#     4  10  18  28  45  68  93 120 151 188 234 281
#     4   8  15  28  46  69  94 119 150 188 232 277
#     4   9  16  28  46  67  93 123 157 196 234 274
#
# _framework density 20.04468
#
# number of rings (size 3 to 8) (size 9 to 14) (size 15 to 20)
#    0.000    2.750    1.250    2.250    0.000    4.750 
#    0.000    3.125    0.000    5.625    0.000    3.500 
#    0.000    0.000    0.000    0.000    0.000    0.000 
#
# Total GULP energy -356885.210110 kJ/mol
# GULP energy per Si atom -5576.331408 kJ/mol
# Density = 1.999906 g / cm^3
# Si number density = 20.044680 Si / 1000 Ang^3
#
#
#
# Elastic Constant Matrix: (Units=GPa)
#
#
# Indices 1 2 3 4 5 6 
#
# 1 101.8720 -0.2817 55.7230 0.0000 0.0000 0.0000
# 2 -0.2817 58.3748 -6.4416 0.0000 0.0000 0.0000
# 3 55.7230 -6.4416 149.8597 0.0000 0.0000 0.0000
# 4 0.0000 0.0000 0.0000 47.6499 0.0000 0.0000
# 5 0.0000 0.0000 0.0000 0.0000 16.9092 0.0000
# 6 0.0000 0.0000 0.0000 0.0000 0.0000 7.1974
#
#
#
# Elastic Compliance Matrix: (Units=1/GPa)
#
#
# Indices 1 2 3 4 5 6 
#
# 1 0.012334 -0.000449 -0.004606 0.000000 0.000000 0.000000
# 2 -0.000449 0.017229 0.000907 0.000000 0.000000 0.000000
# 3 -0.004606 0.000907 0.008424 0.000000 0.000000 0.000000
# 4 0.000000 0.000000 0.000000 0.020986 0.000000 0.000000
# 5 0.000000 0.000000 0.000000 0.000000 0.059140 0.000000
# 6 0.000000 0.000000 0.000000 0.000000 0.000000 0.138939
#
#
# Mechanical properties :
#
#
# Convention : Reuss Voigt Hill
#
# Bulk Modulus (GPa) = 33.67735 45.34510 39.51123
# Shear Modulus (GPa) = 18.16569 31.75841 24.96205
#
# Velocity S-wave (km/s) = 3.01368 3.98475 3.53274
# Velocity P-wave (km/s) = 5.38027 6.62133 6.03280
#
# Compressibility (1/GPa) = 0.02969354
#
# Stress axis : x y z
#
# Youngs Moduli (GPa) = 81.07532 58.04284 118.70251
#
# Poissons Ratio (x) = 0.02604 0.54669
# Poissons Ratio (y) = 0.03638 -0.10771
# Poissons Ratio (z) = 0.37340 -0.05267
#
# Static dielectric constant tensor:
#      x y z
#    x 1.626580 0.000000 0.000000 
#    y 0.000000 1.798720 0.000000 
#    z 0.000000 0.000000 1.726770 
# 
# From -- ./inp_files/28453.got.cif
#   From: 2010.05.17/outbox.cif.g08.bks.cpg/sg59_15_cif.got.tgz:28453.got - 2010.06.03 14:40:33.
