data_PCOD9446964
_publ_section_title
;
Structure prediction by ZEFSAII (Michael W. Deem and Ramdas Pophale) SiO2 
 PCOD9446964
Probable space group: P M M N
;
_chemical_formula_sum "Si O2"
_cell_formula_units_Z 64
_cell_length_a 8.545508
_cell_length_b 21.267554
_cell_length_c 20.341619
_cell_angle_alpha 90.000000
_cell_angle_beta 90.000000
_cell_angle_gamma 90.000000
_cell_volume 3696.927595
_symmetry_space_group_name_H-M "P M M N"
_symmetry_group_IT_number 59
_space_group.IT_coordinate_system_code '2'
_symmetry_cell_setting 'orthorhombic'
loop_
_space_group_symop_operation_xyz
x,y,z
1/2-x,1/2-y,z
1/2+x,-y,-z
-x,1/2+y,-z
-x,-y,-z
1/2+x,1/2+y,-z
1/2-x,y,z
x,1/2-y,z
loop_
_atom_site_type_symbol
_atom_site_label
_atom_site_fract_x
_atom_site_fract_y
_atom_site_fract_z
Si Si1 0.563728 0.870009 0.177261
Si Si2 0.439957 0.439164 0.460981
Si Si3 0.437446 0.631129 0.319021
Si Si4 0.060446 0.483898 0.321620
Si Si5 0.937251 0.179978 0.957883
Si Si6 0.439603 0.487534 0.176568
Si Si7 0.061083 0.319636 0.545003
Si Si8 0.437496 0.438454 0.037630
O O1 0.750000 0.867954 0.175387
O O2 0.503986 0.848159 0.248643
O O3 0.495049 0.831821 0.116328
O O4 0.506379 0.942178 0.168915
O O5 0.500000 0.500000 0.500000
O O6 0.250000 0.440190 0.461801
O O7 0.493534 0.445918 0.385331
O O8 0.493058 0.376034 0.497770
O O9 0.250000 0.634292 0.316796
O O10 0.483282 0.557510 0.328482
O O11 0.500437 0.668197 0.381503
O O12 0.250000 0.481811 0.322273
O O13 0.010426 0.463380 0.248609
O O14 0.750000 0.176529 0.958318
O O15 0.986014 0.250000 0.979262
O O16 0.001801 0.124344 0.003252
O O17 0.250000 0.493016 0.176660
O O18 0.484978 0.446147 0.113962
O O19 0.250000 0.321727 0.546440
O O20 0.012983 0.250000 0.522842
O O21 0.250000 0.439109 0.033957
O O22 0.500000 0.500000 0.000000
#
# Coordination Sequence:
#
# PCOD9446964 Si02
#       8
#     8   8   8   8   8   8   8   8
#     4  11  21  33  53  79 108 141 177 219 264 318
#     4  10  18  31  52  75 101 133 173 217 259 307
#     4  10  19  33  52  73 102 139 178 216 256 311
#     4   8  15  29  50  75 100 130 168 211 258 304
#     4  11  24  40  56  76 107 146 186 227 271 321
#     4   9  18  33  53  78 109 140 173 216 266 320
#     4  10  21  34  48  72 106 139 171 214 265 313
#     4  11  21  34  57  83 110 143 179 225 272 321
#
# _framework density 17.311672000000002
#
# number of rings (size 3 to 8) (size 9 to 14) (size 15 to 20)
#    0.000    2.000    2.500    3.000    0.000    2.250 
#    0.000    0.000    0.000    0.750    0.000    3.500 
#    0.000    0.000    0.000    0.000    0.000    0.000 
#
# Total GULP energy -357132.816879 kJ/mol
# GULP energy per Si atom -5580.200264 kJ/mol
# Density = 1.727227 g / cm^3
# Si number density = 17.311672 Si / 1000 Ang^3
#
#
#
# Elastic Constant Matrix: (Units=GPa)
#
#
# Indices 1 2 3 4 5 6 
#
# 1 24.9129 26.6947 24.7056 0.0000 0.0000 0.0000
# 2 26.6947 122.0623 80.2562 0.0000 0.0000 0.0000
# 3 24.7056 80.2562 139.7101 0.0000 0.0000 0.0000
# 4 0.0000 0.0000 0.0000 21.9029 0.0000 0.0000
# 5 0.0000 0.0000 0.0000 0.0000 21.0632 0.0000
# 6 0.0000 0.0000 0.0000 0.0000 0.0000 18.6859
#
#
#
# Elastic Compliance Matrix: (Units=1/GPa)
#
#
# Indices 1 2 3 4 5 6 
#
# 1 0.054094 -0.008904 -0.004451 0.000000 0.000000 0.000000
# 2 -0.008904 0.014630 -0.006830 0.000000 0.000000 0.000000
# 3 -0.004451 -0.006830 0.011868 0.000000 0.000000 0.000000
# 4 0.000000 0.000000 0.000000 0.045656 0.000000 0.000000
# 5 0.000000 0.000000 0.000000 0.000000 0.047476 0.000000
# 6 0.000000 0.000000 0.000000 0.000000 0.000000 0.053516
#
#
# Mechanical properties :
#
#
# Convention : Reuss Voigt Hill
#
# Bulk Modulus (GPa) = 24.86103 61.11092 42.98597
# Shear Modulus (GPa) = 17.79242 22.66567 20.22904
#
# Velocity S-wave (km/s) = 3.20936 3.62231 3.42207
# Velocity P-wave (km/s) = 5.30334 7.27131 6.36385
#
# Compressibility (1/GPa) = 0.04022360
#
# Stress axis : x y z
#
# Youngs Moduli (GPa) = 18.48625 68.35049 84.25853
#
# Poissons Ratio (x) = 0.60857 0.37504
# Poissons Ratio (y) = 0.16460 0.57548
# Poissons Ratio (z) = 0.08228 0.46683
#
# Static dielectric constant tensor:
#      x y z
#    x 1.586030 0.000000 0.000000 
#    y 0.000000 1.973160 0.000000 
#    z 0.000000 0.000000 1.603830 
# 
# From -- ./inp_files/26566.got.cif
#   From: 2010.05.17/outbox.cif.g08.bks.cpg/sg59_14_cif.got.tgz:26566.got - 2010.06.03 14:40:33.
