data_PCOD9446118
_publ_section_title
;
Structure prediction by ZEFSAII (Michael W. Deem and Ramdas Pophale) SiO2 
 PCOD9446118
Probable space group: P N N M
;
_chemical_formula_sum "Si O2"
_cell_formula_units_Z 32
_cell_length_a 15.000000
_cell_length_b 6.000000
_cell_length_c 18.000000
_cell_angle_alpha 90.000000
_cell_angle_beta 90.000000
_cell_angle_gamma 90.000000
_cell_volume 1620.000000
_symmetry_space_group_name_H-M "P N N M"
_symmetry_group_IT_number 58
_symmetry_cell_setting 'orthorhombic'
loop_
_space_group_symop_operation_xyz
x,y,z
-x,-y,z
1/2+x,1/2-y,1/2-z
1/2-x,1/2+y,1/2-z
-x,-y,-z
x,y,-z
1/2-x,1/2+y,1/2+z
1/2+x,1/2-y,1/2+z
loop_
_atom_site_type_symbol
_atom_site_label
_atom_site_fract_x
_atom_site_fract_y
_atom_site_fract_z
Si Si1 0.188531 0.067655 0.360700
Si Si2 0.144721 0.842934 0.206673
Si Si3 0.000000 0.500000 0.143956
Si Si4 0.060846 0.234176 0.500000
Si Si5 0.338750 0.728839 0.583723
O O1 0.261196 0.220824 0.315470
O O2 0.124881 0.195135 0.424063
O O3 0.140622 0.939107 0.291200
O O4 0.251427 0.882743 0.401268
O O5 0.061115 0.675552 0.191213
O O6 0.146805 0.043580 0.147046
O O7 0.073262 0.378821 0.093360
O O8 0.000000 0.500000 0.500000
O O9 0.000000 0.000000 0.500000
O O10 0.332922 0.635778 0.500000
#
# Coordination Sequence:
#
# PCOD9446118 Si02
#       5
#     8   8   4   4   8
#     4  11  25  47  73 107 145 205 257 315 394 461
#     4  11  24  45  75 105 146 193 258 320 391 466
#     4  10  25  42  68 109 142 190 242 323 388 462
#     4  12  32  54  80 115 160 213 264 326 390 468
#     4  11  23  43  73 101 148 190 247 306 392 465
#
# _framework density 19.753086
#
# number of rings (size 3 to 8) (size 9 to 14) (size 15 to 20)
#    0.000    1.000    3.750    1.125    5.250    5.000 
#    4.500    0.000    0.000    0.000    0.000    0.000 
#    0.000    0.000    0.000    0.000    0.000    0.000 
#
# Total GULP energy -178164.104058 kJ/mol
# GULP energy per Si atom -5567.628252 kJ/mol
# Density = 1.970813 g / cm^3
# Si number density = 19.753086 Si / 1000 Ang^3
#
#
#
# Elastic Constant Matrix: (Units=GPa)
#
#
# Indices 1 2 3 4 5 6 
#
# 1 97.3782 30.3159 37.9755 0.0000 0.0000 0.0000
# 2 30.3159 85.0225 28.8990 0.0000 0.0000 0.0000
# 3 37.9755 28.8990 162.5725 0.0000 0.0000 0.0000
# 4 0.0000 0.0000 0.0000 33.8891 0.0000 0.0000
# 5 0.0000 0.0000 0.0000 0.0000 29.8855 0.0000
# 6 0.0000 0.0000 0.0000 0.0000 0.0000 49.8416
#
#
#
# Elastic Compliance Matrix: (Units=1/GPa)
#
#
# Indices 1 2 3 4 5 6 
#
# 1 0.012262 -0.003617 -0.002221 0.000000 0.000000 0.000000
# 2 -0.003617 0.013585 -0.001570 0.000000 0.000000 0.000000
# 3 -0.002221 -0.001570 0.006949 0.000000 0.000000 0.000000
# 4 0.000000 0.000000 0.000000 0.029508 0.000000 0.000000
# 5 0.000000 0.000000 0.000000 0.000000 0.033461 0.000000
# 6 0.000000 0.000000 0.000000 0.000000 0.000000 0.020064
#
#
# Mechanical properties :
#
#
# Convention : Reuss Voigt Hill
#
# Bulk Modulus (GPa) = 55.62024 59.92824 57.77424
# Shear Modulus (GPa) = 36.59317 39.24209 37.91763
#
# Velocity S-wave (km/s) = 4.30877 4.46200 4.38605
# Velocity P-wave (km/s) = 7.27825 7.54655 7.41361
#
# Compressibility (1/GPa) = 0.01797907
#
# Stress axis : x y z
#
# Youngs Moduli (GPa) = 81.55589 73.61107 143.90484
#
# Poissons Ratio (x) = 0.26625 0.31964
# Poissons Ratio (y) = 0.29499 0.22592
# Poissons Ratio (z) = 0.18115 0.11557
#
# Static dielectric constant tensor:
#      x y z
#    x 1.768810 0.000000 0.000000 
#    y 0.000000 1.879560 0.000000 
#    z 0.000000 0.000000 1.701630 
# 
# From -- ./inp_files/26557.got.cif
#   From: 2010.05.17/outbox.ucp.g08.bks.cvg/sg58_14_cif.got.tgz:26557.got - 2010.06.11 16:41:41.
