data_PCOD9446248
_publ_section_title
;
Structure prediction by ZEFSAII (Michael W. Deem and Ramdas Pophale) SiO2 
 PCOD9446248
Probable space group: P M M N
;
_chemical_formula_sum "Si O2"
_cell_formula_units_Z 32
_cell_length_a 16.972820
_cell_length_b 13.328826
_cell_length_c 7.014709
_cell_angle_alpha 90.000000
_cell_angle_beta 90.000000
_cell_angle_gamma 90.000000
_cell_volume 1586.921936
_symmetry_space_group_name_H-M "P M M N"
_symmetry_group_IT_number 59
_space_group.IT_coordinate_system_code '2'
_symmetry_cell_setting 'orthorhombic'
loop_
_space_group_symop_operation_xyz
x,y,z
1/2-x,1/2-y,z
1/2+x,-y,-z
-x,1/2+y,-z
-x,-y,-z
1/2+x,1/2+y,-z
1/2-x,y,z
x,1/2-y,z
loop_
_atom_site_type_symbol
_atom_site_label
_atom_site_fract_x
_atom_site_fract_y
_atom_site_fract_z
Si Si1 0.057024 0.365062 0.655905
Si Si2 0.507278 0.634545 0.906098
Si Si3 0.904599 0.016821 0.623635
Si Si4 0.835023 0.369327 0.951262
O O1 0.076162 0.250000 0.608044
O O2 0.046579 0.371260 0.883718
O O3 0.113135 0.448230 0.559387
O O4 0.970078 0.397939 0.579876
O O5 0.512305 0.750000 0.843043
O O6 0.414890 0.607953 0.932716
O O7 0.552546 0.561042 0.767288
O O8 0.840358 0.071298 0.751941
O O9 0.750000 0.389987 0.043402
O O10 0.839834 0.250000 0.913091
#
# Coordination Sequence:
#
# PCOD9446248 Si02
#       4
#     8   8   8   8
#     4   9  17  27  43  69  92 111 147 194 229 263
#     4   9  17  30  49  71  94 121 155 195 233 270
#     4  10  17  28  49  70  90 123 158 189 230 273
#     4   9  17  29  46  69  96 123 150 186 235 284
#
# _framework density 20.164821
#
# number of rings (size 3 to 8) (size 9 to 14) (size 15 to 20)
#    0.000    2.750    0.000    6.000    0.000    0.000 
#    0.000    0.000    0.000   30.000    0.000   73.500 
#    0.000    0.000    0.000    0.000    0.000    0.000 
#
# Total GULP energy -178288.106070 kJ/mol
# GULP energy per Si atom -5571.503315 kJ/mol
# Density = 2.011893 g / cm^3
# Si number density = 20.164821 Si / 1000 Ang^3
#
#
#
# Elastic Constant Matrix: (Units=GPa)
#
#
# Indices 1 2 3 4 5 6 
#
# 1 50.0088 11.0716 15.8764 0.0000 0.0000 0.0000
# 2 11.0716 89.5829 14.9972 0.0000 0.0000 0.0000
# 3 15.8764 14.9972 63.1585 0.0000 0.0000 0.0000
# 4 0.0000 0.0000 0.0000 32.0771 0.0000 0.0000
# 5 0.0000 0.0000 0.0000 0.0000 13.2196 0.0000
# 6 0.0000 0.0000 0.0000 0.0000 0.0000 14.0480
#
#
#
# Elastic Compliance Matrix: (Units=1/GPa)
#
#
# Indices 1 2 3 4 5 6 
#
# 1 0.022027 -0.001870 -0.005093 0.000000 0.000000 0.000000
# 2 -0.001870 0.011784 -0.002328 0.000000 0.000000 0.000000
# 3 -0.005093 -0.002328 0.017666 0.000000 0.000000 0.000000
# 4 0.000000 0.000000 0.000000 0.031175 0.000000 0.000000
# 5 0.000000 0.000000 0.000000 0.000000 0.075645 0.000000
# 6 0.000000 0.000000 0.000000 0.000000 0.000000 0.071184
#
#
# Mechanical properties :
#
#
# Convention : Reuss Voigt Hill
#
# Bulk Modulus (GPa) = 30.39939 31.84899 31.12419
# Shear Modulus (GPa) = 19.30286 22.58927 20.94607
#
# Velocity S-wave (km/s) = 3.09731 3.35062 3.22645
# Velocity P-wave (km/s) = 5.28198 5.54955 5.41741
#
# Compressibility (1/GPa) = 0.03289540
#
# Stress axis : x y z
#
# Youngs Moduli (GPa) = 45.39813 84.86314 56.60502
#
# Poissons Ratio (x) = 0.15867 0.28830
# Poissons Ratio (y) = 0.08488 0.13178
# Poissons Ratio (z) = 0.23122 0.19757
#
# Static dielectric constant tensor:
#      x y z
#    x 1.741390 0.000000 0.000000 
#    y 0.000000 1.756350 0.000000 
#    z 0.000000 0.000000 1.798610 
# 
# From -- ./inp_files/8395.got.cif
#   From: 2010.05.17/outbox.cif.g08.bks.cpg/sg59_5_cif.got.tgz:8395.got - 2010.06.03 14:40:33.
