data_PCOD9446080
_publ_section_title
;
Structure prediction by ZEFSAII (Michael W. Deem and Ramdas Pophale) SiO2 
 PCOD9446080
Probable space group: P N N M
;
_chemical_formula_sum "Si O2"
_cell_formula_units_Z 64
_cell_length_a 30.000000
_cell_length_b 12.000000
_cell_length_c 9.000000
_cell_angle_alpha 90.000000
_cell_angle_beta 90.000000
_cell_angle_gamma 90.000000
_cell_volume 3240.000000
_symmetry_space_group_name_H-M "P N N M"
_symmetry_group_IT_number 58
_symmetry_cell_setting 'orthorhombic'
loop_
_space_group_symop_operation_xyz
x,y,z
-x,-y,z
1/2+x,1/2-y,1/2-z
1/2-x,1/2+y,1/2-z
-x,-y,-z
x,y,-z
1/2-x,1/2+y,1/2+z
1/2+x,1/2-y,1/2+z
loop_
_atom_site_type_symbol
_atom_site_label
_atom_site_fract_x
_atom_site_fract_y
_atom_site_fract_z
Si Si1 0.213839 0.672786 0.822162
Si Si2 0.464143 0.724969 0.823357
Si Si3 0.660561 0.020992 0.827769
Si Si4 0.316365 0.722267 0.829214
Si Si5 0.361997 0.333833 0.679331
Si Si6 0.550189 0.796639 0.321798
Si Si7 0.932615 0.545086 0.823887
Si Si8 0.609779 0.420847 0.322739
O O1 0.194914 0.570045 0.730007
O O2 0.266005 0.687337 0.798501
O O3 0.185313 0.781978 0.776522
O O4 0.206416 0.655690 0.000000
O O5 0.514204 0.722783 0.762254
O O6 0.434115 0.627788 0.754504
O O7 0.446033 0.844529 0.764568
O O8 0.462136 0.722168 0.000000
O O9 0.618260 0.020513 0.719581
O O10 0.680301 0.144832 0.820452
O O11 0.647489 0.999906 0.000000
O O12 0.350875 0.663979 0.720069
O O13 0.328103 0.690967 0.000000
O O14 0.361303 0.341266 0.500000
O O15 0.400627 0.245757 0.718662
O O16 0.375433 0.456610 0.731691
O O17 0.544989 0.784937 0.500000
O O18 0.543601 0.927569 0.287217
O O19 0.938028 0.565365 0.000000
O O20 0.603072 0.423462 0.500000
#
# Coordination Sequence:
#
# PCOD9446080 Si02
#       8
#     8   8   8   8   8   8   8   8
#     4  10  21  41  64  88 122 163 204 247 301 358
#     4  12  25  40  59  88 127 159 195 246 308 363
#     4  11  22  37  61  93 127 160 197 250 307 355
#     4  10  23  40  61  89 126 162 197 251 307 352
#     4   9  20  40  64  88 114 155 205 254 294 346
#     4  10  21  40  64  89 118 152 202 251 299 359
#     4  11  21  38  65  92 120 158 202 247 296 358
#     4  11  23  40  65  88 116 159 210 252 296 360
#
# _framework density 19.753086
#
# number of rings (size 3 to 8) (size 9 to 14) (size 15 to 20)
#    0.000    1.500    2.500    2.625    1.750    4.000 
#    0.000    5.000    0.000    0.000    0.000    0.000 
#    0.000    0.000    0.000    0.000    0.000    0.000 
#
# Total GULP energy -357542.836398 kJ/mol
# GULP energy per Si atom -5586.606819 kJ/mol
# Density = 1.970813 g / cm^3
# Si number density = 19.753086 Si / 1000 Ang^3
#
#
#
# Elastic Constant Matrix: (Units=GPa)
#
#
# Indices 1 2 3 4 5 6 
#
# 1 28.8015 -26.5271 -0.9745 0.0000 0.0000 0.0000
# 2 -26.5271 29.8905 -6.0404 0.0000 0.0000 0.0000
# 3 -0.9745 -6.0404 28.1275 0.0000 0.0000 0.0000
# 4 0.0000 0.0000 0.0000 40.0566 0.0000 0.0000
# 5 0.0000 0.0000 0.0000 0.0000 20.9209 0.0000
# 6 0.0000 0.0000 0.0000 0.0000 0.0000 8.7936
#
#
#
# Elastic Compliance Matrix: (Units=1/GPa)
#
#
# Indices 1 2 3 4 5 6 
#
# 1 0.265405 0.248168 0.062489 0.000000 0.000000 0.000000
# 2 0.248168 0.267023 0.065941 0.000000 0.000000 0.000000
# 3 0.062489 0.065941 0.051878 0.000000 0.000000 0.000000
# 4 0.000000 0.000000 0.000000 0.024965 0.000000 0.000000
# 5 0.000000 0.000000 0.000000 0.000000 0.047799 0.000000
# 6 0.000000 0.000000 0.000000 0.000000 0.000000 0.113719
#
#
# Mechanical properties :
#
#
# Convention : Reuss Voigt Hill
#
# Bulk Modulus (GPa) = 0.74766 2.19285 1.47026
# Shear Modulus (GPa) = 10.78918 21.97832 16.38375
#
# Velocity S-wave (km/s) = 2.33963 3.33926 2.88310
# Velocity P-wave (km/s) = 2.77089 3.99751 3.43933
#
# Compressibility (1/GPa) = 1.33750331
#
# Stress axis : x y z
#
# Youngs Moduli (GPa) = 3.76783 3.74499 19.27592
#
# Poissons Ratio (x) = -0.92939 -1.20454
# Poissons Ratio (y) = -0.93505 -1.27108
# Poissons Ratio (z) = -0.23545 -0.24695
#
# Static dielectric constant tensor:
#      x y z
#    x 1.704820 0.000000 0.000000 
#    y 0.000000 1.688670 0.000000 
#    z 0.000000 0.000000 1.665660 
# 
# From -- ./inp_files/11050.got.cif
#   From: 2010.05.17/outbox.ucp.g08.bks.cvg/sg58_6_cif.got.tgz:11050.got - 2010.06.11 16:41:41.
