data_PCOD9446415
_publ_section_title
;
Structure prediction by ZEFSAII (Michael W. Deem and Ramdas Pophale) SiO2 
 PCOD9446415
Probable space group: P M M N
;
_chemical_formula_sum "Si O2"
_cell_formula_units_Z 48
_cell_length_a 21.994298
_cell_length_b 24.833346
_cell_length_c 5.117529
_cell_angle_alpha 90.000000
_cell_angle_beta 90.000000
_cell_angle_gamma 90.000000
_cell_volume 2795.153462
_symmetry_space_group_name_H-M "P M M N"
_symmetry_group_IT_number 59
_space_group.IT_coordinate_system_code '2'
_symmetry_cell_setting 'orthorhombic'
loop_
_space_group_symop_operation_xyz
x,y,z
1/2-x,1/2-y,z
1/2+x,-y,-z
-x,1/2+y,-z
-x,-y,-z
1/2+x,1/2+y,-z
1/2-x,y,z
x,1/2-y,z
loop_
_atom_site_type_symbol
_atom_site_label
_atom_site_fract_x
_atom_site_fract_y
_atom_site_fract_z
Si Si1 0.677545 0.554342 0.014193
Si Si2 0.481742 0.188069 0.432477
Si Si3 0.979628 0.446033 0.867648
Si Si4 0.322292 0.518896 0.476631
Si Si5 0.077010 0.592594 0.623572
Si Si6 0.918571 0.642293 0.077111
O O1 0.750000 0.561567 0.984648
O O2 0.656333 0.515755 0.775456
O O3 0.666261 0.520278 0.276968
O O4 0.645480 0.612647 0.030767
O O5 0.501076 0.250000 0.431559
O O6 0.541292 0.148489 0.439283
O O7 0.434793 0.177603 0.670176
O O8 0.443972 0.173069 0.174238
O O9 0.958482 0.448531 0.569832
O O10 0.037839 0.408456 0.878734
O O11 0.931586 0.419107 0.069749
O O12 0.000000 0.500000 0.000000
O O13 0.250000 0.527208 0.449935
O O14 0.355329 0.575863 0.534700
#
# Coordination Sequence:
#
# PCOD9446415 Si02
#       6
#     8   8   8   8   8   8
#     4  10  20  33  50  73 102 131 156 186 229 287
#     4  10  21  35  51  70  93 124 162 208 249 276
#     4  10  18  27  44  70  97 120 148 189 234 286
#     4  10  19  31  48  72 103 133 157 184 225 284
#     4  10  19  30  46  68  94 125 157 190 233 281
#     4  10  19  32  51  71  93 125 160 195 240 288
#
# _framework density 17.172581000000001
#
# number of rings (size 3 to 8) (size 9 to 14) (size 15 to 20)
#    0.000    2.000    0.000    5.000    0.000    2.667 
#    0.000    0.000    0.000    3.500    0.000    0.000 
#    0.000   12.000    0.000    0.000    0.000    2.000 
#
# Total GULP energy -267254.884950 kJ/mol
# GULP energy per Si atom -5567.810103 kJ/mol
# Density = 1.713350 g / cm^3
# Si number density = 17.172581 Si / 1000 Ang^3
#
#
#
# Elastic Constant Matrix: (Units=GPa)
#
#
# Indices 1 2 3 4 5 6 
#
# 1 54.3278 37.6930 23.0810 0.0000 0.0000 0.0000
# 2 37.6930 73.3984 5.3412 0.0000 0.0000 0.0000
# 3 23.0810 5.3412 74.1598 0.0000 0.0000 0.0000
# 4 0.0000 0.0000 0.0000 -33.8130 0.0000 0.0000
# 5 0.0000 0.0000 0.0000 0.0000 14.0701 0.0000
# 6 0.0000 0.0000 0.0000 0.0000 0.0000 23.5572
#
#
#
# Elastic Compliance Matrix: (Units=1/GPa)
#
#
# Indices 1 2 3 4 5 6 
#
# 1 0.034055 -0.016806 -0.009389 0.000000 0.000000 0.000000
# 2 -0.016806 0.021989 0.003647 0.000000 0.000000 0.000000
# 3 -0.009389 0.003647 0.016144 0.000000 0.000000 0.000000
# 4 0.000000 0.000000 0.000000 -0.029574 0.000000 0.000000
# 5 0.000000 0.000000 0.000000 0.000000 0.071073 0.000000
# 6 0.000000 0.000000 0.000000 0.000000 0.000000 0.042450
#
#
# Mechanical properties :
#
#
# Convention : Reuss Voigt Hill
#
# Bulk Modulus (GPa) = 36.90962 37.12404 37.01683
# Shear Modulus (GPa) = 23.77971 9.81425 16.79698
#
# Velocity S-wave (km/s) = 3.72526 2.39321 3.13090
# Velocity P-wave (km/s) = 6.32799 5.41311 5.88834
#
# Compressibility (1/GPa) = 0.02709321
#
# Stress axis : x y z
#
# Youngs Moduli (GPa) = 29.36387 45.47675 61.94305
#
# Poissons Ratio (x) = 0.76427 0.58157
# Poissons Ratio (y) = 0.49348 -0.22589
# Poissons Ratio (z) = 0.27569 -0.16584
#
# Static dielectric constant tensor:
#      x y z
#    x 1.696100 0.000000 0.000000 
#    y 0.000000 1.684780 0.000000 
#    z 0.000000 0.000000 1.859700 
# 
# From -- ./inp_files/3338.got.cif
#   From: 2010.05.17/outbox.cif.g08.bks.cpg/sg59_2_cif.got.tgz:3338.got - 2010.06.03 14:40:33.
