data_PCOD9446442
_publ_section_title
;
Structure prediction by ZEFSAII (Michael W. Deem and Ramdas Pophale) SiO2 
 PCOD9446442
Probable space group: P M M N
;
_chemical_formula_sum "Si O2"
_cell_formula_units_Z 64
_cell_length_a 7.435773
_cell_length_b 26.475158
_cell_length_c 17.879789
_cell_angle_alpha 90.000000
_cell_angle_beta 90.000000
_cell_angle_gamma 90.000000
_cell_volume 3519.873641
_symmetry_space_group_name_H-M "P M M N"
_symmetry_group_IT_number 59
_space_group.IT_coordinate_system_code '2'
_symmetry_cell_setting 'orthorhombic'
loop_
_space_group_symop_operation_xyz
x,y,z
1/2-x,1/2-y,z
1/2+x,-y,-z
-x,1/2+y,-z
-x,-y,-z
1/2+x,1/2+y,-z
1/2-x,y,z
x,1/2-y,z
loop_
_atom_site_type_symbol
_atom_site_label
_atom_site_fract_x
_atom_site_fract_y
_atom_site_fract_z
Si Si1 0.535118 0.560132 0.498144
Si Si2 0.530372 0.807149 0.085889
Si Si3 0.970590 0.903361 0.820828
Si Si4 0.031816 0.054510 0.664453
Si Si5 0.958655 0.600651 0.182640
Si Si6 0.036612 0.997567 0.088218
Si Si7 0.462380 0.434812 0.339859
Si Si8 0.530908 0.693046 0.914097
O O1 0.500000 0.500000 0.500000
O O2 0.750000 0.567941 0.498628
O O3 0.469303 0.575999 0.415947
O O4 0.463612 0.579549 0.577987
O O5 0.750000 0.808443 0.085786
O O6 0.477382 0.750000 0.105904
O O7 0.463947 0.850612 0.140997
O O8 0.476205 0.816891 0.999959
O O9 0.750000 0.903802 0.820685
O O10 0.033380 0.909512 0.735480
O O11 0.028520 0.851724 0.860186
O O12 0.028152 0.952120 0.869125
O O13 0.250000 0.055601 0.664591
O O14 0.964132 0.083305 0.737736
O O15 0.981982 0.995373 0.669385
O O16 0.750000 0.612681 0.197280
O O17 0.963605 0.552851 0.126936
O O18 0.250000 0.995560 0.098636
O O19 0.000000 0.000000 0.000000
O O20 0.250000 0.423893 0.342004
O O21 0.750000 0.692887 0.913457
O O22 0.474374 0.750000 0.893805
#
# Coordination Sequence:
#
# PCOD9446442 Si02
#       8
#     8   8   8   8   8   8   8   8
#     4   8  14  23  36  53  75 105 134 158 190 233
#     4   8  14  25  41  59  77 101 136 176 211 241
#     4   9  16  25  38  57  79 103 131 163 198 237
#     4   9  16  25  37  57  83 106 130 163 200 238
#     4  10  18  28  43  62  84 107 135 172 210 246
#     4  11  21  31  42  58  84 113 139 165 201 252
#     4   9  15  25  39  55  78 107 135 160 191 239
#     4   8  13  22  36  53  73  96 127 169 207 231
#
# _framework density 18.182469999999999
#
# number of rings (size 3 to 8) (size 9 to 14) (size 15 to 20)
#    0.000    3.000    1.250    1.875    0.000    2.000 
#    0.000    0.000    0.000    0.375    0.000    0.875 
#    0.000   11.000    0.000    0.000    0.000   44.375 
#
# Total GULP energy -356685.821155 kJ/mol
# GULP energy per Si atom -5573.215956 kJ/mol
# Density = 1.814109 g / cm^3
# Si number density = 18.182470 Si / 1000 Ang^3
#
#
#
# Elastic Constant Matrix: (Units=GPa)
#
#
# Indices 1 2 3 4 5 6 
#
# 1 56.2396 -3.8468 -2.2214 0.0000 0.0000 0.0000
# 2 -3.8468 103.8130 88.6424 0.0000 0.0000 0.0000
# 3 -2.2214 88.6424 194.4820 0.0000 0.0000 0.0000
# 4 0.0000 0.0000 0.0000 21.9782 0.0000 0.0000
# 5 0.0000 0.0000 0.0000 0.0000 3.2113 0.0000
# 6 0.0000 0.0000 0.0000 0.0000 0.0000 6.0228
#
#
#
# Elastic Compliance Matrix: (Units=1/GPa)
#
#
# Indices 1 2 3 4 5 6 
#
# 1 0.017829 0.000797 -0.000160 0.000000 0.000000 0.000000
# 2 0.000797 0.015806 -0.007195 0.000000 0.000000 0.000000
# 3 -0.000160 -0.007195 0.008419 0.000000 0.000000 0.000000
# 4 0.000000 0.000000 0.000000 0.045500 0.000000 0.000000
# 5 0.000000 0.000000 0.000000 0.000000 0.311398 0.000000
# 6 0.000000 0.000000 0.000000 0.000000 0.000000 0.166035
#
#
# Mechanical properties :
#
#
# Convention : Reuss Voigt Hill
#
# Bulk Modulus (GPa) = 34.55516 57.74254 46.14885
# Shear Modulus (GPa) = 8.50704 24.37316 16.44010
#
# Velocity S-wave (km/s) = 2.16538 3.66522 3.01021
# Velocity P-wave (km/s) = 5.02968 7.05252 6.12518
#
# Compressibility (1/GPa) = 0.02893924
#
# Stress axis : x y z
#
# Youngs Moduli (GPa) = 56.08750 63.26796 118.77303
#
# Poissons Ratio (x) = -0.05042 0.01895
# Poissons Ratio (y) = -0.04470 0.85457
# Poissons Ratio (z) = 0.00895 0.45521
#
# Static dielectric constant tensor:
#      x y z
#    x 1.842520 0.000000 0.000000 
#    y 0.000000 1.573160 0.000000 
#    z 0.000000 0.000000 1.642250 
# 
# From -- ./inp_files/26520.got.cif
#   From: 2010.05.17/outbox.cif.g08.bks.cpg/sg59_14_cif.got.tgz:26520.got - 2010.06.03 14:40:33.
