data_PCOD9446861
_publ_section_title
;
Structure prediction by ZEFSAII (Michael W. Deem and Ramdas Pophale) SiO2 
 PCOD9446861
Probable space group: P M M N
;
_chemical_formula_sum "Si O2"
_cell_formula_units_Z 48
_cell_length_a 9.277840
_cell_length_b 16.081778
_cell_length_c 15.022535
_cell_angle_alpha 90.000000
_cell_angle_beta 90.000000
_cell_angle_gamma 90.000000
_cell_volume 2241.424764
_symmetry_space_group_name_H-M "P M M N"
_symmetry_group_IT_number 59
_space_group.IT_coordinate_system_code '2'
_symmetry_cell_setting 'orthorhombic'
loop_
_space_group_symop_operation_xyz
x,y,z
1/2-x,1/2-y,z
1/2+x,-y,-z
-x,1/2+y,-z
-x,-y,-z
1/2+x,1/2+y,-z
1/2-x,y,z
x,1/2-y,z
loop_
_atom_site_type_symbol
_atom_site_label
_atom_site_fract_x
_atom_site_fract_y
_atom_site_fract_z
Si Si1 0.423459 0.250000 0.780779
Si Si2 0.589228 0.910279 0.728858
Si Si3 0.084885 0.415628 0.979680
Si Si4 0.910495 0.572125 0.233687
Si Si5 0.576913 0.250000 0.971408
Si Si6 0.083816 0.750000 0.512502
Si Si7 0.586251 0.250000 0.269287
Si Si8 0.914063 0.914605 0.515674
O O1 0.250000 0.250000 0.805628
O O2 0.447574 0.336425 0.729842
O O3 0.526791 0.250000 0.867177
O O4 0.750000 0.904603 0.765194
O O5 0.493726 0.833334 0.760780
O O6 0.596152 0.903882 0.622120
O O7 0.519622 0.998924 0.748082
O O8 0.250000 0.415905 0.013010
O O9 0.093900 0.413715 0.872358
O O10 0.996091 0.334048 0.009022
O O11 0.000000 0.500000 0.000000
O O12 0.750000 0.547320 0.263610
O O13 0.750000 0.250000 0.979360
O O14 0.250000 0.750000 0.483220
O O15 0.086287 0.750000 0.621817
O O16 0.000828 0.833504 0.484046
O O17 0.750000 0.250000 0.238429
O O18 0.750000 0.918573 0.480613
O O19 0.000000 0.000000 0.500000
#
# Coordination Sequence:
#
# PCOD9446861 Si02
#       8
#     4   8   8   8   4   4   4   8
#     4   8  16  32  51  72  99 132 170 209 244 290
#     4  10  20  33  51  76 104 131 165 209 252 294
#     4  10  20  35  54  77 104 134 169 210 252 298
#     4   9  18  33  53  75 101 133 168 205 249 299
#     4  10  18  30  51  76 101 134 171 205 247 302
#     4   9  17  31  52  75  98 129 167 207 251 303
#     4   9  17  31  52  73  96 131 170 203 244 301
#     4  10  20  34  52  75 102 134 170 209 251 298
#
# _framework density 21.414952
#
# number of rings (size 3 to 8) (size 9 to 14) (size 15 to 20)
#    0.000    2.500    0.000    3.750    0.000    7.333 
#    0.000    1.667    0.000    9.000    0.000    0.000 
#    0.000    0.000    0.000    0.000    0.000    0.000 
#
# Total GULP energy -267989.138767 kJ/mol
# GULP energy per Si atom -5583.107058 kJ/mol
# Density = 2.136621 g / cm^3
# Si number density = 21.414952 Si / 1000 Ang^3
#
#
#
# Elastic Constant Matrix: (Units=GPa)
#
#
# Indices 1 2 3 4 5 6 
#
# 1 230.4871 151.8354 7.2068 0.0000 0.0000 0.0000
# 2 151.8354 238.4218 1.1918 0.0000 0.0000 0.0000
# 3 7.2068 1.1918 44.5401 0.0000 0.0000 0.0000
# 4 0.0000 0.0000 0.0000 24.5993 0.0000 0.0000
# 5 0.0000 0.0000 0.0000 0.0000 14.8906 0.0000
# 6 0.0000 0.0000 0.0000 0.0000 0.0000 38.8691
#
#
#
# Elastic Compliance Matrix: (Units=1/GPa)
#
#
# Indices 1 2 3 4 5 6 
#
# 1 0.007527 -0.004788 -0.001090 0.000000 0.000000 0.000000
# 2 -0.004788 0.007240 0.000581 0.000000 0.000000 0.000000
# 3 -0.001090 0.000581 0.022612 0.000000 0.000000 0.000000
# 4 0.000000 0.000000 0.000000 0.040651 0.000000 0.000000
# 5 0.000000 0.000000 0.000000 0.000000 0.067156 0.000000
# 6 0.000000 0.000000 0.000000 0.000000 0.000000 0.025727
#
#
# Mechanical properties :
#
#
# Convention : Reuss Voigt Hill
#
# Bulk Modulus (GPa) = 37.33245 92.65746 64.99495
# Shear Modulus (GPa) = 26.25539 39.21947 32.73743
#
# Velocity S-wave (km/s) = 3.50527 4.28414 3.91412
# Velocity P-wave (km/s) = 5.81836 8.23610 7.13045
#
# Compressibility (1/GPa) = 0.02678635
#
# Stress axis : x y z
#
# Youngs Moduli (GPa) = 132.85939 138.11357 44.22337
#
# Poissons Ratio (x) = 0.66127 0.04819
# Poissons Ratio (y) = 0.63611 -0.02569
# Poissons Ratio (z) = 0.14478 -0.08024
#
# Static dielectric constant tensor:
#      x y z
#    x 1.749530 0.000000 0.000000 
#    y 0.000000 1.769510 0.000000 
#    z 0.000000 0.000000 1.833160 
# 
# From -- ./inp_files/25693.got.cif
#   From: 2010.05.17/outbox.cif.g08.bks.cpg/sg59_13_cif.got.tgz:25693.got - 2010.06.03 14:40:33.
