data_PCOD9446146
_publ_section_title
;
Structure prediction by ZEFSAII (Michael W. Deem and Ramdas Pophale) SiO2 
 PCOD9446146
Probable space group: P M M N
;
_chemical_formula_sum "Si O2"
_cell_formula_units_Z 34
_cell_length_a 19.080090
_cell_length_b 10.230650
_cell_length_c 7.179312
_cell_angle_alpha 90.000000
_cell_angle_beta 90.000000
_cell_angle_gamma 90.000000
_cell_volume 1401.414071
_symmetry_space_group_name_H-M "P M M N"
_symmetry_group_IT_number 59
_space_group.IT_coordinate_system_code '2'
_symmetry_cell_setting 'orthorhombic'
loop_
_space_group_symop_operation_xyz
x,y,z
1/2-x,1/2-y,z
1/2+x,-y,-z
-x,1/2+y,-z
-x,-y,-z
1/2+x,1/2+y,-z
1/2-x,y,z
x,1/2-y,z
loop_
_atom_site_type_symbol
_atom_site_label
_atom_site_fract_x
_atom_site_fract_y
_atom_site_fract_z
Si Si1 0.358887 0.466674 0.489097
Si Si2 0.455471 0.250000 0.402723
Si Si3 0.593065 0.750000 0.013454
Si Si4 0.928560 0.250000 0.897230
Si Si5 0.750000 0.750000 0.399152
Si Si6 0.168023 0.509382 0.048603
Si Si7 0.609837 0.250000 0.455380
O O1 0.433201 0.387940 0.496087
O O2 0.308999 0.363166 0.579902
O O3 0.335764 0.485011 0.272858
O O4 0.354748 0.610626 0.576520
O O5 0.414363 0.250000 0.209817
O O6 0.536122 0.250000 0.353371
O O7 0.637885 0.620055 0.050073
O O8 0.512933 0.750000 0.085278
O O9 0.887893 0.374903 0.980384
O O10 0.911431 0.250000 0.675698
O O11 0.250000 0.535067 0.002943
#
# Coordination Sequence:
#
# PCOD9446146 Si02
#       7
#     8   4   4   4   2   8   4
#     4   9  18  28  50  74 105 127 166 213 259 298
#     4   9  18  32  51  75 100 138 172 197 255 316
#     4  10  20  33  53  80 102 137 179 214 255 312
#     4  10  21  33  48  82 109 133 168 225 268 301
#     4  10  16  30  44  72 102 128 160 214 256 284
#     4  10  18  31  52  77 102 136 175 222 261 306
#     4  10  19  32  48  79 106 132 165 204 268 307
#
# _framework density 24.261209000000001
#
# number of rings (size 3 to 8) (size 9 to 14) (size 15 to 20)
#    0.000    2.353    1.176    2.824    0.000    0.471 
#    0.000    0.000    0.000    0.000   30.588    0.000 
#    0.000    0.000    0.000    0.000    0.000    0.000 
#
# Total GULP energy -189451.479434 kJ/mol
# GULP energy per Si atom -5572.102336 kJ/mol
# Density = 2.420599 g / cm^3
# Si number density = 24.261209 Si / 1000 Ang^3
#
#
#
# Elastic Constant Matrix: (Units=GPa)
#
#
# Indices 1 2 3 4 5 6 
#
# 1 122.0456 47.9203 5.6229 0.0000 0.0000 0.0000
# 2 47.9203 198.1974 22.9222 0.0000 0.0000 0.0000
# 3 5.6229 22.9222 60.9976 0.0000 0.0000 0.0000
# 4 0.0000 0.0000 0.0000 -14.6304 0.0000 0.0000
# 5 0.0000 0.0000 0.0000 0.0000 4.2415 0.0000
# 6 0.0000 0.0000 0.0000 0.0000 0.0000 89.9854
#
#
#
# Elastic Compliance Matrix: (Units=1/GPa)
#
#
# Indices 1 2 3 4 5 6 
#
# 1 0.009053 -0.002187 -0.000013 0.000000 0.000000 0.000000
# 2 -0.002187 0.005803 -0.001979 0.000000 0.000000 0.000000
# 3 -0.000013 -0.001979 0.017139 0.000000 0.000000 0.000000
# 4 0.000000 0.000000 0.000000 -0.068351 0.000000 0.000000
# 5 0.000000 0.000000 0.000000 0.000000 0.235765 0.000000
# 6 0.000000 0.000000 0.000000 0.000000 0.000000 0.011113
#
#
# Mechanical properties :
#
#
# Convention : Reuss Voigt Hill
#
# Bulk Modulus (GPa) = 42.30628 59.35235 50.82932
# Shear Modulus (GPa) = 22.04984 36.23765 29.14375
#
# Velocity S-wave (km/s) = 3.01799 3.86896 3.46966
# Velocity P-wave (km/s) = 5.44243 6.66900 6.08669
#
# Compressibility (1/GPa) = 0.02363715
#
# Stress axis : x y z
#
# Youngs Moduli (GPa) = 110.45927 172.31739 58.34650
#
# Poissons Ratio (x) = 0.37693 0.00073
# Poissons Ratio (y) = 0.24162 0.11548
# Poissons Ratio (z) = 0.00138 0.34104
#
# Static dielectric constant tensor:
#      x y z
#    x 1.813660 0.000000 0.000000 
#    y 0.000000 1.912230 0.000000 
#    z 0.000000 0.000000 2.030420 
# 
# From -- ./inp_files/5515.got.cif
#   From: 2010.05.17/outbox.cif.g08.bks.cpg/sg59_3_cif.got.tgz:5515.got - 2010.06.03 14:40:33.
