data_PCOD9446741
_publ_section_title
;
Structure prediction by ZEFSAII (Michael W. Deem and Ramdas Pophale) SiO2 
 PCOD9446741
Probable space group: P M M N
;
_chemical_formula_sum "Si O2"
_cell_formula_units_Z 48
_cell_length_a 28.320719
_cell_length_b 7.347451
_cell_length_c 10.398287
_cell_angle_alpha 90.000000
_cell_angle_beta 90.000000
_cell_angle_gamma 90.000000
_cell_volume 2163.728540
_symmetry_space_group_name_H-M "P M M N"
_symmetry_group_IT_number 59
_space_group.IT_coordinate_system_code '2'
_symmetry_cell_setting 'orthorhombic'
loop_
_space_group_symop_operation_xyz
x,y,z
1/2-x,1/2-y,z
1/2+x,-y,-z
-x,1/2+y,-z
-x,-y,-z
1/2+x,1/2+y,-z
1/2-x,y,z
x,1/2-y,z
loop_
_atom_site_type_symbol
_atom_site_label
_atom_site_fract_x
_atom_site_fract_y
_atom_site_fract_z
Si Si1 0.563832 0.969015 0.099057
Si Si2 0.035752 0.538427 0.191839
Si Si3 0.168946 0.961003 0.823680
Si Si4 0.802266 0.471833 0.898519
Si Si5 0.873514 0.027281 0.677628
Si Si6 0.196894 0.527567 0.543675
O O1 0.563083 0.750000 0.097683
O O2 0.516780 0.037626 0.171674
O O3 0.612401 0.029658 0.162846
O O4 0.559495 0.028722 0.950250
O O5 0.029236 0.750000 0.224031
O O6 0.073224 0.463772 0.294191
O O7 0.183753 0.750000 0.822562
O O8 0.188754 0.038185 0.956863
O O9 0.186781 0.036094 0.688737
O O10 0.750000 0.522558 0.854865
O O11 0.804368 0.250000 0.901054
O O12 0.841932 0.530108 0.799274
O O13 0.874733 0.250000 0.676729
O O14 0.844823 0.969526 0.551823
O O15 0.250000 0.474962 0.503418
O O16 0.196013 0.750000 0.542685
#
# Coordination Sequence:
#
# PCOD9446741 Si02
#       6
#     8   8   8   8   8   8
#     4  10  19  30  48  72  98 127 163 201 238 287
#     4   9  17  31  50  73  98 126 159 199 248 290
#     4  10  18  30  47  70 100 127 156 195 240 284
#     4   9  15  23  41  68  93 118 152 195 237 278
#     4   9  15  26  45  70  98 123 152 196 246 288
#     4   9  17  28  45  72 101 126 156 198 243 285
#
# _framework density 22.183928999999999
#
# number of rings (size 3 to 8) (size 9 to 14) (size 15 to 20)
#    0.000    2.667    1.667    1.500    0.000    4.667 
#    0.000    0.833    0.000    3.000    0.000    0.000 
#    0.000    0.000    0.000    0.000    0.000    0.000 
#
# Total GULP energy -267992.698571 kJ/mol
# GULP energy per Si atom -5583.181220 kJ/mol
# Density = 2.213344 g / cm^3
# Si number density = 22.183929 Si / 1000 Ang^3
#
#
#
# Elastic Constant Matrix: (Units=GPa)
#
#
# Indices 1 2 3 4 5 6 
#
# 1 66.3712 -11.1883 -10.1688 0.0000 0.0000 0.0000
# 2 -11.1883 83.3099 -6.0802 0.0000 0.0000 0.0000
# 3 -10.1688 -6.0802 48.3736 0.0000 0.0000 0.0000
# 4 0.0000 0.0000 0.0000 -6.1786 0.0000 0.0000
# 5 0.0000 0.0000 0.0000 0.0000 17.3407 0.0000
# 6 0.0000 0.0000 0.0000 0.0000 0.0000 5.2030
#
#
#
# Elastic Compliance Matrix: (Units=1/GPa)
#
#
# Indices 1 2 3 4 5 6 
#
# 1 0.016038 0.002422 0.003676 0.000000 0.000000 0.000000
# 2 0.002422 0.012480 0.002078 0.000000 0.000000 0.000000
# 3 0.003676 0.002078 0.021706 0.000000 0.000000 0.000000
# 4 0.000000 0.000000 0.000000 -0.161849 0.000000 0.000000
# 5 0.000000 0.000000 0.000000 0.000000 0.057668 0.000000
# 6 0.000000 0.000000 0.000000 0.000000 0.000000 0.192197
#
#
# Mechanical properties :
#
#
# Convention : Reuss Voigt Hill
#
# Bulk Modulus (GPa) = 15.02025 15.90891 15.46458
# Shear Modulus (GPa) = 34.70286 18.30583 26.50434
#
# Velocity S-wave (km/s) = 3.95944 2.87572 3.46027
# Velocity P-wave (km/s) = 5.26198 4.26770 4.79070
#
# Compressibility (1/GPa) = 0.06657681
#
# Stress axis : x y z
#
# Youngs Moduli (GPa) = 62.35087 80.12622 46.06947
#
# Poissons Ratio (x) = -0.19408 -0.16935
# Poissons Ratio (y) = -0.15102 -0.09573
# Poissons Ratio (z) = -0.22920 -0.16649
#
# Static dielectric constant tensor:
#      x y z
#    x 1.819010 0.000000 0.000000 
#    y 0.000000 1.846400 0.000000 
#    z 0.000000 0.000000 1.777510 
# 
# From -- ./inp_files/19038.got.cif
#   From: 2010.05.17/outbox.cif.g08.bks.cpg/sg59_10_cif.got.tgz:19038.got - 2010.06.03 14:40:33.
