data_PCOD9446896
_publ_section_title
;
Structure prediction by ZEFSAII (Michael W. Deem and Ramdas Pophale) SiO2 
 PCOD9446896
Probable space group: P M M N
;
_chemical_formula_sum "Si O2"
_cell_formula_units_Z 48
_cell_length_a 32.094852
_cell_length_b 8.726210
_cell_length_c 9.235074
_cell_angle_alpha 90.000000
_cell_angle_beta 90.000000
_cell_angle_gamma 90.000000
_cell_volume 2586.434099
_symmetry_space_group_name_H-M "P M M N"
_symmetry_group_IT_number 59
_space_group.IT_coordinate_system_code '2'
_symmetry_cell_setting 'orthorhombic'
loop_
_space_group_symop_operation_xyz
x,y,z
1/2-x,1/2-y,z
1/2+x,-y,-z
-x,1/2+y,-z
-x,-y,-z
1/2+x,1/2+y,-z
1/2-x,y,z
x,1/2-y,z
loop_
_atom_site_type_symbol
_atom_site_label
_atom_site_fract_x
_atom_site_fract_y
_atom_site_fract_z
Si Si1 0.837749 0.066314 0.826808
Si Si2 0.750000 0.065229 0.151978
Si Si3 0.418501 0.065500 0.329373
Si Si4 0.580227 0.934115 0.336213
Si Si5 0.750000 0.568300 0.829648
Si Si6 0.497946 0.565345 0.161396
Si Si7 0.658651 0.432843 0.169756
O O1 0.838219 0.250000 0.815231
O O2 0.875680 0.993514 0.739926
O O3 0.793113 0.003563 0.773680
O O4 0.842833 0.027734 0.998310
O O5 0.750000 0.250000 0.121420
O O6 0.794388 0.029441 0.223855
O O7 0.750000 0.977889 0.999459
O O8 0.420019 0.250000 0.322209
O O9 0.421193 0.015884 0.496961
O O10 0.457089 0.996571 0.241288
O O11 0.580119 0.750000 0.335584
O O12 0.539179 0.984739 0.249208
O O13 0.621885 0.989351 0.257218
O O14 0.750000 0.750000 0.811659
O O15 0.496765 0.750000 0.156906
O O16 0.500000 0.500000 0.000000
O O17 0.653492 0.250000 0.180495
#
# Coordination Sequence:
#
# PCOD9446896 Si02
#       7
#     8   4   8   8   4   8   8
#     4  10  20  36  57  83 113 148 188 232 279 331
#     4   8  16  32  51  78 113 146 184 234 280 324
#     4  11  23  39  57  81 112 147 186 231 277 329
#     4  10  23  39  55  79 114 148 181 224 279 334
#     4  10  18  30  53  84 113 146 186 232 280 326
#     4  11  23  40  61  85 111 144 183 228 278 332
#     4   9  18  33  56  81 108 143 186 230 274 325
#
# _framework density 18.558368000000002
#
# number of rings (size 3 to 8) (size 9 to 14) (size 15 to 20)
#    0.000    2.000    0.000    4.750    0.000    8.667 
#    0.000    0.833    0.000    4.000    0.000    0.000 
#    0.000    0.000    0.000    0.000    0.000    0.000 
#
# Total GULP energy -267997.475934 kJ/mol
# GULP energy per Si atom -5583.280749 kJ/mol
# Density = 1.851613 g / cm^3
# Si number density = 18.558368 Si / 1000 Ang^3
#
#
#
# Elastic Constant Matrix: (Units=GPa)
#
#
# Indices 1 2 3 4 5 6 
#
# 1 209.0040 54.7218 100.4298 0.0000 0.0000 0.0000
# 2 54.7218 52.5667 43.0100 0.0000 0.0000 0.0000
# 3 100.4298 43.0100 121.7759 0.0000 0.0000 0.0000
# 4 0.0000 0.0000 0.0000 25.3227 0.0000 0.0000
# 5 0.0000 0.0000 0.0000 0.0000 -21.5587 0.0000
# 6 0.0000 0.0000 0.0000 0.0000 0.0000 38.8542
#
#
#
# Elastic Compliance Matrix: (Units=1/GPa)
#
#
# Indices 1 2 3 4 5 6 
#
# 1 0.008601 -0.004430 -0.005529 0.000000 0.000000 0.000000
# 2 -0.004430 0.029037 -0.006602 0.000000 0.000000 0.000000
# 3 -0.005529 -0.006602 0.015103 0.000000 0.000000 0.000000
# 4 0.000000 0.000000 0.000000 0.039490 0.000000 0.000000
# 5 0.000000 0.000000 0.000000 0.000000 -0.046385 0.000000
# 6 0.000000 0.000000 0.000000 0.000000 0.000000 0.025737
#
#
# Mechanical properties :
#
#
# Convention : Reuss Voigt Hill
#
# Bulk Modulus (GPa) = 50.96964 86.62998 68.79981
# Shear Modulus (GPa) = 44.94565 20.86932 32.90748
#
# Velocity S-wave (km/s) = 4.92657 3.35703 4.21549
# Velocity P-wave (km/s) = 7.73858 7.86176 7.80041
#
# Compressibility (1/GPa) = 0.01961952
#
# Stress axis : x y z
#
# Youngs Moduli (GPa) = 116.26300 34.43883 66.21108
#
# Poissons Ratio (x) = 0.15257 0.36607
# Poissons Ratio (y) = 0.51506 0.43712
# Poissons Ratio (z) = 0.64279 0.22736
#
# Static dielectric constant tensor:
#      x y z
#    x 1.640170 0.000000 0.000000 
#    y 0.000000 1.624140 0.000000 
#    z 0.000000 0.000000 1.619550 
# 
# From -- ./inp_files/13032.got.cif
#   From: 2010.05.17/outbox.cif.g08.bks.cpg/sg59_7_cif.got.tgz:13032.got - 2010.06.03 14:40:33.
