data_PCOD9446733
_publ_section_title
;
Structure prediction by ZEFSAII (Michael W. Deem and Ramdas Pophale) SiO2 
 PCOD9446733
Probable space group: P M M N
;
_chemical_formula_sum "Si O2"
_cell_formula_units_Z 64
_cell_length_a 8.077404
_cell_length_b 29.646112
_cell_length_c 16.176392
_cell_angle_alpha 90.000000
_cell_angle_beta 90.000000
_cell_angle_gamma 90.000000
_cell_volume 3873.657446
_symmetry_space_group_name_H-M "P M M N"
_symmetry_group_IT_number 59
_space_group.IT_coordinate_system_code '2'
_symmetry_cell_setting 'orthorhombic'
loop_
_space_group_symop_operation_xyz
x,y,z
1/2-x,1/2-y,z
1/2+x,-y,-z
-x,1/2+y,-z
-x,-y,-z
1/2+x,1/2+y,-z
1/2-x,y,z
x,1/2-y,z
loop_
_atom_site_type_symbol
_atom_site_label
_atom_site_fract_x
_atom_site_fract_y
_atom_site_fract_z
Si Si1 0.046989 0.697551 0.324472
Si Si2 0.049693 0.198094 0.000581
Si Si3 0.052569 0.198556 0.315375
Si Si4 0.050729 0.948614 0.092309
Si Si5 0.949501 0.144951 0.836780
Si Si6 0.947315 0.452527 0.097397
Si Si7 0.943121 0.195393 0.494715
Si Si8 0.550448 0.858362 0.839783
O O1 0.250000 0.697265 0.326289
O O2 0.998718 0.750000 0.312510
O O3 0.989802 0.667390 0.248010
O O4 0.990748 0.681132 0.415349
O O5 0.250000 0.197956 0.001795
O O6 0.994613 0.250000 0.007202
O O7 0.991159 0.168522 0.078637
O O8 0.993068 0.175786 0.915287
O O9 0.250000 0.201600 0.304661
O O10 0.985960 0.250000 0.308341
O O11 0.988242 0.166478 0.242759
O O12 0.021944 0.181218 0.408260
O O13 0.250000 0.946122 0.089630
O O14 0.989633 0.905602 0.143600
O O15 0.988869 0.945607 0.997140
O O16 0.003687 0.997907 0.124841
O O17 0.750000 0.143236 0.831020
O O18 0.750000 0.452407 0.093938
O O19 0.003546 0.410466 0.151618
O O20 0.750000 0.183458 0.490588
O O21 0.955288 0.250000 0.496842
O O22 0.750000 0.855818 0.839838
#
# Coordination Sequence:
#
# PCOD9446733 Si02
#       8
#     8   8   8   8   8   8   8   8
#     4   8  14  25  43  66  91 119 148 178 216 260
#     4  10  20  31  42  60  90 125 154 179 212 256
#     4   9  17  29  45  65  89 119 153 184 217 261
#     4   9  18  31  46  65  88 114 147 186 227 267
#     4  10  18  30  47  67  89 117 153 187 217 258
#     4  10  19  31  47  66  87 112 148 190 228 265
#     4   8  14  26  43  63  87 115 147 182 219 257
#     4  10  19  31  46  63  88 121 152 182 220 264
#
# _framework density 16.521854000000001
#
# number of rings (size 3 to 8) (size 9 to 14) (size 15 to 20)
#    0.000    2.750    1.250    1.875    0.000    3.750 
#    0.000    0.625    0.000    4.500    0.000    0.875 
#    0.000    0.000    0.000    0.000    0.000    0.000 
#
# Total GULP energy -356619.889784 kJ/mol
# GULP energy per Si atom -5572.185778 kJ/mol
# Density = 1.648425 g / cm^3
# Si number density = 16.521854 Si / 1000 Ang^3
#
#
#
# Elastic Constant Matrix: (Units=GPa)
#
#
# Indices 1 2 3 4 5 6 
#
# 1 3.8321 4.1041 6.5561 0.0000 0.0000 0.0000
# 2 4.1041 114.8635 67.5447 0.0000 0.0000 0.0000
# 3 6.5561 67.5447 119.2063 0.0000 0.0000 0.0000
# 4 0.0000 0.0000 0.0000 8.8195 0.0000 0.0000
# 5 0.0000 0.0000 0.0000 0.0000 17.3041 0.0000
# 6 0.0000 0.0000 0.0000 0.0000 0.0000 14.8448
#
#
#
# Elastic Compliance Matrix: (Units=1/GPa)
#
#
# Indices 1 2 3 4 5 6 
#
# 1 0.288224 -0.001465 -0.015021 0.000000 0.000000 0.000000
# 2 -0.001465 0.013064 -0.007322 0.000000 0.000000 0.000000
# 3 -0.015021 -0.007322 0.013364 0.000000 0.000000 0.000000
# 4 0.000000 0.000000 0.000000 0.113385 0.000000 0.000000
# 5 0.000000 0.000000 0.000000 0.000000 0.057790 0.000000
# 6 0.000000 0.000000 0.000000 0.000000 0.000000 0.067364
#
#
# Mechanical properties :
#
#
# Convention : Reuss Voigt Hill
#
# Bulk Modulus (GPa) = 3.74483 43.81241 23.77862
# Shear Modulus (GPa) = 7.24830 18.84015 13.04422
#
# Velocity S-wave (km/s) = 2.09681 3.38052 2.81288
# Velocity P-wave (km/s) = 2.85196 6.46627 4.99732
#
# Compressibility (1/GPa) = 0.26703456
#
# Stress axis : x y z
#
# Youngs Moduli (GPa) = 3.46953 76.54766 74.83052
#
# Poissons Ratio (x) = 0.11215 1.12406
# Poissons Ratio (y) = 0.00508 0.54788
# Poissons Ratio (z) = 0.05212 0.56045
#
# Static dielectric constant tensor:
#      x y z
#    x 1.607510 0.000000 0.000000 
#    y 0.000000 1.547380 0.000000 
#    z 0.000000 0.000000 1.567220 
# 
# From -- ./inp_files/21973.got.cif
#   From: 2010.05.17/outbox.cif.g08.bks.cpg/sg59_11_cif.got.tgz:21973.got - 2010.06.03 14:40:33.
