data_PCOD9446112
_publ_section_title
;
Structure prediction by ZEFSAII (Michael W. Deem and Ramdas Pophale) SiO2 
 PCOD9446112
Probable space group: P N N M
;
_chemical_formula_sum "Si O2"
_cell_formula_units_Z 64
_cell_length_a 15.000000
_cell_length_b 24.000000
_cell_length_c 9.000000
_cell_angle_alpha 90.000000
_cell_angle_beta 90.000000
_cell_angle_gamma 90.000000
_cell_volume 3240.000000
_symmetry_space_group_name_H-M "P N N M"
_symmetry_group_IT_number 58
_symmetry_cell_setting 'orthorhombic'
loop_
_space_group_symop_operation_xyz
x,y,z
-x,-y,z
1/2+x,1/2-y,1/2-z
1/2-x,1/2+y,1/2-z
-x,-y,-z
x,y,-z
1/2-x,1/2+y,1/2+z
1/2+x,1/2-y,1/2+z
loop_
_atom_site_type_symbol
_atom_site_label
_atom_site_fract_x
_atom_site_fract_y
_atom_site_fract_z
Si Si1 0.433784 0.050491 0.320548
Si Si2 0.703157 0.302221 0.674390
Si Si3 0.648435 0.626463 0.829478
Si Si4 0.511432 0.704898 0.325068
Si Si5 0.489654 0.828953 0.321133
Si Si6 0.248971 0.573615 0.677449
Si Si7 0.898899 0.997481 0.673020
Si Si8 0.299521 0.810747 0.174019
O O1 0.427879 0.049686 0.500000
O O2 0.467576 0.112343 0.274587
O O3 0.336241 0.044752 0.251466
O O4 0.500000 0.000000 0.277069
O O5 0.722978 0.292880 0.500000
O O6 0.595176 0.303816 0.687738
O O7 0.744092 0.361191 0.721133
O O8 0.733284 0.249600 0.769601
O O9 0.562259 0.660373 0.774548
O O10 0.635479 0.560586 0.822851
O O11 0.726762 0.644801 0.721365
O O12 0.669442 0.641850 0.000000
O O13 0.534886 0.698015 0.500000
O O14 0.532798 0.769092 0.279749
O O15 0.485690 0.828922 0.500000
O O16 0.390490 0.825301 0.257616
O O17 0.242682 0.571327 0.500000
O O18 0.337166 0.542829 0.733053
O O19 0.899565 0.978780 0.500000
O O20 0.000000 0.000000 0.727579
O O21 0.314973 0.809224 0.000000
#
# Coordination Sequence:
#
# PCOD9446112 Si02
#       8
#     8   8   8   8   8   8   8   8
#     4  10  23  42  64  88 119 165 212 254 306 371
#     4   9  20  40  61  87 123 159 193 239 305 365
#     4  11  23  37  58  86 121 158 197 245 298 358
#     4   9  18  35  59  87 119 154 195 243 296 360
#     4   9  20  40  62  85 120 159 199 247 305 364
#     4  11  24  40  64  96 128 161 202 259 313 362
#     4  10  23  43  65  90 122 164 210 251 297 365
#     4  11  23  37  59  89 119 155 200 248 297 357
#
# _framework density 19.753086
#
# number of rings (size 3 to 8) (size 9 to 14) (size 15 to 20)
#    0.000    2.000    0.000    3.375    3.500    5.000 
#    0.000    0.000    0.000    0.000    0.000    0.000 
#    0.000    0.000    0.000    0.000    0.000    0.000 
#
# Total GULP energy -357510.278853 kJ/mol
# GULP energy per Si atom -5586.098107 kJ/mol
# Density = 1.970813 g / cm^3
# Si number density = 19.753086 Si / 1000 Ang^3
#
#
#
# Elastic Constant Matrix: (Units=GPa)
#
#
# Indices 1 2 3 4 5 6 
#
# 1 59.2420 12.6036 -4.9520 0.0000 0.0000 0.0000
# 2 12.6036 60.6982 6.9209 0.0000 0.0000 0.0000
# 3 -4.9520 6.9209 -18.0041 0.0000 0.0000 0.0000
# 4 0.0000 0.0000 0.0000 27.0067 0.0000 0.0000
# 5 0.0000 0.0000 0.0000 0.0000 4.7884 0.0000
# 6 0.0000 0.0000 0.0000 0.0000 0.0000 27.9575
#
#
#
# Elastic Compliance Matrix: (Units=1/GPa)
#
#
# Indices 1 2 3 4 5 6 
#
# 1 0.017008 -0.002872 -0.005782 0.000000 0.000000 0.000000
# 2 -0.002872 0.016268 0.007044 0.000000 0.000000 0.000000
# 3 -0.005782 0.007044 -0.051245 0.000000 0.000000 0.000000
# 4 0.000000 0.000000 0.000000 0.037028 0.000000 0.000000
# 5 0.000000 0.000000 0.000000 0.000000 0.208839 0.000000
# 6 0.000000 0.000000 0.000000 0.000000 0.000000 0.035769
#
#
# Mechanical properties :
#
#
# Convention : Reuss Voigt Hill
#
# Bulk Modulus (GPa) = -47.19126 14.56457 -16.31335
# Shear Modulus (GPa) = 19.24378 17.77474 18.50926
#
# Velocity S-wave (km/s) = 3.12463 3.00300 3.06442
# Velocity P-wave (km/s) = 3.30525 4.40605 2.06017
#
# Compressibility (1/GPa) = -0.02119036
#
# Stress axis : x y z
#
# Youngs Moduli (GPa) = 58.79703 61.46953 -19.51411
#
# Poissons Ratio (x) = 0.17656 -0.11283
# Poissons Ratio (y) = 0.16888 0.13745
# Poissons Ratio (z) = 0.33997 -0.43297
#
# Static dielectric constant tensor:
#      x y z
#    x 1.696060 0.000000 0.000000 
#    y 0.000000 1.702030 0.000000 
#    z 0.000000 0.000000 1.660170 
# 
# From -- ./inp_files/6893.got.cif
#   From: 2010.05.17/outbox.ucp.g08.bks.cvg/sg58_4_cif.got.tgz:6893.got - 2010.06.11 16:41:41.
