data_PCOD9446672
_publ_section_title
;
Structure prediction by ZEFSAII (Michael W. Deem and Ramdas Pophale) SiO2 
 PCOD9446672
Probable space group: P M M N
;
_chemical_formula_sum "Si O2"
_cell_formula_units_Z 64
_cell_length_a 11.808757
_cell_length_b 14.007206
_cell_length_c 18.814391
_cell_angle_alpha 90.000000
_cell_angle_beta 90.000000
_cell_angle_gamma 90.000000
_cell_volume 3112.044990
_symmetry_space_group_name_H-M "P M M N"
_symmetry_group_IT_number 59
_space_group.IT_coordinate_system_code '2'
_symmetry_cell_setting 'orthorhombic'
loop_
_space_group_symop_operation_xyz
x,y,z
1/2-x,1/2-y,z
1/2+x,-y,-z
-x,1/2+y,-z
-x,-y,-z
1/2+x,1/2+y,-z
1/2-x,y,z
x,1/2-y,z
loop_
_atom_site_type_symbol
_atom_site_label
_atom_site_fract_x
_atom_site_fract_y
_atom_site_fract_z
Si Si1 0.380910 0.637109 0.705778
Si Si2 0.090554 0.360022 0.651717
Si Si3 0.876872 0.865532 0.185899
Si Si4 0.122234 0.557285 0.129961
Si Si5 0.621774 0.461155 0.433389
Si Si6 0.036982 0.140116 0.157160
Si Si7 0.122783 0.641362 0.978719
Si Si8 0.378258 0.640027 0.426530
O O1 0.250000 0.606015 0.716889
O O2 0.378786 0.750000 0.691559
O O3 0.432749 0.586330 0.636317
O O4 0.453898 0.622856 0.776182
O O5 0.123199 0.250000 0.641366
O O6 0.124868 0.390272 0.730114
O O7 0.130766 0.428792 0.588959
O O8 0.955486 0.366031 0.642510
O O9 0.750000 0.895349 0.157017
O O10 0.880061 0.750000 0.180144
O O11 0.999532 0.902035 0.157493
O O12 0.250000 0.598044 0.148222
O O13 0.122718 0.447108 0.153400
O O14 0.112342 0.571005 0.044846
O O15 0.750000 0.420689 0.434495
O O16 0.579941 0.428124 0.510143
O O17 0.078958 0.250000 0.161545
O O18 0.964259 0.130939 0.084915
O O19 0.250000 0.633185 0.949019
O O20 0.110609 0.750000 0.007589
O O21 0.250000 0.616531 0.409056
O O22 0.384752 0.750000 0.452105
#
# Coordination Sequence:
#
# PCOD9446672 Si02
#       8
#     8   8   8   8   8   8   8   8
#     4   9  17  30  51  79 106 136 180 231 281 330
#     4  10  20  33  50  73 103 139 177 217 267 329
#     4  10  22  40  61  86 115 146 184 235 291 342
#     4  11  23  38  58  84 115 154 195 235 284 341
#     4  10  18  29  48  73 103 137 173 218 268 320
#     4  10  20  34  53  79 113 152 193 236 281 331
#     4   9  18  34  56  82 112 147 191 242 290 336
#     4   9  18  32  49  71 100 135 176 221 267 315
#
# _framework density 20.565253999999999
#
# number of rings (size 3 to 8) (size 9 to 14) (size 15 to 20)
#    0.000    2.250    0.000    3.000    0.000    7.250 
#    0.000    1.875    0.000    0.750    0.000    0.000 
#    0.000   14.000    0.000    0.000    0.000    0.000 
#
# Total GULP energy -356387.070884 kJ/mol
# GULP energy per Si atom -5568.547983 kJ/mol
# Density = 2.051845 g / cm^3
# Si number density = 20.565254 Si / 1000 Ang^3
#
#
#
# Elastic Constant Matrix: (Units=GPa)
#
#
# Indices 1 2 3 4 5 6 
#
# 1 129.6399 26.5354 27.8754 0.0000 0.0000 0.0000
# 2 26.5354 50.4748 -1.8713 0.0000 0.0000 0.0000
# 3 27.8754 -1.8713 35.6217 0.0000 0.0000 0.0000
# 4 0.0000 0.0000 0.0000 14.4009 0.0000 0.0000
# 5 0.0000 0.0000 0.0000 0.0000 15.9870 0.0000
# 6 0.0000 0.0000 0.0000 0.0000 0.0000 25.4259
#
#
#
# Elastic Compliance Matrix: (Units=1/GPa)
#
#
# Indices 1 2 3 4 5 6 
#
# 1 0.010838 -0.006024 -0.008798 0.000000 0.000000 0.000000
# 2 -0.006024 0.023199 0.005933 0.000000 0.000000 0.000000
# 3 -0.008798 0.005933 0.035269 0.000000 0.000000 0.000000
# 4 0.000000 0.000000 0.000000 0.069440 0.000000 0.000000
# 5 0.000000 0.000000 0.000000 0.000000 0.062551 0.000000
# 6 0.000000 0.000000 0.000000 0.000000 0.000000 0.039330
#
#
# Mechanical properties :
#
#
# Convention : Reuss Voigt Hill
#
# Bulk Modulus (GPa) = 19.40697 35.64614 27.52656
# Shear Modulus (GPa) = 18.14341 22.04255 20.09298
#
# Velocity S-wave (km/s) = 2.97347 3.27744 3.12915
# Velocity P-wave (km/s) = 4.60933 5.62965 5.14485
#
# Compressibility (1/GPa) = 0.05152787
#
# Stress axis : x y z
#
# Youngs Moduli (GPa) = 92.26380 43.10571 28.35331
#
# Poissons Ratio (x) = 0.25967 0.24945
# Poissons Ratio (y) = 0.55581 -0.16821
# Poissons Ratio (z) = 0.81174 -0.25574
#
# Static dielectric constant tensor:
#      x y z
#    x 1.806930 0.000000 0.000000 
#    y 0.000000 1.789500 0.000000 
#    z 0.000000 0.000000 1.706710 
# 
# From -- ./inp_files/27106.got.cif
#   From: 2010.05.17/outbox.cif.g08.bks.cpg/sg59_14_cif.got.tgz:27106.got - 2010.06.03 14:40:33.
