data_PCOD9446263
_publ_section_title
;
Structure prediction by ZEFSAII (Michael W. Deem and Ramdas Pophale) SiO2 
 PCOD9446263
Probable space group: P M M N
;
_chemical_formula_sum "Si O2"
_cell_formula_units_Z 56
_cell_length_a 14.395631
_cell_length_b 19.154578
_cell_length_c 13.313766
_cell_angle_alpha 90.000000
_cell_angle_beta 90.000000
_cell_angle_gamma 90.000000
_cell_volume 3671.167618
_symmetry_space_group_name_H-M "P M M N"
_symmetry_group_IT_number 59
_space_group.IT_coordinate_system_code '2'
_symmetry_cell_setting 'orthorhombic'
loop_
_space_group_symop_operation_xyz
x,y,z
1/2-x,1/2-y,z
1/2+x,-y,-z
-x,1/2+y,-z
-x,-y,-z
1/2+x,1/2+y,-z
1/2-x,y,z
x,1/2-y,z
loop_
_atom_site_type_symbol
_atom_site_label
_atom_site_fract_x
_atom_site_fract_y
_atom_site_fract_z
Si Si1 0.858355 0.127659 0.277349
Si Si2 0.953432 0.410574 0.658370
Si Si3 0.642346 0.950935 0.575736
Si Si4 0.495207 0.831243 0.547559
Si Si5 0.362176 0.668897 0.159108
Si Si6 0.642597 0.334129 0.059511
Si Si7 0.148044 0.033067 0.663121
O O1 0.750000 0.151004 0.282424
O O2 0.918198 0.161783 0.365458
O O3 0.897789 0.143604 0.166452
O O4 0.859724 0.044683 0.294440
O O5 0.909312 0.486018 0.632374
O O6 0.956546 0.364800 0.556192
O O7 0.897752 0.374339 0.747094
O O8 0.059687 0.421775 0.692782
O O9 0.750000 0.943151 0.607198
O O10 0.582095 0.880120 0.580077
O O11 0.642833 0.971938 0.457965
O O12 0.519571 0.750000 0.533125
O O13 0.250000 0.666859 0.156078
O O14 0.389355 0.750000 0.171404
O O15 0.396334 0.643516 0.048902
O O16 0.750000 0.358409 0.062519
O O17 0.643294 0.250000 0.057025
O O18 0.250000 0.061751 0.689252
#
# Coordination Sequence:
#
# PCOD9446263 Si02
#       7
#     8   8   8   8   8   8   8
#     4  10  17  29  48  71  96 120 150 191 237 279
#     4  11  18  32  49  72  94 125 157 194 235 281
#     4  10  19  33  49  65  94 134 164 187 226 282
#     4  11  21  31  46  73 100 121 155 196 237 280
#     4   9  18  31  47  69  96 125 155 190 234 280
#     4   8  15  28  44  64  93 126 154 182 227 285
#     4   9  17  30  48  67  93 125 155 187 230 281
#
# _framework density 15.254003000000001
#
# number of rings (size 3 to 8) (size 9 to 14) (size 15 to 20)
#    0.000    2.286    2.857    3.000    0.000    1.714 
#    0.000    0.714    0.000    1.286    0.000    0.000 
#    0.000    1.143    0.000    0.000    0.000    0.000 
#
# Total GULP energy -311815.542822 kJ/mol
# GULP energy per Si atom -5568.134693 kJ/mol
# Density = 1.521928 g / cm^3
# Si number density = 15.254003 Si / 1000 Ang^3
#
#
#
# Elastic Constant Matrix: (Units=GPa)
#
#
# Indices 1 2 3 4 5 6 
#
# 1 63.2769 30.4909 36.9436 0.0000 0.0000 0.0000
# 2 30.4909 82.7497 45.2464 0.0000 0.0000 0.0000
# 3 36.9436 45.2464 82.7585 0.0000 0.0000 0.0000
# 4 0.0000 0.0000 0.0000 17.1899 0.0000 0.0000
# 5 0.0000 0.0000 0.0000 0.0000 10.2661 0.0000
# 6 0.0000 0.0000 0.0000 0.0000 0.0000 18.3986
#
#
#
# Elastic Compliance Matrix: (Units=1/GPa)
#
#
# Indices 1 2 3 4 5 6 
#
# 1 0.022242 -0.003946 -0.007772 0.000000 0.000000 0.000000
# 2 -0.003946 0.017938 -0.008046 0.000000 0.000000 0.000000
# 3 -0.007772 -0.008046 0.019951 0.000000 0.000000 0.000000
# 4 0.000000 0.000000 0.000000 0.058174 0.000000 0.000000
# 5 0.000000 0.000000 0.000000 0.000000 0.097408 0.000000
# 6 0.000000 0.000000 0.000000 0.000000 0.000000 0.054352
#
#
# Mechanical properties :
#
#
# Convention : Reuss Voigt Hill
#
# Bulk Modulus (GPa) = 48.53207 50.46077 49.49642
# Shear Modulus (GPa) = 15.79975 16.91120 16.35547
#
# Velocity S-wave (km/s) = 3.22184 3.33324 3.27801
# Velocity P-wave (km/s) = 6.76205 6.92576 6.84440
#
# Compressibility (1/GPa) = 0.02060493
#
# Stress axis : x y z
#
# Youngs Moduli (GPa) = 44.95898 55.74776 50.12206
#
# Poissons Ratio (x) = 0.22000 0.38952
# Poissons Ratio (y) = 0.17742 0.40326
# Poissons Ratio (z) = 0.34940 0.44852
#
# Static dielectric constant tensor:
#      x y z
#    x 1.525840 0.000000 0.000000 
#    y 0.000000 1.496820 0.000000 
#    z 0.000000 0.000000 1.510250 
# 
# From -- ./inp_files/23413.got.cif
#   From: 2010.05.17/outbox.cif.g08.bks.cpg/sg59_12_cif.got.tgz:23413.got - 2010.06.03 14:40:33.
