data_PCOD9446617
_publ_section_title
;
Structure prediction by ZEFSAII (Michael W. Deem and Ramdas Pophale) SiO2 
 PCOD9446617
Probable space group: P M M N
;
_chemical_formula_sum "Si O2"
_cell_formula_units_Z 64
_cell_length_a 8.932897
_cell_length_b 19.422507
_cell_length_c 21.829471
_cell_angle_alpha 90.000000
_cell_angle_beta 90.000000
_cell_angle_gamma 90.000000
_cell_volume 3787.396945
_symmetry_space_group_name_H-M "P M M N"
_symmetry_group_IT_number 59
_space_group.IT_coordinate_system_code '2'
_symmetry_cell_setting 'orthorhombic'
loop_
_space_group_symop_operation_xyz
x,y,z
1/2-x,1/2-y,z
1/2+x,-y,-z
-x,1/2+y,-z
-x,-y,-z
1/2+x,1/2+y,-z
1/2-x,y,z
x,1/2-y,z
loop_
_atom_site_type_symbol
_atom_site_label
_atom_site_fract_x
_atom_site_fract_y
_atom_site_fract_z
Si Si1 0.069094 0.826238 0.396026
Si Si2 0.073366 0.417096 0.853051
Si Si3 0.920298 0.131933 0.736279
Si Si4 0.070343 0.926373 0.017184
Si Si5 0.932399 0.328610 0.094684
Si Si6 0.071253 0.468009 0.560780
Si Si7 0.579526 0.522562 0.680442
Si Si8 0.571271 0.429844 0.201437
O O1 0.250000 0.836750 0.397895
O O2 0.035983 0.750000 0.420858
O O3 0.026284 0.828055 0.323899
O O4 0.990393 0.890471 0.428340
O O5 0.250000 0.409686 0.862953
O O6 0.045376 0.496368 0.831764
O O7 0.018546 0.369422 0.797127
O O8 0.985618 0.405204 0.915734
O O9 0.750000 0.152942 0.750826
O O10 0.916608 0.053299 0.711451
O O11 0.250000 0.932275 0.016395
O O12 0.024144 0.871326 0.965556
O O13 0.000000 0.000000 0.000000
O O14 0.750000 0.328157 0.095528
O O15 0.984168 0.250000 0.093815
O O16 0.979533 0.370572 0.155013
O O17 0.250000 0.467434 0.557467
O O18 0.000000 0.500000 0.500000
O O19 0.016749 0.512576 0.619338
O O20 0.750000 0.541866 0.665481
O O21 0.508903 0.569819 0.733045
O O22 0.750000 0.424634 0.210796
#
# Coordination Sequence:
#
# PCOD9446617 Si02
#       8
#     8   8   8   8   8   8   8   8
#     4   9  18  34  55  79 109 143 180 221 265 318
#     4  10  18  29  46  71  97 125 163 211 257 300
#     4   8  15  28  46  71  99 130 163 201 248 298
#     4  11  20  32  50  72  95 126 169 216 262 314
#     4   9  18  33  51  71  96 127 166 212 262 318
#     4  11  21  34  54  81 113 147 183 224 265 308
#     4   9  17  30  49  75 103 130 163 205 253 302
#     4   9  16  29  49  73  96 122 161 207 255 305
#
# _framework density 16.898150000000001
#
# number of rings (size 3 to 8) (size 9 to 14) (size 15 to 20)
#    0.000    2.500    1.250    3.000    0.000    3.750 
#    0.000    0.625    0.000    7.875    0.000    1.750 
#    0.000    0.000    0.000    0.000    0.000    0.000 
#
# Total GULP energy -356749.948066 kJ/mol
# GULP energy per Si atom -5574.217939 kJ/mol
# Density = 1.685969 g / cm^3
# Si number density = 16.898150 Si / 1000 Ang^3
#
#
#
# Elastic Constant Matrix: (Units=GPa)
#
#
# Indices 1 2 3 4 5 6 
#
# 1 75.2771 44.3168 64.5583 0.0000 0.0000 0.0000
# 2 44.3168 92.1161 62.2177 0.0000 0.0000 0.0000
# 3 64.5583 62.2177 135.7410 0.0000 0.0000 0.0000
# 4 0.0000 0.0000 0.0000 17.3924 0.0000 0.0000
# 5 0.0000 0.0000 0.0000 0.0000 30.5890 0.0000
# 6 0.0000 0.0000 0.0000 0.0000 0.0000 15.0631
#
#
#
# Elastic Compliance Matrix: (Units=1/GPa)
#
#
# Indices 1 2 3 4 5 6 
#
# 1 0.024293 -0.005625 -0.008976 0.000000 0.000000 0.000000
# 2 -0.005625 0.017026 -0.005129 0.000000 0.000000 0.000000
# 3 -0.008976 -0.005129 0.013987 0.000000 0.000000 0.000000
# 4 0.000000 0.000000 0.000000 0.057496 0.000000 0.000000
# 5 0.000000 0.000000 0.000000 0.000000 0.032691 0.000000
# 6 0.000000 0.000000 0.000000 0.000000 0.000000 0.066387
#
#
# Mechanical properties :
#
#
# Convention : Reuss Voigt Hill
#
# Bulk Modulus (GPa) = 63.10268 71.70219 67.40243
# Shear Modulus (GPa) = 19.48386 21.41167 20.44776
#
# Velocity S-wave (km/s) = 3.39929 3.56350 3.48236
# Velocity P-wave (km/s) = 7.26849 7.71074 7.49288
#
# Compressibility (1/GPa) = 0.01584719
#
# Stress axis : x y z
#
# Youngs Moduli (GPa) = 41.16348 58.73301 71.49723
#
# Poissons Ratio (x) = 0.33038 0.64173
# Poissons Ratio (y) = 0.23155 0.36669
# Poissons Ratio (z) = 0.36947 0.30123
#
# Static dielectric constant tensor:
#      x y z
#    x 1.573380 0.000000 0.000000 
#    y 0.000000 1.576150 0.000000 
#    z 0.000000 0.000000 1.563150 
# 
# From -- ./inp_files/29594.got.cif
#   From: 2010.05.17/outbox.cif.g08.bks.cpg/sg59_15_cif.got.tgz:29594.got - 2010.06.03 14:40:33.
