data_PCOD9446679
_publ_section_title
;
Structure prediction by ZEFSAII (Michael W. Deem and Ramdas Pophale) SiO2 
 PCOD9446679
Probable space group: P M M N
;
_chemical_formula_sum "Si O2"
_cell_formula_units_Z 64
_cell_length_a 8.542461
_cell_length_b 19.145851
_cell_length_c 22.103096
_cell_angle_alpha 90.000000
_cell_angle_beta 90.000000
_cell_angle_gamma 90.000000
_cell_volume 3615.020708
_symmetry_space_group_name_H-M "P M M N"
_symmetry_group_IT_number 59
_space_group.IT_coordinate_system_code '2'
_symmetry_cell_setting 'orthorhombic'
loop_
_space_group_symop_operation_xyz
x,y,z
1/2-x,1/2-y,z
1/2+x,-y,-z
-x,1/2+y,-z
-x,-y,-z
1/2+x,1/2+y,-z
1/2-x,y,z
x,1/2-y,z
loop_
_atom_site_type_symbol
_atom_site_label
_atom_site_fract_x
_atom_site_fract_y
_atom_site_fract_z
Si Si1 0.937899 0.077842 0.987057
Si Si2 0.437524 0.918692 0.151175
Si Si3 0.066792 0.131991 0.730181
Si Si4 0.435410 0.015202 0.312482
Si Si5 0.936773 0.831672 0.902950
Si Si6 0.935941 0.432157 0.197669
Si Si7 0.436149 0.673485 0.393814
Si Si8 0.563563 0.975314 0.435604
O O1 0.750000 0.077377 0.992441
O O2 0.978599 0.097765 0.918003
O O3 0.008678 0.129802 0.036184
O O4 0.000000 0.000000 0.000000
O O5 0.750000 0.852188 0.272533
O O6 0.504744 0.865840 0.201410
O O7 0.501793 0.996186 0.166564
O O8 0.750000 0.079195 0.842783
O O9 0.976285 0.172456 0.677706
O O10 0.033354 0.051889 0.710523
O O11 0.750000 0.982195 0.432433
O O12 0.483097 0.073077 0.263570
O O13 0.484859 0.021114 0.382041
O O14 0.750000 0.839855 0.896816
O O15 0.975134 0.750000 0.905133
O O16 0.017914 0.869879 0.846673
O O17 0.750000 0.437084 0.204555
O O18 0.250000 0.665386 0.401172
O O19 0.483411 0.750000 0.417924
O O20 0.517567 0.605705 0.422746
O O21 0.250000 0.000979 0.308492
O O22 0.500000 0.000000 0.500000
#
# Coordination Sequence:
#
# PCOD9446679 Si02
#       8
#     8   8   8   8   8   8   8   8
#     4  11  22  35  56  80 106 139 182 232 279 338
#     4  10  19  32  51  76 105 136 174 221 271 323
#     4  10  18  29  48  75 105 136 173 218 265 315
#     4  10  18  31  52  78 109 139 173 217 265 314
#     4  11  24  40  56  76 106 142 181 229 286 343
#     4  11  20  32  54  80 105 135 174 222 271 324
#     4  10  20  35  55  79 110 148 188 229 276 330
#     4  11  21  35  56  84 118 152 191 232 274 323
#
# _framework density 17.70391
#
# number of rings (size 3 to 8) (size 9 to 14) (size 15 to 20)
#    0.000    1.500    1.250    9.000    0.000    3.500 
#    0.000    0.625    0.000    1.500    0.000    0.000 
#    0.000    0.000    0.000    0.000    0.000    0.000 
#
# Total GULP energy -357209.539192 kJ/mol
# GULP energy per Si atom -5581.399050 kJ/mol
# Density = 1.766361 g / cm^3
# Si number density = 17.703910 Si / 1000 Ang^3
#
#
#
# Elastic Constant Matrix: (Units=GPa)
#
#
# Indices 1 2 3 4 5 6 
#
# 1 65.3304 19.4215 31.7546 0.0000 0.0000 0.0000
# 2 19.4215 66.1731 41.3964 0.0000 0.0000 0.0000
# 3 31.7546 41.3964 144.3107 0.0000 0.0000 0.0000
# 4 0.0000 0.0000 0.0000 15.1340 0.0000 0.0000
# 5 0.0000 0.0000 0.0000 0.0000 32.1797 0.0000
# 6 0.0000 0.0000 0.0000 0.0000 0.0000 17.2505
#
#
#
# Elastic Compliance Matrix: (Units=1/GPa)
#
#
# Indices 1 2 3 4 5 6 
#
# 1 0.017735 -0.003368 -0.002936 0.000000 0.000000 0.000000
# 2 -0.003368 0.019056 -0.004725 0.000000 0.000000 0.000000
# 3 -0.002936 -0.004725 0.008931 0.000000 0.000000 0.000000
# 4 0.000000 0.000000 0.000000 0.066076 0.000000 0.000000
# 5 0.000000 0.000000 0.000000 0.000000 0.031076 0.000000
# 6 0.000000 0.000000 0.000000 0.000000 0.000000 0.057969
#
#
# Mechanical properties :
#
#
# Convention : Reuss Voigt Hill
#
# Bulk Modulus (GPa) = 42.25999 51.21769 46.73884
# Shear Modulus (GPa) = 21.66456 25.12896 23.39676
#
# Velocity S-wave (km/s) = 3.50196 3.77158 3.63927
# Velocity P-wave (km/s) = 6.34617 6.92527 6.64204
#
# Compressibility (1/GPa) = 0.02366304
#
# Stress axis : x y z
#
# Youngs Moduli (GPa) = 56.38448 52.47553 111.96852
#
# Poissons Ratio (x) = 0.17676 0.32877
# Poissons Ratio (y) = 0.18992 0.52908
# Poissons Ratio (z) = 0.16556 0.24796
#
# Static dielectric constant tensor:
#      x y z
#    x 1.592680 0.000000 0.000000 
#    y 0.000000 1.614580 0.000000 
#    z 0.000000 0.000000 1.633920 
# 
# From -- ./inp_files/29380.got.cif
#   From: 2010.05.17/outbox.cif.g08.bks.cpg/sg59_15_cif.got.tgz:29380.got - 2010.06.03 14:40:33.
