data_PCOD9446059
_publ_section_title
;
Structure prediction by ZEFSAII (Michael W. Deem and Ramdas Pophale) SiO2 
 PCOD9446059
Probable space group: P N N M
;
_chemical_formula_sum "Si O2"
_cell_formula_units_Z 64
_cell_length_a 15.000000
_cell_length_b 24.000000
_cell_length_c 9.000000
_cell_angle_alpha 90.000000
_cell_angle_beta 90.000000
_cell_angle_gamma 90.000000
_cell_volume 3240.000000
_symmetry_space_group_name_H-M "P N N M"
_symmetry_group_IT_number 58
_symmetry_cell_setting 'orthorhombic'
loop_
_space_group_symop_operation_xyz
x,y,z
-x,-y,z
1/2+x,1/2-y,1/2-z
1/2-x,1/2+y,1/2-z
-x,-y,-z
x,y,-z
1/2-x,1/2+y,1/2+z
1/2+x,1/2-y,1/2+z
loop_
_atom_site_type_symbol
_atom_site_label
_atom_site_fract_x
_atom_site_fract_y
_atom_site_fract_z
Si Si1 0.585712 0.333079 0.167836
Si Si2 0.424006 0.045662 0.677179
Si Si3 0.385791 0.286395 0.167711
Si Si4 0.260685 0.986902 0.172672
Si Si5 0.929589 0.952965 0.174558
Si Si6 0.118114 0.276253 0.174840
Si Si7 0.555020 0.832002 0.178035
Si Si8 0.245420 0.855857 0.172386
O O1 0.488720 0.304383 0.158239
O O2 0.575035 0.393817 0.241647
O O3 0.637437 0.285367 0.259594
O O4 0.621308 0.338957 0.000000
O O5 0.430918 0.053862 0.500000
O O6 0.428808 0.106537 0.754994
O O7 0.500000 0.000000 0.721172
O O8 0.331965 0.016493 0.723211
O O9 0.376913 0.220254 0.202055
O O10 0.348542 0.327380 0.292998
O O11 0.349211 0.295607 0.000000
O O12 0.249031 0.921348 0.206312
O O13 0.166619 0.017944 0.183998
O O14 0.290781 0.991089 0.000000
O O15 0.950580 0.942310 0.000000
O O16 0.000000 0.000000 0.229027
O O17 0.194273 0.319130 0.220344
O O18 0.033017 0.306412 0.248009
O O19 0.105190 0.271381 0.000000
O O20 0.544715 0.837088 0.000000
O O21 0.270965 0.848615 0.000000
#
# Coordination Sequence:
#
# PCOD9446059 Si02
#       8
#     8   8   8   8   8   8   8   8
#     4  10  21  38  59  85 116 151 194 239 288 346
#     4  11  24  40  60  87 118 156 200 245 296 352
#     4   9  20  37  57  83 114 147 185 234 288 342
#     4  10  23  40  59  86 118 155 198 243 293 351
#     4  10  21  39  62  88 121 160 200 243 294 352
#     4  11  22  37  59  85 115 150 188 236 292 348
#     4  10  21  39  61  85 115 150 191 237 288 349
#     4  11  22  37  59  85 113 148 192 237 287 347
#
# _framework density 19.753086
#
# number of rings (size 3 to 8) (size 9 to 14) (size 15 to 20)
#    0.000    1.750    0.000    4.875    0.000    9.750 
#    0.000    1.250    0.000    0.000    0.000    0.000 
#    0.000    0.000    0.000    0.000    0.000    0.000 
#
# Total GULP energy -356938.660669 kJ/mol
# GULP energy per Si atom -5577.166573 kJ/mol
# Density = 1.970813 g / cm^3
# Si number density = 19.753086 Si / 1000 Ang^3
#
#
#
# Elastic Constant Matrix: (Units=GPa)
#
#
# Indices 1 2 3 4 5 6 
#
# 1 34.7331 13.5863 12.5809 0.0000 0.0000 0.0000
# 2 13.5863 188.0963 64.6726 0.0000 0.0000 0.0000
# 3 12.5809 64.6726 71.5261 0.0000 0.0000 0.0000
# 4 0.0000 0.0000 0.0000 39.1235 0.0000 0.0000
# 5 0.0000 0.0000 0.0000 0.0000 30.6508 0.0000
# 6 0.0000 0.0000 0.0000 0.0000 0.0000 24.6945
#
#
#
# Elastic Compliance Matrix: (Units=1/GPa)
#
#
# Indices 1 2 3 4 5 6 
#
# 1 0.030786 -0.000525 -0.004940 0.000000 0.000000 0.000000
# 2 -0.000525 0.007724 -0.006891 0.000000 0.000000 0.000000
# 3 -0.004940 -0.006891 0.021081 0.000000 0.000000 0.000000
# 4 0.000000 0.000000 0.000000 0.025560 0.000000 0.000000
# 5 0.000000 0.000000 0.000000 0.000000 0.032626 0.000000
# 6 0.000000 0.000000 0.000000 0.000000 0.000000 0.040495
#
#
# Mechanical properties :
#
#
# Convention : Reuss Voigt Hill
#
# Bulk Modulus (GPa) = 28.67202 52.89279 40.78241
# Shear Modulus (GPa) = 25.69241 32.46147 29.07694
#
# Velocity S-wave (km/s) = 3.61040 4.05824 3.84085
# Velocity P-wave (km/s) = 5.65038 6.98528 6.35299
#
# Compressibility (1/GPa) = 0.03487720
#
# Stress axis : x y z
#
# Youngs Moduli (GPa) = 32.48250 129.47022 47.43637
#
# Poissons Ratio (x) = 0.06799 0.23434
# Poissons Ratio (y) = 0.01706 0.32690
# Poissons Ratio (z) = 0.16047 0.89222
#
# Static dielectric constant tensor:
#      x y z
#    x 1.821040 0.000000 0.000000 
#    y 0.000000 1.651530 0.000000 
#    z 0.000000 0.000000 1.744950 
# 
# From -- ./inp_files/6967.got.cif
#   From: 2010.05.17/outbox.ucp.g08.bks.cvg/sg58_4_cif.got.tgz:6967.got - 2010.06.11 16:41:41.
