data_PCOD9446714
_publ_section_title
;
Structure prediction by ZEFSAII (Michael W. Deem and Ramdas Pophale) SiO2 
 PCOD9446714
Probable space group: P M M N
;
_chemical_formula_sum "Si O2"
_cell_formula_units_Z 56
_cell_length_a 22.206168
_cell_length_b 7.676578
_cell_length_c 15.218445
_cell_angle_alpha 90.000000
_cell_angle_beta 90.000000
_cell_angle_gamma 90.000000
_cell_volume 2594.248458
_symmetry_space_group_name_H-M "P M M N"
_symmetry_group_IT_number 59
_space_group.IT_coordinate_system_code '2'
_symmetry_cell_setting 'orthorhombic'
loop_
_space_group_symop_operation_xyz
x,y,z
1/2-x,1/2-y,z
1/2+x,-y,-z
-x,1/2+y,-z
-x,-y,-z
1/2+x,1/2+y,-z
1/2-x,y,z
x,1/2-y,z
loop_
_atom_site_type_symbol
_atom_site_label
_atom_site_fract_x
_atom_site_fract_y
_atom_site_fract_z
Si Si1 0.566800 0.450716 0.864878
Si Si2 0.870928 0.459308 0.377317
Si Si3 0.554237 0.046264 0.219731
Si Si4 0.682668 0.957596 0.555125
Si Si5 0.818837 0.961098 0.754403
Si Si6 0.250000 0.537999 0.926264
Si Si7 0.750000 0.462197 0.278024
Si Si8 0.117192 0.964340 0.957042
O O1 0.549192 0.250000 0.873583
O O2 0.515363 0.533389 0.805204
O O3 0.631290 0.464610 0.818474
O O4 0.575856 0.525416 0.962539
O O5 0.870991 0.250000 0.378125
O O6 0.924948 0.523021 0.314502
O O7 0.864976 0.508215 0.478871
O O8 0.809805 0.519549 0.328533
O O9 0.570279 0.250000 0.221527
O O10 0.591933 0.975081 0.136823
O O11 0.750000 0.024798 0.530239
O O12 0.687485 0.750000 0.562110
O O13 0.668923 0.019121 0.653714
O O14 0.750000 0.010015 0.776068
O O15 0.822524 0.750000 0.757895
O O16 0.250000 0.750000 0.927889
O O17 0.250000 0.485309 0.823671
O O18 0.313221 0.481600 0.967778
O O19 0.750000 0.250000 0.278081
O O20 0.116099 0.750000 0.958432
#
# Coordination Sequence:
#
# PCOD9446714 Si02
#       8
#     8   8   8   8   8   4   4   8
#     4  11  23  36  54  81 108 140 184 230 271 305
#     4  10  18  29  52  83 109 137 177 218 259 311
#     4  10  20  36  55  77 108 150 186 212 255 322
#     4   9  18  33  54  80 109 140 171 209 269 332
#     4   9  20  40  61  79 104 140 179 219 267 326
#     4   9  14  26  48  76 109 138 170 217 263 312
#     4   9  14  24  45  76 109 136 168 215 259 306
#     4   9  18  31  51  79 110 143 179 218 265 316
#
# _framework density 21.586212
#
# number of rings (size 3 to 8) (size 9 to 14) (size 15 to 20)
#    0.000    2.429    2.143    1.714    1.000    1.429 
#    0.000    2.857    0.000    0.000    0.000    0.000 
#    0.000    0.000    0.000    0.000    0.000    0.000 
#
# Total GULP energy -312541.763213 kJ/mol
# GULP energy per Si atom -5581.102915 kJ/mol
# Density = 2.153708 g / cm^3
# Si number density = 21.586212 Si / 1000 Ang^3
#
#
#
# Elastic Constant Matrix: (Units=GPa)
#
#
# Indices 1 2 3 4 5 6 
#
# 1 58.4669 -6.6623 8.1993 0.0000 0.0000 0.0000
# 2 -6.6623 35.0757 -0.5913 0.0000 0.0000 0.0000
# 3 8.1993 -0.5913 55.1450 0.0000 0.0000 0.0000
# 4 0.0000 0.0000 0.0000 100.2870 0.0000 0.0000
# 5 0.0000 0.0000 0.0000 0.0000 21.1996 0.0000
# 6 0.0000 0.0000 0.0000 0.0000 0.0000 8.0159
#
#
#
# Elastic Compliance Matrix: (Units=1/GPa)
#
#
# Indices 1 2 3 4 5 6 
#
# 1 0.017852 0.003347 -0.002618 0.000000 0.000000 0.000000
# 2 0.003347 0.029142 -0.000185 0.000000 0.000000 0.000000
# 3 -0.002618 -0.000185 0.018521 0.000000 0.000000 0.000000
# 4 0.000000 0.000000 0.000000 0.009971 0.000000 0.000000
# 5 0.000000 0.000000 0.000000 0.000000 0.047171 0.000000
# 6 0.000000 0.000000 0.000000 0.000000 0.000000 0.124752
#
#
# Mechanical properties :
#
#
# Convention : Reuss Voigt Hill
#
# Bulk Modulus (GPa) = 15.01452 16.73098 15.87275
# Shear Modulus (GPa) = 18.62027 35.74996 27.18512
#
# Velocity S-wave (km/s) = 2.94019 4.07399 3.55262
# Velocity P-wave (km/s) = 4.30082 5.46786 4.91907
#
# Compressibility (1/GPa) = 0.06660221
#
# Stress axis : x y z
#
# Youngs Moduli (GPa) = 56.01532 34.31436 53.99172
#
# Poissons Ratio (x) = -0.11484 0.14138
# Poissons Ratio (y) = -0.18747 0.00999
# Poissons Ratio (z) = 0.14668 0.00635
#
# Static dielectric constant tensor:
#      x y z
#    x 1.769610 0.000000 0.000000 
#    y 0.000000 1.814250 0.000000 
#    z 0.000000 0.000000 1.798630 
# 
# From -- ./inp_files/24408.got.cif
#   From: 2010.05.17/outbox.cif.g08.bks.cpg/sg59_13_cif.got.tgz:24408.got - 2010.06.03 14:40:33.
