data_PCOD9446105
_publ_section_title
;
Structure prediction by ZEFSAII (Michael W. Deem and Ramdas Pophale) SiO2 
 PCOD9446105
Probable space group: P N N M
;
_chemical_formula_sum "Si O2"
_cell_formula_units_Z 64
_cell_length_a 12.000000
_cell_length_b 30.000000
_cell_length_c 9.000000
_cell_angle_alpha 90.000000
_cell_angle_beta 90.000000
_cell_angle_gamma 90.000000
_cell_volume 3240.000000
_symmetry_space_group_name_H-M "P N N M"
_symmetry_group_IT_number 58
_symmetry_cell_setting 'orthorhombic'
loop_
_space_group_symop_operation_xyz
x,y,z
-x,-y,z
1/2+x,1/2-y,1/2-z
1/2-x,1/2+y,1/2-z
-x,-y,-z
x,y,-z
1/2-x,1/2+y,1/2+z
1/2+x,1/2-y,1/2+z
loop_
_atom_site_type_symbol
_atom_site_label
_atom_site_fract_x
_atom_site_fract_y
_atom_site_fract_z
Si Si1 0.239679 0.799657 0.177053
Si Si2 0.723263 0.459069 0.173924
Si Si3 0.002757 0.832159 0.179137
Si Si4 0.357657 0.119912 0.825767
Si Si5 0.781885 0.789454 0.175713
Si Si6 0.768101 0.058096 0.325290
Si Si7 0.505810 0.433458 0.323726
Si Si8 0.905534 0.635686 0.177145
O O1 0.127387 0.823911 0.233197
O O2 0.229149 0.748861 0.226224
O O3 0.347065 0.821191 0.252917
O O4 0.247764 0.804413 0.000000
O O5 0.791014 0.421807 0.260564
O O6 0.776029 0.507898 0.191554
O O7 0.597605 0.461634 0.237212
O O8 0.719033 0.448057 0.000000
O O9 0.964448 0.882071 0.211025
O O10 0.908698 0.797863 0.228084
O O11 0.006875 0.828709 0.000000
O O12 0.283665 0.164361 0.809921
O O13 0.473505 0.126979 0.742479
O O14 0.377753 0.112930 0.000000
O O15 0.781673 0.777294 0.000000
O O16 0.797639 0.064052 0.500000
O O17 0.879375 0.062013 0.228870
O O18 0.676675 0.094607 0.285191
O O19 0.514877 0.441229 0.500000
O O20 0.910964 0.639834 0.000000
#
# Coordination Sequence:
#
# PCOD9446105 Si02
#       8
#     8   8   8   8   8   8   8   8
#     4  11  23  40  63  94 124 157 203 252 302 358
#     4  11  23  40  62  90 125 162 203 251 307 369
#     4   9  19  38  62  87 122 159 194 247 303 351
#     4  11  24  43  65  90 122 159 207 260 308 363
#     4  10  22  42  63  88 123 161 198 247 306 363
#     4  10  23  41  61  89 124 163 205 251 304 369
#     4  11  20  37  63  92 125 161 201 251 308 361
#     4  11  24  43  64  87 121 165 207 250 308 367
#
# _framework density 19.753086
#
# number of rings (size 3 to 8) (size 9 to 14) (size 15 to 20)
#    0.000    1.500    2.500    2.250    1.750    4.500 
#    0.000    3.125    0.000    0.000    0.000    0.000 
#    0.000    0.000    0.000    0.000    0.000    0.000 
#
# Total GULP energy -357476.518258 kJ/mol
# GULP energy per Si atom -5585.570598 kJ/mol
# Density = 1.970813 g / cm^3
# Si number density = 19.753086 Si / 1000 Ang^3
#
#
#
# Elastic Constant Matrix: (Units=GPa)
#
#
# Indices 1 2 3 4 5 6 
#
# 1 69.6712 5.9444 27.5806 0.0000 0.0000 0.0000
# 2 5.9444 56.1107 32.6581 0.0000 0.0000 0.0000
# 3 27.5806 32.6581 60.3917 0.0000 0.0000 0.0000
# 4 0.0000 0.0000 0.0000 25.3342 0.0000 0.0000
# 5 0.0000 0.0000 0.0000 0.0000 33.2670 0.0000
# 6 0.0000 0.0000 0.0000 0.0000 0.0000 17.2905
#
#
#
# Elastic Compliance Matrix: (Units=1/GPa)
#
#
# Indices 1 2 3 4 5 6 
#
# 1 0.018188 0.004243 -0.010601 0.000000 0.000000 0.000000
# 2 0.004243 0.026998 -0.016537 0.000000 0.000000 0.000000
# 3 -0.010601 -0.016537 0.030343 0.000000 0.000000 0.000000
# 4 0.000000 0.000000 0.000000 0.039472 0.000000 0.000000
# 5 0.000000 0.000000 0.000000 0.000000 0.030060 0.000000
# 6 0.000000 0.000000 0.000000 0.000000 0.000000 0.057835
#
#
# Mechanical properties :
#
#
# Convention : Reuss Voigt Hill
#
# Bulk Modulus (GPa) = 33.62690 35.39331 34.51011
# Shear Modulus (GPa) = 19.33502 23.17772 21.25637
#
# Velocity S-wave (km/s) = 3.13203 3.42917 3.28396
# Velocity P-wave (km/s) = 5.49000 5.79963 5.64693
#
# Compressibility (1/GPa) = 0.02973810
#
# Stress axis : x y z
#
# Youngs Moduli (GPa) = 54.98255 37.04021 32.95672
#
# Poissons Ratio (x) = -0.15717 0.34937
# Poissons Ratio (y) = -0.23330 0.54502
# Poissons Ratio (z) = 0.58286 0.61255
#
# Static dielectric constant tensor:
#      x y z
#    x 1.670620 0.000000 0.000000 
#    y 0.000000 1.740210 0.000000 
#    z 0.000000 0.000000 1.663670 
# 
# From -- ./inp_files/4779.got.cif
#   From: 2010.05.17/outbox.ucp.g08.bks.cvg/sg58_3_cif.got.tgz:4779.got - 2010.06.11 16:41:41.
