data_PCOD9446420
_publ_section_title
;
Structure prediction by ZEFSAII (Michael W. Deem and Ramdas Pophale) SiO2 
 PCOD9446420
Probable space group: P M M N
;
_chemical_formula_sum "Si O2"
_cell_formula_units_Z 56
_cell_length_a 8.779035
_cell_length_b 18.756039
_cell_length_c 19.616487
_cell_angle_alpha 90.000000
_cell_angle_beta 90.000000
_cell_angle_gamma 90.000000
_cell_volume 3230.049236
_symmetry_space_group_name_H-M "P M M N"
_symmetry_group_IT_number 59
_space_group.IT_coordinate_system_code '2'
_symmetry_cell_setting 'orthorhombic'
loop_
_space_group_symop_operation_xyz
x,y,z
1/2-x,1/2-y,z
1/2+x,-y,-z
-x,1/2+y,-z
-x,-y,-z
1/2+x,1/2+y,-z
1/2-x,y,z
x,1/2-y,z
loop_
_atom_site_type_symbol
_atom_site_label
_atom_site_fract_x
_atom_site_fract_y
_atom_site_fract_z
Si Si1 0.930309 0.392208 0.276487
Si Si2 0.431653 0.424120 0.416071
Si Si3 0.064308 0.330530 0.700769
Si Si4 0.433646 0.329112 0.141870
Si Si5 0.932210 0.974422 0.928868
Si Si6 0.066299 0.417855 0.569087
Si Si7 0.432249 0.042061 0.796754
O O1 0.750000 0.380599 0.276418
O O2 0.959130 0.474110 0.252524
O O3 0.995633 0.384102 0.352068
O O4 0.006387 0.344809 0.217868
O O5 0.250000 0.423711 0.408779
O O6 0.491033 0.505678 0.416460
O O7 0.470863 0.395534 0.491663
O O8 0.250000 0.329906 0.702051
O O9 0.010955 0.250000 0.710913
O O10 0.020767 0.362181 0.627151
O O11 0.016297 0.386610 0.758506
O O12 0.250000 0.330973 0.143547
O O13 0.481864 0.250000 0.119635
O O14 0.484056 0.394669 0.093871
O O15 0.750000 0.974209 0.932980
O O16 0.986087 0.025360 0.867502
O O17 0.000000 0.000000 0.000000
O O18 0.250000 0.427472 0.572937
O O19 0.250000 0.045758 0.808211
#
# Coordination Sequence:
#
# PCOD9446420 Si02
#       7
#     8   8   8   8   8   8   8
#     4  10  18  30  50  74 102 132 167 211 255 306
#     4  10  18  27  45  70  97 130 171 218 267 311
#     4   9  16  29  50  72  96 130 173 218 260 301
#     4   9  19  36  56  79 106 134 168 210 253 300
#     4  10  20  35  57  82 106 134 166 202 245 293
#     4   9  17  30  45  67  96 128 173 222 265 308
#     4   9  17  31  51  74  99 128 165 208 249 295
#
# _framework density 17.337197
#
# number of rings (size 3 to 8) (size 9 to 14) (size 15 to 20)
#    0.000    2.571    1.429    1.286    0.000    2.000 
#    0.000    1.429    0.000    8.571    0.000    0.000 
#    0.000    0.000    0.000    0.000    0.000    0.000 
#
# Total GULP energy -312212.723824 kJ/mol
# GULP energy per Si atom -5575.227211 kJ/mol
# Density = 1.729774 g / cm^3
# Si number density = 17.337197 Si / 1000 Ang^3
#
#
#
# Elastic Constant Matrix: (Units=GPa)
#
#
# Indices 1 2 3 4 5 6 
#
# 1 15.7484 20.4029 34.7129 0.0000 0.0000 0.0000
# 2 20.4029 111.5343 65.1423 0.0000 0.0000 0.0000
# 3 34.7129 65.1423 147.9765 0.0000 0.0000 0.0000
# 4 0.0000 0.0000 0.0000 15.7117 0.0000 0.0000
# 5 0.0000 0.0000 0.0000 0.0000 28.9225 0.0000
# 6 0.0000 0.0000 0.0000 0.0000 0.0000 16.9714
#
#
#
# Elastic Compliance Matrix: (Units=1/GPa)
#
#
# Indices 1 2 3 4 5 6 
#
# 1 0.137199 -0.008480 -0.028451 0.000000 0.000000 0.000000
# 2 -0.008480 0.012593 -0.003554 0.000000 0.000000 0.000000
# 3 -0.028451 -0.003554 0.014997 0.000000 0.000000 0.000000
# 4 0.000000 0.000000 0.000000 0.063647 0.000000 0.000000
# 5 0.000000 0.000000 0.000000 0.000000 0.034575 0.000000
# 6 0.000000 0.000000 0.000000 0.000000 0.000000 0.058923
#
#
# Mechanical properties :
#
#
# Convention : Reuss Voigt Hill
#
# Bulk Modulus (GPa) = 11.93087 57.30839 34.61963
# Shear Modulus (GPa) = 11.60512 22.65452 17.12982
#
# Velocity S-wave (km/s) = 2.59004 3.61875 3.14672
# Velocity P-wave (km/s) = 3.98007 7.11248 5.76318
#
# Compressibility (1/GPa) = 0.08381620
#
# Stress axis : x y z
#
# Youngs Moduli (GPa) = 7.28870 79.40832 66.68098
#
# Poissons Ratio (x) = 0.67342 1.89716
# Poissons Ratio (y) = 0.06181 0.23701
# Poissons Ratio (z) = 0.20737 0.28225
#
# Static dielectric constant tensor:
#      x y z
#    x 1.584490 0.000000 0.000000 
#    y 0.000000 1.589840 0.000000 
#    z 0.000000 0.000000 1.580040 
# 
# From -- ./inp_files/28038.got.cif
#   From: 2010.05.17/outbox.cif.g08.bks.cpg/sg59_15_cif.got.tgz:28038.got - 2010.06.03 14:40:33.
