data_PCOD9446667
_publ_section_title
;
Structure prediction by ZEFSAII (Michael W. Deem and Ramdas Pophale) SiO2 
 PCOD9446667
Probable space group: P M M N
;
_chemical_formula_sum "Si O2"
_cell_formula_units_Z 40
_cell_length_a 20.954976
_cell_length_b 9.851482
_cell_length_c 10.768699
_cell_angle_alpha 90.000000
_cell_angle_beta 90.000000
_cell_angle_gamma 90.000000
_cell_volume 2223.064042
_symmetry_space_group_name_H-M "P M M N"
_symmetry_group_IT_number 59
_space_group.IT_coordinate_system_code '2'
_symmetry_cell_setting 'orthorhombic'
loop_
_space_group_symop_operation_xyz
x,y,z
1/2-x,1/2-y,z
1/2+x,-y,-z
-x,1/2+y,-z
-x,-y,-z
1/2+x,1/2+y,-z
1/2-x,y,z
x,1/2-y,z
loop_
_atom_site_type_symbol
_atom_site_label
_atom_site_fract_x
_atom_site_fract_y
_atom_site_fract_z
Si Si1 0.587937 0.401458 0.049672
Si Si2 0.824839 0.909775 0.599721
Si Si3 0.508422 0.896479 0.181335
Si Si4 0.943097 0.089988 0.557891
Si Si5 0.674793 0.599368 0.897272
O O1 0.608406 0.250000 0.081747
O O2 0.557841 0.481984 0.164948
O O3 0.533133 0.392054 0.943985
O O4 0.641591 0.489747 0.982909
O O5 0.750000 0.936330 0.570337
O O6 0.837869 0.750000 0.571231
O O7 0.831974 0.924633 0.749542
O O8 0.876023 0.011690 0.539826
O O9 0.541289 0.750000 0.195985
O O10 0.460692 0.911803 0.295786
O O11 0.942339 0.250000 0.519743
O O12 0.000000 0.000000 0.500000
O O13 0.750000 0.601141 0.921736
O O14 0.647614 0.750000 0.922654
#
# Coordination Sequence:
#
# PCOD9446667 Si02
#       5
#     8   8   8   8   8
#     4  10  18  29  48  73 100 130 165 205 247 297
#     4   9  18  33  53  77 105 137 173 214 262 314
#     4   9  19  33  47  69 100 133 166 201 249 303
#     4  11  22  36  54  78 107 139 178 221 265 313
#     4   9  17  29  47  72 103 137 168 202 251 309
#
# _framework density 17.993185
#
# number of rings (size 3 to 8) (size 9 to 14) (size 15 to 20)
#    0.000    2.400    2.000    2.400    0.000    3.200 
#    0.000    2.000    0.000    1.200    0.000    8.400 
#    0.000    0.000    0.000    0.000    0.000    0.000 
#
# Total GULP energy -222778.753995 kJ/mol
# GULP energy per Si atom -5569.468850 kJ/mol
# Density = 1.795223 g / cm^3
# Si number density = 17.993185 Si / 1000 Ang^3
#
#
#
# Elastic Constant Matrix: (Units=GPa)
#
#
# Indices 1 2 3 4 5 6 
#
# 1 90.7097 86.6035 7.2203 0.0000 0.0000 0.0000
# 2 86.6035 162.0960 18.6935 0.0000 0.0000 0.0000
# 3 7.2203 18.6935 5.3196 0.0000 0.0000 0.0000
# 4 0.0000 0.0000 0.0000 15.9697 0.0000 0.0000
# 5 0.0000 0.0000 0.0000 0.0000 29.2579 0.0000
# 6 0.0000 0.0000 0.0000 0.0000 0.0000 36.4975
#
#
#
# Elastic Compliance Matrix: (Units=1/GPa)
#
#
# Indices 1 2 3 4 5 6 
#
# 1 0.023798 -0.015115 0.020815 0.000000 0.000000 0.000000
# 2 -0.015115 0.019973 -0.049671 0.000000 0.000000 0.000000
# 3 0.020815 -0.049671 0.334277 0.000000 0.000000 0.000000
# 4 0.000000 0.000000 0.000000 0.062618 0.000000 0.000000
# 5 0.000000 0.000000 0.000000 0.000000 0.034179 0.000000
# 6 0.000000 0.000000 0.000000 0.000000 0.000000 0.027399
#
#
# Mechanical properties :
#
#
# Convention : Reuss Voigt Hill
#
# Bulk Modulus (GPa) = 3.44702 53.68444 28.56573
# Shear Modulus (GPa) = 7.27918 26.05223 16.66571
#
# Velocity S-wave (km/s) = 2.01353 3.80925 3.04669
# Velocity P-wave (km/s) = 2.70659 7.01769 5.31853
#
# Compressibility (1/GPa) = 0.29010577
#
# Stress axis : x y z
#
# Youngs Moduli (GPa) = 42.01962 50.06740 2.99153
#
# Poissons Ratio (x) = 0.75678 -0.06227
# Poissons Ratio (y) = 0.63514 0.14859
# Poissons Ratio (z) = -0.87462 2.48689
#
# Static dielectric constant tensor:
#      x y z
#    x 1.607450 0.000000 0.000000 
#    y 0.000000 1.665930 0.000000 
#    z 0.000000 0.000000 1.607920 
# 
# From -- ./inp_files/14039.got.cif
#   From: 2010.05.17/outbox.cif.g08.bks.cpg/sg59_8_cif.got.tgz:14039.got - 2010.06.03 14:40:33.
