data_PCOD9446098
_publ_section_title
;
Structure prediction by ZEFSAII (Michael W. Deem and Ramdas Pophale) SiO2 
 PCOD9446098
Probable space group: P N N M
;
_chemical_formula_sum "Si O2"
_cell_formula_units_Z 56
_cell_length_a 9.000000
_cell_length_b 15.000000
_cell_length_c 21.000000
_cell_angle_alpha 90.000000
_cell_angle_beta 90.000000
_cell_angle_gamma 90.000000
_cell_volume 2835.000000
_symmetry_space_group_name_H-M "P N N M"
_symmetry_group_IT_number 58
_symmetry_cell_setting 'orthorhombic'
loop_
_space_group_symop_operation_xyz
x,y,z
-x,-y,z
1/2+x,1/2-y,1/2-z
1/2-x,1/2+y,1/2-z
-x,-y,-z
x,y,-z
1/2-x,1/2+y,1/2+z
1/2+x,1/2-y,1/2+z
loop_
_atom_site_type_symbol
_atom_site_label
_atom_site_fract_x
_atom_site_fract_y
_atom_site_fract_z
Si Si1 0.679500 0.996580 0.795895
Si Si2 0.135746 0.639447 0.000000
Si Si3 0.184633 0.185325 0.250292
Si Si4 0.562948 0.596307 0.095144
Si Si5 0.338991 0.951942 0.929833
Si Si6 0.820653 0.759258 0.399007
Si Si7 0.805711 0.569869 0.000000
Si Si8 0.139457 0.849014 0.268393
O O1 0.731988 0.998348 0.869505
O O2 0.748645 0.085796 0.766827
O O3 0.500000 0.000000 0.793428
O O4 0.739839 0.910186 0.759654
O O5 0.186417 0.697632 0.939215
O O6 0.201823 0.538406 0.000000
O O7 0.965177 0.613427 0.000000
O O8 0.194601 0.219959 0.323668
O O9 0.275465 0.259415 0.211751
O O10 0.011369 0.178126 0.232011
O O11 0.500000 0.500000 0.076227
O O12 0.458638 0.679426 0.078406
O O13 0.719222 0.603662 0.061458
O O14 0.581527 0.598640 0.170430
O O15 0.345397 0.845703 0.912926
O O16 0.500000 0.000000 0.933548
O O17 0.269937 0.960298 0.000000
#
# Coordination Sequence:
#
# PCOD9446098 Si02
#       8
#     8   4   8   8   8   8   4   8
#     4  11  23  41  65  94 131 167 218 275 327 396
#     4  11  23  38  64  91 138 167 215 267 334 395
#     4  11  24  40  66  94 129 167 218 267 333 394
#     4  11  22  39  62  90 128 170 217 261 322 405
#     4  10  22  40  67  96 122 168 227 270 313 387
#     4  11  21  41  66  93 125 177 220 266 325 397
#     4  11  24  39  56 100 130 170 210 270 334 392
#     4  11  23  41  62  97 125 168 212 267 327 392
#
# _framework density 19.753086
#
# number of rings (size 3 to 8) (size 9 to 14) (size 15 to 20)
#    0.000    1.143    3.571    3.643    6.000    2.286 
#    0.000    0.000    0.000    1.714    0.000    0.000 
#    0.000    0.000    0.000    0.000    0.000    0.000 
#
# Total GULP energy -312322.322711 kJ/mol
# GULP energy per Si atom -5577.184334 kJ/mol
# Density = 1.970813 g / cm^3
# Si number density = 19.753086 Si / 1000 Ang^3
#
#
#
# Elastic Constant Matrix: (Units=GPa)
#
#
# Indices 1 2 3 4 5 6 
#
# 1 100.4237 46.3809 11.2050 0.0000 0.0000 0.0000
# 2 46.3809 126.9865 18.9315 0.0000 0.0000 0.0000
# 3 11.2050 18.9315 53.6070 0.0000 0.0000 0.0000
# 4 0.0000 0.0000 0.0000 0.3493 0.0000 0.0000
# 5 0.0000 0.0000 0.0000 0.0000 22.2963 0.0000
# 6 0.0000 0.0000 0.0000 0.0000 0.0000 37.9408
#
#
#
# Elastic Compliance Matrix: (Units=1/GPa)
#
#
# Indices 1 2 3 4 5 6 
#
# 1 0.012031 -0.004243 -0.001016 0.000000 0.000000 0.000000
# 2 -0.004243 0.009809 -0.002577 0.000000 0.000000 0.000000
# 3 -0.001016 -0.002577 0.019777 0.000000 0.000000 0.000000
# 4 0.000000 0.000000 0.000000 2.862801 0.000000 0.000000
# 5 0.000000 0.000000 0.000000 0.000000 0.044851 0.000000
# 6 0.000000 0.000000 0.000000 0.000000 0.000000 0.026357
#
#
# Mechanical properties :
#
#
# Convention : Reuss Voigt Hill
#
# Bulk Modulus (GPa) = 38.54470 48.22799 43.38634
# Shear Modulus (GPa) = 1.66670 25.75061 13.70865
#
# Velocity S-wave (km/s) = 0.91956 3.61449 2.63725
# Velocity P-wave (km/s) = 4.54787 6.47208 5.59334
#
# Compressibility (1/GPa) = 0.02594391
#
# Stress axis : x y z
#
# Youngs Moduli (GPa) = 83.12101 101.95094 50.56413
#
# Poissons Ratio (x) = 0.43254 0.05139
# Poissons Ratio (y) = 0.35265 0.13031
# Poissons Ratio (z) = 0.08448 0.26275
#
# Static dielectric constant tensor:
#      x y z
#    x 1.707180 0.000000 0.000000 
#    y 0.000000 1.673790 0.000000 
#    z 0.000000 0.000000 1.904990 
# 
# From -- ./inp_files/28999.got.cif
#   From: 2010.05.17/outbox.ucp.g08.bks.cvg/sg58_15_cif.got.tgz:28999.got - 2010.06.11 16:41:41.
