data_PCOD9446765
_publ_section_title
;
Structure prediction by ZEFSAII (Michael W. Deem and Ramdas Pophale) SiO2 
 PCOD9446765
Probable space group: P M M N
;
_chemical_formula_sum "Si O2"
_cell_formula_units_Z 40
_cell_length_a 7.985544
_cell_length_b 20.739251
_cell_length_c 13.229361
_cell_angle_alpha 90.000000
_cell_angle_beta 90.000000
_cell_angle_gamma 90.000000
_cell_volume 2190.970057
_symmetry_space_group_name_H-M "P M M N"
_symmetry_group_IT_number 59
_space_group.IT_coordinate_system_code '2'
_symmetry_cell_setting 'orthorhombic'
loop_
_space_group_symop_operation_xyz
x,y,z
1/2-x,1/2-y,z
1/2+x,-y,-z
-x,1/2+y,-z
-x,-y,-z
1/2+x,1/2+y,-z
1/2-x,y,z
x,1/2-y,z
loop_
_atom_site_type_symbol
_atom_site_label
_atom_site_fract_x
_atom_site_fract_y
_atom_site_fract_z
Si Si1 0.452391 0.429875 0.042020
Si Si2 0.949270 0.677874 0.112687
Si Si3 0.450001 0.074621 0.482498
Si Si4 0.545290 0.548598 0.733813
Si Si5 0.552361 0.400732 0.697927
O O1 0.250000 0.426949 0.042733
O O2 0.510019 0.424759 0.158224
O O3 0.500000 0.500000 0.000000
O O4 0.517101 0.374035 0.967895
O O5 0.750000 0.681470 0.095544
O O6 0.018934 0.750000 0.102888
O O7 0.975141 0.649430 0.224427
O O8 0.250000 0.080024 0.485822
O O9 0.507298 0.086886 0.367283
O O10 0.519881 0.111718 0.579456
O O11 0.500000 0.000000 0.500000
O O12 0.750000 0.547736 0.732735
O O13 0.490429 0.473627 0.723167
O O14 0.750000 0.400868 0.715159
#
# Coordination Sequence:
#
# PCOD9446765 Si02
#       5
#     8   8   8   8   8
#     4  10  18  31  50  72  99 130 166 209 251 301
#     4  10  21  34  49  72 101 133 167 206 255 309
#     4   9  16  27  44  69 100 130 159 199 247 296
#     4   8  15  27  45  70  98 125 158 200 247 292
#     4  10  18  30  48  70  97 129 166 207 252 301
#
# _framework density 18.256754000000001
#
# number of rings (size 3 to 8) (size 9 to 14) (size 15 to 20)
#    0.000    2.600    2.000    2.400    0.000    0.400 
#    0.000    1.000    0.000    1.200    0.000    5.600 
#    0.000    0.000    0.000    0.000    0.000    0.000 
#
# Total GULP energy -222849.655017 kJ/mol
# GULP energy per Si atom -5571.241375 kJ/mol
# Density = 1.821520 g / cm^3
# Si number density = 18.256754 Si / 1000 Ang^3
#
#
#
# Elastic Constant Matrix: (Units=GPa)
#
#
# Indices 1 2 3 4 5 6 
#
# 1 15.5399 5.1366 -4.0638 0.0000 0.0000 0.0000
# 2 5.1366 97.5090 70.2379 0.0000 0.0000 0.0000
# 3 -4.0638 70.2379 177.0040 0.0000 0.0000 0.0000
# 4 0.0000 0.0000 0.0000 13.5000 0.0000 0.0000
# 5 0.0000 0.0000 0.0000 0.0000 16.2038 0.0000
# 6 0.0000 0.0000 0.0000 0.0000 0.0000 13.1600
#
#
#
# Elastic Compliance Matrix: (Units=1/GPa)
#
#
# Indices 1 2 3 4 5 6 
#
# 1 0.067602 -0.006552 0.004152 0.000000 0.000000 0.000000
# 2 -0.006552 0.014995 -0.006101 0.000000 0.000000 0.000000
# 3 0.004152 -0.006101 0.008166 0.000000 0.000000 0.000000
# 4 0.000000 0.000000 0.000000 0.074074 0.000000 0.000000
# 5 0.000000 0.000000 0.000000 0.000000 0.061714 0.000000
# 6 0.000000 0.000000 0.000000 0.000000 0.000000 0.075988
#
#
# Mechanical properties :
#
#
# Convention : Reuss Voigt Hill
#
# Bulk Modulus (GPa) = 13.55720 48.07493 30.81607
# Shear Modulus (GPa) = 14.52951 23.15557 18.84254
#
# Velocity S-wave (km/s) = 2.82413 3.56522 3.21609
# Velocity P-wave (km/s) = 4.25162 6.58313 5.54138
#
# Compressibility (1/GPa) = 0.07376153
#
# Stress axis : x y z
#
# Youngs Moduli (GPa) = 14.79246 66.68851 122.46249
#
# Poissons Ratio (x) = 0.43694 -0.50846
# Poissons Ratio (y) = 0.09692 0.74711
# Poissons Ratio (z) = -0.06142 0.40685
#
# Static dielectric constant tensor:
#      x y z
#    x 1.647660 0.000000 0.000000 
#    y 0.000000 1.603810 0.000000 
#    z 0.000000 0.000000 1.674640 
# 
# From -- ./inp_files/14054.got.cif
#   From: 2010.05.17/outbox.cif.g08.bks.cpg/sg59_8_cif.got.tgz:14054.got - 2010.06.03 14:40:33.
