data_PCOD9446371
_publ_section_title
;
Structure prediction by ZEFSAII (Michael W. Deem and Ramdas Pophale) SiO2 
 PCOD9446371
Probable space group: P M M N
;
_chemical_formula_sum "Si O2"
_cell_formula_units_Z 56
_cell_length_a 9.229427
_cell_length_b 22.053734
_cell_length_c 17.986695
_cell_angle_alpha 90.000000
_cell_angle_beta 90.000000
_cell_angle_gamma 90.000000
_cell_volume 3661.071761
_symmetry_space_group_name_H-M "P M M N"
_symmetry_group_IT_number 59
_space_group.IT_coordinate_system_code '2'
_symmetry_cell_setting 'orthorhombic'
loop_
_space_group_symop_operation_xyz
x,y,z
1/2-x,1/2-y,z
1/2+x,-y,-z
-x,1/2+y,-z
-x,-y,-z
1/2+x,1/2+y,-z
1/2-x,y,z
x,1/2-y,z
loop_
_atom_site_type_symbol
_atom_site_label
_atom_site_fract_x
_atom_site_fract_y
_atom_site_fract_z
Si Si1 0.921360 0.044450 0.606583
Si Si2 0.922836 0.821376 0.665869
Si Si3 0.421352 0.411554 0.464457
Si Si4 0.921142 0.963864 0.239253
Si Si5 0.420850 0.892953 0.796291
Si Si6 0.917318 0.060621 0.909193
Si Si7 0.917165 0.584168 0.944773
O O1 0.750000 0.054146 0.615055
O O2 0.987120 0.083855 0.539572
O O3 0.003738 0.054022 0.683759
O O4 0.943431 0.974419 0.580755
O O5 0.750000 0.830862 0.677445
O O6 0.950100 0.750000 0.660011
O O7 0.961258 0.856967 0.590337
O O8 0.008111 0.850881 0.734098
O O9 0.250000 0.407896 0.482261
O O10 0.750000 0.951102 0.239862
O O11 0.998407 0.933613 0.168343
O O12 0.938843 0.036729 0.228791
O O13 0.250000 0.881539 0.803892
O O14 0.500623 0.886326 0.875273
O O15 0.750000 0.079506 0.903574
O O16 0.917486 0.988399 0.928081
O O17 0.999327 0.092092 0.977673
O O18 0.750000 0.603361 0.949359
#
# Coordination Sequence:
#
# PCOD9446371 Si02
#       7
#     8   8   8   8   8   8   8
#     4  10  18  28  45  65  87 116 149 186 227 274
#     4  10  20  34  50  66  87 117 153 191 231 274
#     4   9  18  31  45  63  87 114 147 186 229 275
#     4  10  18  27  41  62  89 119 150 183 222 269
#     4  10  19  29  43  62  86 116 151 187 225 266
#     4   9  16  25  38  58  85 115 147 180 215 255
#     4   9  16  26  40  57  82 115 149 181 214 256
#
# _framework density 15.296068
#
# number of rings (size 3 to 8) (size 9 to 14) (size 15 to 20)
#    0.000    2.429    1.429    2.143    0.000    6.000 
#    0.000    0.000    0.000    0.000    0.000    0.000 
#    0.000    1.143    0.000    6.857    0.000    5.286 
#
# Total GULP energy -312221.853390 kJ/mol
# GULP energy per Si atom -5575.390239 kJ/mol
# Density = 1.526125 g / cm^3
# Si number density = 15.296068 Si / 1000 Ang^3
#
#
#
# Elastic Constant Matrix: (Units=GPa)
#
#
# Indices 1 2 3 4 5 6 
#
# 1 122.3747 39.6372 110.4437 0.0000 0.0000 0.0000
# 2 39.6372 39.7657 41.3859 0.0000 0.0000 0.0000
# 3 110.4437 41.3859 176.8335 0.0000 0.0000 0.0000
# 4 0.0000 0.0000 0.0000 9.7386 0.0000 0.0000
# 5 0.0000 0.0000 0.0000 0.0000 34.8622 0.0000
# 6 0.0000 0.0000 0.0000 0.0000 0.0000 11.9480
#
#
#
# Elastic Compliance Matrix: (Units=1/GPa)
#
#
# Indices 1 2 3 4 5 6 
#
# 1 0.021243 -0.009738 -0.010988 0.000000 0.000000 0.000000
# 2 -0.009738 0.037709 -0.002743 0.000000 0.000000 0.000000
# 3 -0.010988 -0.002743 0.013160 0.000000 0.000000 0.000000
# 4 0.000000 0.000000 0.000000 0.102685 0.000000 0.000000
# 5 0.000000 0.000000 0.000000 0.000000 0.028684 0.000000
# 6 0.000000 0.000000 0.000000 0.000000 0.000000 0.083696
#
#
# Mechanical properties :
#
#
# Convention : Reuss Voigt Hill
#
# Bulk Modulus (GPa) = 39.72628 80.21193 59.96911
# Shear Modulus (GPa) = 14.59822 21.14356 17.87089
#
# Velocity S-wave (km/s) = 3.09265 3.72195 3.42180
# Velocity P-wave (km/s) = 6.22741 8.42757 7.40961
#
# Compressibility (1/GPa) = 0.02517225
#
# Stress axis : x y z
#
# Youngs Moduli (GPa) = 47.07446 26.51889 75.98738
#
# Poissons Ratio (x) = 0.25824 0.83499
# Poissons Ratio (y) = 0.45842 0.20846
# Poissons Ratio (z) = 0.51728 0.07275
#
# Static dielectric constant tensor:
#      x y z
#    x 1.509440 0.000000 0.000000 
#    y 0.000000 1.474230 0.000000 
#    z 0.000000 0.000000 1.495570 
# 
# From -- ./inp_files/26081.got.cif
#   From: 2010.05.17/outbox.cif.g08.bks.cpg/sg59_14_cif.got.tgz:26081.got - 2010.06.03 14:40:33.
