data_PCOD9446333
_publ_section_title
;
Structure prediction by ZEFSAII (Michael W. Deem and Ramdas Pophale) SiO2 
 PCOD9446333
Probable space group: P M M N
;
_chemical_formula_sum "Si O2"
_cell_formula_units_Z 56
_cell_length_a 25.388433
_cell_length_b 8.184934
_cell_length_c 16.896833
_cell_angle_alpha 90.000000
_cell_angle_beta 90.000000
_cell_angle_gamma 90.000000
_cell_volume 3511.206648
_symmetry_space_group_name_H-M "P M M N"
_symmetry_group_IT_number 59
_space_group.IT_coordinate_system_code '2'
_symmetry_cell_setting 'orthorhombic'
loop_
_space_group_symop_operation_xyz
x,y,z
1/2-x,1/2-y,z
1/2+x,-y,-z
-x,1/2+y,-z
-x,-y,-z
1/2+x,1/2+y,-z
1/2-x,y,z
x,1/2-y,z
loop_
_atom_site_type_symbol
_atom_site_label
_atom_site_fract_x
_atom_site_fract_y
_atom_site_fract_z
Si Si1 0.484575 0.054225 0.196820
Si Si2 0.404654 0.444870 0.875027
Si Si3 0.581829 0.944981 0.478918
Si Si4 0.487606 0.446905 0.374186
Si Si5 0.556074 0.947019 0.963700
Si Si6 0.809362 0.447139 0.415289
Si Si7 0.809559 0.447245 0.233134
O O1 0.478063 0.250000 0.200874
O O2 0.477985 0.989142 0.285673
O O3 0.445816 0.991979 0.126895
O O4 0.544000 0.020201 0.167297
O O5 0.411896 0.250000 0.874424
O O6 0.353061 0.488585 0.826346
O O7 0.403718 0.499956 0.967396
O O8 0.578272 0.750000 0.478319
O O9 0.554172 0.005833 0.559883
O O10 0.545366 0.009410 0.407328
O O11 0.642165 0.994429 0.467810
O O12 0.484447 0.250000 0.371787
O O13 0.558282 0.750000 0.959684
O O14 0.500000 0.000000 0.000000
O O15 0.750000 0.501020 0.437633
O O16 0.809268 0.250000 0.415863
O O17 0.819118 0.499607 0.324113
O O18 0.750000 0.497116 0.212025
O O19 0.811526 0.250000 0.232607
#
# Coordination Sequence:
#
# PCOD9446333 Si02
#       7
#     8   8   8   8   8   8   8
#     4   9  16  28  44  58  78 112 145 164 187 234
#     4  10  18  26  39  62  88 107 128 166 209 238
#     4  10  19  29  42  63  88 110 136 173 213 247
#     4   9  18  30  43  60  84 115 145 170 200 245
#     4   8  15  26  39  57  80 105 132 161 192 228
#     4   9  18  32  47  61  80 109 142 172 203 245
#     4   9  18  31  44  58  78 107 141 167 190 234
#
# _framework density 15.948933
#
# number of rings (size 3 to 8) (size 9 to 14) (size 15 to 20)
#    0.000    2.857    0.000    2.571    0.000    6.286 
#    0.000    1.429    0.000    0.000    0.000    1.000 
#    0.000    8.000    0.000    0.000    0.000    0.000 
#
# Total GULP energy -311777.842416 kJ/mol
# GULP energy per Si atom -5567.461472 kJ/mol
# Density = 1.591263 g / cm^3
# Si number density = 15.948933 Si / 1000 Ang^3
#
#
#
# Elastic Constant Matrix: (Units=GPa)
#
#
# Indices 1 2 3 4 5 6 
#
# 1 79.1418 -0.5093 45.1220 0.0000 0.0000 0.0000
# 2 -0.5093 4.8616 7.7699 0.0000 0.0000 0.0000
# 3 45.1220 7.7699 116.3243 0.0000 0.0000 0.0000
# 4 0.0000 0.0000 0.0000 15.1710 0.0000 0.0000
# 5 0.0000 0.0000 0.0000 0.0000 25.6940 0.0000
# 6 0.0000 0.0000 0.0000 0.0000 0.0000 18.7761
#
#
#
# Elastic Compliance Matrix: (Units=1/GPa)
#
#
# Indices 1 2 3 4 5 6 
#
# 1 0.017012 0.013803 -0.007521 0.000000 0.000000 0.000000
# 2 0.013803 0.241476 -0.021484 0.000000 0.000000 0.000000
# 3 -0.007521 -0.021484 0.012949 0.000000 0.000000 0.000000
# 4 0.000000 0.000000 0.000000 0.065915 0.000000 0.000000
# 5 0.000000 0.000000 0.000000 0.000000 0.038920 0.000000
# 6 0.000000 0.000000 0.000000 0.000000 0.000000 0.053259
#
#
# Mechanical properties :
#
#
# Convention : Reuss Voigt Hill
#
# Bulk Modulus (GPa) = 4.14879 33.89920 19.02400
# Shear Modulus (GPa) = 9.25446 21.79123 15.52285
#
# Velocity S-wave (km/s) = 2.41146 3.70038 3.12314
# Velocity P-wave (km/s) = 3.21877 6.28952 4.99592
#
# Compressibility (1/GPa) = 0.24103403
#
# Stress axis : x y z
#
# Youngs Moduli (GPa) = 58.78054 4.14119 77.22565
#
# Poissons Ratio (x) = -0.05716 0.58082
# Poissons Ratio (y) = -0.81133 1.65908
# Poissons Ratio (z) = 0.44209 0.08897
#
# Static dielectric constant tensor:
#      x y z
#    x 1.511350 0.000000 0.000000 
#    y 0.000000 1.563770 0.000000 
#    z 0.000000 0.000000 1.580200 
# 
# From -- ./inp_files/28083.got.cif
#   From: 2010.05.17/outbox.cif.g08.bks.cpg/sg59_15_cif.got.tgz:28083.got - 2010.06.03 14:40:33.
