data_PCOD9446845
_publ_section_title
;
Structure prediction by ZEFSAII (Michael W. Deem and Ramdas Pophale) SiO2 
 PCOD9446845
Probable space group: P M M N
;
_chemical_formula_sum "Si O2"
_cell_formula_units_Z 48
_cell_length_a 7.797829
_cell_length_b 14.004577
_cell_length_c 21.054730
_cell_angle_alpha 90.000000
_cell_angle_beta 90.000000
_cell_angle_gamma 90.000000
_cell_volume 2299.288036
_symmetry_space_group_name_H-M "P M M N"
_symmetry_group_IT_number 59
_space_group.IT_coordinate_system_code '2'
_symmetry_cell_setting 'orthorhombic'
loop_
_space_group_symop_operation_xyz
x,y,z
1/2-x,1/2-y,z
1/2+x,-y,-z
-x,1/2+y,-z
-x,-y,-z
1/2+x,1/2+y,-z
1/2-x,y,z
x,1/2-y,z
loop_
_atom_site_type_symbol
_atom_site_label
_atom_site_fract_x
_atom_site_fract_y
_atom_site_fract_z
Si Si1 0.558196 0.750000 0.729375
Si Si2 0.564001 0.250000 0.406083
Si Si3 0.544546 0.355211 0.782470
Si Si4 0.956247 0.933734 0.082361
Si Si5 0.953624 0.557445 0.562096
Si Si6 0.452214 0.857088 0.944642
Si Si7 0.960075 0.541778 0.708594
O O1 0.750000 0.750000 0.757180
O O2 0.567152 0.750000 0.652157
O O3 0.480883 0.856351 0.739292
O O4 0.750000 0.250000 0.374961
O O5 0.538064 0.340836 0.448081
O O6 0.750000 0.353862 0.773312
O O7 0.478483 0.250000 0.764070
O O8 0.507185 0.375250 0.855960
O O9 0.478861 0.447766 0.744853
O O10 0.750000 0.936481 0.076393
O O11 0.020050 0.044523 0.087210
O O12 0.026403 0.882742 0.019207
O O13 0.750000 0.564870 0.565400
O O14 0.010244 0.531539 0.634224
O O15 0.000000 0.500000 0.500000
O O16 0.250000 0.852565 0.929859
O O17 0.523273 0.750000 0.931226
O O18 0.750000 0.545775 0.710937
#
# Coordination Sequence:
#
# PCOD9446845 Si02
#       7
#     4   4   8   8   8   8   8
#     4   8  14  30  54  72  94 126 166 217 264 305
#     4  10  18  30  50  76 102 134 172 209 256 319
#     4  10  20  35  53  73 103 142 181 212 249 311
#     4  10  20  33  51  76 104 134 171 215 260 305
#     4  10  19  34  54  78 107 138 174 221 271 320
#     4   9  18  34  54  74 100 135 171 210 259 312
#     4   8  16  32  53  75  98 133 175 213 257 309
#
# _framework density 20.876028000000002
#
# number of rings (size 3 to 8) (size 9 to 14) (size 15 to 20)
#    0.000    2.667    0.000    3.250    0.000    3.333 
#    3.000    4.167    0.000    0.000    0.000    0.000 
#    0.000    0.000    0.000    0.000    0.000    0.000 
#
# Total GULP energy -267368.854357 kJ/mol
# GULP energy per Si atom -5570.184466 kJ/mol
# Density = 2.082851 g / cm^3
# Si number density = 20.876028 Si / 1000 Ang^3
#
#
#
# Elastic Constant Matrix: (Units=GPa)
#
#
# Indices 1 2 3 4 5 6 
#
# 1 36.9170 2.6644 -7.0175 0.0000 0.0000 0.0000
# 2 2.6644 175.6107 31.5028 0.0000 0.0000 0.0000
# 3 -7.0175 31.5028 33.6623 0.0000 0.0000 0.0000
# 4 0.0000 0.0000 0.0000 63.0639 0.0000 0.0000
# 5 0.0000 0.0000 0.0000 0.0000 15.1217 0.0000
# 6 0.0000 0.0000 0.0000 0.0000 0.0000 12.8820
#
#
#
# Elastic Compliance Matrix: (Units=1/GPa)
#
#
# Indices 1 2 3 4 5 6 
#
# 1 0.028677 -0.001812 0.007674 0.000000 0.000000 0.000000
# 2 -0.001812 0.006958 -0.006889 0.000000 0.000000 0.000000
# 3 0.007674 -0.006889 0.037754 0.000000 0.000000 0.000000
# 4 0.000000 0.000000 0.000000 0.015857 0.000000 0.000000
# 5 0.000000 0.000000 0.000000 0.000000 0.066130 0.000000
# 6 0.000000 0.000000 0.000000 0.000000 0.000000 0.077628
#
#
# Mechanical properties :
#
#
# Convention : Reuss Voigt Hill
#
# Bulk Modulus (GPa) = 14.01847 33.38773 23.70310
# Shear Modulus (GPa) = 19.31726 32.81620 26.06673
#
# Velocity S-wave (km/s) = 3.04523 3.96909 3.53745
# Velocity P-wave (km/s) = 4.36969 6.08547 5.29751
#
# Compressibility (1/GPa) = 0.07133448
#
# Stress axis : x y z
#
# Youngs Moduli (GPa) = 34.87087 143.72506 26.48754
#
# Poissons Ratio (x) = 0.26038 -0.20326
# Poissons Ratio (y) = 0.06317 0.18247
# Poissons Ratio (z) = -0.26759 0.99013
#
# Static dielectric constant tensor:
#      x y z
#    x 1.784520 0.000000 0.000000 
#    y 0.000000 1.720680 0.000000 
#    z 0.000000 0.000000 1.675480 
# 
# From -- ./inp_files/25601.got.cif
#   From: 2010.05.17/outbox.cif.g08.bks.cpg/sg59_13_cif.got.tgz:25601.got - 2010.06.03 14:40:33.
