data_PCOD9446279
_publ_section_title
;
Structure prediction by ZEFSAII (Michael W. Deem and Ramdas Pophale) SiO2 
 PCOD9446279
Probable space group: P M M N
;
_chemical_formula_sum "Si O2"
_cell_formula_units_Z 64
_cell_length_a 14.720984
_cell_length_b 27.512953
_cell_length_c 9.947846
_cell_angle_alpha 90.000000
_cell_angle_beta 90.000000
_cell_angle_gamma 90.000000
_cell_volume 4029.054114
_symmetry_space_group_name_H-M "P M M N"
_symmetry_group_IT_number 59
_space_group.IT_coordinate_system_code '2'
_symmetry_cell_setting 'orthorhombic'
loop_
_space_group_symop_operation_xyz
x,y,z
1/2-x,1/2-y,z
1/2+x,-y,-z
-x,1/2+y,-z
-x,-y,-z
1/2+x,1/2+y,-z
1/2-x,y,z
x,1/2-y,z
loop_
_atom_site_type_symbol
_atom_site_label
_atom_site_fract_x
_atom_site_fract_y
_atom_site_fract_z
Si Si1 0.963083 0.597797 0.366683
Si Si2 0.580918 0.460972 0.025585
Si Si3 0.143060 0.306826 0.687323
Si Si4 0.651613 0.552016 0.133623
Si Si5 0.144614 0.557893 0.277109
Si Si6 0.357123 0.051586 0.389896
Si Si7 0.427610 0.398335 0.125562
Si Si8 0.355508 0.306057 0.010247
O O1 0.921750 0.652141 0.375475
O O2 0.923676 0.573356 0.230992
O O3 0.920737 0.565712 0.485894
O O4 0.071192 0.592691 0.348735
O O5 0.646072 0.493990 0.116312
O O6 0.529461 0.417663 0.100612
O O7 0.500000 0.500000 0.000000
O O8 0.623533 0.446204 0.883077
O O9 0.250000 0.315394 0.654936
O O10 0.123177 0.250000 0.654924
O O11 0.133726 0.312209 0.849398
O O12 0.750000 0.566919 0.185578
O O13 0.634847 0.575275 0.987621
O O14 0.250000 0.571494 0.295486
O O15 0.131165 0.503856 0.339186
O O16 0.250000 0.058645 0.420694
O O17 0.388514 0.085663 0.267421
O O18 0.418050 0.342087 0.092613
O O19 0.250000 0.317026 0.040943
O O20 0.372329 0.250000 0.041317
#
# Coordination Sequence:
#
# PCOD9446279 Si02
#       8
#     8   8   8   8   8   8   8   8
#     4  12  21  34  49  75 101 135 175 206 246 302
#     4  10  17  30  48  72  92 125 169 206 240 296
#     4   9  17  30  50  75 102 130 164 211 258 301
#     4  11  18  28  50  71  96 127 162 201 237 292
#     4  11  21  35  51  72 103 136 171 213 260 296
#     4  11  22  32  47  73 106 137 165 202 250 306
#     4  11  18  31  49  68  99 132 166 199 250 297
#     4   9  16  26  44  70  94 122 165 207 243 289
#
# _framework density 15.884622
#
# number of rings (size 3 to 8) (size 9 to 14) (size 15 to 20)
#    0.000    1.500    6.250    3.750    0.000    0.000 
#    0.000    0.625    0.000    3.375    0.000    0.000 
#    0.000    1.500    0.000    0.625    0.000    0.000 
#
# Total GULP energy -356802.211685 kJ/mol
# GULP energy per Si atom -5575.034558 kJ/mol
# Density = 1.584847 g / cm^3
# Si number density = 15.884622 Si / 1000 Ang^3
#
#
#
# Elastic Constant Matrix: (Units=GPa)
#
#
# Indices 1 2 3 4 5 6 
#
# 1 93.2466 32.1256 14.7368 0.0000 0.0000 0.0000
# 2 32.1256 70.2846 2.6741 0.0000 0.0000 0.0000
# 3 14.7368 2.6741 23.9462 0.0000 0.0000 0.0000
# 4 0.0000 0.0000 0.0000 9.1191 0.0000 0.0000
# 5 0.0000 0.0000 0.0000 0.0000 16.7448 0.0000
# 6 0.0000 0.0000 0.0000 0.0000 0.0000 22.5826
#
#
#
# Elastic Compliance Matrix: (Units=1/GPa)
#
#
# Indices 1 2 3 4 5 6 
#
# 1 0.014104 -0.006142 -0.007994 0.000000 0.000000 0.000000
# 2 -0.006142 0.016964 0.001886 0.000000 0.000000 0.000000
# 3 -0.007994 0.001886 0.046469 0.000000 0.000000 0.000000
# 4 0.000000 0.000000 0.000000 0.109659 0.000000 0.000000
# 5 0.000000 0.000000 0.000000 0.000000 0.059720 0.000000
# 6 0.000000 0.000000 0.000000 0.000000 0.000000 0.044282
#
#
# Mechanical properties :
#
#
# Convention : Reuss Voigt Hill
#
# Bulk Modulus (GPa) = 18.85517 31.83893 25.34705
# Shear Modulus (GPa) = 14.99802 18.88538 16.94170
#
# Velocity S-wave (km/s) = 3.07609 3.45180 3.26935
# Velocity P-wave (km/s) = 4.95099 5.99783 5.49937
#
# Compressibility (1/GPa) = 0.05303584
#
# Stress axis : x y z
#
# Youngs Moduli (GPa) = 70.90293 58.94949 21.51967
#
# Poissons Ratio (x) = 0.36209 0.17202
# Poissons Ratio (y) = 0.43551 -0.04058
# Poissons Ratio (z) = 0.56678 -0.11116
#
# Static dielectric constant tensor:
#      x y z
#    x 1.584560 0.000000 0.000000 
#    y 0.000000 1.564760 0.000000 
#    z 0.000000 0.000000 1.534560 
# 
# From -- ./inp_files/9737.got.cif
#   From: 2010.05.17/outbox.cif.g08.bks.cpg/sg59_5_cif.got.tgz:9737.got - 2010.06.03 14:40:33.
