data_PCOD9446487
_publ_section_title
;
Structure prediction by ZEFSAII (Michael W. Deem and Ramdas Pophale) SiO2 
 PCOD9446487
Probable space group: P M M N
;
_chemical_formula_sum "Si O2"
_cell_formula_units_Z 48
_cell_length_a 26.584910
_cell_length_b 8.771382
_cell_length_c 12.303189
_cell_angle_alpha 90.000000
_cell_angle_beta 90.000000
_cell_angle_gamma 90.000000
_cell_volume 2868.936364
_symmetry_space_group_name_H-M "P M M N"
_symmetry_group_IT_number 59
_space_group.IT_coordinate_system_code '2'
_symmetry_cell_setting 'orthorhombic'
loop_
_space_group_symop_operation_xyz
x,y,z
1/2-x,1/2-y,z
1/2+x,-y,-z
-x,1/2+y,-z
-x,-y,-z
1/2+x,1/2+y,-z
1/2-x,y,z
x,1/2-y,z
loop_
_atom_site_type_symbol
_atom_site_label
_atom_site_fract_x
_atom_site_fract_y
_atom_site_fract_z
Si Si1 0.807219 0.064592 0.832300
Si Si2 0.572928 0.071891 0.232679
Si Si3 0.611294 0.068751 0.660202
Si Si4 0.041130 0.427651 0.161531
Si Si5 0.945870 0.569726 0.465034
Si Si6 0.888487 0.434619 0.011093
O O1 0.750000 0.009720 0.834662
O O2 0.806320 0.250000 0.831267
O O3 0.838442 0.018676 0.724701
O O4 0.840132 0.022084 0.938282
O O5 0.581775 0.250000 0.259592
O O6 0.518326 0.061882 0.175486
O O7 0.611503 0.023176 0.138026
O O8 0.569179 0.980138 0.343851
O O9 0.613288 0.250000 0.643848
O O10 0.566918 0.027146 0.744388
O O11 0.596328 0.988339 0.548985
O O12 0.055120 0.250000 0.176039
O O13 0.064476 0.489192 0.050276
O O14 0.950777 0.750000 0.472514
O O15 0.000000 0.500000 0.500000
O O16 0.893964 0.250000 0.005786
#
# Coordination Sequence:
#
# PCOD9446487 Si02
#       6
#     8   8   8   8   8   8
#     4   8  15  30  54  80 101 124 159 208 260 301
#     4  10  20  32  46  68 100 138 172 203 243 292
#     4  10  19  32  51  74 101 132 169 211 252 295
#     4  10  18  28  45  68  99 134 167 203 242 294
#     4  12  23  34  50  71 100 138 175 209 248 299
#     4   9  18  31  48  71 100 131 166 206 248 294
#
# _framework density 16.730938999999999
#
# number of rings (size 3 to 8) (size 9 to 14) (size 15 to 20)
#    0.000    2.167    1.667    4.000    0.000    1.333 
#    0.000    0.000    0.000   13.500    0.000    4.667 
#    0.000    0.000    0.000    0.000    0.000    0.000 
#
# Total GULP energy -267610.929553 kJ/mol
# GULP energy per Si atom -5575.227699 kJ/mol
# Density = 1.669286 g / cm^3
# Si number density = 16.730939 Si / 1000 Ang^3
#
#
#
# Elastic Constant Matrix: (Units=GPa)
#
#
# Indices 1 2 3 4 5 6 
#
# 1 83.1846 29.9492 56.4364 0.0000 0.0000 0.0000
# 2 29.9492 63.0481 52.5492 0.0000 0.0000 0.0000
# 3 56.4364 52.5492 142.9542 0.0000 0.0000 0.0000
# 4 0.0000 0.0000 0.0000 25.1086 0.0000 0.0000
# 5 0.0000 0.0000 0.0000 0.0000 9.0318 0.0000
# 6 0.0000 0.0000 0.0000 0.0000 0.0000 13.2431
#
#
#
# Elastic Compliance Matrix: (Units=1/GPa)
#
#
# Indices 1 2 3 4 5 6 
#
# 1 0.016959 -0.003569 -0.005383 0.000000 0.000000 0.000000
# 2 -0.003569 0.023618 -0.007273 0.000000 0.000000 0.000000
# 3 -0.005383 -0.007273 0.011794 0.000000 0.000000 0.000000
# 4 0.000000 0.000000 0.000000 0.039827 0.000000 0.000000
# 5 0.000000 0.000000 0.000000 0.000000 0.110720 0.000000
# 6 0.000000 0.000000 0.000000 0.000000 0.000000 0.075511
#
#
# Mechanical properties :
#
#
# Convention : Reuss Voigt Hill
#
# Bulk Modulus (GPa) = 50.19933 63.00629 56.60281
# Shear Modulus (GPa) = 15.74710 19.49350 17.62030
#
# Velocity S-wave (km/s) = 3.07122 3.41708 3.24876
# Velocity P-wave (km/s) = 6.53036 7.30130 6.92656
#
# Compressibility (1/GPa) = 0.01992058
#
# Stress axis : x y z
#
# Youngs Moduli (GPa) = 58.96738 42.34048 84.78977
#
# Poissons Ratio (x) = 0.15111 0.45643
# Poissons Ratio (y) = 0.21046 0.61667
# Poissons Ratio (z) = 0.31742 0.30794
#
# Static dielectric constant tensor:
#      x y z
#    x 1.562940 0.000000 0.000000 
#    y 0.000000 1.576180 0.000000 
#    z 0.000000 0.000000 1.587610 
# 
# From -- ./inp_files/14463.got.cif
#   From: 2010.05.17/outbox.cif.g08.bks.cpg/sg59_8_cif.got.tgz:14463.got - 2010.06.03 14:40:33.
