data_PCOD9446840
_publ_section_title
;
Structure prediction by ZEFSAII (Michael W. Deem and Ramdas Pophale) SiO2 
 PCOD9446840
Probable space group: P M M N
;
_chemical_formula_sum "Si O2"
_cell_formula_units_Z 64
_cell_length_a 7.411011
_cell_length_b 19.970388
_cell_length_c 19.627567
_cell_angle_alpha 90.000000
_cell_angle_beta 90.000000
_cell_angle_gamma 90.000000
_cell_volume 2904.894934
_symmetry_space_group_name_H-M "P M M N"
_symmetry_group_IT_number 59
_space_group.IT_coordinate_system_code '2'
_symmetry_cell_setting 'orthorhombic'
loop_
_space_group_symop_operation_xyz
x,y,z
1/2-x,1/2-y,z
1/2+x,-y,-z
-x,1/2+y,-z
-x,-y,-z
1/2+x,1/2+y,-z
1/2-x,y,z
x,1/2-y,z
loop_
_atom_site_type_symbol
_atom_site_label
_atom_site_fract_x
_atom_site_fract_y
_atom_site_fract_z
Si Si1 0.967593 0.564501 0.143972
Si Si2 0.033791 0.441876 0.555709
Si Si3 0.532212 0.821966 0.826061
Si Si4 0.032163 0.378096 0.313702
Si Si5 0.035880 0.826720 0.039077
Si Si6 0.042551 0.030637 0.706499
Si Si7 0.955061 0.067246 0.069758
Si Si8 0.529398 0.674030 0.539633
O O1 0.750000 0.556689 0.146062
O O2 0.035581 0.555294 0.221389
O O3 0.034270 0.503730 0.094539
O O4 0.010443 0.636211 0.111224
O O5 0.250000 0.439582 0.561917
O O6 0.961781 0.452008 0.632192
O O7 0.969642 0.373841 0.520889
O O8 0.000000 0.500000 0.500000
O O9 0.750000 0.825731 0.832089
O O10 0.473819 0.750000 0.854601
O O11 0.486727 0.827412 0.746599
O O12 0.453320 0.885244 0.864257
O O13 0.250000 0.382959 0.316019
O O14 0.970289 0.355592 0.387827
O O15 0.960683 0.450361 0.293226
O O16 0.250000 0.822503 0.025108
O O17 0.966512 0.750000 0.035402
O O18 0.960007 0.882230 0.985880
O O19 0.250000 0.054472 0.705979
O O20 0.750000 0.052912 0.047246
O O21 0.750000 0.673339 0.540491
O O22 0.471445 0.750000 0.532273
#
# Coordination Sequence:
#
# PCOD9446840 Si02
#       8
#     8   8   8   8   8   8   8   8
#     4  10  21  37  57  81 109 142 180 222 268 317
#     4  10  19  32  53  78 105 138 175 217 260 305
#     4  10  20  31  46  75 112 144 177 218 260 310
#     4  10  18  30  50  74 102 139 180 217 258 311
#     4  10  22  39  58  81 107 138 180 226 270 320
#     4  10  20  34  52  79 111 137 174 224 265 311
#     4  10  20  36  57  80 108 142 177 215 265 325
#     4   9  17  30  49  74 103 136 176 217 258 307
#
# _framework density 22.031777999999999
#
# number of rings (size 3 to 8) (size 9 to 14) (size 15 to 20)
#    0.000    2.125    2.500    1.125    0.000    4.000 
#    0.000    0.625    0.000    4.500    0.000    0.000 
#    0.000    0.000    0.000    0.000    0.000    0.000 
#
# Total GULP energy -357306.280107 kJ/mol
# GULP energy per Si atom -5582.910627 kJ/mol
# Density = 2.198163 g / cm^3
# Si number density = 22.031778 Si / 1000 Ang^3
#
#
#
# Elastic Constant Matrix: (Units=GPa)
#
#
# Indices 1 2 3 4 5 6 
#
# 1 74.6558 -0.5157 8.8828 0.0000 0.0000 0.0000
# 2 -0.5157 97.4254 80.2286 0.0000 0.0000 0.0000
# 3 8.8828 80.2286 158.6903 0.0000 0.0000 0.0000
# 4 0.0000 0.0000 0.0000 28.9571 0.0000 0.0000
# 5 0.0000 0.0000 0.0000 0.0000 158.4348 0.0000
# 6 0.0000 0.0000 0.0000 0.0000 0.0000 2.1900
#
#
#
# Elastic Compliance Matrix: (Units=1/GPa)
#
#
# Indices 1 2 3 4 5 6 
#
# 1 0.013565 0.001194 -0.001363 0.000000 0.000000 0.000000
# 2 0.001194 0.017691 -0.009011 0.000000 0.000000 0.000000
# 3 -0.001363 -0.009011 0.010933 0.000000 0.000000 0.000000
# 4 0.000000 0.000000 0.000000 0.034534 0.000000 0.000000
# 5 0.000000 0.000000 0.000000 0.000000 0.006312 0.000000
# 6 0.000000 0.000000 0.000000 0.000000 0.000000 0.456629
#
#
# Mechanical properties :
#
#
# Convention : Reuss Voigt Hill
#
# Bulk Modulus (GPa) = 41.96326 56.44035 49.20181
# Shear Modulus (GPa) = 8.83444 54.06142 31.44793
#
# Velocity S-wave (km/s) = 2.00464 4.95895 3.78218
# Velocity P-wave (km/s) = 4.94430 7.64602 6.43847
#
# Compressibility (1/GPa) = 0.02383037
#
# Stress axis : x y z
#
# Youngs Moduli (GPa) = 73.71778 56.52645 91.46263
#
# Poissons Ratio (x) = -0.06751 0.12468
# Poissons Ratio (y) = -0.08804 0.82415
# Poissons Ratio (z) = 0.10049 0.50935
#
# Static dielectric constant tensor:
#      x y z
#    x 1.803350 0.000000 0.000000 
#    y 0.000000 1.768590 0.000000 
#    z 0.000000 0.000000 1.834200 
# 
# From -- ./inp_files/26192.got.cif
#   From: 2010.05.17/outbox.cif.g08.bks.cpg/sg59_14_cif.got.tgz:26192.got - 2010.06.03 14:40:33.
