data_PCOD9446320
_publ_section_title
;
Structure prediction by ZEFSAII (Michael W. Deem and Ramdas Pophale) SiO2 
 PCOD9446320
Probable space group: P M M N
;
_chemical_formula_sum "Si O2"
_cell_formula_units_Z 56
_cell_length_a 28.144458
_cell_length_b 7.260239
_cell_length_c 12.470589
_cell_angle_alpha 90.000000
_cell_angle_beta 90.000000
_cell_angle_gamma 90.000000
_cell_volume 2548.183934
_symmetry_space_group_name_H-M "P M M N"
_symmetry_group_IT_number 59
_space_group.IT_coordinate_system_code '2'
_symmetry_cell_setting 'orthorhombic'
loop_
_space_group_symop_operation_xyz
x,y,z
1/2-x,1/2-y,z
1/2+x,-y,-z
-x,1/2+y,-z
-x,-y,-z
1/2+x,1/2+y,-z
1/2-x,y,z
x,1/2-y,z
loop_
_atom_site_type_symbol
_atom_site_label
_atom_site_fract_x
_atom_site_fract_y
_atom_site_fract_z
Si Si1 0.698311 0.025519 0.496856
Si Si2 0.099324 0.524720 0.394891
Si Si3 0.948221 0.033583 0.396338
Si Si4 0.887972 0.024293 0.072494
Si Si5 0.844302 0.033175 0.283381
Si Si6 0.091908 0.959735 0.154308
Si Si7 0.512728 0.472983 0.179943
O O1 0.750000 0.969089 0.537812
O O2 0.697342 0.250000 0.495790
O O3 0.651676 0.971483 0.562773
O O4 0.690990 0.961991 0.373907
O O5 0.096795 0.750000 0.396114
O O6 0.060566 0.461123 0.483697
O O7 0.094438 0.458769 0.273291
O O8 0.958478 0.250000 0.407062
O O9 0.896338 0.018359 0.339280
O O10 0.982988 0.960487 0.304081
O O11 0.887542 0.250000 0.071502
O O12 0.850686 0.962083 0.162991
O O13 0.939984 0.970924 0.117045
O O14 0.882603 0.961165 0.950378
O O15 0.833960 0.250000 0.272512
O O16 0.109077 0.750000 0.165154
O O17 0.035760 0.959494 0.128846
O O18 0.512008 0.250000 0.181354
#
# Coordination Sequence:
#
# PCOD9446320 Si02
#       7
#     8   8   8   8   8   8   8
#     4   8  12  19  34  53  70  91 120 150 176 208
#     4   8  14  23  33  49  73  97 120 145 179 224
#     4   7  11  21  35  48  64  89 120 152 182 208
#     4   8  14  24  36  49  67  93 124 154 182 211
#     4   7  10  18  32  48  65  87 117 149 177 207
#     4  10  18  25  35  52  75 102 125 145 177 222
#     4   9  16  26  39  52  67  93 131 166 183 195
#
# _framework density 21.976436
#
# number of rings (size 3 to 8) (size 9 to 14) (size 15 to 20)
#    0.000    3.857    0.000    3.857    0.000    0.571 
#    0.000    0.000    0.000    0.857    0.000    6.000 
#    0.000    0.571    0.000    1.714    0.000    7.857 
#
# Total GULP energy -312100.638841 kJ/mol
# GULP energy per Si atom -5573.225694 kJ/mol
# Density = 2.192642 g / cm^3
# Si number density = 21.976436 Si / 1000 Ang^3
#
#
#
# Elastic Constant Matrix: (Units=GPa)
#
#
# Indices 1 2 3 4 5 6 
#
# 1 27.5005 -7.7130 0.8887 0.0000 0.0000 0.0000
# 2 -7.7130 96.0015 6.5905 0.0000 0.0000 0.0000
# 3 0.8887 6.5905 164.6675 0.0000 0.0000 0.0000
# 4 0.0000 0.0000 0.0000 -14.5167 0.0000 0.0000
# 5 0.0000 0.0000 0.0000 0.0000 11.1516 0.0000
# 6 0.0000 0.0000 0.0000 0.0000 0.0000 -4.1632
#
#
#
# Elastic Compliance Matrix: (Units=1/GPa)
#
#
# Indices 1 2 3 4 5 6 
#
# 1 0.037218 0.003012 -0.000321 0.000000 0.000000 0.000000
# 2 0.003012 0.010689 -0.000444 0.000000 0.000000 0.000000
# 3 -0.000321 -0.000444 0.006092 0.000000 0.000000 0.000000
# 4 0.000000 0.000000 0.000000 -0.068886 0.000000 0.000000
# 5 0.000000 0.000000 0.000000 0.000000 0.089673 0.000000
# 6 0.000000 0.000000 0.000000 0.000000 0.000000 -0.240202
#
#
# Mechanical properties :
#
#
# Convention : Reuss Voigt Hill
#
# Bulk Modulus (GPa) = 17.09601 31.96687 24.53144
# Shear Modulus (GPa) = -33.24226 17.72123 -7.76051
#
# Velocity S-wave (km/s) = -3.89348 2.84275 -1.88121
# Velocity P-wave (km/s) = 3.52365 5.03513 2.54327
#
# Compressibility (1/GPa) = 0.05849318
#
# Stress axis : x y z
#
# Youngs Moduli (GPa) = 26.86855 93.55408 164.14026
#
# Poissons Ratio (x) = -0.28181 0.05276
# Poissons Ratio (y) = -0.08094 0.07289
# Poissons Ratio (z) = 0.00864 0.04154
#
# Static dielectric constant tensor:
#      x y z
#    x 1.783850 0.000000 0.000000 
#    y 0.000000 1.765010 0.000000 
#    z 0.000000 0.000000 1.862510 
# 
# From -- ./inp_files/18955.got.cif
#   From: 2010.05.17/outbox.cif.g08.bks.cpg/sg59_10_cif.got.tgz:18955.got - 2010.06.03 14:40:33.
