data_PCOD9446924
_publ_section_title
;
Structure prediction by ZEFSAII (Michael W. Deem and Ramdas Pophale) SiO2 
 PCOD9446924
Probable space group: P M M N
;
_chemical_formula_sum "Si O2"
_cell_formula_units_Z 56
_cell_length_a 22.411241
_cell_length_b 7.576857
_cell_length_c 17.297140
_cell_angle_alpha 90.000000
_cell_angle_beta 90.000000
_cell_angle_gamma 90.000000
_cell_volume 2937.171443
_symmetry_space_group_name_H-M "P M M N"
_symmetry_group_IT_number 59
_space_group.IT_coordinate_system_code '2'
_symmetry_cell_setting 'orthorhombic'
loop_
_space_group_symop_operation_xyz
x,y,z
1/2-x,1/2-y,z
1/2+x,-y,-z
-x,1/2+y,-z
-x,-y,-z
1/2+x,1/2+y,-z
1/2-x,y,z
x,1/2-y,z
loop_
_atom_site_type_symbol
_atom_site_label
_atom_site_fract_x
_atom_site_fract_y
_atom_site_fract_z
Si Si1 0.182280 0.534180 0.358283
Si Si2 0.817055 0.033924 0.959762
Si Si3 0.563182 0.046448 0.040329
Si Si4 0.022218 0.042290 0.624834
Si Si5 0.376270 0.535368 0.198501
Si Si6 0.487385 0.463570 0.798382
Si Si7 0.911461 0.036755 0.521178
O O1 0.250000 0.474898 0.355167
O O2 0.182103 0.750000 0.356969
O O3 0.146763 0.476842 0.281973
O O4 0.148253 0.480197 0.435826
O O5 0.750000 0.974424 0.980877
O O6 0.815381 0.250000 0.963127
O O7 0.833302 0.984455 0.871479
O O8 0.874416 0.967978 0.008932
O O9 0.569403 0.250000 0.021485
O O10 0.554264 0.021752 0.131626
O O11 0.500000 0.000000 0.000000
O O12 0.009913 0.250000 0.634157
O O13 0.028627 0.973651 0.711779
O O14 0.965816 0.970566 0.576034
O O15 0.077093 0.020826 0.566316
O O16 0.377157 0.750000 0.199857
O O17 0.444434 0.479076 0.185126
O O18 0.486467 0.250000 0.799565
O O19 0.913652 0.250000 0.520768
#
# Coordination Sequence:
#
# PCOD9446924 Si02
#       7
#     8   8   8   8   8   8   8
#     4   9  15  23  40  68  98 125 154 191 235 281
#     4   9  17  29  47  71  97 126 162 202 240 284
#     4  11  21  33  51  75 102 130 163 203 247 294
#     4   9  17  29  46  66  91 122 154 192 235 277
#     4   9  14  24  43  69  98 125 153 189 235 287
#     4  10  18  31  50  72  99 127 160 201 244 288
#     4   9  16  27  44  67  94 120 152 191 231 277
#
# _framework density 19.065961000000001
#
# number of rings (size 3 to 8) (size 9 to 14) (size 15 to 20)
#    0.000    2.571    2.857    0.857    0.000    2.286 
#    0.000    0.000    0.000    3.000    0.000    6.000 
#    0.000    0.000    0.000    0.000    0.000    0.000 
#
# Total GULP energy -312194.650194 kJ/mol
# GULP energy per Si atom -5574.904468 kJ/mol
# Density = 1.902257 g / cm^3
# Si number density = 19.065961 Si / 1000 Ang^3
#
#
#
# Elastic Constant Matrix: (Units=GPa)
#
#
# Indices 1 2 3 4 5 6 
#
# 1 123.7037 1.7851 63.6149 0.0000 0.0000 0.0000
# 2 1.7851 37.3875 -7.3145 0.0000 0.0000 0.0000
# 3 63.6149 -7.3145 108.6395 0.0000 0.0000 0.0000
# 4 0.0000 0.0000 0.0000 17.6253 0.0000 0.0000
# 5 0.0000 0.0000 0.0000 0.0000 27.4872 0.0000
# 6 0.0000 0.0000 0.0000 0.0000 0.0000 10.4535
#
#
#
# Elastic Compliance Matrix: (Units=1/GPa)
#
#
# Indices 1 2 3 4 5 6 
#
# 1 0.011702 -0.001925 -0.006982 0.000000 0.000000 0.000000
# 2 -0.001925 0.027420 0.002973 0.000000 0.000000 0.000000
# 3 -0.006982 0.002973 0.013493 0.000000 0.000000 0.000000
# 4 0.000000 0.000000 0.000000 0.056737 0.000000 0.000000
# 5 0.000000 0.000000 0.000000 0.000000 0.036381 0.000000
# 6 0.000000 0.000000 0.000000 0.000000 0.000000 0.095662
#
#
# Mechanical properties :
#
#
# Convention : Reuss Voigt Hill
#
# Bulk Modulus (GPa) = 24.54043 42.87797 33.70920
# Shear Modulus (GPa) = 18.73754 25.22290 21.98022
#
# Velocity S-wave (km/s) = 3.13832 3.64115 3.39905
# Velocity P-wave (km/s) = 5.10210 6.34156 5.75529
#
# Compressibility (1/GPa) = 0.04074908
#
# Stress axis : x y z
#
# Youngs Moduli (GPa) = 85.45531 36.46914 74.11139
#
# Poissons Ratio (x) = 0.07019 0.51743
# Poissons Ratio (y) = 0.16447 -0.22035
# Poissons Ratio (z) = 0.59663 -0.10843
#
# Static dielectric constant tensor:
#      x y z
#    x 1.681510 0.000000 0.000000 
#    y 0.000000 1.739390 0.000000 
#    z 0.000000 0.000000 1.662570 
# 
# From -- ./inp_files/26028.got.cif
#   From: 2010.05.17/outbox.cif.g08.bks.cpg/sg59_14_cif.got.tgz:26028.got - 2010.06.03 14:40:33.
