data_PCOD9446027
_publ_section_title
;
Structure prediction by ZEFSAII (Michael W. Deem and Ramdas Pophale) SiO2 
 PCOD9446027
Probable space group: P N N M
;
_chemical_formula_sum "Si O2"
_cell_formula_units_Z 64
_cell_length_a 15.000000
_cell_length_b 9.000000
_cell_length_c 24.000000
_cell_angle_alpha 90.000000
_cell_angle_beta 90.000000
_cell_angle_gamma 90.000000
_cell_volume 3240.000000
_symmetry_space_group_name_H-M "P N N M"
_symmetry_group_IT_number 58
_symmetry_cell_setting 'orthorhombic'
loop_
_space_group_symop_operation_xyz
x,y,z
-x,-y,z
1/2+x,1/2-y,1/2-z
1/2-x,1/2+y,1/2-z
-x,-y,-z
x,y,-z
1/2-x,1/2+y,1/2+z
1/2+x,1/2-y,1/2+z
loop_
_atom_site_type_symbol
_atom_site_label
_atom_site_fract_x
_atom_site_fract_y
_atom_site_fract_z
Si Si1 0.778123 0.376073 0.564259
Si Si2 0.107589 0.296699 0.935484
Si Si3 0.232192 0.036460 0.434228
Si Si4 0.363915 0.346638 0.845800
Si Si5 0.715866 0.167804 0.125877
Si Si6 0.541512 0.267517 0.310832
Si Si7 0.034573 0.336546 0.689690
Si Si8 0.357004 0.432335 0.282558
O O1 0.807056 0.333734 0.500000
O O2 0.671834 0.347551 0.564627
O O3 0.816790 0.286358 0.618199
O O4 0.799269 0.543985 0.578710
O O5 0.180932 0.429267 0.931587
O O6 0.055512 0.288516 0.875328
O O7 0.067624 0.306400 0.000000
O O8 0.207024 0.045695 0.500000
O O9 0.155167 0.972367 0.392665
O O10 0.255795 0.192131 0.406356
O O11 0.461476 0.285276 0.829593
O O12 0.332556 0.400202 0.783163
O O13 0.623658 0.200704 0.156726
O O14 0.778892 0.108395 0.175112
O O15 0.550853 0.160721 0.256791
O O16 0.442634 0.334563 0.301493
O O17 0.611301 0.399367 0.295258
O O18 0.000000 0.500000 0.673703
#
# Coordination Sequence:
#
# PCOD9446027 Si02
#       8
#     8   8   8   8   8   8   8   8
#     4  10  20  37  63  89 124 162 207 261 306 371
#     4   9  19  38  64  91 123 171 217 255 311 382
#     4  10  23  41  64  94 129 170 216 265 317 379
#     4  10  21  42  61  87 127 167 214 256 314 382
#     4  12  23  39  64  94 131 159 215 262 325 370
#     4  10  21  42  62  93 133 167 212 260 321 375
#     4  11  24  40  63  96 131 163 212 275 319 375
#     4  10  23  38  65  97 126 169 208 266 318 384
#
# _framework density 19.753086
#
# number of rings (size 3 to 8) (size 9 to 14) (size 15 to 20)
#    0.000    1.750    2.500    2.250    3.500    4.500 
#    0.000    6.250    0.000    1.875    0.000    0.000 
#    0.000    0.000    0.000    0.000    0.000    0.000 
#
# Total GULP energy -356285.462282 kJ/mol
# GULP energy per Si atom -5566.960348 kJ/mol
# Density = 1.970813 g / cm^3
# Si number density = 19.753086 Si / 1000 Ang^3
#
#
#
# Elastic Constant Matrix: (Units=GPa)
#
#
# Indices 1 2 3 4 5 6 
#
# 1 39.6202 -0.3192 30.6170 0.0000 0.0000 0.0000
# 2 -0.3192 54.5260 17.6784 0.0000 0.0000 0.0000
# 3 30.6170 17.6784 195.0181 0.0000 0.0000 0.0000
# 4 0.0000 0.0000 0.0000 36.1422 0.0000 0.0000
# 5 0.0000 0.0000 0.0000 0.0000 37.3525 0.0000
# 6 0.0000 0.0000 0.0000 0.0000 0.0000 9.5722
#
#
#
# Elastic Compliance Matrix: (Units=1/GPa)
#
#
# Indices 1 2 3 4 5 6 
#
# 1 0.028875 0.001688 -0.004686 0.000000 0.000000 0.000000
# 2 0.001688 0.018994 -0.001987 0.000000 0.000000 0.000000
# 3 -0.004686 -0.001987 0.006044 0.000000 0.000000 0.000000
# 4 0.000000 0.000000 0.000000 0.027669 0.000000 0.000000
# 5 0.000000 0.000000 0.000000 0.000000 0.026772 0.000000
# 6 0.000000 0.000000 0.000000 0.000000 0.000000 0.104470
#
#
# Mechanical properties :
#
#
# Convention : Reuss Voigt Hill
#
# Bulk Modulus (GPa) = 22.75691 42.79074 32.77383
# Shear Modulus (GPa) = 21.05802 32.69258 26.87530
#
# Velocity S-wave (km/s) = 3.26860 4.07266 3.69258
# Velocity P-wave (km/s) = 5.07846 6.62006 5.89983
#
# Compressibility (1/GPa) = 0.04394269
#
# Stress axis : x y z
#
# Youngs Moduli (GPa) = 34.63251 52.64834 165.46532
#
# Poissons Ratio (x) = -0.08889 0.77541
# Poissons Ratio (y) = -0.05847 0.32876
# Poissons Ratio (z) = 0.16230 0.10461
#
# Static dielectric constant tensor:
#      x y z
#    x 1.694780 0.000000 0.000000 
#    y 0.000000 1.789500 0.000000 
#    z 0.000000 0.000000 1.683740 
# 
# From -- ./inp_files/30266.got.cif
#   From: 2010.05.17/outbox.ucp.g08.bks.cvg/sg58_16_cif.got.tgz:30266.got - 2010.06.11 16:41:41.
