data_PCOD9446022
_publ_section_title
;
Structure prediction by ZEFSAII (Michael W. Deem and Ramdas Pophale) SiO2 
 PCOD9446022
Probable space group: P N N M
;
_chemical_formula_sum "Si O2"
_cell_formula_units_Z 40
_cell_length_a 9.000000
_cell_length_b 24.000000
_cell_length_c 9.000000
_cell_angle_alpha 90.000000
_cell_angle_beta 90.000000
_cell_angle_gamma 90.000000
_cell_volume 1944.000000
_symmetry_space_group_name_H-M "P N N M"
_symmetry_group_IT_number 58
_symmetry_cell_setting 'orthorhombic'
loop_
_space_group_symop_operation_xyz
x,y,z
-x,-y,z
1/2+x,1/2-y,1/2-z
1/2-x,1/2+y,1/2-z
-x,-y,-z
x,y,-z
1/2-x,1/2+y,1/2+z
1/2+x,1/2-y,1/2+z
loop_
_atom_site_type_symbol
_atom_site_label
_atom_site_fract_x
_atom_site_fract_y
_atom_site_fract_z
Si Si1 0.177873 0.492108 0.822778
Si Si2 0.187777 0.883695 0.831783
Si Si3 0.020919 0.316446 0.331073
Si Si4 0.540021 0.307842 0.177696
Si Si5 0.293967 0.114962 0.677963
O O1 0.243422 0.440751 0.731246
O O2 0.245089 0.552239 0.775007
O O3 0.000000 0.500000 0.803563
O O4 0.203944 0.483546 0.000000
O O5 0.308552 0.834212 0.840490
O O6 0.069534 0.857250 0.721319
O O7 0.131251 0.892667 0.000000
O O8 0.960042 0.318394 0.500000
O O9 0.004739 0.254226 0.266268
O O10 0.952765 0.365655 0.233711
O O11 0.694370 0.333598 0.232620
O O12 0.546824 0.301744 0.000000
O O13 0.289897 0.113820 0.500000
#
# Coordination Sequence:
#
# PCOD9446022 Si02
#       5
#     8   8   8   8   8
#     4  10  20  37  61  86 111 149 197 238 282 340
#     4  11  23  38  59  87 118 151 188 237 289 338
#     4  10  21  37  58  84 114 149 189 232 283 339
#     4  10  22  39  57  82 116 151 188 232 283 341
#     4  10  21  38  61  85 113 150 193 238 281 335
#
# _framework density 20.576132000000001
#
# number of rings (size 3 to 8) (size 9 to 14) (size 15 to 20)
#    0.000    1.800    2.000    1.800    0.000    6.000 
#    0.000    4.000    0.000    0.000    0.000    0.000 
#    0.000    0.000    0.000    0.000    0.000    0.000 
#
# Total GULP energy -222811.617462 kJ/mol
# GULP energy per Si atom -5570.290437 kJ/mol
# Density = 2.052930 g / cm^3
# Si number density = 20.576132 Si / 1000 Ang^3
#
#
#
# Elastic Constant Matrix: (Units=GPa)
#
#
# Indices 1 2 3 4 5 6 
#
# 1 10.1581 -1.9063 -10.9627 0.0000 0.0000 0.0000
# 2 -1.9063 140.7367 23.7495 0.0000 0.0000 0.0000
# 3 -10.9627 23.7495 -21.6269 0.0000 0.0000 0.0000
# 4 0.0000 0.0000 0.0000 36.8081 0.0000 0.0000
# 5 0.0000 0.0000 0.0000 0.0000 14.0675 0.0000
# 6 0.0000 0.0000 0.0000 0.0000 0.0000 -6.0770
#
#
#
# Elastic Compliance Matrix: (Units=1/GPa)
#
#
# Indices 1 2 3 4 5 6 
#
# 1 0.068731 0.005746 -0.028531 0.000000 0.000000 0.000000
# 2 0.005746 0.006475 0.004198 0.000000 0.000000 0.000000
# 3 -0.028531 0.004198 -0.027167 0.000000 0.000000 0.000000
# 4 0.000000 0.000000 0.000000 0.027168 0.000000 0.000000
# 5 0.000000 0.000000 0.000000 0.000000 0.071086 0.000000
# 6 0.000000 0.000000 0.000000 0.000000 0.000000 -0.164556
#
#
# Mechanical properties :
#
#
# Convention : Reuss Voigt Hill
#
# Bulk Modulus (GPa) = 92.03590 16.78099 54.40844
# Shear Modulus (GPa) = 221.89244 16.85222 119.37233
#
# Velocity S-wave (km/s) = 10.39586 2.86495 7.62502
# Velocity P-wave (km/s) = 13.74500 4.37232 10.19907
#
# Compressibility (1/GPa) = 0.01086533
#
# Stress axis : x y z
#
# Youngs Moduli (GPa) = 14.54945 154.44295 -36.80999
#
# Poissons Ratio (x) = -0.88736 -1.05021
# Poissons Ratio (y) = -0.08359 0.15453
# Poissons Ratio (z) = 0.41510 -0.64834
#
# Static dielectric constant tensor:
#      x y z
#    x 1.812380 0.000000 0.000000 
#    y 0.000000 1.709300 0.000000 
#    z 0.000000 0.000000 1.717950 
# 
# From -- ./inp_files/2413.got.cif
#   From: 2010.05.17/outbox.ucp.g08.bks.cvg/sg58_2_cif.got.tgz:2413.got - 2010.06.11 16:41:41.
