data_PCOD9446077
_publ_section_title
;
Structure prediction by ZEFSAII (Michael W. Deem and Ramdas Pophale) SiO2 
 PCOD9446077
Probable space group: P N N M
;
_chemical_formula_sum "Si O2"
_cell_formula_units_Z 64
_cell_length_a 30.000000
_cell_length_b 12.000000
_cell_length_c 9.000000
_cell_angle_alpha 90.000000
_cell_angle_beta 90.000000
_cell_angle_gamma 90.000000
_cell_volume 3240.000000
_symmetry_space_group_name_H-M "P N N M"
_symmetry_group_IT_number 58
_symmetry_cell_setting 'orthorhombic'
loop_
_space_group_symop_operation_xyz
x,y,z
-x,-y,z
1/2+x,1/2-y,1/2-z
1/2-x,1/2+y,1/2-z
-x,-y,-z
x,y,-z
1/2-x,1/2+y,1/2+z
1/2+x,1/2-y,1/2+z
loop_
_atom_site_type_symbol
_atom_site_label
_atom_site_fract_x
_atom_site_fract_y
_atom_site_fract_z
Si Si1 0.537753 0.588991 0.176229
Si Si2 0.078696 0.724156 0.169972
Si Si3 0.615329 0.194298 0.820626
Si Si4 0.451925 0.971962 0.672729
Si Si5 0.208226 0.922434 0.177544
Si Si6 0.126965 0.050976 0.322420
Si Si7 0.307374 0.968099 0.180195
Si Si8 0.668559 0.783606 0.824383
O O1 0.500000 0.500000 0.214078
O O2 0.537751 0.701859 0.271486
O O3 0.583958 0.524811 0.205359
O O4 0.534146 0.614421 0.000000
O O5 0.071679 0.592118 0.174926
O O6 0.118759 0.750139 0.281343
O O7 0.089481 0.755231 0.000000
O O8 0.574882 0.122500 0.756997
O O9 0.616885 0.322637 0.775069
O O10 0.660057 0.129995 0.770103
O O11 0.613174 0.191080 0.000000
O O12 0.457485 0.938007 0.500000
O O13 0.500000 0.000000 0.738746
O O14 0.256903 0.958095 0.230767
O O15 0.200227 0.797844 0.234726
O O16 0.169789 0.999968 0.243352
O O17 0.206436 0.926218 0.000000
O O18 0.134915 0.051070 0.500000
O O19 0.325522 0.088831 0.221561
O O20 0.307145 0.963863 0.000000
O O21 0.675889 0.772340 0.000000
#
# Coordination Sequence:
#
# PCOD9446077 Si02
#       8
#     8   8   8   8   8   8   8   8
#     4  10  22  39  59  86 120 157 197 245 296 348
#     4  11  22  38  61  88 116 153 199 245 294 352
#     4  10  21  40  62  85 115 155 201 242 285 344
#     4  10  23  41  59  86 123 156 190 240 297 348
#     4  11  23  39  60  88 120 155 196 240 295 356
#     4  10  22  39  59  85 119 157 197 241 292 346
#     4   9  21  39  59  85 118 153 192 244 293 341
#     4  11  21  39  63  86 116 153 196 246 296 344
#
# _framework density 19.753086
#
# number of rings (size 3 to 8) (size 9 to 14) (size 15 to 20)
#    0.000    1.750    2.500    1.125    3.500    1.500 
#    0.000    3.125    0.000    0.000    0.000    0.000 
#    0.000    0.000    0.000    0.000    0.000    0.000 
#
# Total GULP energy -357204.453128 kJ/mol
# GULP energy per Si atom -5581.319580 kJ/mol
# Density = 1.970813 g / cm^3
# Si number density = 19.753086 Si / 1000 Ang^3
#
#
#
# Elastic Constant Matrix: (Units=GPa)
#
#
# Indices 1 2 3 4 5 6 
#
# 1 65.3050 -1.7873 19.9932 0.0000 0.0000 0.0000
# 2 -1.7873 77.2300 21.7392 0.0000 0.0000 0.0000
# 3 19.9932 21.7392 17.4035 0.0000 0.0000 0.0000
# 4 0.0000 0.0000 0.0000 51.5900 0.0000 0.0000
# 5 0.0000 0.0000 0.0000 0.0000 18.1295 0.0000
# 6 0.0000 0.0000 0.0000 0.0000 0.0000 20.6381
#
#
#
# Elastic Compliance Matrix: (Units=1/GPa)
#
#
# Indices 1 2 3 4 5 6 
#
# 1 0.035670 0.019063 -0.064790 0.000000 0.000000 0.000000
# 2 0.019063 0.030158 -0.059570 0.000000 0.000000 0.000000
# 3 -0.064790 -0.059570 0.206301 0.000000 0.000000 0.000000
# 4 0.000000 0.000000 0.000000 0.019384 0.000000 0.000000
# 5 0.000000 0.000000 0.000000 0.000000 0.055159 0.000000
# 6 0.000000 0.000000 0.000000 0.000000 0.000000 0.048454
#
#
# Mechanical properties :
#
#
# Convention : Reuss Voigt Hill
#
# Bulk Modulus (GPa) = 16.25105 26.64764 21.44935
# Shear Modulus (GPa) = 7.98427 26.07109 17.02768
#
# Velocity S-wave (km/s) = 2.01266 3.63691 2.93921
# Velocity P-wave (km/s) = 3.69405 5.58174 4.73296
#
# Compressibility (1/GPa) = 0.06153448
#
# Stress axis : x y z
#
# Youngs Moduli (GPa) = 28.03483 33.15891 4.84728
#
# Poissons Ratio (x) = -0.63211 0.31405
# Poissons Ratio (y) = -0.53443 0.28875
# Poissons Ratio (z) = 1.81637 1.97529
#
# Static dielectric constant tensor:
#      x y z
#    x 1.701590 0.000000 0.000000 
#    y 0.000000 1.695950 0.000000 
#    z 0.000000 0.000000 1.666190 
# 
# From -- ./inp_files/10988.got.cif
#   From: 2010.05.17/outbox.ucp.g08.bks.cvg/sg58_6_cif.got.tgz:10988.got - 2010.06.11 16:41:41.
