data_PCOD9446433
_publ_section_title
;
Structure prediction by ZEFSAII (Michael W. Deem and Ramdas Pophale) SiO2 
 PCOD9446433
Probable space group: P M M N
;
_chemical_formula_sum "Si O2"
_cell_formula_units_Z 64
_cell_length_a 7.482434
_cell_length_b 29.839907
_cell_length_c 16.189510
_cell_angle_alpha 90.000000
_cell_angle_beta 90.000000
_cell_angle_gamma 90.000000
_cell_volume 3614.715026
_symmetry_space_group_name_H-M "P M M N"
_symmetry_group_IT_number 59
_space_group.IT_coordinate_system_code '2'
_symmetry_cell_setting 'orthorhombic'
loop_
_space_group_symop_operation_xyz
x,y,z
1/2-x,1/2-y,z
1/2+x,-y,-z
-x,1/2+y,-z
-x,-y,-z
1/2+x,1/2+y,-z
1/2-x,y,z
x,1/2-y,z
loop_
_atom_site_type_symbol
_atom_site_label
_atom_site_fract_x
_atom_site_fract_y
_atom_site_fract_z
Si Si1 0.038625 0.142430 0.166019
Si Si2 0.531495 0.697718 0.677834
Si Si3 0.032964 0.449081 0.090952
Si Si4 0.035514 0.198339 0.503120
Si Si5 0.961773 0.301156 0.684001
Si Si6 0.969539 0.357050 0.840565
Si Si7 0.960604 0.451686 0.897042
Si Si8 0.034377 0.801314 0.998223
O O1 0.250000 0.136796 0.180204
O O2 0.966290 0.167552 0.246668
O O3 0.967390 0.093219 0.143325
O O4 0.016933 0.173565 0.085641
O O5 0.750000 0.697827 0.679683
O O6 0.478674 0.750000 0.687247
O O7 0.476354 0.680887 0.586453
O O8 0.250000 0.449410 0.092844
O O9 0.967555 0.498279 0.118304
O O10 0.981490 0.442992 0.995099
O O11 0.250000 0.198923 0.500998
O O12 0.971802 0.250000 0.505798
O O13 0.985913 0.178987 0.592084
O O14 0.750000 0.297383 0.697299
O O15 0.034981 0.250000 0.686407
O O16 0.030305 0.331982 0.757885
O O17 0.750000 0.357780 0.840896
O O18 0.032143 0.408255 0.850015
O O19 0.024995 0.328975 0.921425
O O20 0.750000 0.453777 0.878848
O O21 0.250000 0.800328 0.000922
O O22 0.970814 0.750000 0.999452
#
# Coordination Sequence:
#
# PCOD9446433 Si02
#       8
#     8   8   8   8   8   8   8   8
#     4  10  18  28  42  61  84 108 136 169 205 241
#     4   8  14  25  41  58  78 107 136 159 193 244
#     4   9  17  27  41  62  82 101 133 177 209 233
#     4   8  14  26  42  58  76 100 131 164 198 238
#     4   9  16  26  41  60  80 102 131 167 203 237
#     4   9  16  27  42  58  78 109 140 163 195 243
#     4   9  16  28  44  58  77 107 139 168 203 243
#     4  10  19  29  40  56  81 113 145 168 189 230
#
# _framework density 17.705407999999998
#
# number of rings (size 3 to 8) (size 9 to 14) (size 15 to 20)
#    0.000    3.000    1.250    1.500    0.000    2.250 
#    0.000    1.875    0.000    3.750    0.000    0.875 
#    0.000    0.000    0.000    0.000    0.000    0.000 
#
# Total GULP energy -356640.150979 kJ/mol
# GULP energy per Si atom -5572.502359 kJ/mol
# Density = 1.766511 g / cm^3
# Si number density = 17.705408 Si / 1000 Ang^3
#
#
#
# Elastic Constant Matrix: (Units=GPa)
#
#
# Indices 1 2 3 4 5 6 
#
# 1 45.6116 1.4698 -5.6916 0.0000 0.0000 0.0000
# 2 1.4698 136.9725 82.6661 0.0000 0.0000 0.0000
# 3 -5.6916 82.6661 154.1819 0.0000 0.0000 0.0000
# 4 0.0000 0.0000 0.0000 9.1655 0.0000 0.0000
# 5 0.0000 0.0000 0.0000 0.0000 18.0064 0.0000
# 6 0.0000 0.0000 0.0000 0.0000 0.0000 3.2882
#
#
#
# Elastic Compliance Matrix: (Units=1/GPa)
#
#
# Indices 1 2 3 4 5 6 
#
# 1 0.022133 -0.001080 0.001396 0.000000 0.000000 0.000000
# 2 -0.001080 0.010846 -0.005855 0.000000 0.000000 0.000000
# 3 0.001396 -0.005855 0.009677 0.000000 0.000000 0.000000
# 4 0.000000 0.000000 0.000000 0.109105 0.000000 0.000000
# 5 0.000000 0.000000 0.000000 0.000000 0.055536 0.000000
# 6 0.000000 0.000000 0.000000 0.000000 0.000000 0.304119
#
#
# Mechanical properties :
#
#
# Convention : Reuss Voigt Hill
#
# Bulk Modulus (GPa) = 31.66773 54.85050 43.25911
# Shear Modulus (GPa) = 9.38052 23.31347 16.34700
#
# Velocity S-wave (km/s) = 2.30426 3.63263 3.04184
# Velocity P-wave (km/s) = 5.00042 6.97434 6.06818
#
# Compressibility (1/GPa) = 0.03157789
#
# Stress axis : x y z
#
# Youngs Moduli (GPa) = 45.18081 92.20003 103.34181
#
# Poissons Ratio (x) = 0.09959 -0.14428
# Poissons Ratio (y) = 0.04880 0.60507
# Poissons Ratio (z) = -0.06308 0.53984
#
# Static dielectric constant tensor:
#      x y z
#    x 1.679750 0.000000 0.000000 
#    y 0.000000 1.611900 0.000000 
#    z 0.000000 0.000000 1.601580 
# 
# From -- ./inp_files/19001.got.cif
#   From: 2010.05.17/outbox.cif.g08.bks.cpg/sg59_10_cif.got.tgz:19001.got - 2010.06.03 14:40:33.
