data_PCOD9446055
_publ_section_title
;
Structure prediction by ZEFSAII (Michael W. Deem and Ramdas Pophale) SiO2 
 PCOD9446055
Probable space group: P N N M
;
_chemical_formula_sum "Si O2"
_cell_formula_units_Z 64
_cell_length_a 24.000000
_cell_length_b 9.000000
_cell_length_c 15.000000
_cell_angle_alpha 90.000000
_cell_angle_beta 90.000000
_cell_angle_gamma 90.000000
_cell_volume 3240.000000
_symmetry_space_group_name_H-M "P N N M"
_symmetry_group_IT_number 58
_symmetry_cell_setting 'orthorhombic'
loop_
_space_group_symop_operation_xyz
x,y,z
-x,-y,z
1/2+x,1/2-y,1/2-z
1/2-x,1/2+y,1/2-z
-x,-y,-z
x,y,-z
1/2-x,1/2+y,1/2+z
1/2+x,1/2-y,1/2+z
loop_
_atom_site_type_symbol
_atom_site_label
_atom_site_fract_x
_atom_site_fract_y
_atom_site_fract_z
Si Si1 0.588359 0.263324 0.394361
Si Si2 0.207564 0.714934 0.398577
Si Si3 0.829273 0.630548 0.603848
Si Si4 0.720167 0.763707 0.691467
Si Si5 0.190359 0.428996 0.102531
Si Si6 0.116943 0.890748 0.105662
Si Si7 0.513064 0.675104 0.726967
Si Si8 0.964710 0.653998 0.604228
O O1 0.579034 0.247404 0.500000
O O2 0.631545 0.136175 0.366012
O O3 0.612471 0.430635 0.381288
O O4 0.531614 0.253899 0.340365
O O5 0.184606 0.762692 0.500000
O O6 0.192076 0.540748 0.396023
O O7 0.197702 0.760636 0.293474
O O8 0.269573 0.784527 0.402686
O O9 0.823211 0.683785 0.500000
O O10 0.784470 0.715989 0.668072
O O11 0.896868 0.639843 0.624397
O O12 0.678237 0.669043 0.629225
O O13 0.712889 0.937074 0.663258
O O14 0.185429 0.484763 0.000000
O O15 0.072844 0.817251 0.175831
O O16 0.103912 0.862197 0.000000
O O17 0.500000 0.500000 0.733100
O O18 0.497557 0.744745 0.823380
O O19 0.967733 0.705018 0.500000
O O20 0.000000 0.500000 0.607640
#
# Coordination Sequence:
#
# PCOD9446055 Si02
#       8
#     8   8   8   8   8   8   8   8
#     4   9  19  37  62  88 126 168 205 250 311 384
#     4  10  23  40  58  85 123 168 214 253 310 383
#     4  10  22  43  67  92 124 170 218 264 322 393
#     4  12  23  37  64  95 129 164 205 264 320 381
#     4  10  21  37  58  91 127 161 203 260 316 371
#     4  10  21  39  63  94 128 168 211 255 316 393
#     4  10  22  39  64  92 125 161 214 264 320 372
#     4  10  24  45  69  93 125 171 224 273 324 384
#
# _framework density 19.753086
#
# number of rings (size 3 to 8) (size 9 to 14) (size 15 to 20)
#    0.000    1.875    0.000    3.000    5.250    3.750 
#    2.250    0.000    0.000    3.000    0.000    0.000 
#    0.000    0.000    0.000    0.000    0.000    0.000 
#
# Total GULP energy -356427.272281 kJ/mol
# GULP energy per Si atom -5569.176129 kJ/mol
# Density = 1.970813 g / cm^3
# Si number density = 19.753086 Si / 1000 Ang^3
#
#
#
# Elastic Constant Matrix: (Units=GPa)
#
#
# Indices 1 2 3 4 5 6 
#
# 1 105.5793 24.1647 38.0884 0.0000 0.0000 0.0000
# 2 24.1647 25.1556 17.7596 0.0000 0.0000 0.0000
# 3 38.0884 17.7596 118.3682 0.0000 0.0000 0.0000
# 4 0.0000 0.0000 0.0000 34.9177 0.0000 0.0000
# 5 0.0000 0.0000 0.0000 0.0000 30.3761 0.0000
# 6 0.0000 0.0000 0.0000 0.0000 0.0000 30.2079
#
#
#
# Elastic Compliance Matrix: (Units=1/GPa)
#
#
# Indices 1 2 3 4 5 6 
#
# 1 0.012790 -0.010492 -0.002541 0.000000 0.000000 0.000000
# 2 -0.010492 0.053069 -0.004586 0.000000 0.000000 0.000000
# 3 -0.002541 -0.004586 0.009954 0.000000 0.000000 0.000000
# 4 0.000000 0.000000 0.000000 0.028639 0.000000 0.000000
# 5 0.000000 0.000000 0.000000 0.000000 0.032921 0.000000
# 6 0.000000 0.000000 0.000000 0.000000 0.000000 0.033104
#
#
# Mechanical properties :
#
#
# Convention : Reuss Voigt Hill
#
# Bulk Modulus (GPa) = 24.64628 45.45869 35.05249
# Shear Modulus (GPa) = 22.80612 30.37303 26.58957
#
# Velocity S-wave (km/s) = 3.40157 3.92552 3.67290
# Velocity P-wave (km/s) = 5.28506 6.60377 5.98087
#
# Compressibility (1/GPa) = 0.04057407
#
# Stress axis : x y z
#
# Youngs Moduli (GPa) = 78.18808 18.84339 100.46155
#
# Poissons Ratio (x) = 0.19770 0.25530
# Poissons Ratio (y) = 0.82033 0.46074
# Poissons Ratio (z) = 0.19870 0.08642
#
# Static dielectric constant tensor:
#      x y z
#    x 1.690180 0.000000 0.000000 
#    y 0.000000 1.686970 0.000000 
#    z 0.000000 0.000000 1.755240 
# 
# From -- ./inp_files/23569.got.cif
#   From: 2010.05.17/outbox.ucp.g08.bks.cvg/sg58_12_cif.got.tgz:23569.got - 2010.06.11 16:41:41.
