data_PCOD9446984
_publ_section_title
;
Structure prediction by ZEFSAII (Michael W. Deem and Ramdas Pophale) SiO2 
 PCOD9446984
Probable space group: P M M N
;
_chemical_formula_sum "Si O2"
_cell_formula_units_Z 64
_cell_length_a 30.128717
_cell_length_b 7.700545
_cell_length_c 12.914922
_cell_angle_alpha 90.000000
_cell_angle_beta 90.000000
_cell_angle_gamma 90.000000
_cell_volume 2996.359296
_symmetry_space_group_name_H-M "P M M N"
_symmetry_group_IT_number 59
_space_group.IT_coordinate_system_code '2'
_symmetry_cell_setting 'orthorhombic'
loop_
_space_group_symop_operation_xyz
x,y,z
1/2-x,1/2-y,z
1/2+x,-y,-z
-x,1/2+y,-z
-x,-y,-z
1/2+x,1/2+y,-z
1/2-x,y,z
x,1/2-y,z
loop_
_atom_site_type_symbol
_atom_site_label
_atom_site_fract_x
_atom_site_fract_y
_atom_site_fract_z
Si Si1 0.666415 0.039386 0.148830
Si Si2 0.429510 0.051446 0.932521
Si Si3 0.392404 0.545568 0.148473
Si Si4 0.961244 0.536344 0.278084
Si Si5 0.202027 0.538776 0.071999
Si Si6 0.108398 0.454578 0.557298
Si Si7 0.701117 0.042996 0.370883
Si Si8 0.943384 0.040527 0.651147
O O1 0.660820 0.250000 0.151886
O O2 0.686596 0.978206 0.256964
O O3 0.618838 0.958758 0.122243
O O4 0.696926 0.000196 0.049959
O O5 0.442318 0.250000 0.951196
O O6 0.460628 0.977406 0.841703
O O7 0.422070 0.969182 0.044664
O O8 0.386310 0.750000 0.167138
O O9 0.343202 0.473077 0.124997
O O10 0.416298 0.473113 0.249372
O O11 0.960050 0.750000 0.274694
O O12 0.918906 0.473145 0.344009
O O13 0.005782 0.482498 0.337180
O O14 0.250000 0.477635 0.110633
O O15 0.201590 0.750000 0.080306
O O16 0.109599 0.250000 0.571676
O O17 0.159359 0.512323 0.554945
O O18 0.080844 0.492948 0.454422
O O19 0.750000 0.976079 0.400470
O O20 0.704744 0.250000 0.360937
O O21 0.944514 0.250000 0.656181
#
# Coordination Sequence:
#
# PCOD9446984 Si02
#       8
#     8   8   8   8   8   8   8   8
#     4   9  16  28  48  76 107 138 171 214 262 314
#     4  10  18  31  52  78 111 145 172 212 273 333
#     4   9  19  34  52  76 105 139 181 227 273 322
#     4   9  19  35  56  81 109 142 178 226 285 336
#     4   8  13  24  45  72  99 128 165 209 258 308
#     4  11  22  38  57  80 111 143 183 230 279 331
#     4  10  20  34  55  83 112 144 182 221 267 325
#     4  10  21  39  58  76 104 144 190 236 279 326
#
# _framework density 21.359254
#
# number of rings (size 3 to 8) (size 9 to 14) (size 15 to 20)
#    0.000    2.500    1.250    2.250    0.000    2.750 
#    0.000    2.500    0.000   11.250    0.000    0.000 
#    0.000    0.000    0.000    0.000    0.000    0.000 
#
# Total GULP energy -357069.625340 kJ/mol
# GULP energy per Si atom -5579.212896 kJ/mol
# Density = 2.131064 g / cm^3
# Si number density = 21.359254 Si / 1000 Ang^3
#
#
#
# Elastic Constant Matrix: (Units=GPa)
#
#
# Indices 1 2 3 4 5 6 
#
# 1 72.1627 0.1756 13.3827 0.0000 0.0000 0.0000
# 2 0.1756 31.4622 -6.4292 0.0000 0.0000 0.0000
# 3 13.3827 -6.4292 60.8985 0.0000 0.0000 0.0000
# 4 0.0000 0.0000 0.0000 12.6923 0.0000 0.0000
# 5 0.0000 0.0000 0.0000 0.0000 25.1436 0.0000
# 6 0.0000 0.0000 0.0000 0.0000 0.0000 2.0935
#
#
#
# Elastic Compliance Matrix: (Units=1/GPa)
#
#
# Indices 1 2 3 4 5 6 
#
# 1 0.014463 -0.000746 -0.003257 0.000000 0.000000 0.000000
# 2 -0.000746 0.032523 0.003598 0.000000 0.000000 0.000000
# 3 -0.003257 0.003598 0.017516 0.000000 0.000000 0.000000
# 4 0.000000 0.000000 0.000000 0.078788 0.000000 0.000000
# 5 0.000000 0.000000 0.000000 0.000000 0.039772 0.000000
# 6 0.000000 0.000000 0.000000 0.000000 0.000000 0.477658
#
#
# Mechanical properties :
#
#
# Convention : Reuss Voigt Hill
#
# Bulk Modulus (GPa) = 15.70071 19.86464 17.78267
# Shear Modulus (GPa) = 7.32318 18.47882 12.90100
#
# Velocity S-wave (km/s) = 1.85365 2.94452 2.46031
# Velocity P-wave (km/s) = 3.45660 4.56954 4.05147
#
# Compressibility (1/GPa) = 0.06369138
#
# Stress axis : x y z
#
# Youngs Moduli (GPa) = 69.13978 30.74702 57.08948
#
# Poissons Ratio (x) = 0.02295 0.18595
# Poissons Ratio (y) = 0.05160 -0.20538
# Poissons Ratio (z) = 0.22520 -0.11062
#
# Static dielectric constant tensor:
#      x y z
#    x 1.865890 0.000000 0.000000 
#    y 0.000000 1.790150 0.000000 
#    z 0.000000 0.000000 1.754070 
# 
# From -- ./inp_files/19210.got.cif
#   From: 2010.05.17/outbox.cif.g08.bks.cpg/sg59_10_cif.got.tgz:19210.got - 2010.06.03 14:40:33.
