data_PCOD9446710
_publ_section_title
;
Structure prediction by ZEFSAII (Michael W. Deem and Ramdas Pophale) SiO2 
 PCOD9446710
Probable space group: P M M N
;
_chemical_formula_sum "Si O2"
_cell_formula_units_Z 56
_cell_length_a 7.829368
_cell_length_b 20.362922
_cell_length_c 16.104184
_cell_angle_alpha 90.000000
_cell_angle_beta 90.000000
_cell_angle_gamma 90.000000
_cell_volume 2567.470889
_symmetry_space_group_name_H-M "P M M N"
_symmetry_group_IT_number 59
_space_group.IT_coordinate_system_code '2'
_symmetry_cell_setting 'orthorhombic'
loop_
_space_group_symop_operation_xyz
x,y,z
1/2-x,1/2-y,z
1/2+x,-y,-z
-x,1/2+y,-z
-x,-y,-z
1/2+x,1/2+y,-z
1/2-x,y,z
x,1/2-y,z
loop_
_atom_site_type_symbol
_atom_site_label
_atom_site_fract_x
_atom_site_fract_y
_atom_site_fract_z
Si Si1 0.541117 0.822486 0.322114
Si Si2 0.946673 0.540221 0.262324
Si Si3 0.542054 0.674596 0.818143
Si Si4 0.946217 0.039399 0.918031
Si Si5 0.957807 0.676088 0.514108
Si Si6 0.951363 0.909079 0.664397
Si Si7 0.542717 0.674811 0.007942
O O1 0.750000 0.820756 0.318242
O O2 0.483170 0.750000 0.294414
O O3 0.481787 0.886258 0.272506
O O4 0.489923 0.831933 0.418473
O O5 0.750000 0.542413 0.287281
O O6 0.958808 0.520482 0.166147
O O7 0.029365 0.486043 0.321019
O O8 0.750000 0.670592 0.820354
O O9 0.498430 0.750000 0.798611
O O10 0.476889 0.627263 0.746189
O O11 0.487624 0.660988 0.912634
O O12 0.750000 0.024299 0.902036
O O13 0.973652 0.116472 0.935985
O O14 0.000000 0.000000 0.000000
O O15 0.750000 0.673931 0.511866
O O16 0.005008 0.750000 0.541629
O O17 0.020722 0.622307 0.579618
O O18 0.750000 0.894064 0.663639
O O19 0.750000 0.672105 0.011324
O O20 0.493716 0.750000 0.028641
#
# Coordination Sequence:
#
# PCOD9446710 Si02
#       7
#     8   8   8   8   8   8   8
#     4   8  16  33  55  78 106 142 186 232 271 312
#     4  11  23  37  54  78 107 142 183 227 279 335
#     4   8  14  26  47  75 104 135 172 212 253 303
#     4  12  25  41  60  81 109 144 185 234 286 340
#     4   8  14  27  51  82 111 142 184 228 265 308
#     4  10  18  29  50  80 112 143 178 222 269 319
#     4   9  18  34  56  81 110 145 184 224 270 330
#
# _framework density 21.811347000000001
#
# number of rings (size 3 to 8) (size 9 to 14) (size 15 to 20)
#    0.000    2.571    0.000    4.714    0.000    4.286 
#    0.000    1.429    0.000    4.714    0.000    4.000 
#    0.000    0.000    0.000    0.000    0.000    0.000 
#
# Total GULP energy -312599.096565 kJ/mol
# GULP energy per Si atom -5582.126724 kJ/mol
# Density = 2.176170 g / cm^3
# Si number density = 21.811347 Si / 1000 Ang^3
#
#
#
# Elastic Constant Matrix: (Units=GPa)
#
#
# Indices 1 2 3 4 5 6 
#
# 1 18.4110 -9.5833 -6.0133 0.0000 0.0000 0.0000
# 2 -9.5833 85.6408 41.0587 0.0000 0.0000 0.0000
# 3 -6.0133 41.0587 54.1285 0.0000 0.0000 0.0000
# 4 0.0000 0.0000 0.0000 38.3547 0.0000 0.0000
# 5 0.0000 0.0000 0.0000 0.0000 4.8035 0.0000
# 6 0.0000 0.0000 0.0000 0.0000 0.0000 20.3596
#
#
#
# Elastic Compliance Matrix: (Units=1/GPa)
#
#
# Indices 1 2 3 4 5 6 
#
# 1 0.057870 0.005333 0.002384 0.000000 0.000000 0.000000
# 2 0.005333 0.018841 -0.013700 0.000000 0.000000 0.000000
# 3 0.002384 -0.013700 0.029131 0.000000 0.000000 0.000000
# 4 0.000000 0.000000 0.000000 0.026072 0.000000 0.000000
# 5 0.000000 0.000000 0.000000 0.000000 0.208183 0.000000
# 6 0.000000 0.000000 0.000000 0.000000 0.000000 0.049117
#
#
# Mechanical properties :
#
#
# Convention : Reuss Voigt Hill
#
# Bulk Modulus (GPa) = 10.65233 23.23385 16.94309
# Shear Modulus (GPa) = 11.56143 21.55143 16.55643
#
# Velocity S-wave (km/s) = 2.30481 3.14679 2.75812
# Velocity P-wave (km/s) = 3.46083 4.88655 4.23413
#
# Compressibility (1/GPa) = 0.09387617
#
# Stress axis : x y z
#
# Youngs Moduli (GPa) = 17.28021 53.07459 34.32765
#
# Poissons Ratio (x) = -0.28304 -0.08183
# Poissons Ratio (y) = -0.09215 0.47027
# Poissons Ratio (z) = -0.04119 0.72710
#
# Static dielectric constant tensor:
#      x y z
#    x 1.840060 0.000000 0.000000 
#    y 0.000000 1.804810 0.000000 
#    z 0.000000 0.000000 1.741430 
# 
# From -- ./inp_files/20979.got.cif
#   From: 2010.05.17/outbox.cif.g08.bks.cpg/sg59_11_cif.got.tgz:20979.got - 2010.06.03 14:40:33.
