data_PCOD9446865
_publ_section_title
;
Structure prediction by ZEFSAII (Michael W. Deem and Ramdas Pophale) SiO2 
 PCOD9446865
Probable space group: P M M N
;
_chemical_formula_sum "Si O2"
_cell_formula_units_Z 56
_cell_length_a 18.868183
_cell_length_b 7.878887
_cell_length_c 19.698132
_cell_angle_alpha 90.000000
_cell_angle_beta 90.000000
_cell_angle_gamma 90.000000
_cell_volume 2928.329853
_symmetry_space_group_name_H-M "P M M N"
_symmetry_group_IT_number 59
_space_group.IT_coordinate_system_code '2'
_symmetry_cell_setting 'orthorhombic'
loop_
_space_group_symop_operation_xyz
x,y,z
1/2-x,1/2-y,z
1/2+x,-y,-z
-x,1/2+y,-z
-x,-y,-z
1/2+x,1/2+y,-z
1/2-x,y,z
x,1/2-y,z
loop_
_atom_site_type_symbol
_atom_site_label
_atom_site_fract_x
_atom_site_fract_y
_atom_site_fract_z
Si Si1 0.412718 0.548448 0.070129
Si Si2 0.539248 0.543241 0.713108
Si Si3 0.172531 0.549730 0.634806
Si Si4 0.026365 0.545970 0.574213
Si Si5 0.424150 0.044736 0.919959
Si Si6 0.610424 0.550622 0.224886
Si Si7 0.328987 0.451368 0.201230
O O1 0.413911 0.750000 0.079266
O O2 0.493617 0.484038 0.081303
O O3 0.360298 0.475106 0.125991
O O4 0.393490 0.508294 0.992431
O O5 0.536634 0.750000 0.717022
O O6 0.526022 0.492160 0.635122
O O7 0.471926 0.475048 0.754749
O O8 0.611882 0.481686 0.746607
O O9 0.250000 0.475433 0.620118
O O10 0.175429 0.750000 0.619519
O O11 0.104763 0.478924 0.594094
O O12 0.154780 0.532675 0.714746
O O13 0.029798 0.750000 0.577902
O O14 0.000000 0.500000 0.500000
O O15 0.425817 0.250000 0.917725
O O16 0.383938 0.985820 0.852240
O O17 0.627307 0.750000 0.225925
O O18 0.250000 0.523611 0.207574
O O19 0.324544 0.250000 0.213796
#
# Coordination Sequence:
#
# PCOD9446865 Si02
#       7
#     8   8   8   8   8   8   8
#     4  10  19  31  48  71  98 130 171 215 259 306
#     4   9  18  33  52  73 100 134 173 208 248 304
#     4   9  19  36  55  76 105 139 172 206 251 308
#     4   9  18  33  54  80 105 133 167 205 246 292
#     4   9  18  31  47  71 100 130 166 211 260 307
#     4  10  18  30  51  78 104 128 165 214 259 301
#     4  10  20  34  52  72  98 135 175 217 264 308
#
# _framework density 19.123529000000001
#
# number of rings (size 3 to 8) (size 9 to 14) (size 15 to 20)
#    0.000    2.571    1.429    1.714    0.000    4.571 
#    0.000    1.429    0.000    1.714    0.000    0.000 
#    0.000    0.000    0.000    0.000    0.000    0.000 
#
# Total GULP energy -312241.492609 kJ/mol
# GULP energy per Si atom -5575.740939 kJ/mol
# Density = 1.908000 g / cm^3
# Si number density = 19.123529 Si / 1000 Ang^3
#
#
#
# Elastic Constant Matrix: (Units=GPa)
#
#
# Indices 1 2 3 4 5 6 
#
# 1 117.3282 0.1395 60.5331 0.0000 0.0000 0.0000
# 2 0.1395 16.4448 -7.4916 0.0000 0.0000 0.0000
# 3 60.5331 -7.4916 137.5440 0.0000 0.0000 0.0000
# 4 0.0000 0.0000 0.0000 25.1847 0.0000 0.0000
# 5 0.0000 0.0000 0.0000 0.0000 12.3700 0.0000
# 6 0.0000 0.0000 0.0000 0.0000 0.0000 11.2578
#
#
#
# Elastic Compliance Matrix: (Units=1/GPa)
#
#
# Indices 1 2 3 4 5 6 
#
# 1 0.011117 -0.002382 -0.005022 0.000000 0.000000 0.000000
# 2 -0.002382 0.062867 0.004473 0.000000 0.000000 0.000000
# 3 -0.005022 0.004473 0.009724 0.000000 0.000000 0.000000
# 4 0.000000 0.000000 0.000000 0.039707 0.000000 0.000000
# 5 0.000000 0.000000 0.000000 0.000000 0.080841 0.000000
# 6 0.000000 0.000000 0.000000 0.000000 0.000000 0.088827
#
#
# Mechanical properties :
#
#
# Convention : Reuss Voigt Hill
#
# Bulk Modulus (GPa) = 12.84611 41.96435 27.40523
# Shear Modulus (GPa) = 15.38954 24.30489 19.84722
#
# Velocity S-wave (km/s) = 2.83988 3.56889 3.22505
# Velocity P-wave (km/s) = 4.18153 6.24293 5.31316
#
# Compressibility (1/GPa) = 0.07784457
#
# Stress axis : x y z
#
# Youngs Moduli (GPa) = 89.95113 15.90653 102.83434
#
# Poissons Ratio (x) = 0.03789 0.51648
# Poissons Ratio (y) = 0.21429 -0.45994
# Poissons Ratio (z) = 0.45177 -0.07114
#
# Static dielectric constant tensor:
#      x y z
#    x 1.681570 0.000000 0.000000 
#    y 0.000000 1.685660 0.000000 
#    z 0.000000 0.000000 1.664000 
# 
# From -- ./inp_files/30560.got.cif
#   From: 2010.05.17/outbox.cif.g08.bks.cpg/sg59_16_cif.got.tgz:30560.got - 2010.06.03 14:40:33.
