data_PCOD9446495
_publ_section_title
;
Structure prediction by ZEFSAII (Michael W. Deem and Ramdas Pophale) SiO2 
 PCOD9446495
Probable space group: P M M N
;
_chemical_formula_sum "Si O2"
_cell_formula_units_Z 48
_cell_length_a 19.737149
_cell_length_b 8.567538
_cell_length_c 16.527673
_cell_angle_alpha 90.000000
_cell_angle_beta 90.000000
_cell_angle_gamma 90.000000
_cell_volume 2794.809243
_symmetry_space_group_name_H-M "P M M N"
_symmetry_group_IT_number 59
_space_group.IT_coordinate_system_code '2'
_symmetry_cell_setting 'orthorhombic'
loop_
_space_group_symop_operation_xyz
x,y,z
1/2-x,1/2-y,z
1/2+x,-y,-z
-x,1/2+y,-z
-x,-y,-z
1/2+x,1/2+y,-z
1/2-x,y,z
x,1/2-y,z
loop_
_atom_site_type_symbol
_atom_site_label
_atom_site_fract_x
_atom_site_fract_y
_atom_site_fract_z
Si Si1 0.517489 0.063484 0.625086
Si Si2 0.750000 0.937110 0.421081
Si Si3 0.927984 0.937899 0.968099
Si Si4 0.118123 0.060632 0.864031
Si Si5 0.605975 0.063204 0.470443
Si Si6 0.025946 0.436973 0.199417
Si Si7 0.750000 0.559714 0.234413
O O1 0.512498 0.250000 0.624161
O O2 0.569533 0.014240 0.554317
O O3 0.444049 0.995939 0.600445
O O4 0.539959 0.007779 0.713120
O O5 0.750000 0.750000 0.422224
O O6 0.750000 0.990770 0.327345
O O7 0.681023 0.997091 0.461251
O O8 0.929887 0.750000 0.966744
O O9 0.924484 0.988312 0.874470
O O10 0.877262 0.982566 0.040512
O O11 0.000000 0.000000 0.000000
O O12 0.113079 0.250000 0.859074
O O13 0.182824 0.009538 0.812950
O O14 0.049348 0.990351 0.827445
O O15 0.608198 0.250000 0.468109
O O16 0.027635 0.250000 0.205227
O O17 0.750000 0.750000 0.234159
#
# Coordination Sequence:
#
# PCOD9446495 Si02
#       7
#     8   4   8   8   8   8   4
#     4  10  20  34  52  74  98 128 166 207 254 302
#     4  11  21  33  51  76 105 134 164 197 241 303
#     4   8  15  26  42  64  89 118 150 187 228 270
#     4   9  16  29  46  65  93 126 158 191 231 281
#     4  10  21  36  53  73  99 130 165 207 252 298
#     4  10  18  28  45  70  96 121 155 199 243 287
#     4   9  18  29  45  68  91 120 154 185 221 275
#
# _framework density 17.174696000000001
#
# number of rings (size 3 to 8) (size 9 to 14) (size 15 to 20)
#    0.000    2.500    0.000    2.750    0.000    4.000 
#    0.000    1.250    0.000    1.000    0.000    2.333 
#    0.000    0.000    0.000    0.000    0.000    0.000 
#
# Total GULP energy -267494.818177 kJ/mol
# GULP energy per Si atom -5572.808712 kJ/mol
# Density = 1.713561 g / cm^3
# Si number density = 17.174696 Si / 1000 Ang^3
#
#
#
# Elastic Constant Matrix: (Units=GPa)
#
#
# Indices 1 2 3 4 5 6 
#
# 1 79.4370 18.4617 35.6975 0.0000 0.0000 0.0000
# 2 18.4617 25.4356 21.7309 0.0000 0.0000 0.0000
# 3 35.6975 21.7309 121.3739 0.0000 0.0000 0.0000
# 4 0.0000 0.0000 0.0000 24.5007 0.0000 0.0000
# 5 0.0000 0.0000 0.0000 0.0000 17.4090 0.0000
# 6 0.0000 0.0000 0.0000 0.0000 0.0000 21.2172
#
#
#
# Elastic Compliance Matrix: (Units=1/GPa)
#
#
# Indices 1 2 3 4 5 6 
#
# 1 0.016083 -0.009011 -0.003117 0.000000 0.000000 0.000000
# 2 -0.009011 0.051463 -0.006564 0.000000 0.000000 0.000000
# 3 -0.003117 -0.006564 0.010331 0.000000 0.000000 0.000000
# 4 0.000000 0.000000 0.000000 0.040815 0.000000 0.000000
# 5 0.000000 0.000000 0.000000 0.000000 0.057441 0.000000
# 6 0.000000 0.000000 0.000000 0.000000 0.000000 0.047132
#
#
# Mechanical properties :
#
#
# Convention : Reuss Voigt Hill
#
# Bulk Modulus (GPa) = 24.69485 42.00295 33.34890
# Shear Modulus (GPa) = 18.23840 22.64914 20.44377
#
# Velocity S-wave (km/s) = 3.26227 3.63540 3.45388
# Velocity P-wave (km/s) = 5.34787 6.49083 5.94687
#
# Compressibility (1/GPa) = 0.04049427
#
# Stress axis : x y z
#
# Youngs Moduli (GPa) = 62.17562 19.43146 96.79645
#
# Poissons Ratio (x) = 0.17509 0.30172
# Poissons Ratio (y) = 0.56024 0.63535
# Poissons Ratio (z) = 0.19380 0.12754
#
# Static dielectric constant tensor:
#      x y z
#    x 1.549750 0.000000 0.000000 
#    y 0.000000 1.578870 0.000000 
#    z 0.000000 0.000000 1.624940 
# 
# From -- ./inp_files/23688.got.cif
#   From: 2010.05.17/outbox.cif.g08.bks.cpg/sg59_12_cif.got.tgz:23688.got - 2010.06.03 14:40:33.
