data_PCOD9446278
_publ_section_title
;
Structure prediction by ZEFSAII (Michael W. Deem and Ramdas Pophale) SiO2 
 PCOD9446278
Probable space group: P M M N
;
_chemical_formula_sum "Si O2"
_cell_formula_units_Z 32
_cell_length_a 24.870757
_cell_length_b 5.716224
_cell_length_c 9.834198
_cell_angle_alpha 90.000000
_cell_angle_beta 90.000000
_cell_angle_gamma 90.000000
_cell_volume 1398.096638
_symmetry_space_group_name_H-M "P M M N"
_symmetry_group_IT_number 59
_space_group.IT_coordinate_system_code '2'
_symmetry_cell_setting 'orthorhombic'
loop_
_space_group_symop_operation_xyz
x,y,z
1/2-x,1/2-y,z
1/2+x,-y,-z
-x,1/2+y,-z
-x,-y,-z
1/2+x,1/2+y,-z
1/2-x,y,z
x,1/2-y,z
loop_
_atom_site_type_symbol
_atom_site_label
_atom_site_fract_x
_atom_site_fract_y
_atom_site_fract_z
Si Si1 0.750000 0.250000 0.027002
Si Si2 0.555294 0.999223 0.859095
Si Si3 0.857772 0.750000 0.704718
Si Si4 0.962486 0.000250 0.364866
Si Si5 0.188382 0.750000 0.713786
Si Si6 0.316182 0.250000 0.599942
Si Si7 0.750000 0.750000 0.876880
O O1 0.697778 0.250000 0.124482
O O2 0.750000 0.500711 0.954156
O O3 0.556152 0.750000 0.938471
O O4 0.604626 0.965486 0.753024
O O5 0.502453 0.999711 0.764814
O O6 0.559823 0.250000 0.930529
O O7 0.841001 0.750000 0.550092
O O8 0.803663 0.750000 0.789089
O O9 0.933300 0.250000 0.364856
O O10 0.934043 0.750000 0.365146
O O11 0.000000 0.000000 0.500000
O O12 0.250000 0.750000 0.656403
O O13 0.168097 0.494735 0.671279
O O14 0.250000 0.250000 0.593711
#
# Coordination Sequence:
#
# PCOD9446278 Si02
#       7
#     2   8   4   8   4   4   2
#     4  10  22  38  48  62  76 104 152 192 224 240
#     4   8  16  26  36  50  85 113 134 173 193 248
#     4  10  22  29  42  67  96 112 147 158 227 260
#     4   8  12  20  34  50  66 101 148 171 184 220
#     4   8  18  33  52  59  75  95 143 192 218 240
#     4  10  17  30  48  66  79 107 132 186 204 255
#     4  12  24  30  48  62  88 120 140 180 206 268
#
# _framework density 22.888262999999998
#
# number of rings (size 3 to 8) (size 9 to 14) (size 15 to 20)
#    1.125    2.000    0.625    0.750    3.500    0.000 
#    0.000    0.000    0.000    0.000    0.000    0.000 
#    0.000    0.000    0.000    0.000    0.000   25.000 
#
# Total GULP energy -178136.295049 kJ/mol
# GULP energy per Si atom -5566.759220 kJ/mol
# Density = 2.283617 g / cm^3
# Si number density = 22.888263 Si / 1000 Ang^3
#
#
#
# Elastic Constant Matrix: (Units=GPa)
#
#
# Indices 1 2 3 4 5 6 
#
# 1 67.2402 58.0086 25.5559 0.0000 0.0000 0.0000
# 2 58.0086 310.0599 49.3486 0.0000 0.0000 0.0000
# 3 25.5559 49.3486 64.9958 0.0000 0.0000 0.0000
# 4 0.0000 0.0000 0.0000 -19.3046 0.0000 0.0000
# 5 0.0000 0.0000 0.0000 0.0000 20.8970 0.0000
# 6 0.0000 0.0000 0.0000 0.0000 0.0000 39.2401
#
#
#
# Elastic Compliance Matrix: (Units=1/GPa)
#
#
# Indices 1 2 3 4 5 6 
#
# 1 0.019333 -0.002738 -0.005523 0.000000 0.000000 0.000000
# 2 -0.002738 0.004056 -0.002003 0.000000 0.000000 0.000000
# 3 -0.005523 -0.002003 0.019078 0.000000 0.000000 0.000000
# 4 0.000000 0.000000 0.000000 -0.051801 0.000000 0.000000
# 5 0.000000 0.000000 0.000000 0.000000 0.047854 0.000000
# 6 0.000000 0.000000 0.000000 0.000000 0.000000 0.025484
#
#
# Mechanical properties :
#
#
# Convention : Reuss Voigt Hill
#
# Bulk Modulus (GPa) = 45.57989 78.68022 62.13006
# Shear Modulus (GPa) = 54.43928 28.79203 41.61565
#
# Velocity S-wave (km/s) = 4.88226 3.55059 4.26867
# Velocity P-wave (km/s) = 7.19300 7.15956 7.17630
#
# Compressibility (1/GPa) = 0.02193950
#
# Stress axis : x y z
#
# Youngs Moduli (GPa) = 51.72444 246.53277 52.41623
#
# Poissons Ratio (x) = 0.67501 0.28949
# Poissons Ratio (y) = 0.14162 0.10500
# Poissons Ratio (z) = 0.28567 0.49385
#
# Static dielectric constant tensor:
#      x y z
#    x 1.858360 0.000000 0.000000 
#    y 0.000000 1.692730 0.000000 
#    z 0.000000 0.000000 1.791250 
# 
# From -- ./inp_files/12751.got.cif
#   From: 2010.05.17/outbox.cif.g08.bks.cpg/sg59_7_cif.got.tgz:12751.got - 2010.06.03 14:40:33.
