data_PCOD9446888
_publ_section_title
;
Structure prediction by ZEFSAII (Michael W. Deem and Ramdas Pophale) SiO2 
 PCOD9446888
Probable space group: P M M N
;
_chemical_formula_sum "Si O2"
_cell_formula_units_Z 56
_cell_length_a 8.487894
_cell_length_b 21.655152
_cell_length_c 15.646207
_cell_angle_alpha 90.000000
_cell_angle_beta 90.000000
_cell_angle_gamma 90.000000
_cell_volume 2875.876655
_symmetry_space_group_name_H-M "P M M N"
_symmetry_group_IT_number 59
_space_group.IT_coordinate_system_code '2'
_symmetry_cell_setting 'orthorhombic'
loop_
_space_group_symop_operation_xyz
x,y,z
1/2-x,1/2-y,z
1/2+x,-y,-z
-x,1/2+y,-z
-x,-y,-z
1/2+x,1/2+y,-z
1/2-x,y,z
x,1/2-y,z
loop_
_atom_site_type_symbol
_atom_site_label
_atom_site_fract_x
_atom_site_fract_y
_atom_site_fract_z
Si Si1 0.558906 0.316802 0.361879
Si Si2 0.938213 0.388906 0.204204
Si Si3 0.066237 0.983906 0.223587
Si Si4 0.441046 0.539135 0.416278
Si Si5 0.438072 0.818587 0.963598
Si Si6 0.935491 0.940866 0.053487
Si Si7 0.058386 0.819059 0.441278
O O1 0.750000 0.318801 0.362049
O O2 0.511238 0.250000 0.328211
O O3 0.506517 0.368378 0.297490
O O4 0.509997 0.321200 0.459254
O O5 0.750000 0.403357 0.204506
O O6 0.961250 0.334741 0.136321
O O7 0.035458 0.449114 0.183009
O O8 0.250000 0.968774 0.226898
O O9 0.008506 0.985385 0.322227
O O10 0.985687 0.940977 0.153229
O O11 0.500000 0.500000 0.500000
O O12 0.250000 0.537041 0.422068
O O13 0.488991 0.612181 0.411378
O O14 0.250000 0.818890 0.978402
O O15 0.498460 0.750000 0.984173
O O16 0.508727 0.876460 0.013208
O O17 0.750000 0.946033 0.048813
O O18 0.000000 0.000000 0.000000
O O19 0.250000 0.818070 0.436229
O O20 0.007707 0.750000 0.408367
#
# Coordination Sequence:
#
# PCOD9446888 Si02
#       7
#     8   8   8   8   8   8   8
#     4   8  13  22  41  72 105 136 176 227 281 340
#     4  10  18  30  52  80 111 148 188 233 292 357
#     4  11  23  37  55  83 117 153 196 246 300 359
#     4  10  21  36  56  85 119 153 194 247 301 354
#     4  10  21  37  59  89 123 156 194 244 300 357
#     4  12  24  41  64  87 115 155 201 248 299 358
#     4   8  14  27  48  73 103 142 189 239 285 331
#
# _framework density 19.472322999999999
#
# number of rings (size 3 to 8) (size 9 to 14) (size 15 to 20)
#    0.000    2.143    1.429    3.857    0.000    4.286 
#    0.000    0.714    0.000    4.286    0.000    6.000 
#    0.000    0.000    0.000    0.000    0.000    0.000 
#
# Total GULP energy -311765.960994 kJ/mol
# GULP energy per Si atom -5567.249303 kJ/mol
# Density = 1.942800 g / cm^3
# Si number density = 19.472323 Si / 1000 Ang^3
#
#
#
# Elastic Constant Matrix: (Units=GPa)
#
#
# Indices 1 2 3 4 5 6 
#
# 1 33.4485 28.6563 28.8093 0.0000 0.0000 0.0000
# 2 28.6563 135.9655 49.4666 0.0000 0.0000 0.0000
# 3 28.8093 49.4666 89.7886 0.0000 0.0000 0.0000
# 4 0.0000 0.0000 0.0000 31.1976 0.0000 0.0000
# 5 0.0000 0.0000 0.0000 0.0000 18.9617 0.0000
# 6 0.0000 0.0000 0.0000 0.0000 0.0000 21.0222
#
#
#
# Elastic Compliance Matrix: (Units=1/GPa)
#
#
# Indices 1 2 3 4 5 6 
#
# 1 0.044050 -0.005180 -0.011280 0.000000 0.000000 0.000000
# 2 -0.005180 0.009808 -0.003741 0.000000 0.000000 0.000000
# 3 -0.011280 -0.003741 0.016818 0.000000 0.000000 0.000000
# 4 0.000000 0.000000 0.000000 0.032054 0.000000 0.000000
# 5 0.000000 0.000000 0.000000 0.000000 0.052738 0.000000
# 6 0.000000 0.000000 0.000000 0.000000 0.000000 0.047569
#
#
# Mechanical properties :
#
#
# Convention : Reuss Voigt Hill
#
# Bulk Modulus (GPa) = 33.03289 52.56301 42.79795
# Shear Modulus (GPa) = 19.72156 24.38766 22.05461
#
# Velocity S-wave (km/s) = 3.18590 3.54280 3.36908
# Velocity P-wave (km/s) = 5.52577 6.61722 6.09597
#
# Compressibility (1/GPa) = 0.03027286
#
# Stress axis : x y z
#
# Youngs Moduli (GPa) = 22.70134 101.96063 59.46147
#
# Poissons Ratio (x) = 0.52819 0.67072
# Poissons Ratio (y) = 0.11760 0.22245
# Poissons Ratio (z) = 0.25607 0.38145
#
# Static dielectric constant tensor:
#      x y z
#    x 1.679720 0.000000 0.000000 
#    y 0.000000 1.748270 0.000000 
#    z 0.000000 0.000000 1.702720 
# 
# From -- ./inp_files/20921.got.cif
#   From: 2010.05.17/outbox.cif.g08.bks.cpg/sg59_11_cif.got.tgz:20921.got - 2010.06.03 14:40:33.
