data_PCOD9446604
_publ_section_title
;
Structure prediction by ZEFSAII (Michael W. Deem and Ramdas Pophale) SiO2 
 PCOD9446604
Probable space group: P M M N
;
_chemical_formula_sum "Si O2"
_cell_formula_units_Z 64
_cell_length_a 31.184585
_cell_length_b 7.765410
_cell_length_c 15.008386
_cell_angle_alpha 90.000000
_cell_angle_beta 90.000000
_cell_angle_gamma 90.000000
_cell_volume 3634.447086
_symmetry_space_group_name_H-M "P M M N"
_symmetry_group_IT_number 59
_space_group.IT_coordinate_system_code '2'
_symmetry_cell_setting 'orthorhombic'
loop_
_space_group_symop_operation_xyz
x,y,z
1/2-x,1/2-y,z
1/2+x,-y,-z
-x,1/2+y,-z
-x,-y,-z
1/2+x,1/2+y,-z
1/2-x,y,z
x,1/2-y,z
loop_
_atom_site_type_symbol
_atom_site_label
_atom_site_fract_x
_atom_site_fract_y
_atom_site_fract_z
Si Si1 0.475826 0.549923 0.639507
Si Si2 0.889181 0.544840 0.043095
Si Si3 0.465685 0.048634 0.838794
Si Si4 0.797551 0.955847 0.995879
Si Si5 0.797461 0.458474 0.787820
Si Si6 0.560310 0.547136 0.538060
Si Si7 0.383208 0.542012 0.304956
Si Si8 0.438968 0.540816 0.136432
O O1 0.482908 0.750000 0.659931
O O2 0.463844 0.463859 0.732128
O O3 0.519799 0.477855 0.595932
O O4 0.441651 0.532935 0.559811
O O5 0.885199 0.750000 0.058383
O O6 0.923862 0.473067 0.113212
O O7 0.840578 0.474407 0.042516
O O8 0.910345 0.517566 0.946225
O O9 0.466772 0.250000 0.863698
O O10 0.511998 0.976938 0.868769
O O11 0.750000 0.024656 0.019804
O O12 0.796330 0.750000 0.010009
O O13 0.803460 0.985756 0.890093
O O14 0.750000 0.515350 0.759194
O O15 0.798174 0.250000 0.787724
O O16 0.836613 0.518351 0.727108
O O17 0.553443 0.750000 0.526023
O O18 0.601514 0.517261 0.598608
O O19 0.383335 0.750000 0.305051
O O20 0.417176 0.485087 0.229193
O O21 0.439304 0.750000 0.136516
#
# Coordination Sequence:
#
# PCOD9446604 Si02
#       8
#     8   8   8   8   8   8   8   8
#     4  10  20  33  49  69  91 118 152 190 229 270
#     4  10  20  31  45  65  90 124 160 192 229 273
#     4  10  20  33  46  63  92 126 158 193 231 271
#     4   9  17  29  44  63  88 117 152 194 234 270
#     4   9  17  29  45  65  90 121 155 189 227 270
#     4  10  20  32  49  70  92 119 150 186 228 274
#     4  10  18  29  46  68  94 124 155 188 226 270
#     4  10  19  30  44  64  93 127 158 189 224 264
#
# _framework density 17.609282
#
# number of rings (size 3 to 8) (size 9 to 14) (size 15 to 20)
#    0.000    2.250    2.500    1.125    0.000    3.000 
#    0.000    0.000    0.000    0.000    0.000    0.875 
#    0.000    3.000    0.000    0.000    0.000    0.000 
#
# Total GULP energy -356932.307528 kJ/mol
# GULP energy per Si atom -5577.067305 kJ/mol
# Density = 1.756920 g / cm^3
# Si number density = 17.609282 Si / 1000 Ang^3
#
#
#
# Elastic Constant Matrix: (Units=GPa)
#
#
# Indices 1 2 3 4 5 6 
#
# 1 153.5671 7.8532 39.6164 0.0000 0.0000 0.0000
# 2 7.8532 24.6899 -8.8779 0.0000 0.0000 0.0000
# 3 39.6164 -8.8779 41.5294 0.0000 0.0000 0.0000
# 4 0.0000 0.0000 0.0000 16.1632 0.0000 0.0000
# 5 0.0000 0.0000 0.0000 0.0000 24.7137 0.0000
# 6 0.0000 0.0000 0.0000 0.0000 0.0000 8.5008
#
#
#
# Elastic Compliance Matrix: (Units=1/GPa)
#
#
# Indices 1 2 3 4 5 6 
#
# 1 0.009607 -0.006880 -0.010636 0.000000 0.000000 0.000000
# 2 -0.006880 0.048802 0.016996 0.000000 0.000000 0.000000
# 3 -0.010636 0.016996 0.037858 0.000000 0.000000 0.000000
# 4 0.000000 0.000000 0.000000 0.061869 0.000000 0.000000
# 5 0.000000 0.000000 0.000000 0.000000 0.040463 0.000000
# 6 0.000000 0.000000 0.000000 0.000000 0.000000 0.117636
#
#
# Mechanical properties :
#
#
# Convention : Reuss Voigt Hill
#
# Bulk Modulus (GPa) = 10.50110 32.99664 21.74887
# Shear Modulus (GPa) = 14.32590 21.95521 18.14055
#
# Velocity S-wave (km/s) = 2.85536 3.53483 3.21311
# Velocity P-wave (km/s) = 4.10452 5.95306 5.11303
#
# Compressibility (1/GPa) = 0.09522812
#
# Stress axis : x y z
#
# Youngs Moduli (GPa) = 104.08670 20.49089 26.41425
#
# Poissons Ratio (x) = 0.14098 0.28093
# Poissons Ratio (y) = 0.71614 -0.44893
# Poissons Ratio (z) = 1.10703 -0.34826
#
# Static dielectric constant tensor:
#      x y z
#    x 1.650320 0.000000 0.000000 
#    y 0.000000 1.638240 0.000000 
#    z 0.000000 0.000000 1.572490 
# 
# From -- ./inp_files/21854.got.cif
#   From: 2010.05.17/outbox.cif.g08.bks.cpg/sg59_11_cif.got.tgz:21854.got - 2010.06.03 14:40:33.
