data_PCOD9446950
_publ_section_title
;
Structure prediction by ZEFSAII (Michael W. Deem and Ramdas Pophale) SiO2 
 PCOD9446950
Probable space group: P M M N
;
_chemical_formula_sum "Si O2"
_cell_formula_units_Z 56
_cell_length_a 9.345580
_cell_length_b 21.410807
_cell_length_c 14.153833
_cell_angle_alpha 90.000000
_cell_angle_beta 90.000000
_cell_angle_gamma 90.000000
_cell_volume 2832.131167
_symmetry_space_group_name_H-M "P M M N"
_symmetry_group_IT_number 59
_space_group.IT_coordinate_system_code '2'
_symmetry_cell_setting 'orthorhombic'
loop_
_space_group_symop_operation_xyz
x,y,z
1/2-x,1/2-y,z
1/2+x,-y,-z
-x,1/2+y,-z
-x,-y,-z
1/2+x,1/2+y,-z
1/2-x,y,z
x,1/2-y,z
loop_
_atom_site_type_symbol
_atom_site_label
_atom_site_fract_x
_atom_site_fract_y
_atom_site_fract_z
Si Si1 0.584826 0.357539 0.634559
Si Si2 0.424132 0.679178 0.155103
Si Si3 0.088082 0.177126 0.448244
Si Si4 0.420030 0.679277 0.750212
Si Si5 0.081866 0.544182 0.074533
Si Si6 0.085906 0.500943 0.404365
Si Si7 0.582295 0.934823 0.777774
O O1 0.750000 0.337030 0.618011
O O2 0.534624 0.328443 0.733828
O O3 0.492568 0.347577 0.540558
O O4 0.583890 0.431935 0.645033
O O5 0.250000 0.677250 0.153697
O O6 0.466404 0.750000 0.123321
O O7 0.469084 0.615461 0.098725
O O8 0.250000 0.151979 0.436216
O O9 0.102156 0.250000 0.467969
O O10 0.996436 0.174584 0.352058
O O11 0.250000 0.671129 0.741321
O O12 0.446741 0.750000 0.785870
O O13 0.488952 0.623702 0.811575
O O14 0.250000 0.548904 0.048093
O O15 0.071665 0.499237 0.165679
O O16 0.000000 0.500000 0.000000
O O17 0.250000 0.488173 0.427391
O O18 0.033335 0.451729 0.328004
O O19 0.000000 0.500000 0.500000
O O20 0.750000 0.917305 0.777434
#
# Coordination Sequence:
#
# PCOD9446950 Si02
#       7
#     8   8   8   8   8   8   8
#     4  10  18  31  51  77 108 145 192 239 282 332
#     4   9  17  33  60  89 115 146 186 235 291 348
#     4  10  20  32  46  70 109 154 194 232 282 341
#     4  10  21  36  54  78 108 145 195 249 290 332
#     4  10  21  40  64  90 118 151 191 235 288 352
#     4  10  20  32  48  75 112 150 189 233 274 326
#     4  10  20  37  58  80 113 150 187 233 288 347
#
# _framework density 19.773095999999999
#
# number of rings (size 3 to 8) (size 9 to 14) (size 15 to 20)
#    0.000    2.143    1.429    2.143    0.000    6.286 
#    0.000    1.429    0.000    3.857    0.000    0.000 
#    0.000    0.000    0.000    0.000    0.000    0.000 
#
# Total GULP energy -311931.553404 kJ/mol
# GULP energy per Si atom -5570.206311 kJ/mol
# Density = 1.972809 g / cm^3
# Si number density = 19.773096 Si / 1000 Ang^3
#
#
#
# Elastic Constant Matrix: (Units=GPa)
#
#
# Indices 1 2 3 4 5 6 
#
# 1 40.1539 36.8450 9.9744 0.0000 0.0000 0.0000
# 2 36.8450 164.3291 15.1344 0.0000 0.0000 0.0000
# 3 9.9744 15.1344 24.8013 0.0000 0.0000 0.0000
# 4 0.0000 0.0000 0.0000 21.8866 0.0000 0.0000
# 5 0.0000 0.0000 0.0000 0.0000 22.6200 0.0000
# 6 0.0000 0.0000 0.0000 0.0000 0.0000 26.4128
#
#
#
# Elastic Compliance Matrix: (Units=1/GPa)
#
#
# Indices 1 2 3 4 5 6 
#
# 1 0.033286 -0.006601 -0.009359 0.000000 0.000000 0.000000
# 2 -0.006601 0.007757 -0.002079 0.000000 0.000000 0.000000
# 3 -0.009359 -0.002079 0.045353 0.000000 0.000000 0.000000
# 4 0.000000 0.000000 0.000000 0.045690 0.000000 0.000000
# 5 0.000000 0.000000 0.000000 0.000000 0.044209 0.000000
# 6 0.000000 0.000000 0.000000 0.000000 0.000000 0.037860
#
#
# Mechanical properties :
#
#
# Convention : Reuss Voigt Hill
#
# Bulk Modulus (GPa) = 19.87329 39.24355 29.55842
# Shear Modulus (GPa) = 18.72627 25.33925 22.03276
#
# Velocity S-wave (km/s) = 3.08077 3.58369 3.34170
# Velocity P-wave (km/s) = 4.76732 6.08390 5.46540
#
# Compressibility (1/GPa) = 0.05031880
#
# Stress axis : x y z
#
# Youngs Moduli (GPa) = 30.04245 128.91747 22.04948
#
# Poissons Ratio (x) = 0.85103 0.20635
# Poissons Ratio (y) = 0.19832 0.04583
# Poissons Ratio (z) = 0.28115 0.26796
#
# Static dielectric constant tensor:
#      x y z
#    x 1.687160 0.000000 0.000000 
#    y 0.000000 1.772380 0.000000 
#    z 0.000000 0.000000 1.751800 
# 
# From -- ./inp_files/21062.got.cif
#   From: 2010.05.17/outbox.cif.g08.bks.cpg/sg59_11_cif.got.tgz:21062.got - 2010.06.03 14:40:33.
