data_PCOD9446435
_publ_section_title
;
Structure prediction by ZEFSAII (Michael W. Deem and Ramdas Pophale) SiO2 
 PCOD9446435
Probable space group: P M M N
;
_chemical_formula_sum "Si O2"
_cell_formula_units_Z 64
_cell_length_a 29.901447
_cell_length_b 7.589626
_cell_length_c 16.131827
_cell_angle_alpha 90.000000
_cell_angle_beta 90.000000
_cell_angle_gamma 90.000000
_cell_volume 3660.969718
_symmetry_space_group_name_H-M "P M M N"
_symmetry_group_IT_number 59
_space_group.IT_coordinate_system_code '2'
_symmetry_cell_setting 'orthorhombic'
loop_
_space_group_symop_operation_xyz
x,y,z
1/2-x,1/2-y,z
1/2+x,-y,-z
-x,1/2+y,-z
-x,-y,-z
1/2+x,1/2+y,-z
1/2-x,y,z
x,1/2-y,z
loop_
_atom_site_type_symbol
_atom_site_label
_atom_site_fract_x
_atom_site_fract_y
_atom_site_fract_z
Si Si1 0.892819 0.534330 0.163329
Si Si2 0.947178 0.958984 0.506493
Si Si3 0.445605 0.033797 0.674441
Si Si4 0.799485 0.535316 0.898026
Si Si5 0.393345 0.042521 0.156086
Si Si6 0.700227 0.535691 0.091812
Si Si7 0.552364 0.961535 0.002319
Si Si8 0.547904 0.453390 0.688780
O O1 0.892955 0.750000 0.163790
O O2 0.914494 0.478088 0.249915
O O3 0.842084 0.476788 0.145276
O O4 0.923566 0.476012 0.086147
O O5 0.940866 0.750000 0.510976
O O6 0.929381 0.022114 0.417286
O O7 0.933109 0.032368 0.595442
O O8 0.000000 0.000000 0.500000
O O9 0.446776 0.250000 0.672836
O O10 0.497073 0.972668 0.688335
O O11 0.750000 0.473014 0.872761
O O12 0.797897 0.750000 0.894554
O O13 0.842677 0.472366 0.847542
O O14 0.806489 0.488974 0.995002
O O15 0.388991 0.250000 0.139194
O O16 0.419411 0.027103 0.241989
O O17 0.422775 0.969498 0.079904
O O18 0.750000 0.476540 0.116986
O O19 0.700387 0.750000 0.094228
O O20 0.556782 0.750000 0.002943
O O21 0.500000 0.000000 0.000000
O O22 0.542791 0.250000 0.710216
#
# Coordination Sequence:
#
# PCOD9446435 Si02
#       8
#     8   8   8   8   8   8   8   8
#     4   9  14  23  37  56  83 112 138 166 202 247
#     4   9  16  28  44  63  85 112 145 182 219 258
#     4   8  15  25  39  57  79 109 142 171 208 251
#     4   8  13  23  39  59  83 109 139 177 216 252
#     4  10  18  28  42  63  86 113 146 178 213 256
#     4   8  12  19  34  56  81 108 137 170 206 244
#     4  10  19  28  39  57  85 120 149 170 198 241
#     4  10  19  30  43  61  84 114 147 182 220 258
#
# _framework density 17.481707
#
# number of rings (size 3 to 8) (size 9 to 14) (size 15 to 20)
#    0.000    3.000    1.250    3.000    0.000    1.500 
#    0.000    0.000    0.000    1.125    0.000    0.875 
#    0.000    5.500    0.000    0.000    0.000    0.000 
#
# Total GULP energy -356531.875220 kJ/mol
# GULP energy per Si atom -5570.810550 kJ/mol
# Density = 1.744192 g / cm^3
# Si number density = 17.481707 Si / 1000 Ang^3
#
#
#
# Elastic Constant Matrix: (Units=GPa)
#
#
# Indices 1 2 3 4 5 6 
#
# 1 131.7304 -0.9537 69.1895 0.0000 0.0000 0.0000
# 2 -0.9537 32.4987 -8.4748 0.0000 0.0000 0.0000
# 3 69.1895 -8.4748 115.6632 0.0000 0.0000 0.0000
# 4 0.0000 0.0000 0.0000 3.6675 0.0000 0.0000
# 5 0.0000 0.0000 0.0000 0.0000 11.4519 0.0000
# 6 0.0000 0.0000 0.0000 0.0000 0.0000 7.7771
#
#
#
# Elastic Compliance Matrix: (Units=1/GPa)
#
#
# Indices 1 2 3 4 5 6 
#
# 1 0.011135 -0.001438 -0.006766 0.000000 0.000000 0.000000
# 2 -0.001438 0.031555 0.003172 0.000000 0.000000 0.000000
# 3 -0.006766 0.003172 0.012926 0.000000 0.000000 0.000000
# 4 0.000000 0.000000 0.000000 0.272668 0.000000 0.000000
# 5 0.000000 0.000000 0.000000 0.000000 0.087321 0.000000
# 6 0.000000 0.000000 0.000000 0.000000 0.000000 0.128583
#
#
# Mechanical properties :
#
#
# Convention : Reuss Voigt Hill
#
# Bulk Modulus (GPa) = 21.95267 44.37936 33.16601
# Shear Modulus (GPa) = 8.78061 19.25471 14.01766
#
# Velocity S-wave (km/s) = 2.24358 3.32237 2.83476
# Velocity P-wave (km/s) = 4.39276 6.33709 5.45230
#
# Compressibility (1/GPa) = 0.04555255
#
# Stress axis : x y z
#
# Youngs Moduli (GPa) = 89.80996 31.69025 77.36552
#
# Poissons Ratio (x) = 0.04556 0.52346
# Poissons Ratio (y) = 0.12911 -0.24541
# Poissons Ratio (z) = 0.60766 -0.10052
#
# Static dielectric constant tensor:
#      x y z
#    x 1.599380 0.000000 0.000000 
#    y 0.000000 1.679330 0.000000 
#    z 0.000000 0.000000 1.592500 
# 
# From -- ./inp_files/21974.got.cif
#   From: 2010.05.17/outbox.cif.g08.bks.cpg/sg59_11_cif.got.tgz:21974.got - 2010.06.03 14:40:33.
