data_PCOD9446555
_publ_section_title
;
Structure prediction by ZEFSAII (Michael W. Deem and Ramdas Pophale) SiO2 
 PCOD9446555
Probable space group: P M M N
;
_chemical_formula_sum "Si O2"
_cell_formula_units_Z 52
_cell_length_a 25.601993
_cell_length_b 10.906970
_cell_length_c 9.940894
_cell_angle_alpha 90.000000
_cell_angle_beta 90.000000
_cell_angle_gamma 90.000000
_cell_volume 2775.896926
_symmetry_space_group_name_H-M "P M M N"
_symmetry_group_IT_number 59
_space_group.IT_coordinate_system_code '2'
_symmetry_cell_setting 'orthorhombic'
loop_
_space_group_symop_operation_xyz
x,y,z
1/2-x,1/2-y,z
1/2+x,-y,-z
-x,1/2+y,-z
-x,-y,-z
1/2+x,1/2+y,-z
1/2-x,y,z
x,1/2-y,z
loop_
_atom_site_type_symbol
_atom_site_label
_atom_site_fract_x
_atom_site_fract_y
_atom_site_fract_z
Si Si1 0.307274 0.607091 0.154892
Si Si2 0.120907 0.477775 0.626803
Si Si3 0.688527 0.750000 0.007485
Si Si4 0.903355 0.483761 0.673112
Si Si5 0.311300 0.250000 0.531642
Si Si6 0.507825 0.607872 0.388601
Si Si7 0.190027 0.986398 0.858126
Si Si8 0.124996 0.250000 0.269218
O O1 0.250000 0.552494 0.188873
O O2 0.306187 0.750000 0.186639
O O3 0.354549 0.549431 0.235057
O O4 0.314437 0.588717 0.995990
O O5 0.111416 0.542392 0.482892
O O6 0.161067 0.368386 0.593946
O O7 0.065046 0.421392 0.669545
O O8 0.148653 0.551095 0.745440
O O9 0.750000 0.750000 0.965004
O O10 0.680680 0.872566 0.095073
O O11 0.649763 0.750000 0.879538
O O12 0.908550 0.629787 0.694527
O O13 0.957044 0.413784 0.704036
O O14 0.250000 0.250000 0.554165
O O15 0.326864 0.250000 0.374455
O O16 0.500000 0.500000 0.500000
O O17 0.507612 0.750000 0.435432
O O18 0.250000 0.976267 0.809793
#
# Coordination Sequence:
#
# PCOD9446555 Si02
#       8
#     8   8   4   8   4   8   8   4
#     4  10  21  38  58  80 113 156 198 239 290 356
#     4  10  20  35  55  85 116 148 188 237 293 350
#     4  10  18  30  53  83 113 147 179 219 287 364
#     4  10  21  36  61  83 115 149 200 246 301 342
#     4  10  18  28  51  85 123 147 174 232 300 348
#     4  10  21  38  60  83 116 159 200 245 296 352
#     4  10  20  34  55  84 117 150 182 228 295 363
#     4  10  19  32  54  88 118 146 189 253 291 344
#
# _framework density 18.732683999999999
#
# number of rings (size 3 to 8) (size 9 to 14) (size 15 to 20)
#    0.000    2.000    2.308    1.615    3.231    3.692 
#    0.000    4.615    0.000    1.846    0.000    0.000 
#    0.000    0.000    0.000    0.000    0.000    0.000 
#
# Total GULP energy -289903.104292 kJ/mol
# GULP energy per Si atom -5575.059698 kJ/mol
# Density = 1.869005 g / cm^3
# Si number density = 18.732684 Si / 1000 Ang^3
#
#
#
# Elastic Constant Matrix: (Units=GPa)
#
#
# Indices 1 2 3 4 5 6 
#
# 1 153.1034 23.0839 46.5538 0.0000 0.0000 0.0000
# 2 23.0839 57.8575 2.0724 0.0000 0.0000 0.0000
# 3 46.5538 2.0724 64.4605 0.0000 0.0000 0.0000
# 4 0.0000 0.0000 0.0000 4.7672 0.0000 0.0000
# 5 0.0000 0.0000 0.0000 0.0000 17.4337 0.0000
# 6 0.0000 0.0000 0.0000 0.0000 0.0000 18.1641
#
#
#
# Elastic Compliance Matrix: (Units=1/GPa)
#
#
# Indices 1 2 3 4 5 6 
#
# 1 0.008975 -0.003353 -0.006374 0.000000 0.000000 0.000000
# 2 -0.003353 0.018556 0.001825 0.000000 0.000000 0.000000
# 3 -0.006374 0.001825 0.020058 0.000000 0.000000 0.000000
# 4 0.000000 0.000000 0.000000 0.209766 0.000000 0.000000
# 5 0.000000 0.000000 0.000000 0.000000 0.057360 0.000000
# 6 0.000000 0.000000 0.000000 0.000000 0.000000 0.055054
#
#
# Mechanical properties :
#
#
# Convention : Reuss Voigt Hill
#
# Bulk Modulus (GPa) = 31.46105 46.53796 38.99950
# Shear Modulus (GPa) = 12.62091 21.65376 17.13733
#
# Velocity S-wave (km/s) = 2.59846 3.40359 3.02791
# Velocity P-wave (km/s) = 5.08270 6.35162 5.75226
#
# Compressibility (1/GPa) = 0.03178534
#
# Stress axis : x y z
#
# Youngs Moduli (GPa) = 111.41831 53.89060 49.85504
#
# Poissons Ratio (x) = 0.18067 0.31778
# Poissons Ratio (y) = 0.37354 -0.09097
# Poissons Ratio (z) = 0.71020 -0.09833
#
# Static dielectric constant tensor:
#      x y z
#    x 1.673170 0.000000 0.000000 
#    y 0.000000 1.684660 0.000000 
#    z 0.000000 0.000000 1.677720 
# 
# From -- ./inp_files/12613.got.cif
#   From: 2010.05.17/outbox.cif.g08.bks.cpg/sg59_7_cif.got.tgz:12613.got - 2010.06.03 14:40:33.
