data_PCOD9446673
_publ_section_title
;
Structure prediction by ZEFSAII (Michael W. Deem and Ramdas Pophale) SiO2 
 PCOD9446673
Probable space group: P M M N
;
_chemical_formula_sum "Si O2"
_cell_formula_units_Z 56
_cell_length_a 16.696803
_cell_length_b 7.342776
_cell_length_c 20.071092
_cell_angle_alpha 90.000000
_cell_angle_beta 90.000000
_cell_angle_gamma 90.000000
_cell_volume 2460.733629
_symmetry_space_group_name_H-M "P M M N"
_symmetry_group_IT_number 59
_space_group.IT_coordinate_system_code '2'
_symmetry_cell_setting 'orthorhombic'
loop_
_space_group_symop_operation_xyz
x,y,z
1/2-x,1/2-y,z
1/2+x,-y,-z
-x,1/2+y,-z
-x,-y,-z
1/2+x,1/2+y,-z
1/2-x,y,z
x,1/2-y,z
loop_
_atom_site_type_symbol
_atom_site_label
_atom_site_fract_x
_atom_site_fract_y
_atom_site_fract_z
Si Si1 0.592454 0.972627 0.711185
Si Si2 0.155654 0.470466 0.430377
Si Si3 0.414048 0.535870 0.717731
Si Si4 0.657961 0.531312 0.425180
Si Si5 0.662127 0.528073 0.849270
Si Si6 0.000364 0.033212 0.078442
Si Si7 0.337844 0.972333 0.850297
O O1 0.592778 0.750000 0.709295
O O2 0.615707 0.035948 0.637424
O O3 0.503148 0.036514 0.727988
O O4 0.649972 0.023247 0.771793
O O5 0.250000 0.513776 0.428169
O O6 0.149296 0.250000 0.429521
O O7 0.124975 0.532381 0.503017
O O8 0.420052 0.750000 0.730573
O O9 0.388593 0.515334 0.641479
O O10 0.352319 0.470034 0.773386
O O11 0.750000 0.467805 0.418849
O O12 0.660234 0.750000 0.428322
O O13 0.750000 0.468437 0.873242
O O14 0.661912 0.750000 0.852116
O O15 0.583352 0.464921 0.889048
O O16 0.000488 0.250000 0.090812
O O17 0.916928 0.965810 0.110213
O O18 0.000000 0.000000 0.000000
O O19 0.250000 0.033453 0.873557
O O20 0.336356 0.750000 0.853824
#
# Coordination Sequence:
#
# PCOD9446673 Si02
#       7
#     8   8   8   8   8   8   8
#     4   9  15  25  44  70  96 122 159 204 243 283
#     4   8  14  25  41  62  91 127 163 198 240 290
#     4  10  18  29  48  73  96 121 161 208 242 276
#     4   9  18  31  44  62  93 130 164 199 242 291
#     4   9  16  28  49  75 101 127 158 202 249 284
#     4  10  20  35  53  76 103 128 158 195 238 289
#     4   9  17  31  51  72  97 131 166 197 232 279
#
# _framework density 22.757439999999999
#
# number of rings (size 3 to 8) (size 9 to 14) (size 15 to 20)
#    0.000    2.857    1.429    1.714    0.000    3.714 
#    0.000    0.714    0.000    0.857    0.000    0.000 
#    0.000    3.429    0.000    0.000    0.000    0.000 
#
# Total GULP energy -312539.521987 kJ/mol
# GULP energy per Si atom -5581.062893 kJ/mol
# Density = 2.270564 g / cm^3
# Si number density = 22.757440 Si / 1000 Ang^3
#
#
#
# Elastic Constant Matrix: (Units=GPa)
#
#
# Indices 1 2 3 4 5 6 
#
# 1 178.9049 7.0833 86.8795 0.0000 0.0000 0.0000
# 2 7.0833 82.7053 -6.7498 0.0000 0.0000 0.0000
# 3 86.8795 -6.7498 139.4467 0.0000 0.0000 0.0000
# 4 0.0000 0.0000 0.0000 11.8734 0.0000 0.0000
# 5 0.0000 0.0000 0.0000 0.0000 23.6248 0.0000
# 6 0.0000 0.0000 0.0000 0.0000 0.0000 -179.7126
#
#
#
# Elastic Compliance Matrix: (Units=1/GPa)
#
#
# Indices 1 2 3 4 5 6 
#
# 1 0.008115 -0.001112 -0.005110 0.000000 0.000000 0.000000
# 2 -0.001112 0.012291 0.001288 0.000000 0.000000 0.000000
# 3 -0.005110 0.001288 0.010417 0.000000 0.000000 0.000000
# 4 0.000000 0.000000 0.000000 0.084222 0.000000 0.000000
# 5 0.000000 0.000000 0.000000 0.000000 0.042328 0.000000
# 6 0.000000 0.000000 0.000000 0.000000 0.000000 -0.005564
#
#
# Mechanical properties :
#
#
# Convention : Reuss Voigt Hill
#
# Bulk Modulus (GPa) = 47.71996 63.94254 55.83125
# Shear Modulus (GPa) = 29.64509 -7.91995 10.86257
#
# Velocity S-wave (km/s) = 3.61315 -1.86754 2.18713
# Velocity P-wave (km/s) = 6.19846 4.84852 5.56458
#
# Compressibility (1/GPa) = 0.02095559
#
# Stress axis : x y z
#
# Youngs Moduli (GPa) = 123.22949 81.35723 95.99680
#
# Poissons Ratio (x) = 0.09047 0.49051
# Poissons Ratio (y) = 0.13703 -0.12362
# Poissons Ratio (z) = 0.62966 -0.10477
#
# Static dielectric constant tensor:
#      x y z
#    x 1.830190 0.000000 0.000000 
#    y 0.000000 1.890330 0.000000 
#    z 0.000000 0.000000 1.821560 
# 
# From -- ./inp_files/30378.got.cif
#   From: 2010.05.17/outbox.cif.g08.bks.cpg/sg59_16_cif.got.tgz:30378.got - 2010.06.03 14:40:33.
