data_PCOD9446822
_publ_section_title
;
Structure prediction by ZEFSAII (Michael W. Deem and Ramdas Pophale) SiO2 
 PCOD9446822
Probable space group: P M M N
;
_chemical_formula_sum "Si O2"
_cell_formula_units_Z 64
_cell_length_a 21.498996
_cell_length_b 7.614858
_cell_length_c 20.460437
_cell_angle_alpha 90.000000
_cell_angle_beta 90.000000
_cell_angle_gamma 90.000000
_cell_volume 3349.615004
_symmetry_space_group_name_H-M "P M M N"
_symmetry_group_IT_number 59
_space_group.IT_coordinate_system_code '2'
_symmetry_cell_setting 'orthorhombic'
loop_
_space_group_symop_operation_xyz
x,y,z
1/2-x,1/2-y,z
1/2+x,-y,-z
-x,1/2+y,-z
-x,-y,-z
1/2+x,1/2+y,-z
1/2-x,y,z
x,1/2-y,z
loop_
_atom_site_type_symbol
_atom_site_label
_atom_site_fract_x
_atom_site_fract_y
_atom_site_fract_z
Si Si1 0.561367 0.457806 0.957750
Si Si2 0.817942 0.457703 0.462553
Si Si3 0.369300 0.037923 0.676752
Si Si4 0.515163 0.035827 0.821224
Si Si5 0.369512 0.035964 0.821267
Si Si6 0.317843 0.039899 0.957826
Si Si7 0.014280 0.535764 0.323331
Si Si8 0.437370 0.538701 0.459912
O O1 0.562861 0.250000 0.951577
O O2 0.552169 0.529919 0.884347
O O3 0.500000 0.500000 0.000000
O O4 0.624166 0.507996 0.994807
O O5 0.750000 0.532509 0.478322
O O6 0.815932 0.250000 0.476533
O O7 0.831263 0.476689 0.385512
O O8 0.876739 0.531008 0.502533
O O9 0.367792 0.250000 0.676447
O O10 0.348330 0.979003 0.749039
O O11 0.441744 0.984818 0.668674
O O12 0.517194 0.250000 0.821021
O O13 0.442312 0.989092 0.828759
O O14 0.535443 0.978382 0.748824
O O15 0.366806 0.250000 0.821167
O O16 0.333296 0.972363 0.884873
O O17 0.250000 0.974871 0.979903
O O18 0.314145 0.250000 0.952224
O O19 0.014999 0.750000 0.323562
O O20 0.052873 0.474516 0.385814
O O21 0.500000 0.500000 0.500000
O O22 0.432328 0.750000 0.457208
#
# Coordination Sequence:
#
# PCOD9446822 Si02
#       8
#     8   8   8   8   8   8   8   8
#     4  11  20  32  53  76 100 129 163 205 247 292
#     4  10  21  33  43  63  99 134 154 181 236 292
#     4   9  16  28  49  72  92 120 163 203 228 266
#     4   8  14  26  47  72  96 120 150 196 246 282
#     4   8  14  27  47  71  96 124 162 200 233 275
#     4  10  20  34  51  71  99 134 168 201 242 293
#     4   8  14  26  47  73  93 114 151 199 240 271
#     4  10  18  30  50  70  91 120 156 196 232 276
#
# _framework density 19.106674999999999
#
# number of rings (size 3 to 8) (size 9 to 14) (size 15 to 20)
#    0.000    2.750    2.500    1.875    0.000    1.000 
#    0.000    1.875    0.000    2.250    0.000    3.500 
#    0.000    0.000    0.000    0.000    0.000    0.000 
#
# Total GULP energy -356862.604629 kJ/mol
# GULP energy per Si atom -5575.978197 kJ/mol
# Density = 1.906319 g / cm^3
# Si number density = 19.106675 Si / 1000 Ang^3
#
#
#
# Elastic Constant Matrix: (Units=GPa)
#
#
# Indices 1 2 3 4 5 6 
#
# 1 138.5654 6.6895 91.9905 0.0000 0.0000 0.0000
# 2 6.6895 38.9632 4.4221 0.0000 0.0000 0.0000
# 3 91.9905 4.4221 158.7617 0.0000 0.0000 0.0000
# 4 0.0000 0.0000 0.0000 14.2626 0.0000 0.0000
# 5 0.0000 0.0000 0.0000 0.0000 17.1559 0.0000
# 6 0.0000 0.0000 0.0000 0.0000 0.0000 12.6619
#
#
#
# Elastic Compliance Matrix: (Units=1/GPa)
#
#
# Indices 1 2 3 4 5 6 
#
# 1 0.011789 -0.001253 -0.006796 0.000000 0.000000 0.000000
# 2 -0.001253 0.025880 0.000005 0.000000 0.000000 0.000000
# 3 -0.006796 0.000005 0.010236 0.000000 0.000000 0.000000
# 4 0.000000 0.000000 0.000000 0.070114 0.000000 0.000000
# 5 0.000000 0.000000 0.000000 0.000000 0.058289 0.000000
# 6 0.000000 0.000000 0.000000 0.000000 0.000000 0.078977
#
#
# Mechanical properties :
#
#
# Convention : Reuss Voigt Hill
#
# Bulk Modulus (GPa) = 31.42901 60.27718 45.85309
# Shear Modulus (GPa) = 17.73190 24.36195 21.04692
#
# Velocity S-wave (km/s) = 3.04969 3.57466 3.32256
# Velocity P-wave (km/s) = 5.37455 6.97522 6.22654
#
# Compressibility (1/GPa) = 0.03181774
#
# Stress axis : x y z
#
# Youngs Moduli (GPa) = 84.82519 38.64029 97.69119
#
# Poissons Ratio (x) = 0.04841 0.66390
# Poissons Ratio (y) = 0.10626 -0.00049
# Poissons Ratio (z) = 0.57647 -0.00019
#
# Static dielectric constant tensor:
#      x y z
#    x 1.646660 0.000000 0.000000 
#    y 0.000000 1.732080 0.000000 
#    z 0.000000 0.000000 1.693230 
# 
# From -- ./inp_files/30964.got.cif
#   From: 2010.05.17/outbox.cif.g08.bks.cpg/sg59_16_cif.got.tgz:30964.got - 2010.06.03 14:40:33.
