data_PCOD9446695
_publ_section_title
;
Structure prediction by ZEFSAII (Michael W. Deem and Ramdas Pophale) SiO2 
 PCOD9446695
Probable space group: P M M N
;
_chemical_formula_sum "Si O2"
_cell_formula_units_Z 48
_cell_length_a 21.403101
_cell_length_b 8.608812
_cell_length_c 15.377275
_cell_angle_alpha 90.000000
_cell_angle_beta 90.000000
_cell_angle_gamma 90.000000
_cell_volume 2833.343999
_symmetry_space_group_name_H-M "P M M N"
_symmetry_group_IT_number 59
_space_group.IT_coordinate_system_code '2'
_symmetry_cell_setting 'orthorhombic'
loop_
_space_group_symop_operation_xyz
x,y,z
1/2-x,1/2-y,z
1/2+x,-y,-z
-x,1/2+y,-z
-x,-y,-z
1/2+x,1/2+y,-z
1/2-x,y,z
x,1/2-y,z
loop_
_atom_site_type_symbol
_atom_site_label
_atom_site_fract_x
_atom_site_fract_y
_atom_site_fract_z
Si Si1 0.847480 0.065206 0.188763
Si Si2 0.182565 0.065266 0.995156
Si Si3 0.018849 0.063434 0.767646
Si Si4 0.817934 0.438371 0.386184
Si Si5 0.541420 0.437516 0.421190
Si Si6 0.446606 0.934715 0.064341
O O1 0.839897 0.250000 0.177872
O O2 0.821169 0.022208 0.283526
O O3 0.819548 0.979453 0.106450
O O4 0.919950 0.018974 0.193456
O O5 0.250000 0.011757 0.030498
O O6 0.178929 0.250000 0.003338
O O7 0.121460 0.993832 0.038509
O O8 0.027800 0.250000 0.766030
O O9 0.964170 0.027095 0.835879
O O10 0.013919 0.001321 0.669733
O O11 0.750000 0.492426 0.420677
O O12 0.818010 0.250000 0.391546
O O13 0.884973 0.488192 0.425479
O O14 0.500000 0.500000 0.500000
O O15 0.540518 0.250000 0.419450
O O16 0.448158 0.750000 0.055074
O O17 0.500000 0.000000 0.000000
#
# Coordination Sequence:
#
# PCOD9446695 Si02
#       6
#     8   8   8   8   8   8
#     4  10  18  29  49  75 104 139 174 211 261 320
#     4  11  23  35  48  71 106 145 184 228 274 318
#     4  10  20  34  53  78 106 136 174 221 266 317
#     4   8  15  28  47  73 102 131 166 206 252 310
#     4  10  20  34  55  80 106 138 173 216 267 318
#     4  11  22  35  55  78 105 141 182 224 266 319
#
# _framework density 16.941112
#
# number of rings (size 3 to 8) (size 9 to 14) (size 15 to 20)
#    0.000    2.000    1.667    4.000    0.000    4.000 
#    0.000    0.000    0.000   11.000    0.000    2.333 
#    0.000    0.000    0.000    0.000    0.000    0.000 
#
# Total GULP energy -267639.452199 kJ/mol
# GULP energy per Si atom -5575.821921 kJ/mol
# Density = 1.690255 g / cm^3
# Si number density = 16.941112 Si / 1000 Ang^3
#
#
#
# Elastic Constant Matrix: (Units=GPa)
#
#
# Indices 1 2 3 4 5 6 
#
# 1 164.5468 32.7424 75.1162 0.0000 0.0000 0.0000
# 2 32.7424 34.4530 22.4480 0.0000 0.0000 0.0000
# 3 75.1162 22.4480 82.3059 0.0000 0.0000 0.0000
# 4 0.0000 0.0000 0.0000 26.5879 0.0000 0.0000
# 5 0.0000 0.0000 0.0000 0.0000 10.0307 0.0000
# 6 0.0000 0.0000 0.0000 0.0000 0.0000 18.0963
#
#
#
# Elastic Compliance Matrix: (Units=1/GPa)
#
#
# Indices 1 2 3 4 5 6 
#
# 1 0.011026 -0.004770 -0.008762 0.000000 0.000000 0.000000
# 2 -0.004770 0.037361 -0.005837 0.000000 0.000000 0.000000
# 3 -0.008762 -0.005837 0.021739 0.000000 0.000000 0.000000
# 4 0.000000 0.000000 0.000000 0.037611 0.000000 0.000000
# 5 0.000000 0.000000 0.000000 0.000000 0.099694 0.000000
# 6 0.000000 0.000000 0.000000 0.000000 0.000000 0.055260
#
#
# Mechanical properties :
#
#
# Convention : Reuss Voigt Hill
#
# Bulk Modulus (GPa) = 31.85886 60.21320 46.03603
# Shear Modulus (GPa) = 16.03122 21.00960 18.52041
#
# Velocity S-wave (km/s) = 3.07952 3.52540 3.30998
# Velocity P-wave (km/s) = 5.61169 7.22434 6.46847
#
# Compressibility (1/GPa) = 0.03138845
#
# Stress axis : x y z
#
# Youngs Moduli (GPa) = 90.69078 26.76594 46.00113
#
# Poissons Ratio (x) = 0.12767 0.40308
# Poissons Ratio (y) = 0.43258 0.26849
# Poissons Ratio (z) = 0.79467 0.15622
#
# Static dielectric constant tensor:
#      x y z
#    x 1.598750 0.000000 0.000000 
#    y 0.000000 1.583450 0.000000 
#    z 0.000000 0.000000 1.564130 
# 
# From -- ./inp_files/20714.got.cif
#   From: 2010.05.17/outbox.cif.g08.bks.cpg/sg59_11_cif.got.tgz:20714.got - 2010.06.03 14:40:33.
