data_PCOD9446775
_publ_section_title
;
Structure prediction by ZEFSAII (Michael W. Deem and Ramdas Pophale) SiO2 
 PCOD9446775
Probable space group: P M M N
;
_chemical_formula_sum "Si O2"
_cell_formula_units_Z 64
_cell_length_a 22.223015
_cell_length_b 19.204317
_cell_length_c 9.311348
_cell_angle_alpha 90.000000
_cell_angle_beta 90.000000
_cell_angle_gamma 90.000000
_cell_volume 3973.876845
_symmetry_space_group_name_H-M "P M M N"
_symmetry_group_IT_number 59
_space_group.IT_coordinate_system_code '2'
_symmetry_cell_setting 'orthorhombic'
loop_
_space_group_symop_operation_xyz
x,y,z
1/2-x,1/2-y,z
1/2+x,-y,-z
-x,1/2+y,-z
-x,-y,-z
1/2+x,1/2+y,-z
1/2-x,y,z
x,1/2-y,z
loop_
_atom_site_type_symbol
_atom_site_label
_atom_site_fract_x
_atom_site_fract_y
_atom_site_fract_z
Si Si1 0.880369 0.169205 0.079670
Si Si2 0.180930 0.953485 0.066457
Si Si3 0.987906 0.385457 0.584375
Si Si4 0.181431 0.952722 0.406522
Si Si5 0.939563 0.543001 0.949717
Si Si6 0.005233 0.168349 0.906034
Si Si7 0.378960 0.828878 0.580748
Si Si8 0.927380 0.538805 0.613514
O O1 0.864756 0.250000 0.056587
O O2 0.886595 0.157574 0.249975
O O3 0.830712 0.117316 0.019097
O O4 0.943045 0.156295 0.994929
O O5 0.250000 0.979058 0.044363
O O6 0.174344 0.936712 0.236354
O O7 0.123962 0.002907 0.024528
O O8 0.996094 0.353962 0.741197
O O9 0.943563 0.336996 0.494208
O O10 0.957526 0.462055 0.597002
O O11 0.046442 0.403598 0.492191
O O12 0.250000 0.967595 0.437303
O O13 0.160515 0.887747 0.502848
O O14 0.140815 0.020866 0.425807
O O15 0.940087 0.556312 0.778894
O O16 0.000000 0.500000 0.000000
O O17 0.945456 0.616353 0.029517
O O18 0.019468 0.250000 0.916839
O O19 0.355885 0.750000 0.561500
#
# Coordination Sequence:
#
# PCOD9446775 Si02
#       8
#     8   8   8   8   8   8   8   8
#     4  10  20  33  49  73 107 144 179 214 257 313
#     4  10  21  35  53  77 104 137 177 219 264 316
#     4  10  18  30  48  73 102 129 168 215 263 307
#     4   9  19  35  51  70  98 131 171 213 256 310
#     4  11  18  33  57  79 102 136 175 223 264 314
#     4  11  21  33  52  78 107 140 175 218 272 321
#     4  10  20  31  46  69 100 137 174 211 250 299
#     4   9  18  30  50  77  98 130 167 215 265 303
#
# _framework density 16.105180000000001
#
# number of rings (size 3 to 8) (size 9 to 14) (size 15 to 20)
#    0.000    2.000    2.500    2.625    0.000    3.500 
#    0.000    3.125    0.000    0.375    0.000    0.000 
#    0.000    3.500    0.000    0.000    0.000    0.000 
#
# Total GULP energy -356554.049520 kJ/mol
# GULP energy per Si atom -5571.157024 kJ/mol
# Density = 1.606852 g / cm^3
# Si number density = 16.105180 Si / 1000 Ang^3
#
#
#
# Elastic Constant Matrix: (Units=GPa)
#
#
# Indices 1 2 3 4 5 6 
#
# 1 113.2067 43.6275 53.1293 0.0000 0.0000 0.0000
# 2 43.6275 59.2486 28.2594 0.0000 0.0000 0.0000
# 3 53.1293 28.2594 62.9450 0.0000 0.0000 0.0000
# 4 0.0000 0.0000 0.0000 26.9738 0.0000 0.0000
# 5 0.0000 0.0000 0.0000 0.0000 20.7053 0.0000
# 6 0.0000 0.0000 0.0000 0.0000 0.0000 16.0410
#
#
#
# Elastic Compliance Matrix: (Units=1/GPa)
#
#
# Indices 1 2 3 4 5 6 
#
# 1 0.016677 -0.007083 -0.010896 0.000000 0.000000 0.000000
# 2 -0.007083 0.024485 -0.005014 0.000000 0.000000 0.000000
# 3 -0.010896 -0.005014 0.027335 0.000000 0.000000 0.000000
# 4 0.000000 0.000000 0.000000 0.037073 0.000000 0.000000
# 5 0.000000 0.000000 0.000000 0.000000 0.048297 0.000000
# 6 0.000000 0.000000 0.000000 0.000000 0.000000 0.062340
#
#
# Mechanical properties :
#
#
# Convention : Reuss Voigt Hill
#
# Bulk Modulus (GPa) = 44.42445 53.93694 49.18070
# Shear Modulus (GPa) = 18.53932 20.10298 19.32115
#
# Velocity S-wave (km/s) = 3.39653 3.53686 3.46740
# Velocity P-wave (km/s) = 6.55940 7.08818 6.82891
#
# Compressibility (1/GPa) = 0.02251012
#
# Stress axis : x y z
#
# Youngs Moduli (GPa) = 59.96397 40.84129 36.58278
#
# Poissons Ratio (x) = 0.28927 0.39862
# Poissons Ratio (y) = 0.42471 0.18344
# Poissons Ratio (z) = 0.65339 0.20480
#
# Static dielectric constant tensor:
#      x y z
#    x 1.578380 0.000000 0.000000 
#    y 0.000000 1.536570 0.000000 
#    z 0.000000 0.000000 1.547790 
# 
# From -- ./inp_files/11739.got.cif
#   From: 2010.05.17/outbox.cif.g08.bks.cpg/sg59_6_cif.got.tgz:11739.got - 2010.06.03 14:40:33.
