data_PCOD9446649
_publ_section_title
;
Structure prediction by ZEFSAII (Michael W. Deem and Ramdas Pophale) SiO2 
 PCOD9446649
Probable space group: P M M N
;
_chemical_formula_sum "Si O2"
_cell_formula_units_Z 40
_cell_length_a 15.496276
_cell_length_b 7.418627
_cell_length_c 15.644976
_cell_angle_alpha 90.000000
_cell_angle_beta 90.000000
_cell_angle_gamma 90.000000
_cell_volume 1798.563518
_symmetry_space_group_name_H-M "P M M N"
_symmetry_group_IT_number 59
_space_group.IT_coordinate_system_code '2'
_symmetry_cell_setting 'orthorhombic'
loop_
_space_group_symop_operation_xyz
x,y,z
1/2-x,1/2-y,z
1/2+x,-y,-z
-x,1/2+y,-z
-x,-y,-z
1/2+x,1/2+y,-z
1/2-x,y,z
x,1/2-y,z
loop_
_atom_site_type_symbol
_atom_site_label
_atom_site_fract_x
_atom_site_fract_y
_atom_site_fract_z
Si Si1 0.250000 0.469337 0.474805
Si Si2 0.105995 0.459762 0.346916
Si Si3 0.564773 0.471665 0.262402
Si Si4 0.427598 0.535174 0.929845
Si Si5 0.750000 0.033507 0.790288
Si Si6 0.250000 0.529110 0.012599
Si Si7 0.250000 0.540135 0.674357
O O1 0.250000 0.250000 0.470875
O O2 0.165430 0.534558 0.423037
O O3 0.250000 0.525605 0.572329
O O4 0.092926 0.250000 0.367679
O O5 0.166353 0.471207 0.262650
O O6 0.012552 0.535456 0.323556
O O7 0.563036 0.250000 0.265159
O O8 0.548978 0.529746 0.164763
O O9 0.659727 0.533226 0.290444
O O10 0.418718 0.750000 0.922059
O O11 0.335828 0.467723 0.964213
O O12 0.500000 0.500000 0.000000
O O13 0.750000 0.250000 0.789137
O O14 0.750000 0.972891 0.888261
O O15 0.250000 0.750000 0.013015
O O16 0.250000 0.750000 0.700065
#
# Coordination Sequence:
#
# PCOD9446649 Si02
#       7
#     4   8   8   8   4   4   4
#     4   9  19  34  50  71 100 130 159 200 257 307
#     4   9  18  34  53  72  99 132 164 200 249 302
#     4   9  18  33  54  76  98 131 170 206 243 289
#     4  10  19  33  52  74 101 133 170 206 244 290
#     4  10  18  29  47  74 103 130 165 206 248 290
#     4   9  18  30  46  70 103 136 160 199 257 299
#     4  10  20  35  55  77 100 128 170 211 240 288
#
# _framework density 22.239972000000002
#
# number of rings (size 3 to 8) (size 9 to 14) (size 15 to 20)
#    0.000    2.600    0.000    2.700    0.000    4.800 
#    0.000    3.500    0.000    0.000    0.000    0.000 
#    0.000    0.000    0.000    0.000    0.000    0.000 
#
# Total GULP energy -223441.351741 kJ/mol
# GULP energy per Si atom -5586.033794 kJ/mol
# Density = 2.218935 g / cm^3
# Si number density = 22.239972 Si / 1000 Ang^3
#
#
#
# Elastic Constant Matrix: (Units=GPa)
#
#
# Indices 1 2 3 4 5 6 
#
# 1 187.5650 -3.1873 53.3195 0.0000 0.0000 0.0000
# 2 -3.1873 68.9023 -8.2481 0.0000 0.0000 0.0000
# 3 53.3195 -8.2481 101.2662 0.0000 0.0000 0.0000
# 4 0.0000 0.0000 0.0000 18.1141 0.0000 0.0000
# 5 0.0000 0.0000 0.0000 0.0000 -87.0168 0.0000
# 6 0.0000 0.0000 0.0000 0.0000 0.0000 -1.0665
#
#
#
# Elastic Compliance Matrix: (Units=1/GPa)
#
#
# Indices 1 2 3 4 5 6 
#
# 1 0.006271 -0.000106 -0.003310 0.000000 0.000000 0.000000
# 2 -0.000106 0.014658 0.001250 0.000000 0.000000 0.000000
# 3 -0.003310 0.001250 0.011720 0.000000 0.000000 0.000000
# 4 0.000000 0.000000 0.000000 0.055206 0.000000 0.000000
# 5 0.000000 0.000000 0.000000 0.000000 -0.011492 0.000000
# 6 0.000000 0.000000 0.000000 0.000000 0.000000 -0.937653
#
#
# Mechanical properties :
#
#
# Convention : Reuss Voigt Hill
#
# Bulk Modulus (GPa) = 35.31703 49.05576 42.18639
# Shear Modulus (GPa) = -5.89957 7.06279 0.58161
#
# Velocity S-wave (km/s) = -1.63047 1.78399 0.51194
# Velocity P-wave (km/s) = 3.51708 5.13311 4.39993
#
# Compressibility (1/GPa) = 0.02831495
#
# Stress axis : x y z
#
# Youngs Moduli (GPa) = 159.47114 68.22216 85.32595
#
# Poissons Ratio (x) = 0.00725 0.28246
# Poissons Ratio (y) = 0.01694 -0.10664
# Poissons Ratio (z) = 0.52791 -0.08526
#
# Static dielectric constant tensor:
#      x y z
#    x 1.793960 0.000000 0.000000 
#    y 0.000000 1.837620 0.000000 
#    z 0.000000 0.000000 1.776660 
# 
# From -- ./inp_files/20055.got.cif
#   From: 2010.05.17/outbox.cif.g08.bks.cpg/sg59_11_cif.got.tgz:20055.got - 2010.06.03 14:40:33.
