data_PCOD9446620
_publ_section_title
;
Structure prediction by ZEFSAII (Michael W. Deem and Ramdas Pophale) SiO2 
 PCOD9446620
Probable space group: P M M N
;
_chemical_formula_sum "Si O2"
_cell_formula_units_Z 48
_cell_length_a 23.480060
_cell_length_b 13.354551
_cell_length_c 10.438606
_cell_angle_alpha 90.000000
_cell_angle_beta 90.000000
_cell_angle_gamma 90.000000
_cell_volume 3273.188367
_symmetry_space_group_name_H-M "P M M N"
_symmetry_group_IT_number 59
_space_group.IT_coordinate_system_code '2'
_symmetry_cell_setting 'orthorhombic'
loop_
_space_group_symop_operation_xyz
x,y,z
1/2-x,1/2-y,z
1/2+x,-y,-z
-x,1/2+y,-z
-x,-y,-z
1/2+x,1/2+y,-z
1/2-x,y,z
x,1/2-y,z
loop_
_atom_site_type_symbol
_atom_site_label
_atom_site_fract_x
_atom_site_fract_y
_atom_site_fract_z
Si Si1 0.007224 0.365904 0.624955
Si Si2 0.814976 0.630410 0.023210
Si Si3 0.815470 0.869647 0.718318
Si Si4 0.931645 0.557021 0.629049
Si Si5 0.570080 0.559632 0.123164
Si Si6 0.501592 0.634819 0.876513
O O1 0.990544 0.250000 0.625089
O O2 0.043157 0.392074 0.498008
O O3 0.046038 0.390518 0.748189
O O4 0.954159 0.442818 0.629387
O O5 0.750000 0.604928 0.057793
O O6 0.822341 0.750000 0.040719
O O7 0.821973 0.611189 0.870891
O O8 0.863185 0.574398 0.102368
O O9 0.750000 0.893301 0.683627
O O10 0.823681 0.750000 0.699728
O O11 0.864298 0.928260 0.643187
O O12 0.960194 0.610157 0.752371
O O13 0.549867 0.444427 0.123398
O O14 0.539040 0.612023 0.002372
O O15 0.483978 0.750000 0.875054
#
# Coordination Sequence:
#
# PCOD9446620 Si02
#       6
#     8   8   8   8   8   8
#     4  10  20  31  45  68  97 122 145 184 233 271
#     4   9  16  27  45  66  89 118 149 184 226 270
#     4   9  16  27  46  68  88 115 152 190 221 257
#     4  10  19  31  48  68  91 123 154 183 223 268
#     4  10  19  29  44  68  92 116 146 184 228 266
#     4  10  18  29  47  66  87 118 153 185 217 263
#
# _framework density 14.664600999999999
#
# number of rings (size 3 to 8) (size 9 to 14) (size 15 to 20)
#    0.000    2.333    1.667    4.000    0.000    0.000 
#    0.000    0.833    0.000    4.000    0.000    2.333 
#    0.000    8.000    0.000    0.000    0.000    0.000 
#
# Total GULP energy -267607.587727 kJ/mol
# GULP energy per Si atom -5575.158078 kJ/mol
# Density = 1.463122 g / cm^3
# Si number density = 14.664601 Si / 1000 Ang^3
#
#
#
# Elastic Constant Matrix: (Units=GPa)
#
#
# Indices 1 2 3 4 5 6 
#
# 1 130.4711 52.7365 39.5836 0.0000 0.0000 0.0000
# 2 52.7365 108.6395 34.0066 0.0000 0.0000 0.0000
# 3 39.5836 34.0066 92.1744 0.0000 0.0000 0.0000
# 4 0.0000 0.0000 0.0000 1.5907 0.0000 0.0000
# 5 0.0000 0.0000 0.0000 0.0000 17.3975 0.0000
# 6 0.0000 0.0000 0.0000 0.0000 0.0000 14.6804
#
#
#
# Elastic Compliance Matrix: (Units=1/GPa)
#
#
# Indices 1 2 3 4 5 6 
#
# 1 0.010169 -0.004035 -0.002878 0.000000 0.000000 0.000000
# 2 -0.004035 0.012008 -0.002697 0.000000 0.000000 0.000000
# 3 -0.002878 -0.002697 0.013080 0.000000 0.000000 0.000000
# 4 0.000000 0.000000 0.000000 0.628673 0.000000 0.000000
# 5 0.000000 0.000000 0.000000 0.000000 0.057479 0.000000
# 6 0.000000 0.000000 0.000000 0.000000 0.000000 0.068118
#
#
# Mechanical properties :
#
#
# Convention : Reuss Voigt Hill
#
# Bulk Modulus (GPa) = 62.36178 64.88204 63.62191
# Shear Modulus (GPa) = 6.14180 20.39759 13.26969
#
# Velocity S-wave (km/s) = 2.04872 3.73358 3.01138
# Velocity P-wave (km/s) = 6.94364 7.93260 7.45454
#
# Compressibility (1/GPa) = 0.01603546
#
# Stress axis : x y z
#
# Youngs Moduli (GPa) = 98.34003 83.27860 76.45191
#
# Poissons Ratio (x) = 0.33605 0.22004
# Poissons Ratio (y) = 0.39683 0.20621
# Poissons Ratio (z) = 0.28304 0.22462
#
# Static dielectric constant tensor:
#      x y z
#    x 1.478980 0.000000 0.000000 
#    y 0.000000 1.475340 0.000000 
#    z 0.000000 0.000000 1.484330 
# 
# From -- ./inp_files/17273.got.cif
#   From: 2010.05.17/outbox.cif.g08.bks.cpg/sg59_9_cif.got.tgz:17273.got - 2010.06.03 14:40:33.
