data_PCOD9446252
_publ_section_title
;
Structure prediction by ZEFSAII (Michael W. Deem and Ramdas Pophale) SiO2 
 PCOD9446252
Probable space group: P M M N
;
_chemical_formula_sum "Si O2"
_cell_formula_units_Z 44
_cell_length_a 14.342345
_cell_length_b 11.110304
_cell_length_c 14.818646
_cell_angle_alpha 90.000000
_cell_angle_beta 90.000000
_cell_angle_gamma 90.000000
_cell_volume 2361.318832
_symmetry_space_group_name_H-M "P M M N"
_symmetry_group_IT_number 59
_space_group.IT_coordinate_system_code '2'
_symmetry_cell_setting 'orthorhombic'
loop_
_space_group_symop_operation_xyz
x,y,z
1/2-x,1/2-y,z
1/2+x,-y,-z
-x,1/2+y,-z
-x,-y,-z
1/2+x,1/2+y,-z
1/2-x,y,z
x,1/2-y,z
loop_
_atom_site_type_symbol
_atom_site_label
_atom_site_fract_x
_atom_site_fract_y
_atom_site_fract_z
Si Si1 0.995567 0.250000 0.871848
Si Si2 0.357213 0.250000 0.708989
Si Si3 0.639153 0.750000 0.956825
Si Si4 0.141619 0.010013 0.588801
Si Si5 0.482010 0.610239 0.730997
Si Si6 0.542947 0.990848 0.900919
Si Si7 0.360064 0.393170 0.397591
O O1 0.062137 0.250000 0.783767
O O2 0.933029 0.370813 0.877477
O O3 0.070585 0.250000 0.955441
O O4 0.250000 0.250000 0.746072
O O5 0.366079 0.365882 0.644786
O O6 0.750000 0.750000 0.976714
O O7 0.612433 0.624765 0.904603
O O8 0.250000 0.977349 0.583849
O O9 0.109697 0.034881 0.486756
O O10 0.087095 0.915504 0.649083
O O11 0.482555 0.750000 0.751733
O O12 0.466646 0.541641 0.824198
O O13 0.581741 0.571503 0.689993
O O14 0.500000 0.000000 0.000000
O O15 0.250000 0.409163 0.385355
O O16 0.376329 0.250000 0.413101
#
# Coordination Sequence:
#
# PCOD9446252 Si02
#       7
#     4   4   4   8   8   8   8
#     4  10  19  36  59  82 112 143 190 239 294 334
#     4  10  17  28  53  81 104 134 180 228 276 332
#     4  10  21  38  59  83 112 147 192 237 289 356
#     4  10  19  33  53  79 110 143 182 232 284 339
#     4  11  21  34  53  81 114 150 193 229 291 352
#     4  10  21  37  57  84 113 149 186 240 291 344
#     4   9  18  33  54  80 109 142 187 237 280 335
#
# _framework density 18.633654
#
# number of rings (size 3 to 8) (size 9 to 14) (size 15 to 20)
#    0.000    2.000    3.636    0.818    0.000    1.091 
#    0.000    0.455    0.000    0.000    0.000    0.000 
#    0.000    0.000    0.000    0.000    0.000    0.000 
#
# Total GULP energy -244986.588148 kJ/mol
# GULP energy per Si atom -5567.877003 kJ/mol
# Density = 1.859124 g / cm^3
# Si number density = 18.633654 Si / 1000 Ang^3
#
#
#
# Elastic Constant Matrix: (Units=GPa)
#
#
# Indices 1 2 3 4 5 6 
#
# 1 39.6382 18.7657 7.5872 0.0000 0.0000 0.0000
# 2 18.7657 99.6171 18.7258 0.0000 0.0000 0.0000
# 3 7.5872 18.7258 89.7121 0.0000 0.0000 0.0000
# 4 0.0000 0.0000 0.0000 22.2960 0.0000 0.0000
# 5 0.0000 0.0000 0.0000 0.0000 18.4194 0.0000
# 6 0.0000 0.0000 0.0000 0.0000 0.0000 19.3980
#
#
#
# Elastic Compliance Matrix: (Units=1/GPa)
#
#
# Indices 1 2 3 4 5 6 
#
# 1 0.027846 -0.004999 -0.001312 0.000000 0.000000 0.000000
# 2 -0.004999 0.011346 -0.001945 0.000000 0.000000 0.000000
# 3 -0.001312 -0.001945 0.011664 0.000000 0.000000 0.000000
# 4 0.000000 0.000000 0.000000 0.044851 0.000000 0.000000
# 5 0.000000 0.000000 0.000000 0.000000 0.054291 0.000000
# 6 0.000000 0.000000 0.000000 0.000000 0.000000 0.051552
#
#
# Mechanical properties :
#
#
# Convention : Reuss Voigt Hill
#
# Bulk Modulus (GPa) = 29.11763 35.45830 32.28796
# Shear Modulus (GPa) = 21.78566 24.28193 23.03380
#
# Velocity S-wave (km/s) = 3.42300 3.61380 3.51969
# Velocity P-wave (km/s) = 5.59311 6.04013 5.82091
#
# Compressibility (1/GPa) = 0.03434346
#
# Stress axis : x y z
#
# Youngs Moduli (GPa) = 35.91197 88.13798 85.73564
#
# Poissons Ratio (x) = 0.44060 0.11245
# Poissons Ratio (y) = 0.17952 0.16680
# Poissons Ratio (z) = 0.04710 0.17147
#
# Static dielectric constant tensor:
#      x y z
#    x 1.663640 0.000000 0.000000 
#    y 0.000000 1.670470 0.000000 
#    z 0.000000 0.000000 1.657380 
# 
# From -- ./inp_files/23139.got.cif
#   From: 2010.05.17/outbox.cif.g08.bks.cpg/sg59_12_cif.got.tgz:23139.got - 2010.06.03 14:40:33.
