data_PCOD9446993
_publ_section_title
;
Structure prediction by ZEFSAII (Michael W. Deem and Ramdas Pophale) SiO2 
 PCOD9446993
Probable space group: P M M N
;
_chemical_formula_sum "Si O2"
_cell_formula_units_Z 64
_cell_length_a 17.045373
_cell_length_b 21.596704
_cell_length_c 9.867206
_cell_angle_alpha 90.000000
_cell_angle_beta 90.000000
_cell_angle_gamma 90.000000
_cell_volume 3632.354111
_symmetry_space_group_name_H-M "P M M N"
_symmetry_group_IT_number 59
_space_group.IT_coordinate_system_code '2'
_symmetry_cell_setting 'orthorhombic'
loop_
_space_group_symop_operation_xyz
x,y,z
1/2-x,1/2-y,z
1/2+x,-y,-z
-x,1/2+y,-z
-x,-y,-z
1/2+x,1/2+y,-z
1/2-x,y,z
x,1/2-y,z
loop_
_atom_site_type_symbol
_atom_site_label
_atom_site_fract_x
_atom_site_fract_y
_atom_site_fract_z
Si Si1 0.447155 0.089057 0.126534
Si Si2 0.381978 0.564010 0.444153
Si Si3 0.336398 0.860882 0.198112
Si Si4 0.657233 0.579818 0.620784
Si Si5 0.834806 0.014694 0.976028
Si Si6 0.893461 0.461632 0.256288
Si Si7 0.493363 0.321075 0.880705
Si Si8 0.940749 0.905801 0.363372
O O1 0.384364 0.104860 0.243711
O O2 0.524750 0.067522 0.206190
O O3 0.470160 0.139773 0.014338
O O4 0.406603 0.031326 0.049314
O O5 0.343931 0.617760 0.354209
O O6 0.358913 0.494962 0.392053
O O7 0.364555 0.567570 0.603411
O O8 0.475189 0.572875 0.423160
O O9 0.250000 0.833824 0.172553
O O10 0.412832 0.824746 0.148095
O O11 0.341886 0.926683 0.121074
O O12 0.750000 0.589163 0.621303
O O13 0.615801 0.609057 0.488737
O O14 0.750000 0.984174 0.949881
O O15 0.837884 0.040345 0.127639
O O16 0.906888 0.533612 0.290379
O O17 0.469679 0.250000 0.894519
O O18 0.454678 0.353626 0.749119
#
# Coordination Sequence:
#
# PCOD9446993 Si02
#       8
#     8   8   8   8   8   8   8   8
#     4  12  19  36  55  80 117 146 191 231 271 330
#     4  10  18  31  52  85 119 145 168 207 274 362
#     4  10  20  35  58  88 118 142 174 227 287 343
#     4  11  20  32  57  88 116 144 177 225 288 345
#     4  11  21  31  50  85 120 147 170 215 286 346
#     4  11  18  31  56  83 112 150 173 219 284 347
#     4  11  24  40  60  78 103 154 206 239 269 319
#     4  10  19  36  54  80 116 143 184 225 284 339
#
# _framework density 17.619427999999999
#
# number of rings (size 3 to 8) (size 9 to 14) (size 15 to 20)
#    0.000    1.250    6.250    2.625    0.000    2.750 
#    0.000    0.625    0.000    4.125    0.000    0.000 
#    0.000    0.000    0.000    0.000    0.000    0.000 
#
# Total GULP energy -357101.806077 kJ/mol
# GULP energy per Si atom -5579.715720 kJ/mol
# Density = 1.757933 g / cm^3
# Si number density = 17.619428 Si / 1000 Ang^3
#
#
#
# Elastic Constant Matrix: (Units=GPa)
#
#
# Indices 1 2 3 4 5 6 
#
# 1 101.5360 19.7912 38.0517 0.0000 0.0000 0.0000
# 2 19.7912 51.7351 34.4347 0.0000 0.0000 0.0000
# 3 38.0517 34.4347 136.8154 0.0000 0.0000 0.0000
# 4 0.0000 0.0000 0.0000 2.5491 0.0000 0.0000
# 5 0.0000 0.0000 0.0000 0.0000 17.3904 0.0000
# 6 0.0000 0.0000 0.0000 0.0000 0.0000 5.1994
#
#
#
# Elastic Compliance Matrix: (Units=1/GPa)
#
#
# Indices 1 2 3 4 5 6 
#
# 1 0.011296 -0.002679 -0.002467 0.000000 0.000000 0.000000
# 2 -0.002679 0.023854 -0.005259 0.000000 0.000000 0.000000
# 3 -0.002467 -0.005259 0.009319 0.000000 0.000000 0.000000
# 4 0.000000 0.000000 0.000000 0.392288 0.000000 0.000000
# 5 0.000000 0.000000 0.000000 0.000000 0.057503 0.000000
# 6 0.000000 0.000000 0.000000 0.000000 0.000000 0.192330
#
#
# Mechanical properties :
#
#
# Convention : Reuss Voigt Hill
#
# Bulk Modulus (GPa) = 42.26757 52.73798 47.50277
# Shear Modulus (GPa) = 6.99021 18.21504 12.60263
#
# Velocity S-wave (km/s) = 1.99398 3.21877 2.67735
# Velocity P-wave (km/s) = 5.41687 6.61896 6.04786
#
# Compressibility (1/GPa) = 0.02365880
#
# Stress axis : x y z
#
# Youngs Moduli (GPa) = 88.53047 41.92125 107.30868
#
# Poissons Ratio (x) = 0.11230 0.26477
# Poissons Ratio (y) = 0.23716 0.56431
# Poissons Ratio (z) = 0.21843 0.22045
#
# Static dielectric constant tensor:
#      x y z
#    x 1.629230 0.000000 0.000000 
#    y 0.000000 1.560750 0.000000 
#    z 0.000000 0.000000 1.635120 
# 
# From -- ./inp_files/10787.got.cif
#   From: 2010.05.17/outbox.cif.g08.bks.cpg/sg59_6_cif.got.tgz:10787.got - 2010.06.03 14:40:33.
