data_PCOD9446974
_publ_section_title
;
Structure prediction by ZEFSAII (Michael W. Deem and Ramdas Pophale) SiO2 
 PCOD9446974
Probable space group: P M M N
;
_chemical_formula_sum "Si O2"
_cell_formula_units_Z 56
_cell_length_a 18.764695
_cell_length_b 8.007195
_cell_length_c 19.802185
_cell_angle_alpha 90.000000
_cell_angle_beta 90.000000
_cell_angle_gamma 90.000000
_cell_volume 2975.329227
_symmetry_space_group_name_H-M "P M M N"
_symmetry_group_IT_number 59
_space_group.IT_coordinate_system_code '2'
_symmetry_cell_setting 'orthorhombic'
loop_
_space_group_symop_operation_xyz
x,y,z
1/2-x,1/2-y,z
1/2+x,-y,-z
-x,1/2+y,-z
-x,-y,-z
1/2+x,1/2+y,-z
1/2-x,y,z
x,1/2-y,z
loop_
_atom_site_type_symbol
_atom_site_label
_atom_site_fract_x
_atom_site_fract_y
_atom_site_fract_z
Si Si1 0.413249 0.048981 0.067525
Si Si2 0.537803 0.449099 0.712732
Si Si3 0.171737 0.447858 0.636797
Si Si4 0.026696 0.450827 0.573315
Si Si5 0.422928 0.951256 0.920216
Si Si6 0.608011 0.445103 0.224338
Si Si7 0.169160 0.452226 0.200140
O O1 0.415242 0.250000 0.070030
O O2 0.494648 0.987607 0.078536
O O3 0.363165 0.990543 0.128213
O O4 0.390487 0.998694 0.992259
O O5 0.525899 0.250000 0.717249
O O6 0.524774 0.501914 0.635198
O O7 0.475582 0.535177 0.756548
O O8 0.614368 0.491498 0.742467
O O9 0.250000 0.519976 0.623486
O O10 0.174828 0.250000 0.623370
O O11 0.105464 0.516269 0.593403
O O12 0.150965 0.469240 0.715413
O O13 0.029812 0.250000 0.575021
O O14 0.000000 0.500000 0.500000
O O15 0.425229 0.750000 0.915827
O O16 0.384783 0.011179 0.851954
O O17 0.627007 0.250000 0.225756
O O18 0.250000 0.510142 0.209660
O O19 0.169491 0.250000 0.199513
#
# Coordination Sequence:
#
# PCOD9446974 Si02
#       7
#     8   8   8   8   8   8   8
#     4   9  17  30  46  68  97 129 170 216 262 310
#     4  10  20  34  53  77 105 134 171 212 255 306
#     4   9  19  36  55  78 109 140 172 212 260 312
#     4   9  19  35  56  82 107 136 170 209 253 300
#     4   9  17  29  46  70  97 128 167 215 263 306
#     4  10  18  31  52  77 105 134 172 216 258 307
#     4  10  20  35  53  73 101 137 177 222 270 315
#
# _framework density 18.821446999999999
#
# number of rings (size 3 to 8) (size 9 to 14) (size 15 to 20)
#    0.000    2.571    1.429    1.714    0.000    5.143 
#    0.000    1.429    0.000    5.143    0.000    0.000 
#    0.000    0.000    0.000    0.000    0.000    0.000 
#
# Total GULP energy -312243.355635 kJ/mol
# GULP energy per Si atom -5575.774208 kJ/mol
# Density = 1.877861 g / cm^3
# Si number density = 18.821447 Si / 1000 Ang^3
#
#
#
# Elastic Constant Matrix: (Units=GPa)
#
#
# Indices 1 2 3 4 5 6 
#
# 1 115.5322 4.0105 72.3225 0.0000 0.0000 0.0000
# 2 4.0105 12.3180 1.9812 0.0000 0.0000 0.0000
# 3 72.3225 1.9812 161.3274 0.0000 0.0000 0.0000
# 4 0.0000 0.0000 0.0000 28.0593 0.0000 0.0000
# 5 0.0000 0.0000 0.0000 0.0000 16.7684 0.0000
# 6 0.0000 0.0000 0.0000 0.0000 0.0000 17.0182
#
#
#
# Elastic Compliance Matrix: (Units=1/GPa)
#
#
# Indices 1 2 3 4 5 6 
#
# 1 0.012148 -0.003085 -0.005408 0.000000 0.000000 0.000000
# 2 -0.003085 0.082126 0.000375 0.000000 0.000000 0.000000
# 3 -0.005408 0.000375 0.008618 0.000000 0.000000 0.000000
# 4 0.000000 0.000000 0.000000 0.035639 0.000000 0.000000
# 5 0.000000 0.000000 0.000000 0.000000 0.059636 0.000000
# 6 0.000000 0.000000 0.000000 0.000000 0.000000 0.058761
#
#
# Mechanical properties :
#
#
# Convention : Reuss Voigt Hill
#
# Bulk Modulus (GPa) = 11.53997 49.53398 30.53698
# Shear Modulus (GPa) = 16.55349 26.42674 21.49012
#
# Velocity S-wave (km/s) = 2.96886 3.75117 3.38270
# Velocity P-wave (km/s) = 4.23045 6.71838 5.61397
#
# Compressibility (1/GPa) = 0.08665533
#
# Stress axis : x y z
#
# Youngs Moduli (GPa) = 82.31735 12.17634 116.03102
#
# Poissons Ratio (x) = 0.03757 0.62750
# Poissons Ratio (y) = 0.25398 -0.04346
# Poissons Ratio (z) = 0.44518 -0.00456
#
# Static dielectric constant tensor:
#      x y z
#    x 1.656920 0.000000 0.000000 
#    y 0.000000 1.681020 0.000000 
#    z 0.000000 0.000000 1.654190 
# 
# From -- ./inp_files/30559.got.cif
#   From: 2010.05.17/outbox.cif.g08.bks.cpg/sg59_16_cif.got.tgz:30559.got - 2010.06.03 14:40:33.
