data_PCOD9446670
_publ_section_title
;
Structure prediction by ZEFSAII (Michael W. Deem and Ramdas Pophale) SiO2 
 PCOD9446670
Probable space group: P M M N
;
_chemical_formula_sum "Si O2"
_cell_formula_units_Z 64
_cell_length_a 24.086036
_cell_length_b 8.827713
_cell_length_c 15.997473
_cell_angle_alpha 90.000000
_cell_angle_beta 90.000000
_cell_angle_gamma 90.000000
_cell_volume 3401.456507
_symmetry_space_group_name_H-M "P M M N"
_symmetry_group_IT_number 59
_space_group.IT_coordinate_system_code '2'
_symmetry_cell_setting 'orthorhombic'
loop_
_space_group_symop_operation_xyz
x,y,z
1/2-x,1/2-y,z
1/2+x,-y,-z
-x,1/2+y,-z
-x,-y,-z
1/2+x,1/2+y,-z
1/2-x,y,z
x,1/2-y,z
loop_
_atom_site_type_symbol
_atom_site_label
_atom_site_fract_x
_atom_site_fract_y
_atom_site_fract_z
Si Si1 0.848860 0.421751 0.396893
Si Si2 0.019520 0.922503 0.583060
Si Si3 0.379437 0.427928 0.265598
Si Si4 0.878859 0.568761 0.223598
Si Si5 0.686189 0.067039 0.580132
Si Si6 0.683400 0.423888 0.881147
Si Si7 0.315210 0.567684 0.932329
Si Si8 0.004641 0.927543 0.247780
O O1 0.827414 0.250000 0.383965
O O2 0.914233 0.413755 0.416652
O O3 0.848853 0.507964 0.308125
O O4 0.822501 0.483579 0.483188
O O5 0.998390 0.750000 0.595268
O O6 0.000000 0.000000 0.500000
O O7 0.000752 0.036589 0.654486
O O8 0.383083 0.250000 0.278608
O O9 0.357512 0.501810 0.352619
O O10 0.336002 0.472153 0.193832
O O11 0.438044 0.488464 0.228690
O O12 0.879663 0.750000 0.228589
O O13 0.847611 0.511205 0.142023
O O14 0.943836 0.517728 0.216796
O O15 0.750000 0.031541 0.605054
O O16 0.679974 0.250000 0.579895
O O17 0.750000 0.420282 0.884313
O O18 0.664573 0.250000 0.865721
O O19 0.664710 0.472536 0.974018
O O20 0.250000 0.529697 0.926032
O O21 0.320024 0.750000 0.925133
O O22 0.010092 0.750000 0.229523
#
# Coordination Sequence:
#
# PCOD9446670 Si02
#       8
#     8   8   8   8   8   8   8   8
#     4   9  19  34  51  73 104 143 183 219 259 315
#     4  10  18  29  48  73 101 136 178 223 269 315
#     4  12  24  36  55  83 112 144 184 232 286 336
#     4  10  21  36  57  85 115 147 182 227 280 326
#     4  10  21  37  56  78 108 149 192 230 273 331
#     4   9  19  38  62  85 110 144 185 225 270 329
#     4   9  19  37  62  88 112 143 182 221 266 327
#     4  10  21  37  54  74 106 147 189 229 272 328
#
# _framework density 18.815469
#
# number of rings (size 3 to 8) (size 9 to 14) (size 15 to 20)
#    0.000    2.125    0.000    4.125    0.000    6.750 
#    0.000    3.125    0.000    0.000    0.000    0.000 
#    0.000    0.000    0.000    0.000    0.000    0.000 
#
# Total GULP energy -356730.267467 kJ/mol
# GULP energy per Si atom -5573.910429 kJ/mol
# Density = 1.877264 g / cm^3
# Si number density = 18.815469 Si / 1000 Ang^3
#
#
#
# Elastic Constant Matrix: (Units=GPa)
#
#
# Indices 1 2 3 4 5 6 
#
# 1 50.1871 24.6336 33.5895 0.0000 0.0000 0.0000
# 2 24.6336 39.6654 21.2620 0.0000 0.0000 0.0000
# 3 33.5895 21.2620 84.0328 0.0000 0.0000 0.0000
# 4 0.0000 0.0000 0.0000 8.7428 0.0000 0.0000
# 5 0.0000 0.0000 0.0000 0.0000 16.8310 0.0000
# 6 0.0000 0.0000 0.0000 0.0000 0.0000 22.4001
#
#
#
# Elastic Compliance Matrix: (Units=1/GPa)
#
#
# Indices 1 2 3 4 5 6 
#
# 1 0.034284 -0.016134 -0.009622 0.000000 0.000000 0.000000
# 2 -0.016134 0.036759 -0.002852 0.000000 0.000000 0.000000
# 3 -0.009622 -0.002852 0.016468 0.000000 0.000000 0.000000
# 4 0.000000 0.000000 0.000000 0.114379 0.000000 0.000000
# 5 0.000000 0.000000 0.000000 0.000000 0.059414 0.000000
# 6 0.000000 0.000000 0.000000 0.000000 0.000000 0.044643
#
#
# Mechanical properties :
#
#
# Convention : Reuss Voigt Hill
#
# Bulk Modulus (GPa) = 33.00765 36.98393 34.99579
# Shear Modulus (GPa) = 13.39542 15.88814 14.64178
#
# Velocity S-wave (km/s) = 2.67111 2.90904 2.79261
# Velocity P-wave (km/s) = 5.20519 5.56616 5.38870
#
# Compressibility (1/GPa) = 0.03029600
#
# Stress axis : x y z
#
# Youngs Moduli (GPa) = 29.16778 27.20395 60.72493
#
# Poissons Ratio (x) = 0.43891 0.58429
# Poissons Ratio (y) = 0.47060 0.17317
# Poissons Ratio (z) = 0.28065 0.07758
#
# Static dielectric constant tensor:
#      x y z
#    x 1.688750 0.000000 0.000000 
#    y 0.000000 1.651040 0.000000 
#    z 0.000000 0.000000 2.011560 
# 
# From -- ./inp_files/24767.got.cif
#   From: 2010.05.17/outbox.cif.g08.bks.cpg/sg59_13_cif.got.tgz:24767.got - 2010.06.03 14:40:33.
