data_PCOD9446175
_publ_section_title
;
Structure prediction by ZEFSAII (Michael W. Deem and Ramdas Pophale) SiO2 
 PCOD9446175
Probable space group: P M M N
;
_chemical_formula_sum "Si O2"
_cell_formula_units_Z 56
_cell_length_a 22.311159
_cell_length_b 8.632564
_cell_length_c 18.615176
_cell_angle_alpha 90.000000
_cell_angle_beta 90.000000
_cell_angle_gamma 90.000000
_cell_volume 3585.329584
_symmetry_space_group_name_H-M "P M M N"
_symmetry_group_IT_number 59
_space_group.IT_coordinate_system_code '2'
_symmetry_cell_setting 'orthorhombic'
loop_
_space_group_symop_operation_xyz
x,y,z
1/2-x,1/2-y,z
1/2+x,-y,-z
-x,1/2+y,-z
-x,-y,-z
1/2+x,1/2+y,-z
1/2-x,y,z
x,1/2-y,z
loop_
_atom_site_type_symbol
_atom_site_label
_atom_site_fract_x
_atom_site_fract_y
_atom_site_fract_z
Si Si1 0.588083 0.564616 0.456593
Si Si2 0.557195 0.936227 0.908682
Si Si3 0.101665 0.436020 0.783584
Si Si4 0.043681 0.564713 0.398312
Si Si5 0.532266 0.936381 0.754662
Si Si6 0.076132 0.062751 0.938653
Si Si7 0.680852 0.064378 0.343697
O O1 0.590776 0.750000 0.457447
O O2 0.583903 0.501253 0.537393
O O3 0.525075 0.519236 0.418286
O O4 0.642200 0.498346 0.410222
O O5 0.558940 0.750000 0.907466
O O6 0.568413 0.986852 0.826668
O O7 0.489280 0.990758 0.924117
O O8 0.593715 0.985871 0.980143
O O9 0.100018 0.250000 0.776715
O O10 0.035638 0.499981 0.763497
O O11 0.113520 0.477492 0.867384
O O12 0.149472 0.503063 0.728539
O O13 0.046712 0.750000 0.397950
O O14 0.057613 0.499611 0.319843
O O15 0.529855 0.750000 0.752274
O O16 0.070555 0.250000 0.938539
O O17 0.750000 0.015041 0.347618
O O18 0.678335 0.250000 0.343912
#
# Coordination Sequence:
#
# PCOD9446175 Si02
#       7
#     8   8   8   8   8   8   8
#     4  10  20  33  49  67  87 115 149 186 229 272
#     4   8  14  23  35  55  82 114 145 174 209 248
#     4  10  18  28  43  62  84 115 151 187 224 261
#     4  10  19  30  46  67  92 119 148 185 226 273
#     4  10  17  25  41  63  90 120 150 182 218 266
#     4   8  14  24  37  54  80 111 145 178 209 249
#     4  11  23  36  49  65  88 118 151 189 230 271
#
# _framework density 15.619206
#
# number of rings (size 3 to 8) (size 9 to 14) (size 15 to 20)
#    0.000    2.429    1.429    2.143    0.000    3.429 
#    0.000    0.000    0.000    0.000    0.000    0.000 
#    0.000    1.143    0.000   10.571    0.000    3.714 
#
# Total GULP energy -311782.139484 kJ/mol
# GULP energy per Si atom -5567.538205 kJ/mol
# Density = 1.558366 g / cm^3
# Si number density = 15.619206 Si / 1000 Ang^3
#
#
#
# Elastic Constant Matrix: (Units=GPa)
#
#
# Indices 1 2 3 4 5 6 
#
# 1 49.8042 14.9313 48.2482 0.0000 0.0000 0.0000
# 2 14.9313 25.9108 32.2845 0.0000 0.0000 0.0000
# 3 48.2482 32.2845 193.9594 0.0000 0.0000 0.0000
# 4 0.0000 0.0000 0.0000 22.1842 0.0000 0.0000
# 5 0.0000 0.0000 0.0000 0.0000 9.6050 0.0000
# 6 0.0000 0.0000 0.0000 0.0000 0.0000 13.0572
#
#
#
# Elastic Compliance Matrix: (Units=1/GPa)
#
#
# Indices 1 2 3 4 5 6 
#
# 1 0.028182 -0.009469 -0.005434 0.000000 0.000000 0.000000
# 2 -0.009469 0.051874 -0.006279 0.000000 0.000000 0.000000
# 3 -0.005434 -0.006279 0.007553 0.000000 0.000000 0.000000
# 4 0.000000 0.000000 0.000000 0.045077 0.000000 0.000000
# 5 0.000000 0.000000 0.000000 0.000000 0.104112 0.000000
# 6 0.000000 0.000000 0.000000 0.000000 0.000000 0.076586
#
#
# Mechanical properties :
#
#
# Convention : Reuss Voigt Hill
#
# Bulk Modulus (GPa) = 22.10234 51.17805 36.64019
# Shear Modulus (GPa) = 13.48327 20.58331 17.03329
#
# Velocity S-wave (km/s) = 2.94130 3.63412 3.30591
# Velocity P-wave (km/s) = 5.07114 7.10256 6.17101
#
# Compressibility (1/GPa) = 0.04524407
#
# Stress axis : x y z
#
# Youngs Moduli (GPa) = 35.48377 19.27743 132.40404
#
# Poissons Ratio (x) = 0.18254 0.71951
# Poissons Ratio (y) = 0.33600 0.83136
# Poissons Ratio (z) = 0.19283 0.12104
#
# Static dielectric constant tensor:
#      x y z
#    x 1.472840 0.000000 0.000000 
#    y 0.000000 1.524800 0.000000 
#    z 0.000000 0.000000 1.587180 
# 
# From -- ./inp_files/28027.got.cif
#   From: 2010.05.17/outbox.cif.g08.bks.cpg/sg59_15_cif.got.tgz:28027.got - 2010.06.03 14:40:33.
