data_PCOD9446132
_publ_section_title
;
Structure prediction by ZEFSAII (Michael W. Deem and Ramdas Pophale) SiO2 
 PCOD9446132
Probable space group: P M M N
;
_chemical_formula_sum "Si O2"
_cell_formula_units_Z 56
_cell_length_a 7.528952
_cell_length_b 29.649066
_cell_length_c 14.027332
_cell_angle_alpha 90.000000
_cell_angle_beta 90.000000
_cell_angle_gamma 90.000000
_cell_volume 3131.270750
_symmetry_space_group_name_H-M "P M M N"
_symmetry_group_IT_number 59
_space_group.IT_coordinate_system_code '2'
_symmetry_cell_setting 'orthorhombic'
loop_
_space_group_symop_operation_xyz
x,y,z
1/2-x,1/2-y,z
1/2+x,-y,-z
-x,1/2+y,-z
-x,-y,-z
1/2+x,1/2+y,-z
1/2-x,y,z
x,1/2-y,z
loop_
_atom_site_type_symbol
_atom_site_label
_atom_site_fract_x
_atom_site_fract_y
_atom_site_fract_z
Si Si1 0.532578 0.467934 0.795149
Si Si2 0.545548 0.388226 0.913611
Si Si3 0.962618 0.517481 0.605010
Si Si4 0.461965 0.105239 0.295800
Si Si5 0.965191 0.557885 0.898897
Si Si6 0.037926 0.799726 0.763180
Si Si7 0.032838 0.698798 0.981336
O O1 0.750000 0.466919 0.795357
O O2 0.467763 0.419245 0.829890
O O3 0.474170 0.485168 0.691220
O O4 0.482522 0.507013 0.870908
O O5 0.750000 0.378864 0.887624
O O6 0.541688 0.420831 0.005977
O O7 0.467332 0.340894 0.949771
O O8 0.750000 0.518302 0.614143
O O9 0.027996 0.568291 0.628349
O O10 0.000000 0.500000 0.500000
O O11 0.250000 0.101564 0.294491
O O12 0.523011 0.087913 0.191882
O O13 0.500969 0.157895 0.303768
O O14 0.750000 0.559388 0.905840
O O15 0.250000 0.797007 0.770230
O O16 0.972551 0.750000 0.733828
O O17 0.973154 0.808724 0.871694
O O18 0.250000 0.696673 0.980592
O O19 0.984097 0.750000 0.007981
#
# Coordination Sequence:
#
# PCOD9446132 Si02
#       7
#     8   8   8   8   8   8   8
#     4   8  16  28  41  59  82 106 134 169 209 249
#     4  10  16  24  41  59  78 111 145 166 193 239
#     4   9  18  33  48  63  84 108 139 181 223 265
#     4   9  17  28  42  60  85 115 142 172 214 258
#     4   9  16  26  37  54  85 114 133 164 205 237
#     4   9  16  26  40  60  87 115 144 178 207 235
#     4   8  14  23  35  55  83 111 140 173 199 224
#
# _framework density 17.884112999999999
#
# number of rings (size 3 to 8) (size 9 to 14) (size 15 to 20)
#    0.000    3.143    1.429    3.000    0.000    0.857 
#    0.000    2.857    0.000    0.429    0.000    1.000 
#    0.000    3.429    0.000    0.000    0.000    0.000 
#
# Total GULP energy -311946.443063 kJ/mol
# GULP energy per Si atom -5570.472198 kJ/mol
# Density = 1.784341 g / cm^3
# Si number density = 17.884113 Si / 1000 Ang^3
#
#
#
# Elastic Constant Matrix: (Units=GPa)
#
#
# Indices 1 2 3 4 5 6 
#
# 1 43.7871 2.3540 0.0859 0.0000 0.0000 0.0000
# 2 2.3540 172.5032 74.3260 0.0000 0.0000 0.0000
# 3 0.0859 74.3260 71.6422 0.0000 0.0000 0.0000
# 4 0.0000 0.0000 0.0000 20.2465 0.0000 0.0000
# 5 0.0000 0.0000 0.0000 0.0000 -9.4544 0.0000
# 6 0.0000 0.0000 0.0000 0.0000 0.0000 10.7255
#
#
#
# Elastic Compliance Matrix: (Units=1/GPa)
#
#
# Indices 1 2 3 4 5 6 
#
# 1 0.022866 -0.000543 0.000536 0.000000 0.000000 0.000000
# 2 -0.000543 0.010496 -0.010888 0.000000 0.000000 0.000000
# 3 0.000536 -0.010888 0.025254 0.000000 0.000000 0.000000
# 4 0.000000 0.000000 0.000000 0.049391 0.000000 0.000000
# 5 0.000000 0.000000 0.000000 0.000000 -0.105771 0.000000
# 6 0.000000 0.000000 0.000000 0.000000 0.000000 0.093235
#
#
# Mechanical properties :
#
#
# Convention : Reuss Voigt Hill
#
# Bulk Modulus (GPa) = 27.15569 49.05160 38.10365
# Shear Modulus (GPa) = 38.59885 18.38130 28.49008
#
# Velocity S-wave (km/s) = 4.65077 3.20941 3.99562
# Velocity P-wave (km/s) = 6.63752 6.42034 6.52983
#
# Compressibility (1/GPa) = 0.03682469
#
# Stress axis : x y z
#
# Youngs Moduli (GPa) = 43.73321 95.27577 39.59788
#
# Poissons Ratio (x) = 0.05172 -0.02122
# Poissons Ratio (y) = 0.02374 0.43116
# Poissons Ratio (z) = -0.02343 1.03740
#
# Static dielectric constant tensor:
#      x y z
#    x 1.701880 0.000000 0.000000 
#    y 0.000000 1.685500 0.000000 
#    z 0.000000 0.000000 1.590520 
# 
# From -- ./inp_files/18964.got.cif
#   From: 2010.05.17/outbox.cif.g08.bks.cpg/sg59_10_cif.got.tgz:18964.got - 2010.06.03 14:40:33.
