data_PCOD9446819
_publ_section_title
;
Structure prediction by ZEFSAII (Michael W. Deem and Ramdas Pophale) SiO2 
 PCOD9446819
Probable space group: P M M N
;
_chemical_formula_sum "Si O2"
_cell_formula_units_Z 48
_cell_length_a 8.170115
_cell_length_b 10.537191
_cell_length_c 30.112184
_cell_angle_alpha 90.000000
_cell_angle_beta 90.000000
_cell_angle_gamma 90.000000
_cell_volume 2592.359795
_symmetry_space_group_name_H-M "P M M N"
_symmetry_group_IT_number 59
_space_group.IT_coordinate_system_code '2'
_symmetry_cell_setting 'orthorhombic'
loop_
_space_group_symop_operation_xyz
x,y,z
1/2-x,1/2-y,z
1/2+x,-y,-z
-x,1/2+y,-z
-x,-y,-z
1/2+x,1/2+y,-z
1/2-x,y,z
x,1/2-y,z
loop_
_atom_site_type_symbol
_atom_site_label
_atom_site_fract_x
_atom_site_fract_y
_atom_site_fract_z
Si Si1 0.449050 0.897324 0.195679
Si Si2 0.054638 0.606653 0.634832
Si Si3 0.054558 0.106788 0.465616
Si Si4 0.552591 0.104823 0.704458
Si Si5 0.049522 0.997683 0.103164
Si Si6 0.447405 0.750000 0.048811
Si Si7 0.552174 0.750000 0.946812
O O1 0.250000 0.902543 0.196148
O O2 0.491994 0.750000 0.187115
O O3 0.504535 0.929549 0.245502
O O4 0.504676 0.980848 0.154145
O O5 0.250000 0.610155 0.635996
O O6 0.992870 0.750000 0.645452
O O7 0.001407 0.577464 0.584479
O O8 0.997844 0.499230 0.668782
O O9 0.250000 0.110419 0.465996
O O10 0.993472 0.250000 0.476558
O O11 0.000000 0.000000 0.500000
O O12 0.750000 0.108269 0.705424
O O13 0.497363 0.250000 0.694712
O O14 0.250000 0.998217 0.103480
O O15 0.994471 0.124825 0.078914
O O16 0.996999 0.875468 0.074803
O O17 0.250000 0.750000 0.050172
O O18 0.500290 0.750000 0.997895
O O19 0.750000 0.750000 0.945796
#
# Coordination Sequence:
#
# PCOD9446819 Si02
#       7
#     8   8   8   8   8   4   4
#     4   8  13  26  48  72  95 120 157 201 244 294
#     4  10  21  37  55  76 107 146 182 216 259 311
#     4  10  21  37  58  83 111 144 183 224 265 311
#     4   9  18  32  53  80 105 130 167 219 268 310
#     4   9  16  28  46  68  93 121 154 196 242 289
#     4  10  18  30  50  66  84 126 166 186 229 298
#     4  10  20  30  42  68 100 118 146 202 247 278
#
# _framework density 18.515948999999999
#
# number of rings (size 3 to 8) (size 9 to 14) (size 15 to 20)
#    0.000    2.667    0.833    2.500    0.000    3.000 
#    1.500    0.000    0.000    2.000    0.000    0.000 
#    0.000    0.000    0.000    0.000    0.000    0.000 
#
# Total GULP energy -267670.397184 kJ/mol
# GULP energy per Si atom -5576.466608 kJ/mol
# Density = 1.847381 g / cm^3
# Si number density = 18.515949 Si / 1000 Ang^3
#
#
#
# Elastic Constant Matrix: (Units=GPa)
#
#
# Indices 1 2 3 4 5 6 
#
# 1 14.7599 18.7804 17.7077 0.0000 0.0000 0.0000
# 2 18.7804 166.9698 133.5602 0.0000 0.0000 0.0000
# 3 17.7077 133.5602 181.6506 0.0000 0.0000 0.0000
# 4 0.0000 0.0000 0.0000 23.7229 0.0000 0.0000
# 5 0.0000 0.0000 0.0000 0.0000 22.9333 0.0000
# 6 0.0000 0.0000 0.0000 0.0000 0.0000 16.0888
#
#
#
# Elastic Compliance Matrix: (Units=1/GPa)
#
#
# Indices 1 2 3 4 5 6 
#
# 1 0.079674 -0.006674 -0.002860 0.000000 0.000000 0.000000
# 2 -0.006674 0.015101 -0.010452 0.000000 0.000000 0.000000
# 3 -0.002860 -0.010452 0.013469 0.000000 0.000000 0.000000
# 4 0.000000 0.000000 0.000000 0.042153 0.000000 0.000000
# 5 0.000000 0.000000 0.000000 0.000000 0.043605 0.000000
# 6 0.000000 0.000000 0.000000 0.000000 0.000000 0.062155
#
#
# Mechanical properties :
#
#
# Convention : Reuss Voigt Hill
#
# Bulk Modulus (GPa) = 14.64739 78.16409 46.40574
# Shear Modulus (GPa) = 15.67959 25.43780 20.55869
#
# Velocity S-wave (km/s) = 2.91317 3.71054 3.33577
# Velocity P-wave (km/s) = 4.38671 7.78869 6.32087
#
# Compressibility (1/GPa) = 0.06827156
#
# Stress axis : x y z
#
# Youngs Moduli (GPa) = 12.55116 66.22246 74.24494
#
# Poissons Ratio (x) = 0.44198 0.21231
# Poissons Ratio (y) = 0.08377 0.77603
# Poissons Ratio (z) = 0.03589 0.69217
#
# Static dielectric constant tensor:
#      x y z
#    x 1.659460 0.000000 0.000000 
#    y 0.000000 1.638050 0.000000 
#    z 0.000000 0.000000 1.632180 
# 
# From -- ./inp_files/32958.got.cif
#   From: 2010.05.17/outbox.cif.g08.bks.cpg/sg59_17_cif.got.tgz:32958.got - 2010.06.03 14:40:33.
