data_PCOD9446933
_publ_section_title
;
Structure prediction by ZEFSAII (Michael W. Deem and Ramdas Pophale) SiO2 
 PCOD9446933
Probable space group: P M M N
;
_chemical_formula_sum "Si O2"
_cell_formula_units_Z 64
_cell_length_a 7.645542
_cell_length_b 15.226241
_cell_length_c 27.002467
_cell_angle_alpha 90.000000
_cell_angle_beta 90.000000
_cell_angle_gamma 90.000000
_cell_volume 3143.434547
_symmetry_space_group_name_H-M "P M M N"
_symmetry_group_IT_number 59
_space_group.IT_coordinate_system_code '2'
_symmetry_cell_setting 'orthorhombic'
loop_
_space_group_symop_operation_xyz
x,y,z
1/2-x,1/2-y,z
1/2+x,-y,-z
-x,1/2+y,-z
-x,-y,-z
1/2+x,1/2+y,-z
1/2-x,y,z
x,1/2-y,z
loop_
_atom_site_type_symbol
_atom_site_label
_atom_site_fract_x
_atom_site_fract_y
_atom_site_fract_z
Si Si1 0.465378 0.500439 0.708053
Si Si2 0.461771 0.847686 0.112741
Si Si3 0.957169 0.350095 0.366693
Si Si4 0.954344 0.490897 0.179949
Si Si5 0.959309 0.102546 0.996581
Si Si6 0.955975 0.499936 0.557698
Si Si7 0.457392 0.149719 0.634091
Si Si8 0.463480 0.653480 0.895433
O O1 0.250000 0.499149 0.707036
O O2 0.523560 0.586965 0.677670
O O3 0.525897 0.503480 0.764669
O O4 0.524461 0.412880 0.678668
O O5 0.250000 0.855040 0.112197
O O6 0.509688 0.750000 0.127928
O O7 0.531977 0.918319 0.150768
O O8 0.524738 0.863749 0.056345
O O9 0.750000 0.341789 0.358597
O O10 0.027503 0.250000 0.369884
O O11 0.978554 0.411589 0.415073
O O12 0.750000 0.467861 0.186013
O O13 0.031143 0.419403 0.142170
O O14 0.750000 0.117039 0.995898
O O15 0.025849 0.142655 0.048006
O O16 0.000000 0.000000 0.000000
O O17 0.750000 0.500022 0.563817
O O18 0.000000 0.500000 0.500000
O O19 0.020831 0.412006 0.585695
O O20 0.250000 0.157960 0.641847
O O21 0.527320 0.250000 0.630847
O O22 0.250000 0.645623 0.897806
O O23 0.506160 0.750000 0.877102
#
# Coordination Sequence:
#
# PCOD9446933 Si02
#       8
#     8   8   8   8   8   8   8   8
#     4   8  16  31  52  79 107 133 167 214 265 309
#     4  10  21  35  50  69  97 134 170 205 253 312
#     4   9  18  35  58  81 107 141 180 220 263 312
#     4  10  19  32  52  78 104 130 166 213 258 302
#     4  10  18  31  51  70  93 126 164 205 252 306
#     4  11  22  36  55  81 115 148 180 219 261 308
#     4   9  18  35  57  78 104 141 183 223 265 312
#     4   9  17  29  47  72  99 126 159 201 251 305
#
# _framework density 20.359895999999999
#
# number of rings (size 3 to 8) (size 9 to 14) (size 15 to 20)
#    0.000    2.500    1.250    2.250    0.000    3.750 
#    0.000    6.250    0.000    2.250    0.000    0.000 
#    0.000    0.000    0.000    0.000    0.000    0.000 
#
# Total GULP energy -356938.189926 kJ/mol
# GULP energy per Si atom -5577.159218 kJ/mol
# Density = 2.031356 g / cm^3
# Si number density = 20.359896 Si / 1000 Ang^3
#
#
#
# Elastic Constant Matrix: (Units=GPa)
#
#
# Indices 1 2 3 4 5 6 
#
# 1 38.1839 -1.0540 -3.9444 0.0000 0.0000 0.0000
# 2 -1.0540 181.8136 90.6672 0.0000 0.0000 0.0000
# 3 -3.9444 90.6672 183.1932 0.0000 0.0000 0.0000
# 4 0.0000 0.0000 0.0000 -142.8659 0.0000 0.0000
# 5 0.0000 0.0000 0.0000 0.0000 5.3898 0.0000
# 6 0.0000 0.0000 0.0000 0.0000 0.0000 11.1237
#
#
#
# Elastic Compliance Matrix: (Units=1/GPa)
#
#
# Indices 1 2 3 4 5 6 
#
# 1 0.026252 -0.000172 0.000650 0.000000 0.000000 0.000000
# 2 -0.000172 0.007304 -0.003618 0.000000 0.000000 0.000000
# 3 0.000650 -0.003618 0.007264 0.000000 0.000000 0.000000
# 4 0.000000 0.000000 0.000000 -0.007000 0.000000 0.000000
# 5 0.000000 0.000000 0.000000 0.000000 0.185534 0.000000
# 6 0.000000 0.000000 0.000000 0.000000 0.000000 0.089899
#
#
# Mechanical properties :
#
#
# Convention : Reuss Voigt Hill
#
# Bulk Modulus (GPa) = 28.95335 63.83648 46.39491
# Shear Modulus (GPa) = 15.28842 -4.10235 5.59303
#
# Velocity S-wave (km/s) = 2.74324 -1.42102 1.65923
# Velocity P-wave (km/s) = 4.92803 5.36001 5.14855
#
# Compressibility (1/GPa) = 0.03453832
#
# Stress axis : x y z
#
# Youngs Moduli (GPa) = 38.09305 136.91878 137.67297
#
# Poissons Ratio (x) = 0.02358 -0.08955
# Poissons Ratio (y) = 0.00656 0.49816
# Poissons Ratio (z) = -0.02478 0.49543
#
# Static dielectric constant tensor:
#      x y z
#    x 1.797350 0.000000 0.000000 
#    y 0.000000 1.683590 0.000000 
#    z 0.000000 0.000000 1.681380 
# 
# From -- ./inp_files/31587.got.cif
#   From: 2010.05.17/outbox.cif.g08.bks.cpg/sg59_16_cif.got.tgz:31587.got - 2010.06.03 14:40:33.
