data_PCOD9446941
_publ_section_title
;
Structure prediction by ZEFSAII (Michael W. Deem and Ramdas Pophale) SiO2 
 PCOD9446941
Probable space group: P M M N
;
_chemical_formula_sum "Si O2"
_cell_formula_units_Z 64
_cell_length_a 23.420904
_cell_length_b 14.358567
_cell_length_c 9.391277
_cell_angle_alpha 90.000000
_cell_angle_beta 90.000000
_cell_angle_gamma 90.000000
_cell_volume 3158.198358
_symmetry_space_group_name_H-M "P M M N"
_symmetry_group_IT_number 59
_space_group.IT_coordinate_system_code '2'
_symmetry_cell_setting 'orthorhombic'
loop_
_space_group_symop_operation_xyz
x,y,z
1/2-x,1/2-y,z
1/2+x,-y,-z
-x,1/2+y,-z
-x,-y,-z
1/2+x,1/2+y,-z
1/2-x,y,z
x,1/2-y,z
loop_
_atom_site_type_symbol
_atom_site_label
_atom_site_fract_x
_atom_site_fract_y
_atom_site_fract_z
Si Si1 0.971941 0.469629 0.850688
Si Si2 0.313954 0.958740 0.421237
Si Si3 0.938909 0.645082 0.336059
Si Si4 0.645247 0.138165 0.857051
Si Si5 0.034189 0.140556 0.337049
Si Si6 0.596896 0.149719 0.397510
Si Si7 0.312220 0.406874 0.665036
Si Si8 0.186929 0.604599 0.826822
O O1 0.920620 0.395650 0.865846
O O2 0.946659 0.562257 0.773869
O O3 0.021625 0.424079 0.753632
O O4 0.000000 0.500000 0.000000
O O5 0.250000 0.921387 0.460369
O O6 0.323909 0.927864 0.259677
O O7 0.369165 0.915023 0.496461
O O8 0.313317 0.059595 0.498298
O O9 0.960618 0.750000 0.314763
O O10 0.943163 0.623879 0.504121
O O11 0.871745 0.641603 0.300602
O O12 0.649777 0.250000 0.826992
O O13 0.673956 0.116036 0.008211
O O14 0.044266 0.250000 0.299219
O O15 0.966204 0.125162 0.351483
O O16 0.593062 0.250000 0.469038
O O17 0.636502 0.152436 0.259522
O O18 0.250000 0.361931 0.688398
O O19 0.313241 0.499601 0.764041
O O20 0.250000 0.642098 0.795933
#
# Coordination Sequence:
#
# PCOD9446941 Si02
#       8
#     8   8   8   8   8   8   8   8
#     4  12  24  39  59  82 116 153 191 241 293 347
#     4  10  20  33  52  78 110 147 183 223 273 330
#     4  11  22  38  61  88 116 151 194 237 291 351
#     4  12  24  36  52  80 116 151 189 231 281 340
#     4  10  22  39  61  86 114 151 193 240 293 348
#     4  10  18  31  51  75 103 136 179 225 269 321
#     4   9  19  38  60  82 110 146 192 241 287 337
#     4  10  21  36  53  74 106 149 191 230 275 328
#
# _framework density 20.264717999999998
#
# number of rings (size 3 to 8) (size 9 to 14) (size 15 to 20)
#    0.000    1.500    0.000    7.500    0.000    6.250 
#    0.000    0.000    0.000    0.000    0.000    0.000 
#    0.000   10.000    0.000    0.000    0.000    0.000 
#
# Total GULP energy -356844.970020 kJ/mol
# GULP energy per Si atom -5575.702657 kJ/mol
# Density = 2.021859 g / cm^3
# Si number density = 20.264718 Si / 1000 Ang^3
#
#
#
# Elastic Constant Matrix: (Units=GPa)
#
#
# Indices 1 2 3 4 5 6 
#
# 1 87.5474 15.3880 -2.7654 0.0000 0.0000 0.0000
# 2 15.3880 85.4824 32.2063 0.0000 0.0000 0.0000
# 3 -2.7654 32.2063 87.7029 0.0000 0.0000 0.0000
# 4 0.0000 0.0000 0.0000 7.7379 0.0000 0.0000
# 5 0.0000 0.0000 0.0000 0.0000 18.9973 0.0000
# 6 0.0000 0.0000 0.0000 0.0000 0.0000 36.4905
#
#
#
# Elastic Compliance Matrix: (Units=1/GPa)
#
#
# Indices 1 2 3 4 5 6 
#
# 1 0.011932 -0.002657 0.001352 0.000000 0.000000 0.000000
# 2 -0.002657 0.014169 -0.005287 0.000000 0.000000 0.000000
# 3 0.001352 -0.005287 0.013386 0.000000 0.000000 0.000000
# 4 0.000000 0.000000 0.000000 0.129233 0.000000 0.000000
# 5 0.000000 0.000000 0.000000 0.000000 0.052639 0.000000
# 6 0.000000 0.000000 0.000000 0.000000 0.000000 0.027404
#
#
# Mechanical properties :
#
#
# Convention : Reuss Voigt Hill
#
# Bulk Modulus (GPa) = 38.01881 38.93227 38.47554
# Shear Modulus (GPa) = 18.46959 27.03873 22.75416
#
# Velocity S-wave (km/s) = 3.02224 3.65674 3.35452
# Velocity P-wave (km/s) = 5.56600 6.08954 5.83365
#
# Compressibility (1/GPa) = 0.02630277
#
# Stress axis : x y z
#
# Youngs Moduli (GPa) = 83.80705 70.57900 74.70391
#
# Poissons Ratio (x) = 0.18755 -0.10101
# Poissons Ratio (y) = 0.22271 0.39494
# Poissons Ratio (z) = -0.11331 0.37313
#
# Static dielectric constant tensor:
#      x y z
#    x 1.608720 0.000000 0.000000 
#    y 0.000000 2.081290 0.000000 
#    z 0.000000 0.000000 1.768170 
# 
# From -- ./inp_files/12210.got.cif
#   From: 2010.05.17/outbox.cif.g08.bks.cpg/sg59_7_cif.got.tgz:12210.got - 2010.06.03 14:40:33.
