data_PCOD9446103
_publ_section_title
;
Structure prediction by ZEFSAII (Michael W. Deem and Ramdas Pophale) SiO2 
 PCOD9446103
Probable space group: P N N M
;
_chemical_formula_sum "Si O2"
_cell_formula_units_Z 32
_cell_length_a 21.000000
_cell_length_b 9.000000
_cell_length_c 9.000000
_cell_angle_alpha 90.000000
_cell_angle_beta 90.000000
_cell_angle_gamma 90.000000
_cell_volume 1701.000000
_symmetry_space_group_name_H-M "P N N M"
_symmetry_group_IT_number 58
_symmetry_cell_setting 'orthorhombic'
loop_
_space_group_symop_operation_xyz
x,y,z
-x,-y,z
1/2+x,1/2-y,1/2-z
1/2-x,1/2+y,1/2-z
-x,-y,-z
x,y,-z
1/2-x,1/2+y,1/2+z
1/2+x,1/2-y,1/2+z
loop_
_atom_site_type_symbol
_atom_site_label
_atom_site_fract_x
_atom_site_fract_y
_atom_site_fract_z
Si Si1 0.447952 0.875843 0.176336
Si Si2 0.037473 0.847349 0.832775
Si Si3 0.314816 0.305700 0.323016
Si Si4 0.188146 0.450597 0.822709
O O1 0.490083 0.735251 0.221212
O O2 0.378766 0.889376 0.254579
O O3 0.500000 0.000000 0.221158
O O4 0.436995 0.885278 0.000000
O O5 0.112130 0.856053 0.783772
O O6 0.039538 0.776196 0.000000
O O7 0.000000 0.000000 0.849913
O O8 0.307863 0.332447 0.500000
O O9 0.253866 0.381919 0.243479
O O10 0.311851 0.128402 0.295450
O O11 0.187316 0.425000 0.000000
#
# Coordination Sequence:
#
# PCOD9446103 Si02
#       4
#     8   8   8   8
#     4  11  23  40  64  92 122 159 203 253 305 362
#     4  10  22  41  65  92 123 162 206 254 308 363
#     4  10  23  42  61  90 127 160 205 255 302 366
#     4  11  24  41  64  89 122 165 204 251 308 365
#
# _framework density 18.812463000000001
#
# number of rings (size 3 to 8) (size 9 to 14) (size 15 to 20)
#    0.000    1.500    2.500    1.500    3.500    4.500 
#    0.000    0.000    0.000    0.000    0.000    0.000 
#    0.000    0.000    0.000    0.000    0.000    0.000 
#
# Total GULP energy -178309.728405 kJ/mol
# GULP energy per Si atom -5572.179013 kJ/mol
# Density = 1.876965 g / cm^3
# Si number density = 18.812463 Si / 1000 Ang^3
#
#
#
# Elastic Constant Matrix: (Units=GPa)
#
#
# Indices 1 2 3 4 5 6 
#
# 1 254.4794 63.7273 69.8320 0.0000 0.0000 0.0000
# 2 63.7273 55.7969 21.2717 0.0000 0.0000 0.0000
# 3 69.8320 21.2717 36.0512 0.0000 0.0000 0.0000
# 4 0.0000 0.0000 0.0000 22.3453 0.0000 0.0000
# 5 0.0000 0.0000 0.0000 0.0000 66.3916 0.0000
# 6 0.0000 0.0000 0.0000 0.0000 0.0000 37.7060
#
#
#
# Elastic Compliance Matrix: (Units=1/GPa)
#
#
# Indices 1 2 3 4 5 6 
#
# 1 0.009304 -0.004846 -0.015163 0.000000 0.000000 0.000000
# 2 -0.004846 0.025647 -0.005747 0.000000 0.000000 0.000000
# 3 -0.015163 -0.005747 0.060500 0.000000 0.000000 0.000000
# 4 0.000000 0.000000 0.000000 0.044752 0.000000 0.000000
# 5 0.000000 0.000000 0.000000 0.000000 0.015062 0.000000
# 6 0.000000 0.000000 0.000000 0.000000 0.000000 0.026521
#
#
# Mechanical properties :
#
#
# Convention : Reuss Voigt Hill
#
# Bulk Modulus (GPa) = 22.75800 72.88773 47.82286
# Shear Modulus (GPa) = 20.16588 38.05502 29.11045
#
# Velocity S-wave (km/s) = 3.27761 4.50250 3.93797
# Velocity P-wave (km/s) = 5.14268 8.11533 6.79359
#
# Compressibility (1/GPa) = 0.04394059
#
# Stress axis : x y z
#
# Youngs Moduli (GPa) = 107.48225 38.99021 16.52901
#
# Poissons Ratio (x) = 0.18893 0.25062
# Poissons Ratio (y) = 0.52083 0.09499
# Poissons Ratio (z) = 1.62972 0.22407
#
# Static dielectric constant tensor:
#      x y z
#    x 1.603030 0.000000 0.000000 
#    y 0.000000 1.343520 0.000000 
#    z 0.000000 0.000000 1.664260 
# 
# From -- ./inp_files/2137.got.cif
#   From: 2010.05.17/outbox.ucp.g08.bks.cvg/sg58_2_cif.got.tgz:2137.got - 2010.06.11 16:41:41.
