data_PCOD9446376
_publ_section_title
;
Structure prediction by ZEFSAII (Michael W. Deem and Ramdas Pophale) SiO2 
 PCOD9446376
Probable space group: P M M N
;
_chemical_formula_sum "Si O2"
_cell_formula_units_Z 64
_cell_length_a 7.505719
_cell_length_b 14.438513
_cell_length_c 33.033585
_cell_angle_alpha 90.000000
_cell_angle_beta 90.000000
_cell_angle_gamma 90.000000
_cell_volume 3579.896559
_symmetry_space_group_name_H-M "P M M N"
_symmetry_group_IT_number 59
_space_group.IT_coordinate_system_code '2'
_symmetry_cell_setting 'orthorhombic'
loop_
_space_group_symop_operation_xyz
x,y,z
1/2-x,1/2-y,z
1/2+x,-y,-z
-x,1/2+y,-z
-x,-y,-z
1/2+x,1/2+y,-z
1/2-x,y,z
x,1/2-y,z
loop_
_atom_site_type_symbol
_atom_site_label
_atom_site_fract_x
_atom_site_fract_y
_atom_site_fract_z
Si Si1 0.031888 0.856413 0.441942
Si Si2 0.463288 0.960872 0.938011
Si Si3 0.535550 0.358991 0.467689
Si Si4 0.035841 0.642490 0.769531
Si Si5 0.032368 0.641603 0.858098
Si Si6 0.963751 0.354941 0.981702
Si Si7 0.045394 0.020446 0.390972
Si Si8 0.039362 0.355662 0.319370
O O1 0.250000 0.858870 0.442217
O O2 0.979660 0.750000 0.436411
O O3 0.976508 0.887403 0.487139
O O4 0.965754 0.924707 0.407229
O O5 0.250000 0.949818 0.937682
O O6 0.498566 0.068466 0.947458
O O7 0.529937 0.919832 0.895684
O O8 0.531223 0.900478 0.976231
O O9 0.750000 0.368730 0.465618
O O10 0.494645 0.250000 0.463508
O O11 0.455766 0.415151 0.430756
O O12 0.250000 0.641023 0.769778
O O13 0.977337 0.750000 0.768915
O O14 0.975865 0.606765 0.813456
O O15 0.980144 0.604597 0.726000
O O16 0.250000 0.640919 0.858263
O O17 0.981478 0.750000 0.862928
O O18 0.750000 0.349562 0.984955
O O19 0.029620 0.250000 0.975447
O O20 0.250000 0.000005 0.379461
O O21 0.963547 0.077606 0.353923
O O22 0.250000 0.347273 0.327391
O O23 0.965897 0.250000 0.320719
#
# Coordination Sequence:
#
# PCOD9446376 Si02
#       8
#     8   8   8   8   8   8   8   8
#     4   8  15  28  43  58  77 101 130 164 198 228
#     4   9  16  26  42  62  81 105 140 176 205 236
#     4   9  17  28  41  58  81 106 129 156 192 231
#     4   8  14  25  41  59  78 102 130 157 189 234
#     4   8  13  23  41  63  83 103 132 169 202 233
#     4   9  17  28  40  56  83 116 142 166 203 245
#     4  10  18  27  42  61  79 103 134 163 191 227
#     4   9  17  27  37  54  82 107 125 152 192 235
#
# _framework density 17.877611000000002
#
# number of rings (size 3 to 8) (size 9 to 14) (size 15 to 20)
#    0.000    3.250    0.000    2.625    0.000    3.000 
#    0.000    1.875    0.000    3.000    0.000    0.875 
#    0.000    3.000    0.000    0.000    0.000    0.000 
#
# Total GULP energy -356534.430275 kJ/mol
# GULP energy per Si atom -5570.850473 kJ/mol
# Density = 1.783692 g / cm^3
# Si number density = 17.877611 Si / 1000 Ang^3
#
#
#
# Elastic Constant Matrix: (Units=GPa)
#
#
# Indices 1 2 3 4 5 6 
#
# 1 44.5428 1.0111 1.9065 0.0000 0.0000 0.0000
# 2 1.0111 98.5661 80.2483 0.0000 0.0000 0.0000
# 3 1.9065 80.2483 158.3101 0.0000 0.0000 0.0000
# 4 0.0000 0.0000 0.0000 27.9533 0.0000 0.0000
# 5 0.0000 0.0000 0.0000 0.0000 10.2273 0.0000
# 6 0.0000 0.0000 0.0000 0.0000 0.0000 8.1457
#
#
#
# Elastic Compliance Matrix: (Units=1/GPa)
#
#
# Indices 1 2 3 4 5 6 
#
# 1 0.022462 -0.000017 -0.000262 0.000000 0.000000 0.000000
# 2 -0.000017 0.017275 -0.008756 0.000000 0.000000 0.000000
# 3 -0.000262 -0.008756 0.010759 0.000000 0.000000 0.000000
# 4 0.000000 0.000000 0.000000 0.035774 0.000000 0.000000
# 5 0.000000 0.000000 0.000000 0.000000 0.097777 0.000000
# 6 0.000000 0.000000 0.000000 0.000000 0.000000 0.122764
#
#
# Mechanical properties :
#
#
# Convention : Reuss Voigt Hill
#
# Bulk Modulus (GPa) = 30.84115 51.97233 41.40674
# Shear Modulus (GPa) = 14.89472 23.81549 19.35510
#
# Velocity S-wave (km/s) = 2.88956 3.65381 3.29393
# Velocity P-wave (km/s) = 5.33118 6.85089 6.13825
#
# Compressibility (1/GPa) = 0.03242421
#
# Stress axis : x y z
#
# Youngs Moduli (GPa) = 44.51979 57.88782 92.94912
#
# Poissons Ratio (x) = 0.00100 0.02433
# Poissons Ratio (y) = 0.00077 0.81391
# Poissons Ratio (z) = 0.01165 0.50689
#
# Static dielectric constant tensor:
#      x y z
#    x 1.672660 0.000000 0.000000 
#    y 0.000000 1.609250 0.000000 
#    z 0.000000 0.000000 1.633280 
# 
# From -- ./inp_files/33200.got.cif
#   From: 2010.05.17/outbox.cif.g08.bks.cpg/sg59_17_cif.got.tgz:33200.got - 2010.06.03 14:40:33.
