data_PCOD9446553
_publ_section_title
;
Structure prediction by ZEFSAII (Michael W. Deem and Ramdas Pophale) SiO2 
 PCOD9446553
Probable space group: P M M N
;
_chemical_formula_sum "Si O2"
_cell_formula_units_Z 64
_cell_length_a 18.387701
_cell_length_b 9.022129
_cell_length_c 22.205073
_cell_angle_alpha 90.000000
_cell_angle_beta 90.000000
_cell_angle_gamma 90.000000
_cell_volume 3683.737463
_symmetry_space_group_name_H-M "P M M N"
_symmetry_group_IT_number 59
_space_group.IT_coordinate_system_code '2'
_symmetry_cell_setting 'orthorhombic'
loop_
_space_group_symop_operation_xyz
x,y,z
1/2-x,1/2-y,z
1/2+x,-y,-z
-x,1/2+y,-z
-x,-y,-z
1/2+x,1/2+y,-z
1/2-x,y,z
x,1/2-y,z
loop_
_atom_site_type_symbol
_atom_site_label
_atom_site_fract_x
_atom_site_fract_y
_atom_site_fract_z
Si Si1 0.592418 0.425921 0.754318
Si Si2 0.664080 0.925389 0.261803
Si Si3 0.470080 0.073840 0.060184
Si Si4 0.918020 0.925482 0.633023
Si Si5 0.580296 0.571817 0.499660
Si Si6 0.592412 0.426638 0.377931
Si Si7 0.953174 0.426205 0.185435
Si Si8 0.667501 0.072475 0.878937
O O1 0.579975 0.250000 0.752018
O O2 0.614019 0.485247 0.688894
O O3 0.518269 0.507670 0.774064
O O4 0.648247 0.456752 0.808741
O O5 0.750000 0.947803 0.256174
O O6 0.649211 0.750000 0.265448
O O7 0.634262 0.004138 0.321806
O O8 0.620105 0.995662 0.206465
O O9 0.464107 0.250000 0.052589
O O10 0.524103 0.045418 0.116555
O O11 0.392732 0.007466 0.080754
O O12 0.500000 0.000000 0.000000
O O13 0.908550 0.750000 0.643126
O O14 0.888567 0.961599 0.566156
O O15 0.005524 0.953817 0.630797
O O16 0.500000 0.500000 0.500000
O O17 0.574817 0.750000 0.494387
O O18 0.616460 0.502618 0.440560
O O19 0.602345 0.250000 0.380960
O O20 0.948881 0.250000 0.195277
O O21 0.750000 0.027516 0.892147
O O22 0.661123 0.250000 0.887536
#
# Coordination Sequence:
#
# PCOD9446553 Si02
#       8
#     8   8   8   8   8   8   8   8
#     4  10  18  28  50  78 103 137 175 215 263 312
#     4  11  23  36  52  75 102 136 179 225 272 323
#     4  10  21  37  60  88 115 146 183 220 261 311
#     4   9  17  28  44  70 101 132 168 215 268 319
#     4   9  17  28  43  65  95 129 167 215 269 320
#     4  10  19  31  48  69  97 132 171 219 273 327
#     4  10  20  35  54  77 106 137 172 215 260 311
#     4   9  19  36  56  81 114 147 180 220 265 313
#
# _framework density 17.373659
#
# number of rings (size 3 to 8) (size 9 to 14) (size 15 to 20)
#    0.000    2.250    1.250    3.000    0.000    5.750 
#    0.000    0.625    0.000    1.500    0.000    3.500 
#    0.000    0.000    0.000    0.000    0.000    0.000 
#
# Total GULP energy -356995.507469 kJ/mol
# GULP energy per Si atom -5578.054804 kJ/mol
# Density = 1.733412 g / cm^3
# Si number density = 17.373659 Si / 1000 Ang^3
#
#
#
# Elastic Constant Matrix: (Units=GPa)
#
#
# Indices 1 2 3 4 5 6 
#
# 1 74.8234 53.0569 58.8495 0.0000 0.0000 0.0000
# 2 53.0569 77.0979 75.8035 0.0000 0.0000 0.0000
# 3 58.8495 75.8035 147.3568 0.0000 0.0000 0.0000
# 4 0.0000 0.0000 0.0000 35.7236 0.0000 0.0000
# 5 0.0000 0.0000 0.0000 0.0000 15.4639 0.0000
# 6 0.0000 0.0000 0.0000 0.0000 0.0000 18.5250
#
#
#
# Elastic Compliance Matrix: (Units=1/GPa)
#
#
# Indices 1 2 3 4 5 6 
#
# 1 0.026527 -0.015862 -0.002434 0.000000 0.000000 0.000000
# 2 -0.015862 0.035729 -0.012045 0.000000 0.000000 0.000000
# 3 -0.002434 -0.012045 0.013955 0.000000 0.000000 0.000000
# 4 0.000000 0.000000 0.000000 0.027993 0.000000 0.000000
# 5 0.000000 0.000000 0.000000 0.000000 0.064667 0.000000
# 6 0.000000 0.000000 0.000000 0.000000 0.000000 0.053981
#
#
# Mechanical properties :
#
#
# Convention : Reuss Voigt Hill
#
# Bulk Modulus (GPa) = 64.39855 74.96641 69.68248
# Shear Modulus (GPa) = 17.31843 21.38039 19.34941
#
# Velocity S-wave (km/s) = 3.16067 3.51183 3.34087
# Velocity P-wave (km/s) = 7.10402 7.72574 7.42139
#
# Compressibility (1/GPa) = 0.01552830
#
# Stress axis : x y z
#
# Youngs Moduli (GPa) = 37.69758 27.98841 71.65998
#
# Poissons Ratio (x) = 0.44394 0.17445
# Poissons Ratio (y) = 0.59794 0.86316
# Poissons Ratio (z) = 0.09177 0.33713
#
# Static dielectric constant tensor:
#      x y z
#    x 1.569370 0.000000 0.000000 
#    y 0.000000 1.575950 0.000000 
#    z 0.000000 0.000000 1.609240 
# 
# From -- ./inp_files/30674.got.cif
#   From: 2010.05.17/outbox.cif.g08.bks.cpg/sg59_16_cif.got.tgz:30674.got - 2010.06.03 14:40:33.
