data_PCOD9446960
_publ_section_title
;
Structure prediction by ZEFSAII (Michael W. Deem and Ramdas Pophale) SiO2 
 PCOD9446960
Probable space group: P M M N
;
_chemical_formula_sum "Si O2"
_cell_formula_units_Z 48
_cell_length_a 16.686587
_cell_length_b 7.367743
_cell_length_c 17.239795
_cell_angle_alpha 90.000000
_cell_angle_beta 90.000000
_cell_angle_gamma 90.000000
_cell_volume 2119.503231
_symmetry_space_group_name_H-M "P M M N"
_symmetry_group_IT_number 59
_space_group.IT_coordinate_system_code '2'
_symmetry_cell_setting 'orthorhombic'
loop_
_space_group_symop_operation_xyz
x,y,z
1/2-x,1/2-y,z
1/2+x,-y,-z
-x,1/2+y,-z
-x,-y,-z
1/2+x,1/2+y,-z
1/2-x,y,z
x,1/2-y,z
loop_
_atom_site_type_symbol
_atom_site_label
_atom_site_fract_x
_atom_site_fract_y
_atom_site_fract_z
Si Si1 0.340142 0.967619 0.502811
Si Si2 0.662395 0.028773 0.826758
Si Si3 0.161171 0.471708 0.821676
Si Si4 0.500574 0.533789 0.091274
Si Si5 0.597690 0.471704 0.663661
Si Si6 0.082327 0.464815 0.666957
O O1 0.250000 0.035315 0.514395
O O2 0.337108 0.750000 0.496804
O O3 0.374403 0.033943 0.420929
O O4 0.391240 0.007729 0.578859
O O5 0.750000 0.969481 0.855848
O O6 0.662020 0.250000 0.830266
O O7 0.582631 0.965469 0.871307
O O8 0.651967 0.977562 0.736480
O O9 0.250000 0.531973 0.846412
O O10 0.162559 0.250000 0.824961
O O11 0.143369 0.529473 0.732786
O O12 0.083774 0.532905 0.870798
O O13 0.500481 0.750000 0.105390
O O14 0.500000 0.500000 0.000000
O O15 0.597386 0.250000 0.661802
O O16 0.507274 0.534844 0.679166
O O17 0.077456 0.250000 0.679317
#
# Coordination Sequence:
#
# PCOD9446960 Si02
#       6
#     8   8   8   8   8   8
#     4  10  20  31  44  69 104 136 166 203 250 297
#     4   9  16  29  52  78 101 128 166 209 247 289
#     4   9  17  31  52  75  99 131 169 204 239 288
#     4  10  20  35  54  77 102 128 161 203 250 300
#     4   9  16  29  49  72  98 130 169 208 245 289
#     4  10  18  31  52  74  96 128 173 213 241 281
#
# _framework density 22.646816000000001
#
# number of rings (size 3 to 8) (size 9 to 14) (size 15 to 20)
#    0.000    2.500    1.667    1.500    0.000    3.667 
#    0.000    0.833    0.000    2.000    0.000    0.000 
#    0.000    0.000    0.000    0.000    0.000    0.000 
#
# Total GULP energy -268078.035586 kJ/mol
# GULP energy per Si atom -5584.959075 kJ/mol
# Density = 2.259527 g / cm^3
# Si number density = 22.646816 Si / 1000 Ang^3
#
#
#
# Elastic Constant Matrix: (Units=GPa)
#
#
# Indices 1 2 3 4 5 6 
#
# 1 203.7407 5.6925 74.1809 0.0000 0.0000 0.0000
# 2 5.6925 78.5236 -9.6447 0.0000 0.0000 0.0000
# 3 74.1809 -9.6447 130.0592 0.0000 0.0000 0.0000
# 4 0.0000 0.0000 0.0000 12.5090 0.0000 0.0000
# 5 0.0000 0.0000 0.0000 0.0000 10.3970 0.0000
# 6 0.0000 0.0000 0.0000 0.0000 0.0000 -14.5186
#
#
#
# Elastic Compliance Matrix: (Units=1/GPa)
#
#
# Indices 1 2 3 4 5 6 
#
# 1 0.006257 -0.000900 -0.003636 0.000000 0.000000 0.000000
# 2 -0.000900 0.012982 0.001476 0.000000 0.000000 0.000000
# 3 -0.003636 0.001476 0.009872 0.000000 0.000000 0.000000
# 4 0.000000 0.000000 0.000000 0.079943 0.000000 0.000000
# 5 0.000000 0.000000 0.000000 0.000000 0.096182 0.000000
# 6 0.000000 0.000000 0.000000 0.000000 0.000000 -0.068877
#
#
# Mechanical properties :
#
#
# Convention : Reuss Voigt Hill
#
# Bulk Modulus (GPa) = 43.49481 61.42012 52.45746
# Shear Modulus (GPa) = 33.30214 24.48379 28.89296
#
# Velocity S-wave (km/s) = 3.83887 3.29160 3.57572
# Velocity P-wave (km/s) = 6.23672 6.45181 6.34518
#
# Compressibility (1/GPa) = 0.02299125
#
# Stress axis : x y z
#
# Youngs Moduli (GPa) = 159.82046 77.03224 101.29835
#
# Poissons Ratio (x) = 0.06934 0.36827
# Poissons Ratio (y) = 0.14386 -0.14952
# Poissons Ratio (z) = 0.58103 -0.11370
#
# Static dielectric constant tensor:
#      x y z
#    x 1.842550 0.000000 0.000000 
#    y 0.000000 1.883300 0.000000 
#    z 0.000000 0.000000 1.798060 
# 
# From -- ./inp_files/23171.got.cif
#   From: 2010.05.17/outbox.cif.g08.bks.cpg/sg59_12_cif.got.tgz:23171.got - 2010.06.03 14:40:33.
