data_PCOD9446849
_publ_section_title
;
Structure prediction by ZEFSAII (Michael W. Deem and Ramdas Pophale) SiO2 
 PCOD9446849
Probable space group: P M M N
;
_chemical_formula_sum "Si O2"
_cell_formula_units_Z 64
_cell_length_a 20.745863
_cell_length_b 7.480462
_cell_length_c 18.319352
_cell_angle_alpha 90.000000
_cell_angle_beta 90.000000
_cell_angle_gamma 90.000000
_cell_volume 2842.955319
_symmetry_space_group_name_H-M "P M M N"
_symmetry_group_IT_number 59
_space_group.IT_coordinate_system_code '2'
_symmetry_cell_setting 'orthorhombic'
loop_
_space_group_symop_operation_xyz
x,y,z
1/2-x,1/2-y,z
1/2+x,-y,-z
-x,1/2+y,-z
-x,-y,-z
1/2+x,1/2+y,-z
1/2-x,y,z
x,1/2-y,z
loop_
_atom_site_type_symbol
_atom_site_label
_atom_site_fract_x
_atom_site_fract_y
_atom_site_fract_z
Si Si1 0.964351 0.036441 0.576037
Si Si2 0.176747 0.535140 0.786358
Si Si3 0.592223 0.030901 0.073730
Si Si4 0.181297 0.967806 0.051961
Si Si5 0.522764 0.949956 0.844086
Si Si6 0.444142 0.461705 0.707602
Si Si7 0.677208 0.031250 0.625884
Si Si8 0.843034 0.452404 0.790367
O O1 0.960115 0.250000 0.583819
O O2 0.889750 0.972472 0.586174
O O3 0.013951 0.973400 0.639036
O O4 0.000000 0.000000 0.500000
O O5 0.250000 0.469299 0.782142
O O6 0.179131 0.750000 0.790744
O O7 0.140375 0.474111 0.860610
O O8 0.132444 0.488617 0.716225
O O9 0.590147 0.250000 0.074661
O O10 0.519736 0.969393 0.091059
O O11 0.622588 0.972317 0.997613
O O12 0.250000 0.009562 0.016368
O O13 0.176794 0.750000 0.056306
O O14 0.182042 0.035400 0.134686
O O15 0.544632 0.750000 0.861928
O O16 0.471880 0.941949 0.778415
O O17 0.581518 0.053032 0.808872
O O18 0.455665 0.250000 0.714755
O O19 0.750000 0.978688 0.600617
O O20 0.676453 0.250000 0.624654
O O21 0.669987 0.970675 0.710696
O O22 0.818748 0.250000 0.786121
#
# Coordination Sequence:
#
# PCOD9446849 Si02
#       8
#     8   8   8   8   8   8   8   8
#     4  10  21  37  58  84 110 139 170 207 261 318
#     4   9  17  30  50  76 106 143 185 226 266 312
#     4   8  15  27  43  67 100 136 177 223 267 310
#     4   9  16  26  44  70  97 130 174 224 273 317
#     4  10  19  31  49  72 100 139 178 215 263 318
#     4  10  19  34  54  78 107 136 172 219 265 311
#     4   9  17  33  57  82 108 137 173 217 262 310
#     4  10  18  30  50  77 104 130 170 222 270 317
#
# _framework density 22.511785
#
# number of rings (size 3 to 8) (size 9 to 14) (size 15 to 20)
#    0.000    2.625    1.250    2.250    0.000    4.750 
#    0.000    0.625    0.000    7.875    0.000    0.000 
#    0.000    0.000    0.000    0.000    0.000    0.000 
#
# Total GULP energy -356791.298318 kJ/mol
# GULP energy per Si atom -5574.864036 kJ/mol
# Density = 2.246055 g / cm^3
# Si number density = 22.511785 Si / 1000 Ang^3
#
#
#
# Elastic Constant Matrix: (Units=GPa)
#
#
# Indices 1 2 3 4 5 6 
#
# 1 188.7898 9.5414 55.5398 0.0000 0.0000 0.0000
# 2 9.5414 71.6705 -2.1626 0.0000 0.0000 0.0000
# 3 55.5398 -2.1626 92.0647 0.0000 0.0000 0.0000
# 4 0.0000 0.0000 0.0000 -0.6296 0.0000 0.0000
# 5 0.0000 0.0000 0.0000 0.0000 -6.6948 0.0000
# 6 0.0000 0.0000 0.0000 0.0000 0.0000 12.7312
#
#
#
# Elastic Compliance Matrix: (Units=1/GPa)
#
#
# Indices 1 2 3 4 5 6 
#
# 1 0.006509 -0.000986 -0.003950 0.000000 0.000000 0.000000
# 2 -0.000986 0.014112 0.000926 0.000000 0.000000 0.000000
# 3 -0.003950 0.000926 0.013266 0.000000 0.000000 0.000000
# 4 0.000000 0.000000 0.000000 -1.588398 0.000000 0.000000
# 5 0.000000 0.000000 0.000000 0.000000 -0.149370 0.000000
# 6 0.000000 0.000000 0.000000 0.000000 0.000000 0.078547
#
#
# Mechanical properties :
#
#
# Convention : Reuss Voigt Hill
#
# Bulk Modulus (GPa) = 38.65697 53.15136 45.90416
# Shear Modulus (GPa) = -3.10811 20.38846 8.64018
#
# Velocity S-wave (km/s) = -1.17629 3.01272 1.96122
# Velocity P-wave (km/s) = 3.91973 5.98027 5.05608
#
# Compressibility (1/GPa) = 0.02586856
#
# Stress axis : x y z
#
# Youngs Moduli (GPa) = 153.64185 70.86216 75.37859
#
# Poissons Ratio (x) = 0.06985 0.29772
# Poissons Ratio (y) = 0.15144 -0.06981
# Poissons Ratio (z) = 0.60683 -0.06563
#
# Static dielectric constant tensor:
#      x y z
#    x 1.971080 0.000000 0.000000 
#    y 0.000000 1.862640 0.000000 
#    z 0.000000 0.000000 1.826340 
# 
# From -- ./inp_files/28166.got.cif
#   From: 2010.05.17/outbox.cif.g08.bks.cpg/sg59_15_cif.got.tgz:28166.got - 2010.06.03 14:40:33.
