data_PCOD9446663
_publ_section_title
;
Structure prediction by ZEFSAII (Michael W. Deem and Ramdas Pophale) SiO2 
 PCOD9446663
Probable space group: P M M N
;
_chemical_formula_sum "Si O2"
_cell_formula_units_Z 48
_cell_length_a 7.385101
_cell_length_b 19.668736
_cell_length_c 15.758001
_cell_angle_alpha 90.000000
_cell_angle_beta 90.000000
_cell_angle_gamma 90.000000
_cell_volume 2288.937920
_symmetry_space_group_name_H-M "P M M N"
_symmetry_group_IT_number 59
_space_group.IT_coordinate_system_code '2'
_symmetry_cell_setting 'orthorhombic'
loop_
_space_group_symop_operation_xyz
x,y,z
1/2-x,1/2-y,z
1/2+x,-y,-z
-x,1/2+y,-z
-x,-y,-z
1/2+x,1/2+y,-z
1/2-x,y,z
x,1/2-y,z
loop_
_atom_site_type_symbol
_atom_site_label
_atom_site_fract_x
_atom_site_fract_y
_atom_site_fract_z
Si Si1 0.029130 0.171777 0.625241
Si Si2 0.468044 0.412385 0.272420
Si Si3 0.033424 0.073692 0.959091
Si Si4 0.035899 0.431327 0.767754
Si Si5 0.028573 0.328260 0.107339
Si Si6 0.470558 0.328344 0.433662
O O1 0.250000 0.170281 0.624836
O O2 0.976842 0.250000 0.641581
O O3 0.963657 0.120405 0.697158
O O4 0.972222 0.153504 0.529285
O O5 0.250000 0.408316 0.272869
O O6 0.515212 0.490974 0.261313
O O7 0.530135 0.369303 0.190886
O O8 0.532852 0.378256 0.359599
O O9 0.250000 0.081472 0.954397
O O10 0.961677 0.076643 0.863147
O O11 0.967442 0.131234 0.023828
O O12 0.000000 0.000000 0.000000
O O13 0.250000 0.417406 0.773330
O O14 0.250000 0.328734 0.107497
O O15 0.971887 0.250000 0.108983
O O16 0.250000 0.329232 0.433270
O O17 0.523292 0.250000 0.416628
#
# Coordination Sequence:
#
# PCOD9446663 Si02
#       6
#     8   8   8   8   8   8
#     4   8  15  29  47  68  95 124 156 196 237 274
#     4  10  18  29  48  72  96 124 156 191 233 280
#     4  10  19  32  49  68  93 125 156 190 234 282
#     4  10  20  31  47  71  97 125 155 191 236 285
#     4   9  17  29  47  71  93 115 153 201 235 264
#     4   8  14  26  46  70  94 122 158 198 234 269
#
# _framework density 20.970424000000001
#
# number of rings (size 3 to 8) (size 9 to 14) (size 15 to 20)
#    0.000    2.833    1.667    1.500    0.000    3.333 
#    0.000    3.333    0.000    4.000    0.000    4.667 
#    0.000    0.000    0.000    0.000    0.000    0.000 
#
# Total GULP energy -268022.466064 kJ/mol
# GULP energy per Si atom -5583.801376 kJ/mol
# Density = 2.092269 g / cm^3
# Si number density = 20.970424 Si / 1000 Ang^3
#
#
#
# Elastic Constant Matrix: (Units=GPa)
#
#
# Indices 1 2 3 4 5 6 
#
# 1 73.3114 -2.7288 8.3684 0.0000 0.0000 0.0000
# 2 -2.7288 165.8034 143.5565 0.0000 0.0000 0.0000
# 3 8.3684 143.5565 244.0123 0.0000 0.0000 0.0000
# 4 0.0000 0.0000 0.0000 45.3016 0.0000 0.0000
# 5 0.0000 0.0000 0.0000 0.0000 -1.6892 0.0000
# 6 0.0000 0.0000 0.0000 0.0000 0.0000 18.7900
#
#
#
# Elastic Compliance Matrix: (Units=1/GPa)
#
#
# Indices 1 2 3 4 5 6 
#
# 1 0.013830 0.001301 -0.001240 0.000000 0.000000 0.000000
# 2 0.001301 0.012415 -0.007349 0.000000 0.000000 0.000000
# 3 -0.001240 -0.007349 0.008464 0.000000 0.000000 0.000000
# 4 0.000000 0.000000 0.000000 0.022074 0.000000 0.000000
# 5 0.000000 0.000000 0.000000 0.000000 -0.591982 0.000000
# 6 0.000000 0.000000 0.000000 0.000000 0.000000 0.053220
#
#
# Mechanical properties :
#
#
# Convention : Reuss Voigt Hill
#
# Bulk Modulus (GPa) = 49.66518 86.83548 68.25033
# Shear Modulus (GPa) = -10.85325 34.74254 11.94464
#
# Velocity S-wave (km/s) = -2.27744 4.07472 2.38921
# Velocity P-wave (km/s) = 4.10112 7.97723 6.34253
#
# Compressibility (1/GPa) = 0.02013483
#
# Stress axis : x y z
#
# Youngs Moduli (GPa) = 72.30457 80.54493 118.14600
#
# Poissons Ratio (x) = -0.10479 0.14647
# Poissons Ratio (y) = -0.09407 0.86823
# Poissons Ratio (z) = 0.08964 0.59191
#
# Static dielectric constant tensor:
#      x y z
#    x 1.844220 0.000000 0.000000 
#    y 0.000000 1.687670 0.000000 
#    z 0.000000 0.000000 1.734440 
# 
# From -- ./inp_files/17622.got.cif
#   From: 2010.05.17/outbox.cif.g08.bks.cpg/sg59_9_cif.got.tgz:17622.got - 2010.06.03 14:40:33.
