data_PCOD9446310
_publ_section_title
;
Structure prediction by ZEFSAII (Michael W. Deem and Ramdas Pophale) SiO2 
 PCOD9446310
Probable space group: P M M N
;
_chemical_formula_sum "Si O2"
_cell_formula_units_Z 64
_cell_length_a 7.519514
_cell_length_b 24.630433
_cell_length_c 15.913240
_cell_angle_alpha 90.000000
_cell_angle_beta 90.000000
_cell_angle_gamma 90.000000
_cell_volume 2947.273449
_symmetry_space_group_name_H-M "P M M N"
_symmetry_group_IT_number 59
_space_group.IT_coordinate_system_code '2'
_symmetry_cell_setting 'orthorhombic'
loop_
_space_group_symop_operation_xyz
x,y,z
1/2-x,1/2-y,z
1/2+x,-y,-z
-x,1/2+y,-z
-x,-y,-z
1/2+x,1/2+y,-z
1/2-x,y,z
x,1/2-y,z
loop_
_atom_site_type_symbol
_atom_site_label
_atom_site_fract_x
_atom_site_fract_y
_atom_site_fract_z
Si Si1 0.466737 0.502803 0.353032
Si Si2 0.032148 0.611364 0.091899
Si Si3 0.036384 0.879069 0.407411
Si Si4 0.538143 0.613525 0.594234
Si Si5 0.532533 0.187803 0.753896
Si Si6 0.544987 0.375502 0.093032
Si Si7 0.541832 0.810741 0.742107
Si Si8 0.034977 0.494457 0.156831
O O1 0.250000 0.504246 0.356318
O O2 0.530448 0.559662 0.390649
O O3 0.530384 0.448349 0.399096
O O4 0.515291 0.498367 0.254857
O O5 0.250000 0.610915 0.090813
O O6 0.977452 0.650394 0.167870
O O7 0.977202 0.549438 0.110591
O O8 0.969454 0.630566 0.000576
O O9 0.250000 0.880535 0.400764
O O10 0.973671 0.839605 0.333364
O O11 0.992565 0.862834 0.502116
O O12 0.750000 0.609115 0.606925
O O13 0.464760 0.650633 0.669348
O O14 0.750000 0.187675 0.753925
O O15 0.475149 0.250000 0.761553
O O16 0.750000 0.359140 0.089300
O O17 0.466218 0.340751 0.168611
O O18 0.533206 0.439035 0.116797
O O19 0.750000 0.805414 0.721653
O O20 0.465767 0.750000 0.745075
O O21 0.250000 0.492026 0.153835
#
# Coordination Sequence:
#
# PCOD9446310 Si02
#       8
#     8   8   8   8   8   8   8   8
#     4   9  16  30  54  77 101 136 178 217 258 312
#     4   9  18  32  53  80 110 145 181 217 266 321
#     4  10  19  32  53  81 107 135 173 219 268 318
#     4  10  20  35  54  77 103 136 177 220 266 319
#     4   9  17  31  52  77 105 139 180 219 258 315
#     4  11  22  34  53  86 117 138 170 225 284 323
#     4  10  22  41  61  77 100 145 196 226 256 318
#     4  10  17  33  58  78 105 147 186 217 257 324
#
# _framework density 21.714984000000001
#
# number of rings (size 3 to 8) (size 9 to 14) (size 15 to 20)
#    0.000    2.250    2.500    1.125    0.000    1.750 
#    0.000    2.500    0.000    1.500    0.000    0.000 
#    0.000    0.000    0.000    0.000    0.000    0.000 
#
# Total GULP energy -357567.300338 kJ/mol
# GULP energy per Si atom -5586.989068 kJ/mol
# Density = 2.166556 g / cm^3
# Si number density = 21.714984 Si / 1000 Ang^3
#
#
#
# Elastic Constant Matrix: (Units=GPa)
#
#
# Indices 1 2 3 4 5 6 
#
# 1 52.4105 -2.7651 -11.3323 0.0000 0.0000 0.0000
# 2 -2.7651 130.7561 42.5764 0.0000 0.0000 0.0000
# 3 -11.3323 42.5764 131.0656 0.0000 0.0000 0.0000
# 4 0.0000 0.0000 0.0000 0.0328 0.0000 0.0000
# 5 0.0000 0.0000 0.0000 0.0000 -3.8685 0.0000
# 6 0.0000 0.0000 0.0000 0.0000 0.0000 -83.6842
#
#
#
# Elastic Compliance Matrix: (Units=1/GPa)
#
#
# Indices 1 2 3 4 5 6 
#
# 1 0.019446 -0.000152 0.001731 0.000000 0.000000 0.000000
# 2 -0.000152 0.008554 -0.002792 0.000000 0.000000 0.000000
# 3 0.001731 -0.002792 0.008686 0.000000 0.000000 0.000000
# 4 0.000000 0.000000 0.000000 30.532765 0.000000 0.000000
# 5 0.000000 0.000000 0.000000 0.000000 -0.258496 0.000000
# 6 0.000000 0.000000 0.000000 0.000000 0.000000 -0.011950
#
#
# Mechanical properties :
#
#
# Convention : Reuss Voigt Hill
#
# Bulk Modulus (GPa) = 29.18876 41.24337 35.21607
# Shear Modulus (GPa) = 0.16495 1.54622 0.85558
#
# Velocity S-wave (km/s) = 0.27591 0.84475 0.62838
# Velocity P-wave (km/s) = 3.68408 4.47054 4.09623
#
# Compressibility (1/GPa) = 0.03425976
#
# Stress axis : x y z
#
# Youngs Moduli (GPa) = 51.42346 116.90897 115.12333
#
# Poissons Ratio (x) = 0.01781 -0.19927
# Poissons Ratio (y) = 0.00784 0.32140
# Poissons Ratio (z) = -0.08901 0.32639
#
# Static dielectric constant tensor:
#      x y z
#    x 1.819300 0.000000 0.000000 
#    y 0.000000 1.763570 0.000000 
#    z 0.000000 0.000000 1.763900 
# 
# From -- ./inp_files/21549.got.cif
#   From: 2010.05.17/outbox.cif.g08.bks.cpg/sg59_11_cif.got.tgz:21549.got - 2010.06.03 14:40:33.
