data_PCOD9446803
_publ_section_title
;
Structure prediction by ZEFSAII (Michael W. Deem and Ramdas Pophale) SiO2 
 PCOD9446803
Probable space group: P M M N
;
_chemical_formula_sum "Si O2"
_cell_formula_units_Z 64
_cell_length_a 25.018764
_cell_length_b 7.391871
_cell_length_c 15.215468
_cell_angle_alpha 90.000000
_cell_angle_beta 90.000000
_cell_angle_gamma 90.000000
_cell_volume 2813.879818
_symmetry_space_group_name_H-M "P M M N"
_symmetry_group_IT_number 59
_space_group.IT_coordinate_system_code '2'
_symmetry_cell_setting 'orthorhombic'
loop_
_space_group_symop_operation_xyz
x,y,z
1/2-x,1/2-y,z
1/2+x,-y,-z
-x,1/2+y,-z
-x,-y,-z
1/2+x,1/2+y,-z
1/2-x,y,z
x,1/2-y,z
loop_
_atom_site_type_symbol
_atom_site_label
_atom_site_fract_x
_atom_site_fract_y
_atom_site_fract_z
Si Si1 0.310899 0.465106 0.983295
Si Si2 0.847502 0.470786 0.535480
Si Si3 0.806523 0.470139 0.717746
Si Si4 0.189414 0.531063 0.656199
Si Si5 0.608966 0.032975 0.855762
Si Si6 0.001500 0.028173 0.780983
Si Si7 0.619200 0.539515 0.176449
Si Si8 0.534613 0.034270 0.586815
O O1 0.250000 0.535450 0.997793
O O2 0.304987 0.250000 0.972510
O O3 0.353658 0.491245 0.061365
O O4 0.340340 0.538805 0.896082
O O5 0.847954 0.250000 0.532156
O O6 0.810357 0.522737 0.616556
O O7 0.828532 0.531286 0.440310
O O8 0.906368 0.532974 0.563199
O O9 0.750000 0.528440 0.757341
O O10 0.807730 0.250000 0.720360
O O11 0.857224 0.532848 0.771994
O O12 0.250000 0.472077 0.675401
O O13 0.189219 0.750000 0.655813
O O14 0.148256 0.470835 0.730006
O O15 0.606168 0.250000 0.851721
O O16 0.547930 0.971263 0.843372
O O17 0.003080 0.250000 0.779755
O O18 0.989238 0.969632 0.680028
O O19 0.059331 0.964176 0.814066
O O20 0.612141 0.750000 0.152429
O O21 0.539385 0.250000 0.597862
O O22 0.500000 0.000000 0.500000
#
# Coordination Sequence:
#
# PCOD9446803 Si02
#       8
#     8   8   8   8   8   8   8   8
#     4  10  22  39  56  76 104 139 179 222 272 329
#     4   9  16  28  46  71 104 138 169 206 260 316
#     4   9  15  25  46  75 103 132 167 204 248 309
#     4  10  20  33  51  78 109 138 175 228 276 308
#     4  10  19  34  57  84 109 135 173 222 268 314
#     4   9  18  34  55  80 110 140 177 223 265 311
#     4  10  21  38  58  76 102 146 187 217 262 326
#     4  10  18  30  49  73 104 141 177 216 257 304
#
# _framework density 22.744395999999998
#
# number of rings (size 3 to 8) (size 9 to 14) (size 15 to 20)
#    0.000    2.375    1.250    1.875    0.000    4.000 
#    0.000    1.250    0.000    0.750    0.000    0.000 
#    0.000    0.000    0.000    0.000    0.000    0.000 
#
# Total GULP energy -357368.346378 kJ/mol
# GULP energy per Si atom -5583.880412 kJ/mol
# Density = 2.269263 g / cm^3
# Si number density = 22.744396 Si / 1000 Ang^3
#
#
#
# Elastic Constant Matrix: (Units=GPa)
#
#
# Indices 1 2 3 4 5 6 
#
# 1 210.3614 11.8600 75.1498 0.0000 0.0000 0.0000
# 2 11.8600 76.0263 -1.9479 0.0000 0.0000 0.0000
# 3 75.1498 -1.9479 116.7677 0.0000 0.0000 0.0000
# 4 0.0000 0.0000 0.0000 -144.8413 0.0000 0.0000
# 5 0.0000 0.0000 0.0000 0.0000 30.2626 0.0000
# 6 0.0000 0.0000 0.0000 0.0000 0.0000 1.9697
#
#
#
# Elastic Compliance Matrix: (Units=1/GPa)
#
#
# Indices 1 2 3 4 5 6 
#
# 1 0.006260 -0.001080 -0.004047 0.000000 0.000000 0.000000
# 2 -0.001080 0.013345 0.000918 0.000000 0.000000 0.000000
# 3 -0.004047 0.000918 0.011184 0.000000 0.000000 0.000000
# 4 0.000000 0.000000 0.000000 -0.006904 0.000000 0.000000
# 5 0.000000 0.000000 0.000000 0.000000 0.033044 0.000000
# 6 0.000000 0.000000 0.000000 0.000000 0.000000 0.507704
#
#
# Mechanical properties :
#
#
# Convention : Reuss Voigt Hill
#
# Bulk Modulus (GPa) = 44.70133 63.69771 54.19952
# Shear Modulus (GPa) = 8.61312 -1.31559 3.64877
#
# Velocity S-wave (km/s) = 1.94811 -0.76137 1.26796
# Velocity P-wave (km/s) = 4.97560 5.22435 5.10149
#
# Compressibility (1/GPa) = 0.02237070
#
# Stress axis : x y z
#
# Youngs Moduli (GPa) = 159.73319 74.93230 89.41342
#
# Poissons Ratio (x) = 0.08095 0.36187
# Poissons Ratio (y) = 0.17256 -0.08207
# Poissons Ratio (z) = 0.64646 -0.06878
#
# Static dielectric constant tensor:
#      x y z
#    x 1.731560 0.000000 0.000000 
#    y 0.000000 1.903600 0.000000 
#    z 0.000000 0.000000 1.816710 
# 
# From -- ./inp_files/24646.got.cif
#   From: 2010.05.17/outbox.cif.g08.bks.cpg/sg59_13_cif.got.tgz:24646.got - 2010.06.03 14:40:33.
