data_PCOD9446623
_publ_section_title
;
Structure prediction by ZEFSAII (Michael W. Deem and Ramdas Pophale) SiO2 
 PCOD9446623
Probable space group: P M M N
;
_chemical_formula_sum "Si O2"
_cell_formula_units_Z 64
_cell_length_a 8.071904
_cell_length_b 29.499558
_cell_length_c 16.289952
_cell_angle_alpha 90.000000
_cell_angle_beta 90.000000
_cell_angle_gamma 90.000000
_cell_volume 3878.924278
_symmetry_space_group_name_H-M "P M M N"
_symmetry_group_IT_number 59
_space_group.IT_coordinate_system_code '2'
_symmetry_cell_setting 'orthorhombic'
loop_
_space_group_symop_operation_xyz
x,y,z
1/2-x,1/2-y,z
1/2+x,-y,-z
-x,1/2+y,-z
-x,-y,-z
1/2+x,1/2+y,-z
1/2-x,y,z
x,1/2-y,z
loop_
_atom_site_type_symbol
_atom_site_label
_atom_site_fract_x
_atom_site_fract_y
_atom_site_fract_z
Si Si1 0.547791 0.300527 0.088013
Si Si2 0.050966 0.944410 0.677751
Si Si3 0.446723 0.103890 0.838178
Si Si4 0.948631 0.552337 0.998274
Si Si5 0.050703 0.892873 0.837363
Si Si6 0.550364 0.052759 0.501031
Si Si7 0.050081 0.800793 0.102369
Si Si8 0.947288 0.451118 0.679397
O O1 0.750000 0.300850 0.088606
O O2 0.494993 0.250000 0.113128
O O3 0.488710 0.342302 0.142598
O O4 0.498211 0.307613 0.992863
O O5 0.250000 0.939529 0.677206
O O6 0.984836 0.915781 0.754387
O O7 0.988558 0.929511 0.587214
O O8 0.016051 0.997895 0.689785
O O9 0.250000 0.098597 0.838079
O O10 0.511473 0.078486 0.920303
O O11 0.488748 0.156868 0.845572
O O12 0.511451 0.080034 0.756410
O O13 0.750000 0.555004 0.997673
O O14 0.000000 0.500000 0.000000
O O15 0.012920 0.576307 0.916237
O O16 0.250000 0.890291 0.830111
O O17 0.750000 0.056614 0.499410
O O18 0.493002 0.068730 0.591104
O O19 0.500000 0.000000 0.500000
O O20 0.250000 0.801243 0.103586
O O21 0.996171 0.750000 0.127300
O O22 0.750000 0.455813 0.674196
#
# Coordination Sequence:
#
# PCOD9446623 Si02
#       8
#     8   8   8   8   8   8   8   8
#     4   8  14  26  45  67  88 111 143 181 216 256
#     4   9  17  29  45  67  93 118 146 186 231 272
#     4  11  22  33  45  65  92 121 152 189 229 265
#     4  11  23  34  43  59  88 124 155 183 216 257
#     4  10  18  29  47  67  88 117 149 180 219 264
#     4   8  15  28  44  63  87 114 147 186 229 269
#     4   9  17  31  51  70  88 114 149 188 226 265
#     4  10  19  30  46  65  87 121 157 189 224 269
#
# _framework density 16.499419
#
# number of rings (size 3 to 8) (size 9 to 14) (size 15 to 20)
#    0.000    2.500    1.250    2.625    0.000    5.750 
#    0.000    0.000    0.000    0.375    0.000    0.875 
#    0.000    5.000    0.000    0.000    0.000    0.125 
#
# Total GULP energy -356610.838319 kJ/mol
# GULP energy per Si atom -5572.044349 kJ/mol
# Density = 1.646187 g / cm^3
# Si number density = 16.499419 Si / 1000 Ang^3
#
#
#
# Elastic Constant Matrix: (Units=GPa)
#
#
# Indices 1 2 3 4 5 6 
#
# 1 7.9151 -4.9129 3.3806 0.0000 0.0000 0.0000
# 2 -4.9129 100.1674 65.5218 0.0000 0.0000 0.0000
# 3 3.3806 65.5218 147.0372 0.0000 0.0000 0.0000
# 4 0.0000 0.0000 0.0000 8.4021 0.0000 0.0000
# 5 0.0000 0.0000 0.0000 0.0000 -10.0966 0.0000
# 6 0.0000 0.0000 0.0000 0.0000 0.0000 12.6214
#
#
#
# Elastic Compliance Matrix: (Units=1/GPa)
#
#
# Indices 1 2 3 4 5 6 
#
# 1 0.137804 0.012465 -0.008723 0.000000 0.000000 0.000000
# 2 0.012465 0.015218 -0.007068 0.000000 0.000000 0.000000
# 3 -0.008723 -0.007068 0.010151 0.000000 0.000000 0.000000
# 4 0.000000 0.000000 0.000000 0.119018 0.000000 0.000000
# 5 0.000000 0.000000 0.000000 0.000000 -0.099043 0.000000
# 6 0.000000 0.000000 0.000000 0.000000 0.000000 0.079230
#
#
# Mechanical properties :
#
#
# Convention : Reuss Voigt Hill
#
# Bulk Modulus (GPa) = 6.38893 42.56650 24.47772
# Shear Modulus (GPa) = 15.56644 14.92739 15.24692
#
# Velocity S-wave (km/s) = 3.07490 3.01112 3.04318
# Velocity P-wave (km/s) = 4.06046 6.15987 5.21686
#
# Compressibility (1/GPa) = 0.15652079
#
# Stress axis : x y z
#
# Youngs Moduli (GPa) = 7.25670 65.71211 98.51167
#
# Poissons Ratio (x) = -0.81907 0.85928
# Poissons Ratio (y) = -0.09045 0.69627
# Poissons Ratio (z) = 0.06330 0.46444
#
# Static dielectric constant tensor:
#      x y z
#    x 1.591150 0.000000 0.000000 
#    y 0.000000 1.538170 0.000000 
#    z 0.000000 0.000000 1.589920 
# 
# From -- ./inp_files/21808.got.cif
#   From: 2010.05.17/outbox.cif.g08.bks.cpg/sg59_11_cif.got.tgz:21808.got - 2010.06.03 14:40:33.
