data_PCOD9446785
_publ_section_title
;
Structure prediction by ZEFSAII (Michael W. Deem and Ramdas Pophale) SiO2 
 PCOD9446785
Probable space group: P M M N
;
_chemical_formula_sum "Si O2"
_cell_formula_units_Z 64
_cell_length_a 8.021957
_cell_length_b 28.666168
_cell_length_c 15.030931
_cell_angle_alpha 90.000000
_cell_angle_beta 90.000000
_cell_angle_gamma 90.000000
_cell_volume 3456.494360
_symmetry_space_group_name_H-M "P M M N"
_symmetry_group_IT_number 59
_space_group.IT_coordinate_system_code '2'
_symmetry_cell_setting 'orthorhombic'
loop_
_space_group_symop_operation_xyz
x,y,z
1/2-x,1/2-y,z
1/2+x,-y,-z
-x,1/2+y,-z
-x,-y,-z
1/2+x,1/2+y,-z
1/2-x,y,z
x,1/2-y,z
loop_
_atom_site_type_symbol
_atom_site_label
_atom_site_fract_x
_atom_site_fract_y
_atom_site_fract_z
Si Si1 0.444280 0.039070 0.844168
Si Si2 0.445484 0.615264 0.016864
Si Si3 0.048837 0.696676 0.142370
Si Si4 0.552684 0.465349 0.641288
Si Si5 0.445604 0.063770 0.152575
Si Si6 0.445703 0.119888 0.524066
Si Si7 0.451548 0.196473 0.659346
Si Si8 0.546486 0.571650 0.647203
O O1 0.250000 0.051262 0.840962
O O2 0.530980 0.072574 0.914641
O O3 0.519907 0.043894 0.745585
O O4 0.464124 0.984777 0.870091
O O5 0.250000 0.621826 0.999570
O O6 0.512147 0.660998 0.067555
O O7 0.529036 0.601018 0.924584
O O8 0.250000 0.697097 0.138358
O O9 0.988936 0.750000 0.131527
O O10 0.001080 0.680578 0.241628
O O11 0.750000 0.462385 0.624208
O O12 0.462789 0.427106 0.581869
O O13 0.495861 0.518519 0.623919
O O14 0.250000 0.052077 0.159788
O O15 0.502582 0.080067 0.250558
O O16 0.250000 0.130356 0.512005
O O17 0.516937 0.161906 0.583259
O O18 0.516224 0.107513 0.426956
O O19 0.250000 0.196402 0.656380
O O20 0.508875 0.250000 0.648393
O O21 0.750000 0.572192 0.644322
#
# Coordination Sequence:
#
# PCOD9446785 Si02
#       8
#     8   8   8   8   8   8   8   8
#     4  11  21  33  49  71 100 132 165 198 237 285
#     4  11  21  33  51  74  98 125 161 201 243 290
#     4   9  19  35  53  72  96 126 157 191 235 288
#     4  10  19  31  46  69 100 128 158 197 240 283
#     4  10  20  35  51  69  97 131 166 202 242 283
#     4  10  18  30  49  70  93 125 163 196 234 283
#     4   9  18  31  48  72  99 123 150 189 235 282
#     4   8  17  32  48  66  92 127 162 198 235 276
#
# _framework density 18.515868999999999
#
# number of rings (size 3 to 8) (size 9 to 14) (size 15 to 20)
#    0.000    2.250    0.000    4.500    0.000    3.500 
#    0.000    3.125    0.000    0.750    0.000    1.750 
#    0.000    0.000    0.000    0.000    0.000    0.000 
#
# Total GULP energy -357227.012081 kJ/mol
# GULP energy per Si atom -5581.672064 kJ/mol
# Density = 1.847373 g / cm^3
# Si number density = 18.515869 Si / 1000 Ang^3
#
#
#
# Elastic Constant Matrix: (Units=GPa)
#
#
# Indices 1 2 3 4 5 6 
#
# 1 18.3826 -7.8982 -14.8235 0.0000 0.0000 0.0000
# 2 -7.8982 69.4763 62.6955 0.0000 0.0000 0.0000
# 3 -14.8235 62.6955 94.9742 0.0000 0.0000 0.0000
# 4 0.0000 0.0000 0.0000 30.9745 0.0000 0.0000
# 5 0.0000 0.0000 0.0000 0.0000 12.9198 0.0000
# 6 0.0000 0.0000 0.0000 0.0000 0.0000 14.9682
#
#
#
# Elastic Compliance Matrix: (Units=1/GPa)
#
#
# Indices 1 2 3 4 5 6 
#
# 1 0.062727 -0.004214 0.012572 0.000000 0.000000 0.000000
# 2 -0.004214 0.035884 -0.024346 0.000000 0.000000 0.000000
# 3 0.012572 -0.024346 0.028563 0.000000 0.000000 0.000000
# 4 0.000000 0.000000 0.000000 0.032285 0.000000 0.000000
# 5 0.000000 0.000000 0.000000 0.000000 0.077401 0.000000
# 6 0.000000 0.000000 0.000000 0.000000 0.000000 0.066808
#
#
# Mechanical properties :
#
#
# Convention : Reuss Voigt Hill
#
# Bulk Modulus (GPa) = 10.50444 29.19786 19.85115
# Shear Modulus (GPa) = 13.61000 21.29645 17.45323
#
# Velocity S-wave (km/s) = 2.71411 3.39510 3.07352
# Velocity P-wave (km/s) = 3.93794 5.58321 4.83113
#
# Compressibility (1/GPa) = 0.09519784
#
# Stress axis : x y z
#
# Youngs Moduli (GPa) = 15.94215 27.86731 35.01011
#
# Poissons Ratio (x) = 0.11745 -0.44016
# Poissons Ratio (y) = 0.06719 0.85236
# Poissons Ratio (z) = -0.20043 0.67846
#
# Static dielectric constant tensor:
#      x y z
#    x 1.664780 0.000000 0.000000 
#    y 0.000000 1.640950 0.000000 
#    z 0.000000 0.000000 1.643470 
# 
# From -- ./inp_files/21933.got.cif
#   From: 2010.05.17/outbox.cif.g08.bks.cpg/sg59_11_cif.got.tgz:21933.got - 2010.06.03 14:40:33.
