data_PCOD9446071
_publ_section_title
;
Structure prediction by ZEFSAII (Michael W. Deem and Ramdas Pophale) SiO2 
 PCOD9446071
Probable space group: P N N M
;
_chemical_formula_sum "Si O2"
_cell_formula_units_Z 64
_cell_length_a 15.000000
_cell_length_b 24.000000
_cell_length_c 9.000000
_cell_angle_alpha 90.000000
_cell_angle_beta 90.000000
_cell_angle_gamma 90.000000
_cell_volume 3240.000000
_symmetry_space_group_name_H-M "P N N M"
_symmetry_group_IT_number 58
_symmetry_cell_setting 'orthorhombic'
loop_
_space_group_symop_operation_xyz
x,y,z
-x,-y,z
1/2+x,1/2-y,1/2-z
1/2-x,1/2+y,1/2-z
-x,-y,-z
x,y,-z
1/2-x,1/2+y,1/2+z
1/2+x,1/2-y,1/2+z
loop_
_atom_site_type_symbol
_atom_site_label
_atom_site_fract_x
_atom_site_fract_y
_atom_site_fract_z
Si Si1 0.095461 0.840844 0.329992
Si Si2 0.606906 0.888522 0.319633
Si Si3 0.348383 0.237423 0.323101
Si Si4 0.766627 0.078353 0.824085
Si Si5 0.091607 0.373818 0.822629
Si Si6 0.604903 0.357661 0.829490
Si Si7 0.230493 0.038636 0.678514
Si Si8 0.337323 0.753026 0.325306
O O1 0.127299 0.836796 0.500000
O O2 0.086321 0.779250 0.261652
O O3 0.163915 0.876288 0.235127
O O4 0.999585 0.869601 0.328874
O O5 0.607693 0.888786 0.500000
O O6 0.641380 0.826957 0.277255
O O7 0.505177 0.893933 0.272043
O O8 0.673749 0.936837 0.272632
O O9 0.360833 0.241252 0.500000
O O10 0.251364 0.258208 0.273028
O O11 0.670774 0.095477 0.759908
O O12 0.791324 0.018233 0.759251
O O13 0.765535 0.077847 0.000000
O O14 0.101614 0.307206 0.799951
O O15 0.100137 0.383532 0.000000
O O16 0.661429 0.411751 0.790134
O O17 0.622130 0.305605 0.723638
O O18 0.630933 0.341777 0.000000
O O19 0.231532 0.029570 0.500000
O O20 0.314890 0.752236 0.500000
#
# Coordination Sequence:
#
# PCOD9446071 Si02
#       8
#     8   8   8   8   8   8   8   8
#     4  11  23  40  62  91 122 158 200 247 301 361
#     4   9  19  37  64  91 118 157 200 240 291 352
#     4  11  20  36  62  92 125 159 198 244 295 356
#     4  12  26  42  60  85 117 158 201 254 307 355
#     4  10  21  39  62  89 120 158 201 243 289 355
#     4  10  22  40  64  91 122 158 200 246 300 359
#     4  10  21  42  65  85 114 157 203 249 297 357
#     4  11  21  34  59  92 128 163 197 239 294 355
#
# _framework density 19.753086
#
# number of rings (size 3 to 8) (size 9 to 14) (size 15 to 20)
#    0.000    1.500    2.500    3.000    0.000    4.000 
#    0.000    6.875    0.000    0.000    0.000    0.000 
#    0.000    0.000    0.000    0.000    0.000    0.000 
#
# Total GULP energy -357533.413915 kJ/mol
# GULP energy per Si atom -5586.459592 kJ/mol
# Density = 1.970813 g / cm^3
# Si number density = 19.753086 Si / 1000 Ang^3
#
#
#
# Elastic Constant Matrix: (Units=GPa)
#
#
# Indices 1 2 3 4 5 6 
#
# 1 53.4824 2.6314 8.8299 0.0000 0.0000 0.0000
# 2 2.6314 49.1428 18.9454 0.0000 0.0000 0.0000
# 3 8.8299 18.9454 46.1631 0.0000 0.0000 0.0000
# 4 0.0000 0.0000 0.0000 29.4462 0.0000 0.0000
# 5 0.0000 0.0000 0.0000 0.0000 -84.3721 0.0000
# 6 0.0000 0.0000 0.0000 0.0000 0.0000 1.3152
#
#
#
# Elastic Compliance Matrix: (Units=1/GPa)
#
#
# Indices 1 2 3 4 5 6 
#
# 1 0.019316 0.000463 -0.003885 0.000000 0.000000 0.000000
# 2 0.000463 0.024185 -0.010014 0.000000 0.000000 0.000000
# 3 -0.003885 -0.010014 0.026515 0.000000 0.000000 0.000000
# 4 0.000000 0.000000 0.000000 0.033960 0.000000 0.000000
# 5 0.000000 0.000000 0.000000 0.000000 -0.011852 0.000000
# 6 0.000000 0.000000 0.000000 0.000000 0.000000 0.760368
#
#
# Mechanical properties :
#
#
# Convention : Reuss Voigt Hill
#
# Bulk Modulus (GPa) = 23.17765 23.28908 23.23337
# Shear Modulus (GPa) = 5.59444 -2.83004 1.38220
#
# Velocity S-wave (km/s) = 1.68473 -1.19826 0.83741
# Velocity P-wave (km/s) = 3.94254 3.14663 3.56685
#
# Compressibility (1/GPa) = 0.04314500
#
# Stress axis : x y z
#
# Youngs Moduli (GPa) = 51.76970 41.34855 37.71425
#
# Poissons Ratio (x) = -0.01916 0.14652
# Poissons Ratio (y) = -0.02399 0.37767
# Poissons Ratio (z) = 0.20112 0.41407
#
# Static dielectric constant tensor:
#      x y z
#    x 1.736390 0.000000 0.000000 
#    y 0.000000 1.667130 0.000000 
#    z 0.000000 0.000000 1.664370 
# 
# From -- ./inp_files/6941.got.cif
#   From: 2010.05.17/outbox.ucp.g08.bks.cvg/sg58_4_cif.got.tgz:6941.got - 2010.06.11 16:41:41.
