data_PCOD9446541
_publ_section_title
;
Structure prediction by ZEFSAII (Michael W. Deem and Ramdas Pophale) SiO2 
 PCOD9446541
Probable space group: P M M N
;
_chemical_formula_sum "Si O2"
_cell_formula_units_Z 40
_cell_length_a 18.274541
_cell_length_b 7.518563
_cell_length_c 14.447881
_cell_angle_alpha 90.000000
_cell_angle_beta 90.000000
_cell_angle_gamma 90.000000
_cell_volume 1985.114112
_symmetry_space_group_name_H-M "P M M N"
_symmetry_group_IT_number 59
_space_group.IT_coordinate_system_code '2'
_symmetry_cell_setting 'orthorhombic'
loop_
_space_group_symop_operation_xyz
x,y,z
1/2-x,1/2-y,z
1/2+x,-y,-z
-x,1/2+y,-z
-x,-y,-z
1/2+x,1/2+y,-z
1/2-x,y,z
x,1/2-y,z
loop_
_atom_site_type_symbol
_atom_site_label
_atom_site_fract_x
_atom_site_fract_y
_atom_site_fract_z
Si Si1 0.331613 0.034822 0.199948
Si Si2 0.977524 0.536643 0.895669
Si Si3 0.937570 0.453711 0.278808
Si Si4 0.165785 0.531563 0.566047
Si Si5 0.917128 0.458623 0.616529
O O1 0.250000 0.970816 0.179139
O O2 0.330405 0.250000 0.197154
O O3 0.396268 0.972719 0.131782
O O4 0.357145 0.981700 0.302679
O O5 0.976214 0.750000 0.883799
O O6 0.033872 0.465949 0.817665
O O7 0.000000 0.500000 0.000000
O O8 0.916699 0.250000 0.258902
O O9 0.871848 0.531263 0.339039
O O10 0.008872 0.453895 0.345649
O O11 0.250000 0.477785 0.556565
O O12 0.164404 0.750000 0.565285
O O13 0.116517 0.473580 0.479083
O O14 0.933476 0.250000 0.606086
#
# Coordination Sequence:
#
# PCOD9446541 Si02
#       5
#     8   8   8   8   8
#     4   9  18  33  51  71  96 125 156 191 234 284
#     4   9  18  32  50  70  90 117 154 193 234 278
#     4   9  18  33  50  67  91 126 164 194 228 282
#     4   9  17  29  46  69  97 127 157 191 230 272
#     4  10  18  28  47  74 100 124 153 191 233 274
#
# _framework density 20.149975000000001
#
# number of rings (size 3 to 8) (size 9 to 14) (size 15 to 20)
#    0.000    2.800    0.000    3.000    0.000    4.400 
#    0.000    2.000    0.000    4.200    0.000    0.000 
#    0.000    0.000    0.000    0.000    0.000    0.000 
#
# Total GULP energy -223141.415813 kJ/mol
# GULP energy per Si atom -5578.535395 kJ/mol
# Density = 2.010411 g / cm^3
# Si number density = 20.149975 Si / 1000 Ang^3
#
#
#
# Elastic Constant Matrix: (Units=GPa)
#
#
# Indices 1 2 3 4 5 6 
#
# 1 31.8301 -11.1374 43.9903 0.0000 0.0000 0.0000
# 2 -11.1374 53.7330 -7.3841 0.0000 0.0000 0.0000
# 3 43.9903 -7.3841 132.8666 0.0000 0.0000 0.0000
# 4 0.0000 0.0000 0.0000 8.7792 0.0000 0.0000
# 5 0.0000 0.0000 0.0000 0.0000 15.3524 0.0000
# 6 0.0000 0.0000 0.0000 0.0000 0.0000 11.3798
#
#
#
# Elastic Compliance Matrix: (Units=1/GPa)
#
#
# Indices 1 2 3 4 5 6 
#
# 1 0.063098 0.010286 -0.020319 0.000000 0.000000 0.000000
# 2 0.010286 0.020431 -0.002270 0.000000 0.000000 0.000000
# 3 -0.020319 -0.002270 0.014128 0.000000 0.000000 0.000000
# 4 0.000000 0.000000 0.000000 0.113905 0.000000 0.000000
# 5 0.000000 0.000000 0.000000 0.000000 0.065136 0.000000
# 6 0.000000 0.000000 0.000000 0.000000 0.000000 0.087875
#
#
# Mechanical properties :
#
#
# Convention : Reuss Voigt Hill
#
# Bulk Modulus (GPa) = 13.68928 29.92970 21.80949
# Shear Modulus (GPa) = 12.09104 19.96633 16.02869
#
# Velocity S-wave (km/s) = 2.45225 3.15125 2.82347
# Velocity P-wave (km/s) = 3.85052 5.30342 4.63426
#
# Compressibility (1/GPa) = 0.07304984
#
# Stress axis : x y z
#
# Youngs Moduli (GPa) = 15.84838 48.94608 70.78348
#
# Poissons Ratio (x) = -0.50347 1.43826
# Poissons Ratio (y) = -0.16302 0.16069
# Poissons Ratio (z) = 0.32203 0.11112
#
# Static dielectric constant tensor:
#      x y z
#    x 1.707910 0.000000 0.000000 
#    y 0.000000 1.748320 0.000000 
#    z 0.000000 0.000000 1.697240 
# 
# From -- ./inp_files/14065.got.cif
#   From: 2010.05.17/outbox.cif.g08.bks.cpg/sg59_8_cif.got.tgz:14065.got - 2010.06.03 14:40:33.
