data_PCOD9446153
_publ_section_title
;
Structure prediction by ZEFSAII (Michael W. Deem and Ramdas Pophale) SiO2 
 PCOD9446153
Probable space group: P M M N
;
_chemical_formula_sum "Si O2"
_cell_formula_units_Z 64
_cell_length_a 17.216721
_cell_length_b 26.205241
_cell_length_c 8.266217
_cell_angle_alpha 90.000000
_cell_angle_beta 90.000000
_cell_angle_gamma 90.000000
_cell_volume 3729.455262
_symmetry_space_group_name_H-M "P M M N"
_symmetry_group_IT_number 59
_space_group.IT_coordinate_system_code '2'
_symmetry_cell_setting 'orthorhombic'
loop_
_space_group_symop_operation_xyz
x,y,z
1/2-x,1/2-y,z
1/2+x,-y,-z
-x,1/2+y,-z
-x,-y,-z
1/2+x,1/2+y,-z
1/2-x,y,z
x,1/2-y,z
loop_
_atom_site_type_symbol
_atom_site_label
_atom_site_fract_x
_atom_site_fract_y
_atom_site_fract_z
Si Si1 0.161865 0.537653 0.388111
Si Si2 0.430159 0.189974 0.414663
Si Si3 0.042932 0.605468 0.560592
Si Si4 0.053849 0.966283 0.828258
Si Si5 0.118394 0.470161 0.080621
Si Si6 0.839412 0.853736 0.899283
Si Si7 0.907234 0.547492 0.399917
Si Si8 0.657251 0.849509 0.266312
O O1 0.250000 0.555846 0.385913
O O2 0.102492 0.583599 0.428301
O O3 0.142420 0.506036 0.227778
O O4 0.150302 0.493534 0.523524
O O5 0.435211 0.250000 0.389636
O O6 0.514263 0.163122 0.437009
O O7 0.388769 0.165197 0.255343
O O8 0.382883 0.179138 0.582247
O O9 0.074416 0.584207 0.730018
O O10 0.960622 0.575970 0.530857
O O11 0.973734 0.956054 0.920287
O O12 0.035417 0.012014 0.702977
O O13 0.123089 0.991771 0.928517
O O14 0.159292 0.415672 0.090707
O O15 0.750000 0.837259 0.875757
O O16 0.865434 0.835890 0.080469
O O17 0.866380 0.591405 0.297058
O O18 0.750000 0.843890 0.277594
#
# Coordination Sequence:
#
# PCOD9446153 Si02
#       8
#     8   8   8   8   8   8   8   8
#     4  11  20  30  49  78 113 146 176 214 264 324
#     4  11  24  41  60  77 100 139 194 244 282 320
#     4  10  19  36  52  76 104 139 184 230 271 314
#     4  10  17  27  50  72 104 139 178 208 247 311
#     4  11  18  29  48  79 109 147 177 207 253 320
#     4  11  22  36  54  82 119 150 180 221 273 329
#     4  10  16  32  49  74 106 146 181 207 249 309
#     4  10  21  35  54  80 112 147 180 218 265 325
#
# _framework density 17.160682999999999
#
# number of rings (size 3 to 8) (size 9 to 14) (size 15 to 20)
#    0.000    1.500    5.000    2.625    0.000    1.500 
#    0.000    1.875    0.000    0.375    0.000    0.000 
#    0.000    0.000    0.000    0.000    0.000    0.000 
#
# Total GULP energy -356295.537910 kJ/mol
# GULP energy per Si atom -5567.117780 kJ/mol
# Density = 1.712162 g / cm^3
# Si number density = 17.160683 Si / 1000 Ang^3
#
#
#
# Elastic Constant Matrix: (Units=GPa)
#
#
# Indices 1 2 3 4 5 6 
#
# 1 53.4247 34.3699 22.7654 0.0000 0.0000 0.0000
# 2 34.3699 82.7876 38.7712 0.0000 0.0000 0.0000
# 3 22.7654 38.7712 98.2773 0.0000 0.0000 0.0000
# 4 0.0000 0.0000 0.0000 14.4543 0.0000 0.0000
# 5 0.0000 0.0000 0.0000 0.0000 13.8644 0.0000
# 6 0.0000 0.0000 0.0000 0.0000 0.0000 9.0633
#
#
#
# Elastic Compliance Matrix: (Units=1/GPa)
#
#
# Indices 1 2 3 4 5 6 
#
# 1 0.025906 -0.009745 -0.002156 0.000000 0.000000 0.000000
# 2 -0.009745 0.018482 -0.005034 0.000000 0.000000 0.000000
# 3 -0.002156 -0.005034 0.012661 0.000000 0.000000 0.000000
# 4 0.000000 0.000000 0.000000 0.069184 0.000000 0.000000
# 5 0.000000 0.000000 0.000000 0.000000 0.072127 0.000000
# 6 0.000000 0.000000 0.000000 0.000000 0.000000 0.110335
#
#
# Mechanical properties :
#
#
# Convention : Reuss Voigt Hill
#
# Bulk Modulus (GPa) = 43.14434 47.36694 45.25564
# Shear Modulus (GPa) = 14.27379 16.71529 15.49454
#
# Velocity S-wave (km/s) = 2.88718 3.12436 3.00810
# Velocity P-wave (km/s) = 6.02581 6.37788 6.20434
#
# Compressibility (1/GPa) = 0.02317801
#
# Stress axis : x y z
#
# Youngs Moduli (GPa) = 38.60068 54.10535 78.98395
#
# Poissons Ratio (x) = 0.52727 0.17033
# Poissons Ratio (y) = 0.37617 0.39761
# Poissons Ratio (z) = 0.08324 0.27237
#
# Static dielectric constant tensor:
#      x y z
#    x 1.584150 0.000000 0.000000 
#    y 0.000000 1.581260 0.000000 
#    z 0.000000 0.000000 1.708440 
# 
# From -- ./inp_files/10808.got.cif
#   From: 2010.05.17/outbox.cif.g08.bks.cpg/sg59_6_cif.got.tgz:10808.got - 2010.06.03 14:40:33.
