data_PCOD9446180
_publ_section_title
;
Structure prediction by ZEFSAII (Michael W. Deem and Ramdas Pophale) SiO2 
 PCOD9446180
Probable space group: P M M N
;
_chemical_formula_sum "Si O2"
_cell_formula_units_Z 64
_cell_length_a 7.344894
_cell_length_b 15.263067
_cell_length_c 28.760619
_cell_angle_alpha 90.000000
_cell_angle_beta 90.000000
_cell_angle_gamma 90.000000
_cell_volume 3224.226715
_symmetry_space_group_name_H-M "P M M N"
_symmetry_group_IT_number 59
_space_group.IT_coordinate_system_code '2'
_symmetry_cell_setting 'orthorhombic'
loop_
_space_group_symop_operation_xyz
x,y,z
1/2-x,1/2-y,z
1/2+x,-y,-z
-x,1/2+y,-z
-x,-y,-z
1/2+x,1/2+y,-z
1/2-x,y,z
x,1/2-y,z
loop_
_atom_site_type_symbol
_atom_site_label
_atom_site_fract_x
_atom_site_fract_y
_atom_site_fract_z
Si Si1 0.471422 0.849130 0.697011
Si Si2 0.036389 0.152112 0.578344
Si Si3 0.973200 0.471533 0.386425
Si Si4 0.472279 0.650879 0.803741
Si Si5 0.469820 0.349936 0.036727
Si Si6 0.040694 0.980951 0.880827
Si Si7 0.969230 0.150299 0.471076
Si Si8 0.972285 0.849453 0.069858
O O1 0.250000 0.849454 0.696593
O O2 0.526798 0.750000 0.684021
O O3 0.531436 0.920296 0.659658
O O4 0.526080 0.865255 0.750321
O O5 0.250000 0.158223 0.589131
O O6 0.958305 0.250000 0.584042
O O7 0.022317 0.127990 0.523735
O O8 0.963380 0.071262 0.607972
O O9 0.750000 0.472159 0.386571
O O10 0.031223 0.416367 0.431705
O O11 0.250000 0.651012 0.805145
O O12 0.528510 0.750000 0.816799
O O13 0.538841 0.577504 0.839379
O O14 0.250000 0.352646 0.037977
O O15 0.525028 0.250000 0.048326
O O16 0.538692 0.419577 0.073574
O O17 0.526529 0.368066 0.983593
O O18 0.250000 0.998170 0.867586
O O19 0.961888 0.074329 0.896108
O O20 0.750000 0.150750 0.469776
O O21 0.030702 0.250000 0.461675
O O22 0.750000 0.851103 0.069925
O O23 0.026709 0.750000 0.081363
#
# Coordination Sequence:
#
# PCOD9446180 Si02
#       8
#     8   8   8   8   8   8   8   8
#     4   8  13  22  36  54  77 101 122 151 194 234
#     4   9  17  27  37  52  77 105 126 146 180 224
#     4   9  15  23  37  54  72  98 130 156 179 216
#     4   8  14  23  35  56  83 101 117 152 200 238
#     4   9  17  28  40  56  81 110 135 159 192 236
#     4  10  17  25  42  63  80 102 133 167 198 230
#     4   9  16  25  38  57  77  95 122 159 187 209
#     4   8  15  27  40  55  79 110 138 162 192 231
#
# _framework density 19.849720000000001
#
# number of rings (size 3 to 8) (size 9 to 14) (size 15 to 20)
#    0.000    3.250    0.000    3.000    0.000    2.250 
#    0.000    0.000    0.000    1.875    0.000    7.000 
#    0.000    4.000    0.000    0.000    0.000    0.125 
#
# Total GULP energy -357109.296275 kJ/mol
# GULP energy per Si atom -5579.832754 kJ/mol
# Density = 1.980454 g / cm^3
# Si number density = 19.849720 Si / 1000 Ang^3
#
#
#
# Elastic Constant Matrix: (Units=GPa)
#
#
# Indices 1 2 3 4 5 6 
#
# 1 74.6687 3.2969 0.1239 0.0000 0.0000 0.0000
# 2 3.2969 162.2605 114.9337 0.0000 0.0000 0.0000
# 3 0.1239 114.9337 109.7125 0.0000 0.0000 0.0000
# 4 0.0000 0.0000 0.0000 37.3031 0.0000 0.0000
# 5 0.0000 0.0000 0.0000 0.0000 4.1945 0.0000
# 6 0.0000 0.0000 0.0000 0.0000 0.0000 -3.4179
#
#
#
# Elastic Compliance Matrix: (Units=1/GPa)
#
#
# Indices 1 2 3 4 5 6 
#
# 1 0.013436 -0.001017 0.001050 0.000000 0.000000 0.000000
# 2 -0.001017 0.023968 -0.025107 0.000000 0.000000 0.000000
# 3 0.001050 -0.025107 0.035416 0.000000 0.000000 0.000000
# 4 0.000000 0.000000 0.000000 0.026807 0.000000 0.000000
# 5 0.000000 0.000000 0.000000 0.000000 0.238410 0.000000
# 6 0.000000 0.000000 0.000000 0.000000 0.000000 -0.292574
#
#
# Mechanical properties :
#
#
# Convention : Reuss Voigt Hill
#
# Bulk Modulus (GPa) = 44.10924 64.81672 54.46298
# Shear Modulus (GPa) = 48.46506 22.83508 35.65007
#
# Velocity S-wave (km/s) = 4.94661 3.39543 4.24252
# Velocity P-wave (km/s) = 7.40913 6.93517 7.17606
#
# Compressibility (1/GPa) = 0.02267099
#
# Stress axis : x y z
#
# Youngs Moduli (GPa) = 74.42891 41.72279 28.23616
#
# Poissons Ratio (x) = 0.04242 -0.02964
# Poissons Ratio (y) = 0.07566 0.70893
# Poissons Ratio (z) = -0.07814 1.04754
#
# Static dielectric constant tensor:
#      x y z
#    x 1.828230 0.000000 0.000000 
#    y 0.000000 1.707430 0.000000 
#    z 0.000000 0.000000 1.660240 
# 
# From -- ./inp_files/33213.got.cif
#   From: 2010.05.17/outbox.cif.g08.bks.cpg/sg59_17_cif.got.tgz:33213.got - 2010.06.03 14:40:33.
