data_PCOD9446221
_publ_section_title
;
Structure prediction by ZEFSAII (Michael W. Deem and Ramdas Pophale) SiO2 
 PCOD9446221
Probable space group: P M M N
;
_chemical_formula_sum "Si O2"
_cell_formula_units_Z 48
_cell_length_a 8.595436
_cell_length_b 22.098257
_cell_length_c 15.747997
_cell_angle_alpha 90.000000
_cell_angle_beta 90.000000
_cell_angle_gamma 90.000000
_cell_volume 2991.239964
_symmetry_space_group_name_H-M "P M M N"
_symmetry_group_IT_number 59
_space_group.IT_coordinate_system_code '2'
_symmetry_cell_setting 'orthorhombic'
loop_
_space_group_symop_operation_xyz
x,y,z
1/2-x,1/2-y,z
1/2+x,-y,-z
-x,1/2+y,-z
-x,-y,-z
1/2+x,1/2+y,-z
1/2-x,y,z
x,1/2-y,z
loop_
_atom_site_type_symbol
_atom_site_label
_atom_site_fract_x
_atom_site_fract_y
_atom_site_fract_z
Si Si1 0.063817 0.542043 0.801316
Si Si2 0.938911 0.596114 0.156782
Si Si3 0.563839 0.545615 0.618776
Si Si4 0.563762 0.412046 0.554718
Si Si5 0.436784 0.433460 0.024235
Si Si6 0.938403 0.819598 0.309794
O O1 0.250000 0.542679 0.800807
O O2 0.012098 0.471680 0.815103
O O3 0.999604 0.562761 0.710923
O O4 0.003860 0.579174 0.882803
O O5 0.750000 0.595921 0.158591
O O6 0.992542 0.645140 0.224928
O O7 0.983421 0.605899 0.058250
O O8 0.750000 0.547957 0.618304
O O9 0.515174 0.476000 0.598224
O O10 0.498333 0.584952 0.541229
O O11 0.750000 0.409917 0.554185
O O12 0.497237 0.357542 0.609954
O O13 0.250000 0.435045 0.028821
O O14 0.500000 0.500000 0.000000
O O15 0.750000 0.820594 0.310093
O O16 0.989152 0.750000 0.310993
#
# Coordination Sequence:
#
# PCOD9446221 Si02
#       6
#     8   8   8   8   8   8
#     4  10  17  27  44  66  94 123 151 188 234 286
#     4   8  15  27  42  62  90 122 153 190 228 269
#     4  10  19  30  47  69  93 124 157 192 238 293
#     4  10  20  32  46  67  94 124 156 196 241 286
#     4   9  16  26  40  61  90 121 153 187 227 275
#     4  10  19  32  50  69  92 126 164 197 231 276
#
# _framework density 16.046856999999999
#
# number of rings (size 3 to 8) (size 9 to 14) (size 15 to 20)
#    0.000    2.500    1.667    3.000    0.000    1.667 
#    0.000    0.833    0.000    0.000    0.000    1.167 
#    0.000    6.667    0.000    0.000    0.000    0.000 
#
# Total GULP energy -267440.398585 kJ/mol
# GULP energy per Si atom -5571.674971 kJ/mol
# Density = 1.601033 g / cm^3
# Si number density = 16.046857 Si / 1000 Ang^3
#
#
#
# Elastic Constant Matrix: (Units=GPa)
#
#
# Indices 1 2 3 4 5 6 
#
# 1 30.7804 17.1733 32.1538 0.0000 0.0000 0.0000
# 2 17.1733 68.1320 57.2840 0.0000 0.0000 0.0000
# 3 32.1538 57.2840 184.4417 0.0000 0.0000 0.0000
# 4 0.0000 0.0000 0.0000 15.1596 0.0000 0.0000
# 5 0.0000 0.0000 0.0000 0.0000 27.9334 0.0000
# 6 0.0000 0.0000 0.0000 0.0000 0.0000 13.4788
#
#
#
# Elastic Compliance Matrix: (Units=1/GPa)
#
#
# Indices 1 2 3 4 5 6 
#
# 1 0.041410 -0.005912 -0.005383 0.000000 0.000000 0.000000
# 2 -0.005912 0.020709 -0.005401 0.000000 0.000000 0.000000
# 3 -0.005383 -0.005401 0.008038 0.000000 0.000000 0.000000
# 4 0.000000 0.000000 0.000000 0.065965 0.000000 0.000000
# 5 0.000000 0.000000 0.000000 0.000000 0.035799 0.000000
# 6 0.000000 0.000000 0.000000 0.000000 0.000000 0.074191
#
#
# Mechanical properties :
#
#
# Convention : Reuss Voigt Hill
#
# Bulk Modulus (GPa) = 27.20031 55.17516 41.18773
# Shear Modulus (GPa) = 17.13753 23.09723 20.11738
#
# Velocity S-wave (km/s) = 3.27152 3.79801 3.54455
# Velocity P-wave (km/s) = 5.59087 7.32745 6.51726
#
# Compressibility (1/GPa) = 0.03676429
#
# Stress axis : x y z
#
# Youngs Moduli (GPa) = 24.14894 48.28898 124.41482
#
# Poissons Ratio (x) = 0.28548 0.66970
# Poissons Ratio (y) = 0.14277 0.67197
# Poissons Ratio (z) = 0.12999 0.26081
#
# Static dielectric constant tensor:
#      x y z
#    x 1.538760 0.000000 0.000000 
#    y 0.000000 1.512790 0.000000 
#    z 0.000000 0.000000 1.573140 
# 
# From -- ./inp_files/20727.got.cif
#   From: 2010.05.17/outbox.cif.g08.bks.cpg/sg59_11_cif.got.tgz:20727.got - 2010.06.03 14:40:33.
