data_PCOD9446149
_publ_section_title
;
Structure prediction by ZEFSAII (Michael W. Deem and Ramdas Pophale) SiO2 
 PCOD9446149
Probable space group: P M M N
;
_chemical_formula_sum "Si O2"
_cell_formula_units_Z 40
_cell_length_a 7.528853
_cell_length_b 14.781270
_cell_length_c 15.621390
_cell_angle_alpha 90.000000
_cell_angle_beta 90.000000
_cell_angle_gamma 90.000000
_cell_volume 1738.442148
_symmetry_space_group_name_H-M "P M M N"
_symmetry_group_IT_number 59
_space_group.IT_coordinate_system_code '2'
_symmetry_cell_setting 'orthorhombic'
loop_
_space_group_symop_operation_xyz
x,y,z
1/2-x,1/2-y,z
1/2+x,-y,-z
-x,1/2+y,-z
-x,-y,-z
1/2+x,1/2+y,-z
1/2-x,y,z
x,1/2-y,z
loop_
_atom_site_type_symbol
_atom_site_label
_atom_site_fract_x
_atom_site_fract_y
_atom_site_fract_z
Si Si1 0.463876 0.443747 0.415868
Si Si2 0.047289 0.250000 0.220821
Si Si3 0.948042 0.088980 0.109642
Si Si4 0.049684 0.250000 0.423534
Si Si5 0.967371 0.250000 0.990850
Si Si6 0.532916 0.250000 0.791949
Si Si7 0.460087 0.948571 0.248915
O O1 0.500000 0.500000 0.500000
O O2 0.250000 0.431398 0.403676
O O3 0.539256 0.345304 0.439324
O O4 0.530258 0.491917 0.328826
O O5 0.250000 0.250000 0.187148
O O6 0.062299 0.250000 0.320953
O O7 0.951011 0.161813 0.186610
O O8 0.750000 0.065413 0.080853
O O9 0.027544 0.155520 0.036143
O O10 0.021357 0.000025 0.157086
O O11 0.250000 0.250000 0.461793
O O12 0.750000 0.250000 0.000610
O O13 0.013414 0.250000 0.892194
O O14 0.750000 0.250000 0.787504
O O15 0.470197 0.345775 0.753685
O O16 0.250000 0.941571 0.263544
#
# Coordination Sequence:
#
# PCOD9446149 Si02
#       7
#     8   4   8   4   4   4   8
#     4  10  21  37  56  82 111 141 180 228 277 326
#     4  10  16  30  55  81 106 136 173 217 267 322
#     4  10  19  31  52  82 115 143 175 224 279 327
#     4   9  17  33  55  77 108 137 168 223 277 314
#     4   8  17  33  51  80 117 144 172 225 284 325
#     4   9  19  36  57  78 107 149 191 227 270 327
#     4  10  20  36  58  80 105 145 193 232 272 330
#
# _framework density 23.009105000000002
#
# number of rings (size 3 to 8) (size 9 to 14) (size 15 to 20)
#    0.000    2.400    2.000    1.500    0.000    2.400 
#    0.000    2.000    0.000    6.000    0.000    0.000 
#    0.000    0.000    0.000    0.000    0.000    0.000 
#
# Total GULP energy -222850.049423 kJ/mol
# GULP energy per Si atom -5571.251236 kJ/mol
# Density = 2.295674 g / cm^3
# Si number density = 23.009105 Si / 1000 Ang^3
#
#
#
# Elastic Constant Matrix: (Units=GPa)
#
#
# Indices 1 2 3 4 5 6 
#
# 1 58.9621 7.2383 0.0000 0.0000 0.0000 0.0000
# 2 7.2383 218.8464 60.7293 0.0000 0.0000 0.0000
# 3 0.0000 60.7293 75.2271 0.0000 0.0000 0.0000
# 4 0.0000 0.0000 0.0000 -36.1102 0.0000 0.0000
# 5 0.0000 0.0000 0.0000 0.0000 10.7099 0.0000
# 6 0.0000 0.0000 0.0000 0.0000 0.0000 -8.4420
#
#
#
# Elastic Compliance Matrix: (Units=1/GPa)
#
#
# Indices 1 2 3 4 5 6 
#
# 1 0.017049 -0.000727 0.000587 0.000000 0.000000 0.000000
# 2 -0.000727 0.005920 -0.004779 0.000000 0.000000 0.000000
# 3 0.000587 -0.004779 0.017151 0.000000 0.000000 0.000000
# 4 0.000000 0.000000 0.000000 -0.027693 0.000000 0.000000
# 5 0.000000 0.000000 0.000000 0.000000 0.093371 0.000000
# 6 0.000000 0.000000 0.000000 0.000000 0.000000 -0.118456
#
#
# Mechanical properties :
#
#
# Convention : Reuss Voigt Hill
#
# Bulk Modulus (GPa) = 33.02282 54.33010 43.67646
# Shear Modulus (GPa) = 687.42530 12.23608 349.83069
#
# Velocity S-wave (km/s) = 17.30349 2.30857 12.34383
# Velocity P-wave (km/s) = 20.33710 5.54704 14.90583
#
# Compressibility (1/GPa) = 0.03028209
#
# Stress axis : x y z
#
# Youngs Moduli (GPa) = 58.65357 168.93222 58.30614
#
# Poissons Ratio (x) = 0.12276 -0.03420
# Poissons Ratio (y) = 0.04262 0.27863
# Poissons Ratio (z) = -0.03441 0.80728
#
# Static dielectric constant tensor:
#      x y z
#    x 1.889700 0.000000 0.000000 
#    y 0.000000 1.858870 0.000000 
#    z 0.000000 0.000000 1.812890 
# 
# From -- ./inp_files/20040.got.cif
#   From: 2010.05.17/outbox.cif.g08.bks.cpg/sg59_11_cif.got.tgz:20040.got - 2010.06.03 14:40:33.
