data_PCOD9446426
_publ_section_title
;
Structure prediction by ZEFSAII (Michael W. Deem and Ramdas Pophale) SiO2 
 PCOD9446426
Probable space group: P M M N
;
_chemical_formula_sum "Si O2"
_cell_formula_units_Z 64
_cell_length_a 28.684081
_cell_length_b 7.762638
_cell_length_c 14.895472
_cell_angle_alpha 90.000000
_cell_angle_beta 90.000000
_cell_angle_gamma 90.000000
_cell_volume 3316.687421
_symmetry_space_group_name_H-M "P M M N"
_symmetry_group_IT_number 59
_space_group.IT_coordinate_system_code '2'
_symmetry_cell_setting 'orthorhombic'
loop_
_space_group_symop_operation_xyz
x,y,z
1/2-x,1/2-y,z
1/2+x,-y,-z
-x,1/2+y,-z
-x,-y,-z
1/2+x,1/2+y,-z
1/2-x,y,z
x,1/2-y,z
loop_
_atom_site_type_symbol
_atom_site_label
_atom_site_fract_x
_atom_site_fract_y
_atom_site_fract_z
Si Si1 0.126507 0.038663 0.112595
Si Si2 0.303729 0.040846 0.963650
Si Si3 0.448511 0.044457 0.970475
Si Si4 0.428307 0.048536 0.279937
Si Si5 0.969473 0.540214 0.223151
Si Si6 0.109362 0.452171 0.644950
Si Si7 0.053901 0.553684 0.481769
Si Si8 0.804354 0.960769 0.238034
O O1 0.126520 0.250000 0.117177
O O2 0.111672 0.981331 0.212158
O O3 0.171390 0.984022 0.055294
O O4 0.086255 0.977634 0.044779
O O5 0.250000 0.992655 0.966865
O O6 0.307425 0.250000 0.963363
O O7 0.320463 0.988122 0.863429
O O8 0.441896 0.250000 0.968862
O O9 0.444520 0.985500 0.868572
O O10 0.500000 0.000000 0.000000
O O11 0.419797 0.250000 0.296177
O O12 0.478295 0.029387 0.230717
O O13 0.434758 0.964203 0.376729
O O14 0.973507 0.750000 0.224869
O O15 0.936180 0.479697 0.302847
O O16 0.111013 0.250000 0.666645
O O17 0.094074 0.465656 0.541562
O O18 0.157934 0.519785 0.687169
O O19 0.056262 0.750000 0.508886
O O20 0.000000 0.500000 0.500000
O O21 0.750000 0.015286 0.251448
O O22 0.802993 0.750000 0.238929
#
# Coordination Sequence:
#
# PCOD9446426 Si02
#       8
#     8   8   8   8   8   8   8   8
#     4   9  17  28  43  66  99 136 170 205 248 292
#     4   8  13  24  45  74 107 138 167 202 246 298
#     4  10  18  28  41  63  96 132 164 196 238 289
#     4  11  21  33  49  69  98 135 170 211 253 297
#     4  10  19  29  45  68  98 133 169 205 246 299
#     4  10  19  32  52  77 103 133 167 211 261 308
#     4  12  24  38  54  73  98 131 173 216 261 312
#     4   8  14  26  48  79 110 137 167 205 253 306
#
# _framework density 19.296361999999998
#
# number of rings (size 3 to 8) (size 9 to 14) (size 15 to 20)
#    0.000    2.250    2.500    3.000    0.000    3.000 
#    0.000    0.000    0.000    1.125    0.000    3.500 
#    0.000    7.000    0.000    0.000    0.000    0.000 
#
# Total GULP energy -356533.944974 kJ/mol
# GULP energy per Si atom -5570.842890 kJ/mol
# Density = 1.925244 g / cm^3
# Si number density = 19.296362 Si / 1000 Ang^3
#
#
#
# Elastic Constant Matrix: (Units=GPa)
#
#
# Indices 1 2 3 4 5 6 
#
# 1 88.6961 -1.4046 48.0106 0.0000 0.0000 0.0000
# 2 -1.4046 24.3734 -4.1383 0.0000 0.0000 0.0000
# 3 48.0106 -4.1383 122.9040 0.0000 0.0000 0.0000
# 4 0.0000 0.0000 0.0000 9.9954 0.0000 0.0000
# 5 0.0000 0.0000 0.0000 0.0000 34.0364 0.0000
# 6 0.0000 0.0000 0.0000 0.0000 0.0000 7.8660
#
#
#
# Elastic Compliance Matrix: (Units=1/GPa)
#
#
# Indices 1 2 3 4 5 6 
#
# 1 0.014298 -0.000125 -0.005590 0.000000 0.000000 0.000000
# 2 -0.000125 0.041265 0.001438 0.000000 0.000000 0.000000
# 3 -0.005590 0.001438 0.010368 0.000000 0.000000 0.000000
# 4 0.000000 0.000000 0.000000 0.100046 0.000000 0.000000
# 5 0.000000 0.000000 0.000000 0.000000 0.029380 0.000000
# 6 0.000000 0.000000 0.000000 0.000000 0.000000 0.127129
#
#
# Mechanical properties :
#
#
# Convention : Reuss Voigt Hill
#
# Bulk Modulus (GPa) = 17.42793 35.65656 26.54224
# Shear Modulus (GPa) = 14.27893 23.27993 18.77943
#
# Velocity S-wave (km/s) = 2.72321 3.47716 3.12302
# Velocity P-wave (km/s) = 4.35191 5.88552 5.17583
#
# Compressibility (1/GPa) = 0.05737916
#
# Stress axis : x y z
#
# Youngs Moduli (GPa) = 69.93957 24.23337 96.44750
#
# Poissons Ratio (x) = 0.00303 0.53910
# Poissons Ratio (y) = 0.00875 -0.13872
# Poissons Ratio (z) = 0.39093 -0.03485
#
# Static dielectric constant tensor:
#      x y z
#    x 1.588270 0.000000 0.000000 
#    y 0.000000 1.618620 0.000000 
#    z 0.000000 0.000000 1.651140 
# 
# From -- ./inp_files/25072.got.cif
#   From: 2010.05.17/outbox.cif.g08.bks.cpg/sg59_13_cif.got.tgz:25072.got - 2010.06.03 14:40:33.
