data_PCOD9446129
_publ_section_title
;
Structure prediction by ZEFSAII (Michael W. Deem and Ramdas Pophale) SiO2 
 PCOD9446129
Probable space group: P M M N
;
_chemical_formula_sum "Si O2"
_cell_formula_units_Z 56
_cell_length_a 7.413553
_cell_length_b 29.700679
_cell_length_c 14.093789
_cell_angle_alpha 90.000000
_cell_angle_beta 90.000000
_cell_angle_gamma 90.000000
_cell_volume 3103.276982
_symmetry_space_group_name_H-M "P M M N"
_symmetry_group_IT_number 59
_space_group.IT_coordinate_system_code '2'
_symmetry_cell_setting 'orthorhombic'
loop_
_space_group_symop_operation_xyz
x,y,z
1/2-x,1/2-y,z
1/2+x,-y,-z
-x,1/2+y,-z
-x,-y,-z
1/2+x,1/2+y,-z
1/2-x,y,z
x,1/2-y,z
loop_
_atom_site_type_symbol
_atom_site_label
_atom_site_fract_x
_atom_site_fract_y
_atom_site_fract_z
Si Si1 0.469767 0.699884 0.010168
Si Si2 0.464518 0.891823 0.925152
Si Si3 0.469816 0.800348 0.231389
Si Si4 0.033947 0.033879 0.210235
Si Si5 0.468403 0.894481 0.295164
Si Si6 0.968489 0.447920 0.897405
Si Si7 0.965641 0.482357 0.604835
O O1 0.250000 0.700454 0.008615
O O2 0.529808 0.750000 0.982258
O O3 0.519700 0.692461 0.120665
O O4 0.532316 0.658416 0.945769
O O5 0.250000 0.889470 0.939205
O O6 0.492735 0.916222 0.825234
O O7 0.537533 0.925095 0.007167
O O8 0.250000 0.800289 0.233266
O O9 0.528384 0.750000 0.259342
O O10 0.532135 0.842956 0.292948
O O11 0.250000 0.030369 0.211804
O O12 0.966514 0.997465 0.132256
O O13 0.968385 0.016286 0.312419
O O14 0.250000 0.892557 0.302432
O O15 0.509255 0.916070 0.192348
O O16 0.532292 0.931803 0.370694
O O17 0.750000 0.450179 0.903874
O O18 0.750000 0.480351 0.615544
O O19 0.000000 0.500000 0.500000
#
# Coordination Sequence:
#
# PCOD9446129 Si02
#       7
#     8   8   8   8   8   8   8
#     4   8  13  20  32  55  85 111 135 164 194 223
#     4  10  16  23  39  60  81 108 138 164 187 222
#     4   8  11  16  30  54  83 110 133 157 187 230
#     4   9  18  29  39  55  80 107 132 162 201 239
#     4   8  12  21  36  56  81 108 132 157 196 240
#     4   8  13  22  35  53  80 110 135 156 185 226
#     4   9  18  31  46  60  78 104 133 169 210 248
#
# _framework density 18.045439999999999
#
# number of rings (size 3 to 8) (size 9 to 14) (size 15 to 20)
#    0.000    3.429    1.429    3.000    0.000    0.571 
#    0.000    0.000    0.000    1.286    0.000    1.000 
#    0.000    6.286    0.000    0.000    0.000    0.000 
#
# Total GULP energy -311915.129724 kJ/mol
# GULP energy per Si atom -5569.913031 kJ/mol
# Density = 1.800437 g / cm^3
# Si number density = 18.045440 Si / 1000 Ang^3
#
#
#
# Elastic Constant Matrix: (Units=GPa)
#
#
# Indices 1 2 3 4 5 6 
#
# 1 56.9688 5.5519 1.5191 0.0000 0.0000 0.0000
# 2 5.5519 186.4664 86.1890 0.0000 0.0000 0.0000
# 3 1.5191 86.1890 79.3439 0.0000 0.0000 0.0000
# 4 0.0000 0.0000 0.0000 22.1318 0.0000 0.0000
# 5 0.0000 0.0000 0.0000 0.0000 -15.0593 0.0000
# 6 0.0000 0.0000 0.0000 0.0000 0.0000 3.9530
#
#
#
# Elastic Compliance Matrix: (Units=1/GPa)
#
#
# Indices 1 2 3 4 5 6 
#
# 1 0.017613 -0.000740 0.000467 0.000000 0.000000 0.000000
# 2 -0.000740 0.010802 -0.011720 0.000000 0.000000 0.000000
# 3 0.000467 -0.011720 0.025325 0.000000 0.000000 0.000000
# 4 0.000000 0.000000 0.000000 0.045184 0.000000 0.000000
# 5 0.000000 0.000000 0.000000 0.000000 -0.066404 0.000000
# 6 0.000000 0.000000 0.000000 0.000000 0.000000 0.252975
#
#
# Mechanical properties :
#
#
# Convention : Reuss Voigt Hill
#
# Bulk Modulus (GPa) = 33.60873 56.58879 45.09876
# Shear Modulus (GPa) = 15.65433 17.50635 16.58034
#
# Velocity S-wave (km/s) = 2.94852 3.11806 3.03448
# Velocity P-wave (km/s) = 5.50060 6.66260 6.10929
#
# Compressibility (1/GPa) = 0.02975418
#
# Stress axis : x y z
#
# Youngs Moduli (GPa) = 56.77579 92.57438 39.48609
#
# Poissons Ratio (x) = 0.06852 -0.01843
# Poissons Ratio (y) = 0.04202 0.46277
# Poissons Ratio (z) = -0.02650 1.08496
#
# Static dielectric constant tensor:
#      x y z
#    x 1.717360 0.000000 0.000000 
#    y 0.000000 1.672260 0.000000 
#    z 0.000000 0.000000 1.591480 
# 
# From -- ./inp_files/16289.got.cif
#   From: 2010.05.17/outbox.cif.g08.bks.cpg/sg59_9_cif.got.tgz:16289.got - 2010.06.03 14:40:33.
