data_PCOD9446470
_publ_section_title
;
Structure prediction by ZEFSAII (Michael W. Deem and Ramdas Pophale) SiO2 
 PCOD9446470
Probable space group: P M M N
;
_chemical_formula_sum "Si O2"
_cell_formula_units_Z 64
_cell_length_a 20.470434
_cell_length_b 7.349131
_cell_length_c 20.626913
_cell_angle_alpha 90.000000
_cell_angle_beta 90.000000
_cell_angle_gamma 90.000000
_cell_volume 3103.110752
_symmetry_space_group_name_H-M "P M M N"
_symmetry_group_IT_number 59
_space_group.IT_coordinate_system_code '2'
_symmetry_cell_setting 'orthorhombic'
loop_
_space_group_symop_operation_xyz
x,y,z
1/2-x,1/2-y,z
1/2+x,-y,-z
-x,1/2+y,-z
-x,-y,-z
1/2+x,1/2+y,-z
1/2-x,y,z
x,1/2-y,z
loop_
_atom_site_type_symbol
_atom_site_label
_atom_site_fract_x
_atom_site_fract_y
_atom_site_fract_z
Si Si1 0.824281 0.028424 0.036458
Si Si2 0.024235 0.528584 0.343639
Si Si3 0.178013 0.972221 0.738200
Si Si4 0.925900 0.033132 0.524115
Si Si5 0.622151 0.039210 0.392616
Si Si6 0.824047 0.472018 0.887882
Si Si7 0.559358 0.037398 0.799385
Si Si8 0.581016 0.469606 0.150063
O O1 0.750000 0.973674 0.054229
O O2 0.824398 0.250000 0.037652
O O3 0.879087 0.967969 0.087033
O O4 0.836891 0.972635 0.962330
O O5 0.021984 0.750000 0.343779
O O6 0.073067 0.469464 0.401570
O O7 0.043762 0.463307 0.272294
O O8 0.951565 0.467044 0.363614
O O9 0.250000 0.023186 0.761507
O O10 0.175502 0.750000 0.737156
O O11 0.165773 0.037783 0.665073
O O12 0.121511 0.031992 0.786835
O O13 0.915526 0.250000 0.525977
O O14 0.881578 0.960084 0.465265
O O15 0.000000 0.000000 0.500000
O O16 0.641401 0.250000 0.399839
O O17 0.750000 0.525498 0.870956
O O18 0.825549 0.250000 0.888098
O O19 0.879051 0.537896 0.838499
O O20 0.573455 0.250000 0.788873
O O21 0.493842 0.024268 0.842148
O O22 0.582043 0.250000 0.149799
#
# Coordination Sequence:
#
# PCOD9446470 Si02
#       8
#     8   8   8   8   8   8   8   8
#     4   8  14  26  45  66  86 111 147 185 211 241
#     4   9  16  26  39  58  85 111 134 167 212 254
#     4   9  16  25  39  60  85 113 143 174 210 253
#     4   8  14  23  37  56  77 103 134 168 204 244
#     4   9  15  25  41  59  79 105 141 179 209 243
#     4   8  15  29  47  65  84 110 146 180 211 255
#     4  10  19  29  44  65  90 116 140 175 219 258
#     4  10  18  28  44  66  89 112 142 180 217 253
#
# _framework density 20.624465000000001
#
# number of rings (size 3 to 8) (size 9 to 14) (size 15 to 20)
#    0.000    3.125    1.250    1.125    0.000    2.000 
#    0.000    0.000    0.000    3.750    0.000    7.000 
#    0.000    0.000    0.000   11.125    0.000   11.000 
#
# Total GULP energy -356787.610157 kJ/mol
# GULP energy per Si atom -5574.806409 kJ/mol
# Density = 2.057752 g / cm^3
# Si number density = 20.624465 Si / 1000 Ang^3
#
#
#
# Elastic Constant Matrix: (Units=GPa)
#
#
# Indices 1 2 3 4 5 6 
#
# 1 90.3369 -8.2689 60.8714 0.0000 0.0000 0.0000
# 2 -8.2689 77.8888 -4.0727 0.0000 0.0000 0.0000
# 3 60.8714 -4.0727 119.7745 0.0000 0.0000 0.0000
# 4 0.0000 0.0000 0.0000 -1.6519 0.0000 0.0000
# 5 0.0000 0.0000 0.0000 0.0000 28.0289 0.0000
# 6 0.0000 0.0000 0.0000 0.0000 0.0000 5.8034
#
#
#
# Elastic Compliance Matrix: (Units=1/GPa)
#
#
# Indices 1 2 3 4 5 6 
#
# 1 0.016976 0.001354 -0.008581 0.000000 0.000000 0.000000
# 2 0.001354 0.012970 -0.000247 0.000000 0.000000 0.000000
# 3 -0.008581 -0.000247 0.012702 0.000000 0.000000 0.000000
# 4 0.000000 0.000000 0.000000 -0.605355 0.000000 0.000000
# 5 0.000000 0.000000 0.000000 0.000000 0.035677 0.000000
# 6 0.000000 0.000000 0.000000 0.000000 0.000000 0.172312
#
#
# Mechanical properties :
#
#
# Convention : Reuss Voigt Hill
#
# Bulk Modulus (GPa) = 36.10391 42.78441 39.44416
# Shear Modulus (GPa) = -15.12696 22.40077 3.63691
#
# Velocity S-wave (km/s) = -2.71116 3.29922 1.32937
# Velocity P-wave (km/s) = 2.78260 5.94160 4.63926
#
# Compressibility (1/GPa) = 0.02769783
#
# Stress axis : x y z
#
# Youngs Moduli (GPa) = 58.90674 77.10335 78.72853
#
# Poissons Ratio (x) = -0.10436 0.67561
# Poissons Ratio (y) = -0.07973 0.01944
# Poissons Ratio (z) = 0.50551 0.01903
#
# Static dielectric constant tensor:
#      x y z
#    x 1.693410 0.000000 0.000000 
#    y 0.000000 1.807050 0.000000 
#    z 0.000000 0.000000 1.769790 
# 
# From -- ./inp_files/30904.got.cif
#   From: 2010.05.17/outbox.cif.g08.bks.cpg/sg59_16_cif.got.tgz:30904.got - 2010.06.03 14:40:33.
