data_PCOD9446031
_publ_section_title
;
Structure prediction by ZEFSAII (Michael W. Deem and Ramdas Pophale) SiO2 
 PCOD9446031
Probable space group: P N N M
;
_chemical_formula_sum "Si O2"
_cell_formula_units_Z 64
_cell_length_a 15.000000
_cell_length_b 12.000000
_cell_length_c 18.000000
_cell_angle_alpha 90.000000
_cell_angle_beta 90.000000
_cell_angle_gamma 90.000000
_cell_volume 3240.000000
_symmetry_space_group_name_H-M "P N N M"
_symmetry_group_IT_number 58
_symmetry_cell_setting 'orthorhombic'
loop_
_space_group_symop_operation_xyz
x,y,z
-x,-y,z
1/2+x,1/2-y,1/2-z
1/2-x,1/2+y,1/2-z
-x,-y,-z
x,y,-z
1/2-x,1/2+y,1/2+z
1/2+x,1/2-y,1/2+z
loop_
_atom_site_type_symbol
_atom_site_label
_atom_site_fract_x
_atom_site_fract_y
_atom_site_fract_z
Si Si1 0.750868 0.126369 0.580449
Si Si2 0.923413 0.163263 0.676521
Si Si3 0.749772 0.882105 0.624905
Si Si4 0.110025 0.266227 0.186349
Si Si5 0.414209 0.140690 0.717217
Si Si6 0.653865 0.475059 0.727289
Si Si7 0.913721 0.735451 0.585364
Si Si8 0.659320 0.070143 0.806022
O O1 0.759530 0.175200 0.500000
O O2 0.846616 0.135699 0.618696
O O3 0.670867 0.188654 0.620843
O O4 0.731235 0.994888 0.580301
O O5 0.894887 0.276778 0.715452
O O6 0.016693 0.190955 0.635286
O O7 0.913502 0.068217 0.740065
O O8 0.655116 0.836323 0.651445
O O9 0.797463 0.925416 0.699971
O O10 0.818665 0.798767 0.587254
O O11 0.109243 0.132369 0.189224
O O12 0.162300 0.316673 0.257578
O O13 0.012883 0.323522 0.190824
O O14 0.393117 0.019899 0.754231
O O15 0.739085 0.527563 0.683081
O O16 0.944674 0.728093 0.500000
O O17 0.895884 0.614218 0.622945
#
# Coordination Sequence:
#
# PCOD9446031 Si02
#       8
#     8   8   8   8   8   8   8   8
#     4  11  23  38  58  91 129 166 205 261 332 388
#     4  11  22  39  63  91 129 163 211 260 313 385
#     4  10  20  38  59  86 123 167 214 267 316 364
#     4  12  21  40  65  94 124 161 217 268 321 380
#     4  11  22  38  69  93 119 163 218 278 310 360
#     4  10  21  38  66  95 122 164 217 271 312 369
#     4  12  25  40  60  95 139 176 209 257 329 402
#     4  11  21  40  64  92 129 165 216 264 318 380
#
# _framework density 19.753086
#
# number of rings (size 3 to 8) (size 9 to 14) (size 15 to 20)
#    0.000    1.000    6.250    3.375    0.000    4.500 
#    0.000    8.750    0.000    0.000    0.000    1.750 
#    0.000    0.000    0.000    0.000    0.000    0.000 
#
# Total GULP energy -356796.493987 kJ/mol
# GULP energy per Si atom -5574.945219 kJ/mol
# Density = 1.970813 g / cm^3
# Si number density = 19.753086 Si / 1000 Ang^3
#
#
#
# Elastic Constant Matrix: (Units=GPa)
#
#
# Indices 1 2 3 4 5 6 
#
# 1 121.7221 50.1653 47.3530 0.0000 0.0000 0.0000
# 2 50.1653 93.1772 38.0337 0.0000 0.0000 0.0000
# 3 47.3530 38.0337 60.3054 0.0000 0.0000 0.0000
# 4 0.0000 0.0000 0.0000 -6.1040 0.0000 0.0000
# 5 0.0000 0.0000 0.0000 0.0000 24.2610 0.0000
# 6 0.0000 0.0000 0.0000 0.0000 0.0000 34.1408
#
#
#
# Elastic Compliance Matrix: (Units=1/GPa)
#
#
# Indices 1 2 3 4 5 6 
#
# 1 0.012725 -0.003734 -0.007637 0.000000 0.000000 0.000000
# 2 -0.003734 0.015548 -0.006874 0.000000 0.000000 0.000000
# 3 -0.007637 -0.006874 0.026915 0.000000 0.000000 0.000000
# 4 0.000000 0.000000 0.000000 -0.163828 0.000000 0.000000
# 5 0.000000 0.000000 0.000000 0.000000 0.041218 0.000000
# 6 0.000000 0.000000 0.000000 0.000000 0.000000 0.029290
#
#
# Mechanical properties :
#
#
# Convention : Reuss Voigt Hill
#
# Bulk Modulus (GPa) = 53.48257 60.70096 57.09176
# Shear Modulus (GPa) = 1088.55452 19.76974 554.16213
#
# Velocity S-wave (km/s) = 23.50058 3.16704 16.76764
# Velocity P-wave (km/s) = 27.63157 6.64606 20.09569
#
# Compressibility (1/GPa) = 0.01869768
#
# Stress axis : x y z
#
# Youngs Moduli (GPa) = 78.58329 64.31517 37.15411
#
# Poissons Ratio (x) = 0.24013 0.28376
# Poissons Ratio (y) = 0.29340 0.25541
# Poissons Ratio (z) = 0.60018 0.44213
#
# Static dielectric constant tensor:
#      x y z
#    x 1.762690 0.000000 0.000000 
#    y 0.000000 1.737850 0.000000 
#    z 0.000000 0.000000 1.741920 
# 
# From -- ./inp_files/27013.got.cif
#   From: 2010.05.17/outbox.ucp.g08.bks.cvg/sg58_14_cif.got.tgz:27013.got - 2010.06.11 16:41:41.
