data_PCOD9446987
_publ_section_title
;
Structure prediction by ZEFSAII (Michael W. Deem and Ramdas Pophale) SiO2 
 PCOD9446987
Probable space group: P M M N
;
_chemical_formula_sum "Si O2"
_cell_formula_units_Z 64
_cell_length_a 20.829003
_cell_length_b 7.863788
_cell_length_c 17.697643
_cell_angle_alpha 90.000000
_cell_angle_beta 90.000000
_cell_angle_gamma 90.000000
_cell_volume 2898.783026
_symmetry_space_group_name_H-M "P M M N"
_symmetry_group_IT_number 59
_space_group.IT_coordinate_system_code '2'
_symmetry_cell_setting 'orthorhombic'
loop_
_space_group_symop_operation_xyz
x,y,z
1/2-x,1/2-y,z
1/2+x,-y,-z
-x,1/2+y,-z
-x,-y,-z
1/2+x,1/2+y,-z
1/2-x,y,z
x,1/2-y,z
loop_
_atom_site_type_symbol
_atom_site_label
_atom_site_fract_x
_atom_site_fract_y
_atom_site_fract_z
Si Si1 0.839604 0.942425 0.904737
Si Si2 0.025799 0.945670 0.081663
Si Si3 0.430700 0.047241 0.631449
Si Si4 0.577522 0.948404 0.623122
Si Si5 0.180355 0.458739 0.261149
Si Si6 0.676313 0.553687 0.070914
Si Si7 0.674495 0.450586 0.491127
Si Si8 0.588092 0.549700 0.198919
O O1 0.814498 0.750000 0.908549
O O2 0.818268 0.019270 0.825540
O O3 0.915395 0.937683 0.898601
O O4 0.827492 0.023613 0.986882
O O5 0.047013 0.750000 0.076449
O O6 0.975319 0.957694 0.148609
O O7 0.000000 0.000000 0.000000
O O8 0.577054 0.750000 0.370640
O O9 0.505602 0.017075 0.607592
O O10 0.372073 0.975347 0.581543
O O11 0.422507 0.981207 0.717426
O O12 0.566951 0.750000 0.636598
O O13 0.617243 0.021144 0.694906
O O14 0.630278 0.967642 0.556653
O O15 0.250000 0.502961 0.296637
O O16 0.177253 0.250000 0.260005
O O17 0.750000 0.563971 0.091210
O O18 0.650408 0.750000 0.062385
O O19 0.639555 0.472110 0.140871
O O20 0.750000 0.510212 0.484903
O O21 0.677794 0.250000 0.506970
O O22 0.605369 0.750000 0.209619
#
# Coordination Sequence:
#
# PCOD9446987 Si02
#       8
#     8   8   8   8   8   8   8   8
#     4  10  18  31  52  79 110 146 190 241 296 351
#     4  11  20  33  52  76 106 142 187 239 291 343
#     4  11  23  40  64  92 125 162 204 253 302 357
#     4  11  22  39  64  93 127 163 201 247 299 361
#     4   9  18  32  54  87 122 157 201 251 301 359
#     4   9  16  28  49  75 104 142 189 237 281 331
#     4  11  25  45  68  94 125 159 197 243 300 367
#     4   9  19  34  52  81 114 146 192 243 288 339
#
# _framework density 22.078230000000001
#
# number of rings (size 3 to 8) (size 9 to 14) (size 15 to 20)
#    0.000    1.875    1.250    3.375    0.000    3.500 
#    0.000    3.750    0.000    3.000    0.000    0.000 
#    0.000    0.000    0.000    0.000    0.000    0.000 
#
# Total GULP energy -356721.678597 kJ/mol
# GULP energy per Si atom -5573.776228 kJ/mol
# Density = 2.202798 g / cm^3
# Si number density = 22.078230 Si / 1000 Ang^3
#
#
#
# Elastic Constant Matrix: (Units=GPa)
#
#
# Indices 1 2 3 4 5 6 
#
# 1 134.2052 9.8872 49.0684 0.0000 0.0000 0.0000
# 2 9.8872 36.2919 -7.0660 0.0000 0.0000 0.0000
# 3 49.0684 -7.0660 110.8785 0.0000 0.0000 0.0000
# 4 0.0000 0.0000 0.0000 -4.1667 0.0000 0.0000
# 5 0.0000 0.0000 0.0000 0.0000 -10.6860 0.0000
# 6 0.0000 0.0000 0.0000 0.0000 0.0000 9.5628
#
#
#
# Elastic Compliance Matrix: (Units=1/GPa)
#
#
# Indices 1 2 3 4 5 6 
#
# 1 0.009279 -0.003369 -0.004321 0.000000 0.000000 0.000000
# 2 -0.003369 0.029124 0.003347 0.000000 0.000000 0.000000
# 3 -0.004321 0.003347 0.011145 0.000000 0.000000 0.000000
# 4 0.000000 0.000000 0.000000 -0.239997 0.000000 0.000000
# 5 0.000000 0.000000 0.000000 0.000000 -0.093580 0.000000
# 6 0.000000 0.000000 0.000000 0.000000 0.000000 0.104572
#
#
# Mechanical properties :
#
#
# Convention : Reuss Voigt Hill
#
# Bulk Modulus (GPa) = 24.47332 42.79500 33.63416
# Shear Modulus (GPa) = -31.81691 14.24107 -8.78792
#
# Velocity S-wave (km/s) = -3.80030 2.54250 -1.99725
# Velocity P-wave (km/s) = 2.85438 5.29570 3.15412
#
# Compressibility (1/GPa) = 0.04086082
#
# Stress axis : x y z
#
# Youngs Moduli (GPa) = 107.76481 34.33595 89.73010
#
# Poissons Ratio (x) = 0.11569 0.38775
# Poissons Ratio (y) = 0.36311 -0.30034
# Poissons Ratio (z) = 0.46568 -0.11493
#
# Static dielectric constant tensor:
#      x y z
#    x 1.866050 0.000000 0.000000 
#    y 0.000000 1.822110 0.000000 
#    z 0.000000 0.000000 1.865150 
# 
# From -- ./inp_files/28185.got.cif
#   From: 2010.05.17/outbox.cif.g08.bks.cpg/sg59_15_cif.got.tgz:28185.got - 2010.06.03 14:40:33.
