data_PCOD9446396
_publ_section_title
;
Structure prediction by ZEFSAII (Michael W. Deem and Ramdas Pophale) SiO2 
 PCOD9446396
Probable space group: P M M N
;
_chemical_formula_sum "Si O2"
_cell_formula_units_Z 64
_cell_length_a 14.457181
_cell_length_b 7.633019
_cell_length_c 32.928999
_cell_angle_alpha 90.000000
_cell_angle_beta 90.000000
_cell_angle_gamma 90.000000
_cell_volume 3633.778832
_symmetry_space_group_name_H-M "P M M N"
_symmetry_group_IT_number 59
_space_group.IT_coordinate_system_code '2'
_symmetry_cell_setting 'orthorhombic'
loop_
_space_group_symop_operation_xyz
x,y,z
1/2-x,1/2-y,z
1/2+x,-y,-z
-x,1/2+y,-z
-x,-y,-z
1/2+x,1/2+y,-z
1/2-x,y,z
x,1/2-y,z
loop_
_atom_site_type_symbol
_atom_site_label
_atom_site_fract_x
_atom_site_fract_y
_atom_site_fract_z
Si Si1 0.356135 0.959090 0.141147
Si Si2 0.536944 0.460557 0.937153
Si Si3 0.143817 0.464664 0.558773
Si Si4 0.144580 0.041458 0.229925
Si Si5 0.021801 0.952291 0.391096
Si Si6 0.855674 0.458137 0.681401
Si Si7 0.645363 0.539102 0.019029
Si Si8 0.359310 0.460439 0.467995
O O1 0.250000 0.028590 0.139198
O O2 0.349834 0.750000 0.135906
O O3 0.419713 0.028077 0.104772
O O4 0.395432 0.990812 0.186290
O O5 0.529212 0.250000 0.933974
O O6 0.435484 0.526649 0.950713
O O7 0.607369 0.498636 0.974003
O O8 0.250000 0.516560 0.564605
O O9 0.141710 0.250000 0.558441
O O10 0.113139 0.519054 0.513380
O O11 0.074640 0.529835 0.593247
O O12 0.250000 0.969057 0.229413
O O13 0.148523 0.250000 0.230968
O O14 0.105371 0.983201 0.273174
O O15 0.002731 0.750000 0.380140
O O16 0.078435 0.031925 0.353670
O O17 0.085732 0.956813 0.431098
O O18 0.750000 0.529545 0.679759
O O19 0.848056 0.250000 0.674348
O O20 0.750000 0.473067 0.025015
O O21 0.648380 0.750000 0.022800
O O22 0.250000 0.496641 0.463910
O O23 0.371268 0.250000 0.465625
#
# Coordination Sequence:
#
# PCOD9446396 Si02
#       8
#     8   8   8   8   8   8   8   8
#     4   9  16  26  41  60  82 108 136 167 203 241
#     4   9  17  28  42  61  84 113 148 178 207 249
#     4   8  15  28  43  59  81 108 137 169 204 238
#     4   9  17  28  42  60  81 105 131 159 196 244
#     4  10  18  27  43  64  82 105 138 171 200 234
#     4   9  17  28  40  57  83 108 128 156 197 243
#     4   9  17  28  41  59  86 117 146 179 215 243
#     4   9  17  28  41  58  83 113 138 162 198 241
#
# _framework density 17.612518999999999
#
# number of rings (size 3 to 8) (size 9 to 14) (size 15 to 20)
#    0.000    3.000    0.000    2.250    0.000    4.000 
#    0.000    2.500    0.000    1.125    0.000    0.875 
#    0.000    7.000    0.000    0.000    0.000    0.000 
#
# Total GULP energy -356596.357492 kJ/mol
# GULP energy per Si atom -5571.818086 kJ/mol
# Density = 1.757243 g / cm^3
# Si number density = 17.612519 Si / 1000 Ang^3
#
#
#
# Elastic Constant Matrix: (Units=GPa)
#
#
# Indices 1 2 3 4 5 6 
#
# 1 97.1476 3.7800 77.3324 0.0000 0.0000 0.0000
# 2 3.7800 32.5279 -0.5255 0.0000 0.0000 0.0000
# 3 77.3324 -0.5255 156.9676 0.0000 0.0000 0.0000
# 4 0.0000 0.0000 0.0000 12.7341 0.0000 0.0000
# 5 0.0000 0.0000 0.0000 0.0000 20.6116 0.0000
# 6 0.0000 0.0000 0.0000 0.0000 0.0000 6.2517
#
#
#
# Elastic Compliance Matrix: (Units=1/GPa)
#
#
# Indices 1 2 3 4 5 6 
#
# 1 0.017080 -0.002121 -0.008422 0.000000 0.000000 0.000000
# 2 -0.002121 0.031008 0.001149 0.000000 0.000000 0.000000
# 3 -0.008422 0.001149 0.010524 0.000000 0.000000 0.000000
# 4 0.000000 0.000000 0.000000 0.078529 0.000000 0.000000
# 5 0.000000 0.000000 0.000000 0.000000 0.048516 0.000000
# 6 0.000000 0.000000 0.000000 0.000000 0.000000 0.159956
#
#
# Mechanical properties :
#
#
# Convention : Reuss Voigt Hill
#
# Bulk Modulus (GPa) = 25.11076 49.75743 37.43409
# Shear Modulus (GPa) = 13.23885 21.65656 17.44770
#
# Velocity S-wave (km/s) = 2.74464 3.51039 3.15086
# Velocity P-wave (km/s) = 4.93278 6.68901 5.87687
#
# Compressibility (1/GPa) = 0.03982357
#
# Stress axis : x y z
#
# Youngs Moduli (GPa) = 58.54713 32.24990 95.02291
#
# Poissons Ratio (x) = 0.06840 0.80028
# Poissons Ratio (y) = 0.12417 -0.10915
# Poissons Ratio (z) = 0.49308 -0.03705
#
# Static dielectric constant tensor:
#      x y z
#    x 1.617740 0.000000 0.000000 
#    y 0.000000 1.638670 0.000000 
#    z 0.000000 0.000000 1.613270 
# 
# From -- ./inp_files/33333.got.cif
#   From: 2010.05.17/outbox.cif.g08.bks.cpg/sg59_17_cif.got.tgz:33333.got - 2010.06.03 14:40:33.
