data_PCOD9446084
_publ_section_title
;
Structure prediction by ZEFSAII (Michael W. Deem and Ramdas Pophale) SiO2 
 PCOD9446084
Probable space group: P N N M
;
_chemical_formula_sum "Si O2"
_cell_formula_units_Z 56
_cell_length_a 12.000000
_cell_length_b 15.000000
_cell_length_c 15.000000
_cell_angle_alpha 90.000000
_cell_angle_beta 90.000000
_cell_angle_gamma 90.000000
_cell_volume 2700.000000
_symmetry_space_group_name_H-M "P N N M"
_symmetry_group_IT_number 58
_symmetry_cell_setting 'orthorhombic'
loop_
_space_group_symop_operation_xyz
x,y,z
-x,-y,z
1/2+x,1/2-y,1/2-z
1/2-x,1/2+y,1/2-z
-x,-y,-z
x,y,-z
1/2-x,1/2+y,1/2+z
1/2+x,1/2-y,1/2+z
loop_
_atom_site_type_symbol
_atom_site_label
_atom_site_fract_x
_atom_site_fract_y
_atom_site_fract_z
Si Si1 0.337134 0.959390 0.896929
Si Si2 0.139917 0.825141 0.895117
Si Si3 0.942053 0.366834 0.338067
Si Si4 0.274468 0.287617 0.105724
Si Si5 0.124148 0.975783 0.606614
Si Si6 0.321123 0.671531 0.895778
Si Si7 0.943552 0.759758 0.779315
O O1 0.227539 0.903724 0.872203
O O2 0.446315 0.896105 0.891188
O O3 0.365097 0.045362 0.837769
O O4 0.325788 0.988791 0.000000
O O5 0.213077 0.734317 0.886956
O O6 0.031491 0.819880 0.833423
O O7 0.110083 0.834588 0.000000
O O8 0.869354 0.287100 0.379281
O O9 0.990138 0.330838 0.245070
O O10 0.321513 0.383607 0.138510
O O11 0.165827 0.260017 0.162219
O O12 0.248560 0.292636 0.000000
O O13 0.111284 0.961736 0.500000
O O14 0.196026 0.065808 0.617998
O O15 0.000000 0.000000 0.641239
O O16 0.404555 0.701949 0.816958
O O17 0.361424 0.682425 0.000000
#
# Coordination Sequence:
#
# PCOD9446084 Si02
#       7
#     8   8   8   8   8   8   8
#     4  10  21  41  70  97 121 168 223 277 335 394
#     4  10  22  43  67  92 134 179 219 266 333 407
#     4  11  22  39  66  97 130 165 221 279 328 393
#     4  11  24  44  68  96 134 175 224 278 337 404
#     4   9  19  37  63  91 120 162 214 268 322 379
#     4  10  21  41  64  90 124 172 221 268 322 390
#     4  12  24  42  64 102 139 174 216 280 344 402
#
# _framework density 20.740741
#
# number of rings (size 3 to 8) (size 9 to 14) (size 15 to 20)
#    0.000    1.571    1.429    3.857    0.000    2.286 
#   10.286    2.143    0.000    6.000    0.000    1.000 
#    0.000    0.571    0.000    0.000    0.000    0.000 
#
# Total GULP energy -312988.053805 kJ/mol
# GULP energy per Si atom -5589.072389 kJ/mol
# Density = 2.069353 g / cm^3
# Si number density = 20.740741 Si / 1000 Ang^3
#
#
#
# Elastic Constant Matrix: (Units=GPa)
#
#
# Indices 1 2 3 4 5 6 
#
# 1 120.3877 55.8382 65.0455 0.0000 0.0000 0.0000
# 2 55.8382 133.0009 38.7653 0.0000 0.0000 0.0000
# 3 65.0455 38.7653 102.9135 0.0000 0.0000 0.0000
# 4 0.0000 0.0000 0.0000 18.5647 0.0000 0.0000
# 5 0.0000 0.0000 0.0000 0.0000 38.5076 0.0000
# 6 0.0000 0.0000 0.0000 0.0000 0.0000 29.1497
#
#
#
# Elastic Compliance Matrix: (Units=1/GPa)
#
#
# Indices 1 2 3 4 5 6 
#
# 1 0.014088 -0.003729 -0.007500 0.000000 0.000000 0.000000
# 2 -0.003729 0.009433 -0.001196 0.000000 0.000000 0.000000
# 3 -0.007500 -0.001196 0.014908 0.000000 0.000000 0.000000
# 4 0.000000 0.000000 0.000000 0.053866 0.000000 0.000000
# 5 0.000000 0.000000 0.000000 0.000000 0.025969 0.000000
# 6 0.000000 0.000000 0.000000 0.000000 0.000000 0.034306
#
#
# Mechanical properties :
#
#
# Convention : Reuss Voigt Hill
#
# Bulk Modulus (GPa) = 73.64375 75.06670 74.35523
# Shear Modulus (GPa) = 27.48084 30.35459 28.91771
#
# Velocity S-wave (km/s) = 3.64396 3.82975 3.73801
# Velocity P-wave (km/s) = 7.29990 7.47178 7.38634
#
# Compressibility (1/GPa) = 0.01357888
#
# Stress axis : x y z
#
# Youngs Moduli (GPa) = 70.98222 106.01173 67.07946
#
# Poissons Ratio (x) = 0.39529 0.50307
# Poissons Ratio (y) = 0.26467 0.08026
# Poissons Ratio (z) = 0.53234 0.12684
#
# Static dielectric constant tensor:
#      x y z
#    x 1.728240 0.000000 0.000000 
#    y 0.000000 1.773700 0.000000 
#    z 0.000000 0.000000 1.754060 
# 
# From -- ./inp_files/21290.got.cif
#   From: 2010.05.17/outbox.ucp.g08.bks.cvg/sg58_11_cif.got.tgz:21290.got - 2010.06.11 16:41:41.
