data_PCOD9446176
_publ_section_title
;
Structure prediction by ZEFSAII (Michael W. Deem and Ramdas Pophale) SiO2 
 PCOD9446176
Probable space group: P M M N
;
_chemical_formula_sum "Si O2"
_cell_formula_units_Z 48
_cell_length_a 22.123430
_cell_length_b 8.600455
_cell_length_c 15.831256
_cell_angle_alpha 90.000000
_cell_angle_beta 90.000000
_cell_angle_gamma 90.000000
_cell_volume 3012.237842
_symmetry_space_group_name_H-M "P M M N"
_symmetry_group_IT_number 59
_space_group.IT_coordinate_system_code '2'
_symmetry_cell_setting 'orthorhombic'
loop_
_space_group_symop_operation_xyz
x,y,z
1/2-x,1/2-y,z
1/2+x,-y,-z
-x,1/2+y,-z
-x,-y,-z
1/2+x,1/2+y,-z
1/2-x,y,z
x,1/2-y,z
loop_
_atom_site_type_symbol
_atom_site_label
_atom_site_fract_x
_atom_site_fract_y
_atom_site_fract_z
Si Si1 0.566907 0.562695 0.980111
Si Si2 0.180776 0.437863 0.689579
Si Si3 0.041328 0.564117 0.379182
Si Si4 0.957997 0.563635 0.799163
Si Si5 0.913042 0.436090 0.440337
Si Si6 0.592361 0.561607 0.161058
O O1 0.565352 0.750000 0.979310
O O2 0.578868 0.513804 0.883484
O O3 0.500000 0.500000 0.000000
O O4 0.604776 0.516721 0.063154
O O5 0.250000 0.491378 0.690944
O O6 0.180732 0.250000 0.689112
O O7 0.143940 0.495798 0.608491
O O8 0.143083 0.488237 0.772467
O O9 0.036654 0.750000 0.377010
O O10 0.064131 0.503961 0.289376
O O11 0.080827 0.519143 0.461025
O O12 0.974333 0.496760 0.396042
O O13 0.958229 0.750000 0.794435
O O14 0.027130 0.506137 0.812765
O O15 0.912212 0.250000 0.434828
O O16 0.587760 0.750000 0.164962
#
# Coordination Sequence:
#
# PCOD9446176 Si02
#       6
#     8   8   8   8   8   8
#     4   8  15  25  38  59  86 115 145 176 212 255
#     4  10  20  32  47  67  91 121 154 186 224 270
#     4  10  19  30  45  65  91 120 148 183 233 283
#     4  10  17  25  41  66  91 116 148 182 221 267
#     4  10  20  32  46  65  88 117 153 191 229 271
#     4   9  16  28  43  59  87 122 150 180 219 263
#
# _framework density 15.934996
#
# number of rings (size 3 to 8) (size 9 to 14) (size 15 to 20)
#    0.000    2.500    1.667    1.500    0.000    3.000 
#    0.000    0.000    0.000    0.000    0.000    1.167 
#    0.000    4.000    0.000    0.000    0.000    0.000 
#
# Total GULP energy -267292.527338 kJ/mol
# GULP energy per Si atom -5568.594320 kJ/mol
# Density = 1.589873 g / cm^3
# Si number density = 15.934996 Si / 1000 Ang^3
#
#
#
# Elastic Constant Matrix: (Units=GPa)
#
#
# Indices 1 2 3 4 5 6 
#
# 1 64.7017 13.4060 48.6681 0.0000 0.0000 0.0000
# 2 13.4060 12.3682 23.8590 0.0000 0.0000 0.0000
# 3 48.6681 23.8590 170.0036 0.0000 0.0000 0.0000
# 4 0.0000 0.0000 0.0000 24.0757 0.0000 0.0000
# 5 0.0000 0.0000 0.0000 0.0000 14.3885 0.0000
# 6 0.0000 0.0000 0.0000 0.0000 0.0000 13.3855
#
#
#
# Elastic Compliance Matrix: (Units=1/GPa)
#
#
# Indices 1 2 3 4 5 6 
#
# 1 0.021751 -0.015857 -0.004001 0.000000 0.000000 0.000000
# 2 -0.015857 0.122428 -0.012643 0.000000 0.000000 0.000000
# 3 -0.004001 -0.012643 0.008802 0.000000 0.000000 0.000000
# 4 0.000000 0.000000 0.000000 0.041536 0.000000 0.000000
# 5 0.000000 0.000000 0.000000 0.000000 0.069500 0.000000
# 6 0.000000 0.000000 0.000000 0.000000 0.000000 0.074708
#
#
# Mechanical properties :
#
#
# Convention : Reuss Voigt Hill
#
# Bulk Modulus (GPa) = 11.36634 46.54888 28.95761
# Shear Modulus (GPa) = 11.54593 21.11262 16.32927
#
# Velocity S-wave (km/s) = 2.69469 3.64390 3.20463
# Velocity P-wave (km/s) = 4.10247 6.85413 5.64842
#
# Compressibility (1/GPa) = 0.08797906
#
# Stress axis : x y z
#
# Youngs Moduli (GPa) = 45.97524 8.16805 113.61028
#
# Poissons Ratio (x) = 0.12952 0.45459
# Poissons Ratio (y) = 0.72904 1.43633
# Poissons Ratio (z) = 0.18396 0.10327
#
# Static dielectric constant tensor:
#      x y z
#    x 1.484580 0.000000 0.000000 
#    y 0.000000 1.540210 0.000000 
#    z 0.000000 0.000000 1.600520 
# 
# From -- ./inp_files/20742.got.cif
#   From: 2010.05.17/outbox.cif.g08.bks.cpg/sg59_11_cif.got.tgz:20742.got - 2010.06.03 14:40:33.
