data_PCOD9446999
_publ_section_title
;
Structure prediction by ZEFSAII (Michael W. Deem and Ramdas Pophale) SiO2 
 PCOD9446999
Probable space group: P M M N
;
_chemical_formula_sum "Si O2"
_cell_formula_units_Z 64
_cell_length_a 16.030146
_cell_length_b 7.468315
_cell_length_c 24.687894
_cell_angle_alpha 90.000000
_cell_angle_beta 90.000000
_cell_angle_gamma 90.000000
_cell_volume 2955.589733
_symmetry_space_group_name_H-M "P M M N"
_symmetry_group_IT_number 59
_space_group.IT_coordinate_system_code '2'
_symmetry_cell_setting 'orthorhombic'
loop_
_space_group_symop_operation_xyz
x,y,z
1/2-x,1/2-y,z
1/2+x,-y,-z
-x,1/2+y,-z
-x,-y,-z
1/2+x,1/2+y,-z
1/2-x,y,z
x,1/2-y,z
loop_
_atom_site_type_symbol
_atom_site_label
_atom_site_fract_x
_atom_site_fract_y
_atom_site_fract_z
Si Si1 0.498641 0.529955 0.313056
Si Si2 0.342570 0.968671 0.384971
Si Si3 0.401360 0.463994 0.001538
Si Si4 0.401422 0.537451 0.502353
Si Si5 0.843212 0.530802 0.115776
Si Si6 0.157346 0.466107 0.118656
Si Si7 0.495347 0.038094 0.810085
Si Si8 0.658468 0.958410 0.378799
O O1 0.497771 0.750000 0.313917
O O2 0.416188 0.472783 0.345360
O O3 0.499770 0.468972 0.251037
O O4 0.580728 0.467402 0.345186
O O5 0.250000 0.023746 0.368137
O O6 0.344373 0.750000 0.385682
O O7 0.361165 0.028047 0.446436
O O8 0.389208 0.250000 0.001940
O O9 0.360866 0.529579 0.945797
O O10 0.500000 0.500000 0.000000
O O11 0.363574 0.531937 0.057871
O O12 0.500000 0.500000 0.500000
O O13 0.388953 0.750000 0.504439
O O14 0.363096 0.464425 0.557578
O O15 0.750000 0.478655 0.132855
O O16 0.845656 0.750000 0.115258
O O17 0.918016 0.467517 0.154359
O O18 0.250000 0.526723 0.135123
O O19 0.158621 0.250000 0.116816
O O20 0.082001 0.515021 0.158187
O O21 0.480590 0.250000 0.805247
O O22 0.750000 0.038277 0.369407
O O23 0.663053 0.750000 0.363223
#
# Coordination Sequence:
#
# PCOD9446999 Si02
#       8
#     8   8   8   8   8   8   8   8
#     4   9  18  33  51  76 107 137 174 216 261 310
#     4   9  17  30  50  74 101 133 168 209 258 311
#     4  10  18  31  53  77 103 136 172 210 261 318
#     4  11  20  33  55  80 107 138 178 220 267 319
#     4   9  17  30  50  77 106 133 167 213 261 308
#     4  10  21  36  54  76 106 143 176 211 266 329
#     4  10  20  34  55  80 104 136 182 228 261 299
#     4  10  20  35  55  80 111 143 174 215 268 322
#
# _framework density 21.653884999999999
#
# number of rings (size 3 to 8) (size 9 to 14) (size 15 to 20)
#    0.000    2.250    2.500    1.125    0.000    3.500 
#    0.000    4.375    0.000    2.250    0.000    0.000 
#    0.000    0.000    0.000    0.000    0.000    0.000 
#
# Total GULP energy -357569.986936 kJ/mol
# GULP energy per Si atom -5587.031046 kJ/mol
# Density = 2.160460 g / cm^3
# Si number density = 21.653885 Si / 1000 Ang^3
#
#
#
# Elastic Constant Matrix: (Units=GPa)
#
#
# Indices 1 2 3 4 5 6 
#
# 1 226.8326 -4.1781 115.1205 0.0000 0.0000 0.0000
# 2 -4.1781 61.5425 1.9947 0.0000 0.0000 0.0000
# 3 115.1205 1.9947 185.8021 0.0000 0.0000 0.0000
# 4 0.0000 0.0000 0.0000 -12.6685 0.0000 0.0000
# 5 0.0000 0.0000 0.0000 0.0000 -1.6702 0.0000
# 6 0.0000 0.0000 0.0000 0.0000 0.0000 5.7370
#
#
#
# Elastic Compliance Matrix: (Units=1/GPa)
#
#
# Indices 1 2 3 4 5 6 
#
# 1 0.006450 0.000568 -0.004003 0.000000 0.000000 0.000000
# 2 0.000568 0.016305 -0.000527 0.000000 0.000000 0.000000
# 3 -0.004003 -0.000527 0.007868 0.000000 0.000000 0.000000
# 4 0.000000 0.000000 0.000000 -0.078936 0.000000 0.000000
# 5 0.000000 0.000000 0.000000 0.000000 -0.598739 0.000000
# 6 0.000000 0.000000 0.000000 0.000000 0.000000 0.174306
#
#
# Mechanical properties :
#
#
# Convention : Reuss Voigt Hill
#
# Bulk Modulus (GPa) = 44.05454 77.78350 60.91902
# Shear Modulus (GPa) = -10.93478 22.36235 5.71378
#
# Velocity S-wave (km/s) = -2.24961 3.21708 1.62617
# Velocity P-wave (km/s) = 3.69342 7.05682 5.63205
#
# Compressibility (1/GPa) = 0.02269913
#
# Stress axis : x y z
#
# Youngs Moduli (GPa) = 155.02902 61.33256 127.10141
#
# Poissons Ratio (x) = -0.03482 0.50875
# Poissons Ratio (y) = -0.08800 0.06695
# Poissons Ratio (z) = 0.62053 0.03231
#
# Static dielectric constant tensor:
#      x y z
#    x 1.757450 0.000000 0.000000 
#    y 0.000000 1.872270 0.000000 
#    z 0.000000 0.000000 1.744750 
# 
# From -- ./inp_files/31649.got.cif
#   From: 2010.05.17/outbox.cif.g08.bks.cpg/sg59_16_cif.got.tgz:31649.got - 2010.06.03 14:40:33.
