data_PCOD9446893
_publ_section_title
;
Structure prediction by ZEFSAII (Michael W. Deem and Ramdas Pophale) SiO2 
 PCOD9446893
Probable space group: P M M N
;
_chemical_formula_sum "Si O2"
_cell_formula_units_Z 48
_cell_length_a 18.381040
_cell_length_b 13.410914
_cell_length_c 10.555310
_cell_angle_alpha 90.000000
_cell_angle_beta 90.000000
_cell_angle_gamma 90.000000
_cell_volume 2601.953017
_symmetry_space_group_name_H-M "P M M N"
_symmetry_group_IT_number 59
_space_group.IT_coordinate_system_code '2'
_symmetry_cell_setting 'orthorhombic'
loop_
_space_group_symop_operation_xyz
x,y,z
1/2-x,1/2-y,z
1/2+x,-y,-z
-x,1/2+y,-z
-x,-y,-z
1/2+x,1/2+y,-z
1/2-x,y,z
x,1/2-y,z
loop_
_atom_site_type_symbol
_atom_site_label
_atom_site_fract_x
_atom_site_fract_y
_atom_site_fract_z
Si Si1 0.663741 0.750000 0.783514
Si Si2 0.167476 0.750000 0.506472
Si Si3 0.899953 0.559785 0.929747
Si Si4 0.531212 0.250000 0.669253
Si Si5 0.164296 0.859585 0.966491
Si Si6 0.532081 0.750000 0.601307
Si Si7 0.027715 0.062558 0.808086
Si Si8 0.092385 0.893078 0.693885
O O1 0.750000 0.750000 0.759567
O O2 0.641003 0.850141 0.860893
O O3 0.611815 0.750000 0.659921
O O4 0.250000 0.750000 0.465818
O O5 0.148888 0.845685 0.594967
O O6 0.110673 0.750000 0.392484
O O7 0.971962 0.522708 0.856284
O O8 0.855680 0.456789 0.952099
O O9 0.926245 0.593847 0.069142
O O10 0.475880 0.250000 0.549463
O O11 0.516287 0.347108 0.751008
O O12 0.250000 0.863299 0.936967
O O13 0.148784 0.750000 0.024709
O O14 0.119412 0.865124 0.835054
O O15 0.483346 0.658174 0.653121
O O16 0.078940 0.010651 0.703283
#
# Coordination Sequence:
#
# PCOD9446893 Si02
#       8
#     4   4   8   4   8   4   8   8
#     4  12  23  41  59  79 123 160 198 241 284 363
#     4  10  20  35  56  88 118 155 193 240 301 347
#     4  10  22  35  60  89 116 152 196 238 301 350
#     4  10  23  38  62  83 120 150 195 249 292 346
#     4  10  18  30  52  86 122 149 183 237 303 357
#     4  10  20  36  57  84 105 147 202 236 283 342
#     4  10  20  37  60  90 113 149 195 252 289 341
#     4   9  17  32  59  81 111 147 197 244 276 337
#
# _framework density 18.447680999999999
#
# number of rings (size 3 to 8) (size 9 to 14) (size 15 to 20)
#    0.000    2.167    3.333    1.500    1.167    2.667 
#    0.000    1.667    0.000    6.000    0.000    0.000 
#    0.000    0.000    0.000    0.000    0.000    0.000 
#
# Total GULP energy -267563.560682 kJ/mol
# GULP energy per Si atom -5574.240848 kJ/mol
# Density = 1.840569 g / cm^3
# Si number density = 18.447681 Si / 1000 Ang^3
#
#
#
# Elastic Constant Matrix: (Units=GPa)
#
#
# Indices 1 2 3 4 5 6 
#
# 1 111.4789 33.9414 31.5731 0.0000 0.0000 0.0000
# 2 33.9414 88.3269 34.1272 0.0000 0.0000 0.0000
# 3 31.5731 34.1272 52.3707 0.0000 0.0000 0.0000
# 4 0.0000 0.0000 0.0000 17.3028 0.0000 0.0000
# 5 0.0000 0.0000 0.0000 0.0000 14.5686 0.0000
# 6 0.0000 0.0000 0.0000 0.0000 0.0000 22.2753
#
#
#
# Elastic Compliance Matrix: (Units=1/GPa)
#
#
# Indices 1 2 3 4 5 6 
#
# 1 0.011143 -0.002254 -0.005249 0.000000 0.000000 0.000000
# 2 -0.002254 0.015587 -0.008799 0.000000 0.000000 0.000000
# 3 -0.005249 -0.008799 0.027993 0.000000 0.000000 0.000000
# 4 0.000000 0.000000 0.000000 0.057794 0.000000 0.000000
# 5 0.000000 0.000000 0.000000 0.000000 0.068641 0.000000
# 6 0.000000 0.000000 0.000000 0.000000 0.000000 0.044893
#
#
# Mechanical properties :
#
#
# Convention : Reuss Voigt Hill
#
# Bulk Modulus (GPa) = 45.20812 50.16222 47.68517
# Shear Modulus (GPa) = 18.79502 20.99831 19.89666
#
# Velocity S-wave (km/s) = 3.19537 3.37747 3.28768
# Velocity P-wave (km/s) = 6.17845 6.51617 6.34955
#
# Compressibility (1/GPa) = 0.02211992
#
# Stress axis : x y z
#
# Youngs Moduli (GPa) = 89.74062 64.15521 35.72340
#
# Poissons Ratio (x) = 0.14459 0.18752
# Poissons Ratio (y) = 0.20226 0.31431
# Poissons Ratio (z) = 0.47107 0.56447
#
# Static dielectric constant tensor:
#      x y z
#    x 1.642380 0.000000 0.000000 
#    y 0.000000 1.662490 0.000000 
#    z 0.000000 0.000000 1.642120 
# 
# From -- ./inp_files/10318.got.cif
#   From: 2010.05.17/outbox.cif.g08.bks.cpg/sg59_6_cif.got.tgz:10318.got - 2010.06.03 14:40:33.
