data_PCOD9446106
_publ_section_title
;
Structure prediction by ZEFSAII (Michael W. Deem and Ramdas Pophale) SiO2 
 PCOD9446106
Probable space group: P N N M
;
_chemical_formula_sum "Si O2"
_cell_formula_units_Z 48
_cell_length_a 30.000000
_cell_length_b 9.000000
_cell_length_c 9.000000
_cell_angle_alpha 90.000000
_cell_angle_beta 90.000000
_cell_angle_gamma 90.000000
_cell_volume 2430.000000
_symmetry_space_group_name_H-M "P N N M"
_symmetry_group_IT_number 58
_symmetry_cell_setting 'orthorhombic'
loop_
_space_group_symop_operation_xyz
x,y,z
-x,-y,z
1/2+x,1/2-y,1/2-z
1/2-x,1/2+y,1/2-z
-x,-y,-z
x,y,-z
1/2-x,1/2+y,1/2+z
1/2+x,1/2-y,1/2+z
loop_
_atom_site_type_symbol
_atom_site_label
_atom_site_fract_x
_atom_site_fract_y
_atom_site_fract_z
Si Si1 0.903890 0.003089 0.668054
Si Si2 0.619882 0.028922 0.674496
Si Si3 0.549060 0.819877 0.167857
Si Si4 0.712827 0.107738 0.177267
Si Si5 0.956531 0.763128 0.174410
Si Si6 0.800397 0.959705 0.677775
O O1 0.903352 0.936317 0.500000
O O2 0.940966 0.921781 0.767054
O O3 0.851958 0.999485 0.721134
O O4 0.924257 0.165967 0.657142
O O5 0.628362 0.006970 0.500000
O O6 0.583112 0.914556 0.733989
O O7 0.667606 0.033478 0.756551
O O8 0.590630 0.177609 0.695942
O O9 0.499680 0.799215 0.238141
O O10 0.544702 0.880921 0.000000
O O11 0.759432 0.047601 0.245389
O O12 0.707457 0.284349 0.206393
O O13 0.713558 0.084394 0.000000
O O14 0.967368 0.759476 0.000000
O O15 0.797460 0.985774 0.500000
#
# Coordination Sequence:
#
# PCOD9446106 Si02
#       6
#     8   8   8   8   8   8
#     4  10  22  42  64  89 124 163 206 254 306 365
#     4  11  24  42  63  90 126 163 205 257 310 362
#     4  11  24  39  62  94 125 166 210 254 305 367
#     4  11  24  42  67  94 121 161 206 248 308 369
#     4  11  23  40  63  91 124 165 207 256 312 365
#     4  10  23  43  65  92 126 161 201 255 309 363
#
# _framework density 19.753086
#
# number of rings (size 3 to 8) (size 9 to 14) (size 15 to 20)
#    0.000    1.333    1.667    3.000    2.333    9.333 
#    0.000    0.000    0.000    0.000    0.000    0.000 
#    0.000    0.000    0.000    0.000    0.000    0.000 
#
# Total GULP energy -267822.353704 kJ/mol
# GULP energy per Si atom -5579.632369 kJ/mol
# Density = 1.970813 g / cm^3
# Si number density = 19.753086 Si / 1000 Ang^3
#
#
#
# Elastic Constant Matrix: (Units=GPa)
#
#
# Indices 1 2 3 4 5 6 
#
# 1 132.8607 -3.0111 39.0583 0.0000 0.0000 0.0000
# 2 -3.0111 26.4372 2.5058 0.0000 0.0000 0.0000
# 3 39.0583 2.5058 -18.1093 0.0000 0.0000 0.0000
# 4 0.0000 0.0000 0.0000 22.3446 0.0000 0.0000
# 5 0.0000 0.0000 0.0000 0.0000 43.1858 0.0000
# 6 0.0000 0.0000 0.0000 0.0000 0.0000 25.1565
#
#
#
# Elastic Compliance Matrix: (Units=1/GPa)
#
#
# Indices 1 2 3 4 5 6 
#
# 1 0.004611 -0.000412 0.009887 0.000000 0.000000 0.000000
# 2 -0.000412 0.037373 0.004283 0.000000 0.000000 0.000000
# 3 0.009887 0.004283 -0.033302 0.000000 0.000000 0.000000
# 4 0.000000 0.000000 0.000000 0.044754 0.000000 0.000000
# 5 0.000000 0.000000 0.000000 0.000000 0.023156 0.000000
# 6 0.000000 0.000000 0.000000 0.000000 0.000000 0.039751
#
#
# Mechanical properties :
#
#
# Convention : Reuss Voigt Hill
#
# Bulk Modulus (GPa) = 27.62680 24.25496 25.94088
# Shear Modulus (GPa) = 49.55845 24.97974 37.26910
#
# Velocity S-wave (km/s) = 5.01432 3.55998 4.34838
# Velocity P-wave (km/s) = 6.89500 5.40404 6.19454
#
# Compressibility (1/GPa) = 0.03619674
#
# Stress axis : x y z
#
# Youngs Moduli (GPa) = 216.88802 26.75754 -30.02779
#
# Poissons Ratio (x) = 0.01102 0.29689
# Poissons Ratio (y) = 0.08936 0.12860
# Poissons Ratio (z) = -2.14444 -0.11459
#
# Static dielectric constant tensor:
#      x y z
#    x 1.629010 0.000000 0.000000 
#    y 0.000000 1.823210 0.000000 
#    z 0.000000 0.000000 1.711740 
# 
# From -- ./inp_files/2972.got.cif
#   From: 2010.05.17/outbox.ucp.g08.bks.cvg/sg58_2_cif.got.tgz:2972.got - 2010.06.11 16:41:41.
