data_PCOD9446296
_publ_section_title
;
Structure prediction by ZEFSAII (Michael W. Deem and Ramdas Pophale) SiO2 
 PCOD9446296
Probable space group: P M M N
;
_chemical_formula_sum "Si O2"
_cell_formula_units_Z 56
_cell_length_a 20.131264
_cell_length_b 17.668750
_cell_length_c 7.919126
_cell_angle_alpha 90.000000
_cell_angle_beta 90.000000
_cell_angle_gamma 90.000000
_cell_volume 2816.787748
_symmetry_space_group_name_H-M "P M M N"
_symmetry_group_IT_number 59
_space_group.IT_coordinate_system_code '2'
_symmetry_cell_setting 'orthorhombic'
loop_
_space_group_symop_operation_xyz
x,y,z
1/2-x,1/2-y,z
1/2+x,-y,-z
-x,1/2+y,-z
-x,-y,-z
1/2+x,1/2+y,-z
1/2-x,y,z
x,1/2-y,z
loop_
_atom_site_type_symbol
_atom_site_label
_atom_site_fract_x
_atom_site_fract_y
_atom_site_fract_z
Si Si1 0.572190 0.374188 0.664808
Si Si2 0.675814 0.926252 0.300394
Si Si3 0.674467 0.125895 0.950770
Si Si4 0.321238 0.056364 0.091505
Si Si5 0.604275 0.412311 0.286694
Si Si6 0.561678 0.667360 0.440090
Si Si7 0.043190 0.449145 0.266205
O O1 0.626282 0.346710 0.800727
O O2 0.596108 0.370249 0.467809
O O3 0.501331 0.333615 0.684332
O O4 0.556055 0.462702 0.700584
O O5 0.750000 0.928121 0.372383
O O6 0.631203 0.858091 0.365067
O O7 0.641137 0.008125 0.327751
O O8 0.679979 0.917020 0.100090
O O9 0.750000 0.154913 0.943753
O O10 0.678171 0.035055 0.918446
O O11 0.643802 0.131773 0.139495
O O12 0.250000 0.078457 0.173452
O O13 0.391890 0.079455 0.167292
O O14 0.532220 0.434798 0.205595
O O15 0.565061 0.750000 0.520775
O O16 0.544663 0.599220 0.564550
#
# Coordination Sequence:
#
# PCOD9446296 Si02
#       7
#     8   8   8   8   8   8   8
#     4  10  19  35  57  80 108 142 182 224 279 321
#     4  10  19  32  51  76 109 145 179 215 266 326
#     4   9  19  30  50  87 114 132 169 220 275 330
#     4   8  17  30  48  78 109 137 174 224 268 310
#     4  10  17  31  53  82 109 139 175 227 273 314
#     4  11  22  36  52  76 107 142 185 225 265 324
#     4  10  18  33  56  79 102 141 185 229 274 319
#
# _framework density 19.880803
#
# number of rings (size 3 to 8) (size 9 to 14) (size 15 to 20)
#    0.000    2.286    2.857    2.143    2.000    3.714 
#    0.000    0.714    0.000    1.286    0.000    0.000 
#    0.000    0.000    0.000    0.000    0.000    0.000 
#
# Total GULP energy -311820.706238 kJ/mol
# GULP energy per Si atom -5568.226897 kJ/mol
# Density = 1.983555 g / cm^3
# Si number density = 19.880803 Si / 1000 Ang^3
#
#
#
# Elastic Constant Matrix: (Units=GPa)
#
#
# Indices 1 2 3 4 5 6 
#
# 1 161.8633 11.4816 29.7787 0.0000 0.0000 0.0000
# 2 11.4816 39.9795 -3.5978 0.0000 0.0000 0.0000
# 3 29.7787 -3.5978 40.4779 0.0000 0.0000 0.0000
# 4 0.0000 0.0000 0.0000 -9.5926 0.0000 0.0000
# 5 0.0000 0.0000 0.0000 0.0000 62.3642 0.0000
# 6 0.0000 0.0000 0.0000 0.0000 0.0000 -0.8924
#
#
#
# Elastic Compliance Matrix: (Units=1/GPa)
#
#
# Indices 1 2 3 4 5 6 
#
# 1 0.007412 -0.002640 -0.005687 0.000000 0.000000 0.000000
# 2 -0.002640 0.026155 0.004267 0.000000 0.000000 0.000000
# 3 -0.005687 0.004267 0.029268 0.000000 0.000000 0.000000
# 4 0.000000 0.000000 0.000000 -0.104247 0.000000 0.000000
# 5 0.000000 0.000000 0.000000 0.000000 0.016035 0.000000
# 6 0.000000 0.000000 0.000000 0.000000 0.000000 -1.120551
#
#
# Mechanical properties :
#
#
# Convention : Reuss Voigt Hill
#
# Bulk Modulus (GPa) = 18.27685 35.29396 26.78541
# Shear Modulus (GPa) = -4.46600 24.01971 9.77686
#
# Velocity S-wave (km/s) = -1.50042 3.47967 2.22000
# Velocity P-wave (km/s) = 2.49229 5.82541 4.48034
#
# Compressibility (1/GPa) = 0.05471401
#
# Stress axis : x y z
#
# Youngs Moduli (GPa) = 134.92263 38.23344 34.16686
#
# Poissons Ratio (x) = 0.10095 0.19432
# Poissons Ratio (y) = 0.35624 -0.14580
# Poissons Ratio (z) = 0.76734 -0.16315
#
# Static dielectric constant tensor:
#      x y z
#    x 1.829330 0.000000 0.000000 
#    y 0.000000 1.930000 0.000000 
#    z 0.000000 0.000000 1.744550 
# 
# From -- ./inp_files/10636.got.cif
#   From: 2010.05.17/outbox.cif.g08.bks.cpg/sg59_6_cif.got.tgz:10636.got - 2010.06.03 14:40:33.
