data_PCOD9446583
_publ_section_title
;
Structure prediction by ZEFSAII (Michael W. Deem and Ramdas Pophale) SiO2 
 PCOD9446583
Probable space group: P M M N
;
_chemical_formula_sum "Si O2"
_cell_formula_units_Z 64
_cell_length_a 9.085590
_cell_length_b 21.133160
_cell_length_c 20.976997
_cell_angle_alpha 90.000000
_cell_angle_beta 90.000000
_cell_angle_gamma 90.000000
_cell_volume 4027.735028
_symmetry_space_group_name_H-M "P M M N"
_symmetry_group_IT_number 59
_space_group.IT_coordinate_system_code '2'
_symmetry_cell_setting 'orthorhombic'
loop_
_space_group_symop_operation_xyz
x,y,z
1/2-x,1/2-y,z
1/2+x,-y,-z
-x,1/2+y,-z
-x,-y,-z
1/2+x,1/2+y,-z
1/2-x,y,z
x,1/2-y,z
loop_
_atom_site_type_symbol
_atom_site_label
_atom_site_fract_x
_atom_site_fract_y
_atom_site_fract_z
Si Si1 0.582223 0.989746 0.810914
Si Si2 0.073729 0.320821 0.473552
Si Si3 0.927818 0.552219 0.453851
Si Si4 0.427472 0.961784 0.942451
Si Si5 0.076732 0.005174 0.683222
Si Si6 0.077659 0.854107 0.659139
Si Si7 0.926793 0.318195 0.081825
Si Si8 0.917722 0.660464 0.786174
O O1 0.750000 0.011376 0.821955
O O2 0.509666 0.020367 0.748169
O O3 0.487420 0.990408 0.875661
O O4 0.586846 0.915521 0.792936
O O5 0.250000 0.324242 0.463427
O O6 0.038802 0.250000 0.496909
O O7 0.034168 0.378104 0.520572
O O8 0.994484 0.332536 0.406462
O O9 0.750000 0.544422 0.456489
O O10 0.972895 0.541173 0.380589
O O11 0.000000 0.500000 0.500000
O O12 0.250000 0.965512 0.944092
O O13 0.471313 0.886824 0.946110
O O14 0.500000 0.000000 0.000000
O O15 0.250000 0.017143 0.693974
O O16 0.062816 0.930403 0.666267
O O17 0.250000 0.838825 0.660474
O O18 0.995624 0.824929 0.719814
O O19 0.750000 0.319566 0.084309
O O20 0.970318 0.250000 0.051590
O O21 0.990586 0.317701 0.153103
O O22 0.750000 0.682244 0.788111
#
# Coordination Sequence:
#
# PCOD9446583 Si02
#       8
#     8   8   8   8   8   8   8   8
#     4   9  17  29  46  70  97 124 156 194 236 282
#     4  10  21  34  46  63  90 122 155 195 244 295
#     4  10  19  32  50  70  92 119 157 201 244 289
#     4  10  19  32  51  74 102 133 162 197 237 281
#     4   9  17  29  46  69  93 118 152 198 245 284
#     4  10  18  29  45  64  88 121 159 196 235 279
#     4   9  18  32  48  67  93 127 165 199 232 273
#     4   9  17  28  43  64  91 123 158 195 233 273
#
# _framework density 15.889824000000001
#
# number of rings (size 3 to 8) (size 9 to 14) (size 15 to 20)
#    0.000    2.500    1.250    1.500    0.000    5.500 
#    0.000    0.000    0.000    0.000    0.000    0.875 
#    0.000    3.000    0.000    0.000    0.000    0.000 
#
# Total GULP energy -356606.982989 kJ/mol
# GULP energy per Si atom -5571.984109 kJ/mol
# Density = 1.585366 g / cm^3
# Si number density = 15.889824 Si / 1000 Ang^3
#
#
#
# Elastic Constant Matrix: (Units=GPa)
#
#
# Indices 1 2 3 4 5 6 
#
# 1 34.6652 30.7109 41.8998 0.0000 0.0000 0.0000
# 2 30.7109 82.9869 59.8924 0.0000 0.0000 0.0000
# 3 41.8998 59.8924 116.8682 0.0000 0.0000 0.0000
# 4 0.0000 0.0000 0.0000 2.0609 0.0000 0.0000
# 5 0.0000 0.0000 0.0000 0.0000 27.5360 0.0000
# 6 0.0000 0.0000 0.0000 0.0000 0.0000 7.3714
#
#
#
# Elastic Compliance Matrix: (Units=1/GPa)
#
#
# Indices 1 2 3 4 5 6 
#
# 1 0.055521 -0.009808 -0.014879 0.000000 0.000000 0.000000
# 2 -0.009808 0.020856 -0.007172 0.000000 0.000000 0.000000
# 3 -0.014879 -0.007172 0.017566 0.000000 0.000000 0.000000
# 4 0.000000 0.000000 0.000000 0.485214 0.000000 0.000000
# 5 0.000000 0.000000 0.000000 0.000000 0.036316 0.000000
# 6 0.000000 0.000000 0.000000 0.000000 0.000000 0.135659
#
#
# Mechanical properties :
#
#
# Convention : Reuss Voigt Hill
#
# Bulk Modulus (GPa) = 33.08484 55.50292 44.29388
# Shear Modulus (GPa) = 6.06116 14.19482 10.12799
#
# Velocity S-wave (km/s) = 1.95519 2.99210 2.52739
# Velocity P-wave (km/s) = 5.09545 6.85147 6.03764
#
# Compressibility (1/GPa) = 0.03022532
#
# Stress axis : x y z
#
# Youngs Moduli (GPa) = 18.01121 47.94870 56.92717
#
# Poissons Ratio (x) = 0.47030 0.84701
# Poissons Ratio (y) = 0.17666 0.40826
# Poissons Ratio (z) = 0.26799 0.34387
#
# Static dielectric constant tensor:
#      x y z
#    x 1.536500 0.000000 0.000000 
#    y 0.000000 1.560650 0.000000 
#    z 0.000000 0.000000 1.504450 
# 
# From -- ./inp_files/29773.got.cif
#   From: 2010.05.17/outbox.cif.g08.bks.cpg/sg59_15_cif.got.tgz:29773.got - 2010.06.03 14:40:33.
