data_PCOD9446652
_publ_section_title
;
Structure prediction by ZEFSAII (Michael W. Deem and Ramdas Pophale) SiO2 
 PCOD9446652
Probable space group: P M M N
;
_chemical_formula_sum "Si O2"
_cell_formula_units_Z 64
_cell_length_a 7.556237
_cell_length_b 29.030116
_cell_length_c 15.022988
_cell_angle_alpha 90.000000
_cell_angle_beta 90.000000
_cell_angle_gamma 90.000000
_cell_volume 3295.419161
_symmetry_space_group_name_H-M "P M M N"
_symmetry_group_IT_number 59
_space_group.IT_coordinate_system_code '2'
_symmetry_cell_setting 'orthorhombic'
loop_
_space_group_symop_operation_xyz
x,y,z
1/2-x,1/2-y,z
1/2+x,-y,-z
-x,1/2+y,-z
-x,-y,-z
1/2+x,1/2+y,-z
1/2-x,y,z
x,1/2-y,z
loop_
_atom_site_type_symbol
_atom_site_label
_atom_site_fract_x
_atom_site_fract_y
_atom_site_fract_z
Si Si1 0.041683 0.067421 0.139598
Si Si2 0.033845 0.197207 0.844168
Si Si3 0.963166 0.463443 0.838865
Si Si4 0.961883 0.886230 0.478485
Si Si5 0.966108 0.697374 0.358199
Si Si6 0.044541 0.118240 0.971208
Si Si7 0.539771 0.426341 0.339994
Si Si8 0.040833 0.470974 0.635158
O O1 0.250000 0.063046 0.119710
O O2 0.024443 0.084320 0.240784
O O3 0.971286 0.014987 0.137180
O O4 0.965409 0.100971 0.064546
O O5 0.250000 0.195655 0.844095
O O6 0.982603 0.250000 0.861546
O O7 0.980233 0.185162 0.742989
O O8 0.967156 0.161247 0.917097
O O9 0.750000 0.462741 0.843446
O O10 0.035631 0.425325 0.905105
O O11 0.016697 0.454572 0.736805
O O12 0.750000 0.886435 0.466232
O O13 0.027839 0.840773 0.428171
O O14 0.033496 0.932652 0.431200
O O15 0.997248 0.890457 0.582905
O O16 0.750000 0.697619 0.359182
O O17 0.021913 0.750000 0.376641
O O18 0.250000 0.130310 0.987838
O O19 0.750000 0.430643 0.333197
O O20 0.466698 0.477034 0.368037
O O21 0.250000 0.474564 0.616625
#
# Coordination Sequence:
#
# PCOD9446652 Si02
#       8
#     8   8   8   8   8   8   8   8
#     4   9  19  33  46  63  90 125 161 194 228 267
#     4   8  14  26  46  72  97 117 142 181 227 273
#     4  10  19  29  43  66  96 126 155 188 225 269
#     4  10  18  29  48  69  90 118 151 187 228 273
#     4   8  14  25  43  69  96 117 140 175 221 272
#     4  10  18  29  48  70  92 120 154 190 229 273
#     4  10  20  32  46  65  91 122 156 193 229 269
#     4   9  18  31  46  66  92 123 156 188 226 272
#
# _framework density 19.420898000000001
#
# number of rings (size 3 to 8) (size 9 to 14) (size 15 to 20)
#    0.000    2.750    0.000    3.000    0.000    4.000 
#    0.000    0.000    0.000    1.500    0.000    5.250 
#    0.000    0.000    0.000    0.000    0.000    0.000 
#
# Total GULP energy -357091.073579 kJ/mol
# GULP energy per Si atom -5579.548025 kJ/mol
# Density = 1.937670 g / cm^3
# Si number density = 19.420898 Si / 1000 Ang^3
#
#
#
# Elastic Constant Matrix: (Units=GPa)
#
#
# Indices 1 2 3 4 5 6 
#
# 1 37.6785 -9.7231 -20.3092 0.0000 0.0000 0.0000
# 2 -9.7231 86.9242 87.6117 0.0000 0.0000 0.0000
# 3 -20.3092 87.6117 124.8757 0.0000 0.0000 0.0000
# 4 0.0000 0.0000 0.0000 32.6744 0.0000 0.0000
# 5 0.0000 0.0000 0.0000 0.0000 9.4709 0.0000
# 6 0.0000 0.0000 0.0000 0.0000 0.0000 -0.0938
#
#
#
# Elastic Compliance Matrix: (Units=1/GPa)
#
#
# Indices 1 2 3 4 5 6 
#
# 1 0.029788 -0.005296 0.008560 0.000000 0.000000 0.000000
# 2 -0.005296 0.040224 -0.029082 0.000000 0.000000 0.000000
# 3 0.008560 -0.029082 0.029804 0.000000 0.000000 0.000000
# 4 0.000000 0.000000 0.000000 0.030605 0.000000 0.000000
# 5 0.000000 0.000000 0.000000 0.000000 0.105587 0.000000
# 6 0.000000 0.000000 0.000000 0.000000 0.000000-10.655425
#
#
# Mechanical properties :
#
#
# Convention : Reuss Voigt Hill
#
# Bulk Modulus (GPa) = 20.75555 40.51527 30.63541
# Shear Modulus (GPa) = -0.48301 21.20354 10.36027
#
# Velocity S-wave (km/s) = -0.49925 3.30781 2.31218
# Velocity P-wave (km/s) = 3.22151 5.95783 4.78925
#
# Compressibility (1/GPa) = 0.04817989
#
# Stress axis : x y z
#
# Youngs Moduli (GPa) = 33.57094 24.86080 33.55278
#
# Poissons Ratio (x) = 0.13165 -0.28721
# Poissons Ratio (y) = 0.17778 0.97578
# Poissons Ratio (z) = -0.28736 0.72300
#
# Static dielectric constant tensor:
#      x y z
#    x 1.713130 0.000000 0.000000 
#    y 0.000000 1.681910 0.000000 
#    z 0.000000 0.000000 1.694720 
# 
# From -- ./inp_files/21926.got.cif
#   From: 2010.05.17/outbox.cif.g08.bks.cpg/sg59_11_cif.got.tgz:21926.got - 2010.06.03 14:40:33.
