data_PCOD9446110
_publ_section_title
;
Structure prediction by ZEFSAII (Michael W. Deem and Ramdas Pophale) SiO2 
 PCOD9446110
Probable space group: P N N M
;
_chemical_formula_sum "Si O2"
_cell_formula_units_Z 56
_cell_length_a 21.000000
_cell_length_b 15.000000
_cell_length_c 9.000000
_cell_angle_alpha 90.000000
_cell_angle_beta 90.000000
_cell_angle_gamma 90.000000
_cell_volume 2835.000000
_symmetry_space_group_name_H-M "P N N M"
_symmetry_group_IT_number 58
_symmetry_cell_setting 'orthorhombic'
loop_
_space_group_symop_operation_xyz
x,y,z
-x,-y,z
1/2+x,1/2-y,1/2-z
1/2-x,1/2+y,1/2-z
-x,-y,-z
x,y,-z
1/2-x,1/2+y,1/2+z
1/2+x,1/2-y,1/2+z
loop_
_atom_site_type_symbol
_atom_site_label
_atom_site_fract_x
_atom_site_fract_y
_atom_site_fract_z
Si Si1 0.909620 0.915229 0.327778
Si Si2 0.492295 0.284342 0.674135
Si Si3 0.127455 0.905740 0.174239
Si Si4 0.222306 0.193032 0.674593
Si Si5 0.043098 0.587152 0.823642
Si Si6 0.678129 0.940676 0.177595
Si Si7 0.263740 0.881988 0.321900
O O1 0.920665 0.939014 0.500000
O O2 0.841420 0.866189 0.316651
O O3 0.961652 0.845419 0.270836
O O4 0.907149 0.004230 0.229080
O O5 0.509996 0.294047 0.500000
O O6 0.421093 0.323624 0.690264
O O7 0.492482 0.179851 0.712079
O O8 0.190213 0.892608 0.272206
O O9 0.144726 0.914006 0.000000
O O10 0.237873 0.206510 0.500000
O O11 0.277280 0.136859 0.755283
O O12 0.213397 0.288067 0.753957
O O13 0.106305 0.578956 0.726917
O O14 0.000000 0.500000 0.801696
O O15 0.059963 0.591656 0.000000
O O16 0.699574 0.034222 0.250888
O O17 0.684914 0.944590 0.000000
O O18 0.269671 0.883216 0.500000
#
# Coordination Sequence:
#
# PCOD9446110 Si02
#       7
#     8   8   8   8   8   8   8
#     4  11  24  40  63  94 129 168 214 270 324 384
#     4  10  23  41  63  92 128 171 215 267 327 387
#     4  11  22  40  65  94 130 171 215 265 326 393
#     4  11  24  43  65  95 132 171 217 272 327 387
#     4  10  23  44  68  95 129 173 221 270 326 386
#     4  12  25  43  68  98 132 173 215 268 327 386
#     4  12  25  41  66  97 130 170 215 268 326 389
#
# _framework density 19.753086
#
# number of rings (size 3 to 8) (size 9 to 14) (size 15 to 20)
#    0.000    1.000    1.429    5.143    2.000    6.571 
#    0.000    0.000    0.000    0.000    0.000    0.000 
#    0.000    0.000    0.000    0.000    0.000    0.000 
#
# Total GULP energy -313439.078525 kJ/mol
# GULP energy per Si atom -5597.126402 kJ/mol
# Density = 1.970813 g / cm^3
# Si number density = 19.753086 Si / 1000 Ang^3
#
#
#
# Elastic Constant Matrix: (Units=GPa)
#
#
# Indices 1 2 3 4 5 6 
#
# 1 32.8737 -15.8806 15.0204 0.0000 0.0000 0.0000
# 2 -15.8806 90.3326 13.5337 0.0000 0.0000 0.0000
# 3 15.0204 13.5337 113.1943 0.0000 0.0000 0.0000
# 4 0.0000 0.0000 0.0000 32.1264 0.0000 0.0000
# 5 0.0000 0.0000 0.0000 0.0000 34.7106 0.0000
# 6 0.0000 0.0000 0.0000 0.0000 0.0000 16.1839
#
#
#
# Elastic Compliance Matrix: (Units=1/GPa)
#
#
# Indices 1 2 3 4 5 6 
#
# 1 0.036552 0.007283 -0.005721 0.000000 0.000000 0.000000
# 2 0.007283 0.012723 -0.002488 0.000000 0.000000 0.000000
# 3 -0.005721 -0.002488 0.009891 0.000000 0.000000 0.000000
# 4 0.000000 0.000000 0.000000 0.031127 0.000000 0.000000
# 5 0.000000 0.000000 0.000000 0.000000 0.028810 0.000000
# 6 0.000000 0.000000 0.000000 0.000000 0.000000 0.061790
#
#
# Mechanical properties :
#
#
# Convention : Reuss Voigt Hill
#
# Bulk Modulus (GPa) = 17.44759 29.08307 23.26533
# Shear Modulus (GPa) = 24.77103 31.51931 28.14517
#
# Velocity S-wave (km/s) = 3.54507 3.99891 3.77881
# Velocity P-wave (km/s) = 5.06051 6.00641 5.55364
#
# Compressibility (1/GPa) = 0.05731450
#
# Stress axis : x y z
#
# Youngs Moduli (GPa) = 27.35854 78.59623 101.10251
#
# Poissons Ratio (x) = -0.57241 0.57841
# Poissons Ratio (y) = -0.19925 0.25151
# Poissons Ratio (z) = 0.15652 0.19552
#
# Static dielectric constant tensor:
#      x y z
#    x 1.684420 0.000000 0.000000 
#    y 0.000000 1.672110 0.000000 
#    z 0.000000 0.000000 1.665770 
# 
# From -- ./inp_files/8971.got.cif
#   From: 2010.05.17/outbox.ucp.g08.bks.cvg/sg58_5_cif.got.tgz:8971.got - 2010.06.11 16:41:41.
