data_PCOD9446821
_publ_section_title
;
Structure prediction by ZEFSAII (Michael W. Deem and Ramdas Pophale) SiO2 
 PCOD9446821
Probable space group: P M M N
;
_chemical_formula_sum "Si O2"
_cell_formula_units_Z 64
_cell_length_a 20.916793
_cell_length_b 7.527233
_cell_length_c 20.688531
_cell_angle_alpha 90.000000
_cell_angle_beta 90.000000
_cell_angle_gamma 90.000000
_cell_volume 3257.317649
_symmetry_space_group_name_H-M "P M M N"
_symmetry_group_IT_number 59
_space_group.IT_coordinate_system_code '2'
_symmetry_cell_setting 'orthorhombic'
loop_
_space_group_symop_operation_xyz
x,y,z
1/2-x,1/2-y,z
1/2+x,-y,-z
-x,1/2+y,-z
-x,-y,-z
1/2+x,1/2+y,-z
1/2-x,y,z
x,1/2-y,z
loop_
_atom_site_type_symbol
_atom_site_label
_atom_site_fract_x
_atom_site_fract_y
_atom_site_fract_z
Si Si1 0.920515 0.538114 0.833807
Si Si2 0.604765 0.535859 0.692114
Si Si3 0.321543 0.537057 0.053592
Si Si4 0.677267 0.466938 0.093588
Si Si5 0.959160 0.033658 0.331540
Si Si6 0.429882 0.536658 0.528279
Si Si7 0.820614 0.040202 0.566594
Si Si8 0.935532 0.467286 0.187378
O O1 0.925528 0.750000 0.827172
O O2 0.889844 0.473081 0.766206
O O3 0.875838 0.504506 0.894745
O O4 0.994091 0.474523 0.837274
O O5 0.606247 0.750000 0.692083
O O6 0.533889 0.481008 0.668642
O O7 0.656374 0.476742 0.640382
O O8 0.250000 0.472754 0.071907
O O9 0.318198 0.750000 0.050429
O O10 0.335516 0.475820 0.980411
O O11 0.750000 0.519928 0.110376
O O12 0.676365 0.250000 0.094148
O O13 0.622563 0.527792 0.142556
O O14 0.958224 0.250000 0.331676
O O15 0.927112 0.971545 0.397738
O O16 0.930507 0.978377 0.262554
O O17 0.500000 0.500000 0.500000
O O18 0.423789 0.750000 0.530560
O O19 0.375268 0.465622 0.480635
O O20 0.750000 0.964010 0.557471
O O21 0.817048 0.250000 0.552931
O O22 0.934923 0.250000 0.186288
#
# Coordination Sequence:
#
# PCOD9446821 Si02
#       8
#     8   8   8   8   8   8   8   8
#     4   9  18  30  46  69  94 119 150 192 234 269
#     4   9  17  31  48  65  87 118 156 190 222 268
#     4   9  18  31  45  63  90 123 155 188 226 271
#     4   8  14  26  44  65  90 121 155 186 222 275
#     4   8  14  26  45  67  88 112 147 188 226 263
#     4  10  18  30  50  70  90 121 157 190 225 272
#     4  10  21  33  44  66  99 126 149 187 237 277
#     4   8  14  26  44  67  93 117 145 189 235 267
#
# _framework density 19.648070000000001
#
# number of rings (size 3 to 8) (size 9 to 14) (size 15 to 20)
#    0.000    3.125    1.250    2.250    0.000    2.000 
#    0.000    3.125    0.000    3.750    0.000    0.000 
#    0.000    0.000    0.000    0.000    0.000    0.000 
#
# Total GULP energy -356792.976422 kJ/mol
# GULP energy per Si atom -5574.890257 kJ/mol
# Density = 1.960335 g / cm^3
# Si number density = 19.648070 Si / 1000 Ang^3
#
#
#
# Elastic Constant Matrix: (Units=GPa)
#
#
# Indices 1 2 3 4 5 6 
#
# 1 165.0968 5.2111 128.3396 0.0000 0.0000 0.0000
# 2 5.2111 47.4739 2.0496 0.0000 0.0000 0.0000
# 3 128.3396 2.0496 166.3669 0.0000 0.0000 0.0000
# 4 0.0000 0.0000 0.0000 11.2971 0.0000 0.0000
# 5 0.0000 0.0000 0.0000 0.0000 26.9302 0.0000
# 6 0.0000 0.0000 0.0000 0.0000 0.0000 11.1665
#
#
#
# Elastic Compliance Matrix: (Units=1/GPa)
#
#
# Indices 1 2 3 4 5 6 
#
# 1 0.015194 -0.001162 -0.011707 0.000000 0.000000 0.000000
# 2 -0.001162 0.021164 0.000636 0.000000 0.000000 0.000000
# 3 -0.011707 0.000636 0.015034 0.000000 0.000000 0.000000
# 4 0.000000 0.000000 0.000000 0.088518 0.000000 0.000000
# 5 0.000000 0.000000 0.000000 0.000000 0.037133 0.000000
# 6 0.000000 0.000000 0.000000 0.000000 0.000000 0.089554
#
#
# Mechanical properties :
#
#
# Convention : Reuss Voigt Hill
#
# Bulk Modulus (GPa) = 37.13895 72.23755 54.68825
# Shear Modulus (GPa) = 16.66448 26.10124 21.38286
#
# Velocity S-wave (km/s) = 2.91546 3.64873 3.30251
# Velocity P-wave (km/s) = 5.50239 7.38894 6.51432
#
# Compressibility (1/GPa) = 0.02692591
#
# Stress axis : x y z
#
# Youngs Moduli (GPa) = 65.81476 47.24924 66.51628
#
# Poissons Ratio (x) = 0.05492 0.77869
# Poissons Ratio (y) = 0.07650 -0.04230
# Poissons Ratio (z) = 0.77048 -0.03005
#
# Static dielectric constant tensor:
#      x y z
#    x 1.676260 0.000000 0.000000 
#    y 0.000000 1.773910 0.000000 
#    z 0.000000 0.000000 1.691780 
# 
# From -- ./inp_files/27222.got.cif
#   From: 2010.05.17/outbox.cif.g08.bks.cpg/sg59_14_cif.got.tgz:27222.got - 2010.06.03 14:40:33.
