data_PCOD9446261
_publ_section_title
;
Structure prediction by ZEFSAII (Michael W. Deem and Ramdas Pophale) SiO2 
 PCOD9446261
Probable space group: P M M N
;
_chemical_formula_sum "Si O2"
_cell_formula_units_Z 64
_cell_length_a 30.726528
_cell_length_b 8.225953
_cell_length_c 15.485787
_cell_angle_alpha 90.000000
_cell_angle_beta 90.000000
_cell_angle_gamma 90.000000
_cell_volume 3914.109709
_symmetry_space_group_name_H-M "P M M N"
_symmetry_group_IT_number 59
_space_group.IT_coordinate_system_code '2'
_symmetry_cell_setting 'orthorhombic'
loop_
_space_group_symop_operation_xyz
x,y,z
1/2-x,1/2-y,z
1/2+x,-y,-z
-x,1/2+y,-z
-x,-y,-z
1/2+x,1/2+y,-z
1/2-x,y,z
x,1/2-y,z
loop_
_atom_site_type_symbol
_atom_site_label
_atom_site_fract_x
_atom_site_fract_y
_atom_site_fract_z
Si Si1 0.437235 0.946347 0.047227
Si Si2 0.701547 0.554074 0.706022
Si Si3 0.538197 0.946557 0.322626
Si Si4 0.298801 0.054083 0.493262
Si Si5 0.058097 0.551317 0.370104
Si Si6 0.391479 0.943739 0.541907
Si Si7 0.384678 0.554858 0.206778
Si Si8 0.970083 0.554894 0.126298
O O1 0.437619 0.750000 0.044474
O O2 0.399933 0.002558 0.112794
O O3 0.482600 0.001132 0.092060
O O4 0.436900 0.006932 0.949280
O O5 0.750000 0.502298 0.732325
O O6 0.700467 0.750000 0.705351
O O7 0.694783 0.499974 0.606587
O O8 0.663520 0.491793 0.766116
O O9 0.537785 0.750000 0.321939
O O10 0.492297 0.000058 0.365372
O O11 0.539166 0.003812 0.223018
O O12 0.579113 0.002489 0.378069
O O13 0.250000 0.999818 0.520502
O O14 0.298165 0.250000 0.493450
O O15 0.341403 0.999323 0.544311
O O16 0.058396 0.750000 0.370838
O O17 0.084490 0.494434 0.454306
O O18 0.082860 0.497883 0.283018
O O19 0.391561 0.750000 0.537341
O O20 0.388252 0.750000 0.206177
O O21 0.972076 0.750000 0.130619
#
# Coordination Sequence:
#
# PCOD9446261 Si02
#       8
#     8   8   8   8   8   8   8   8
#     4   9  17  29  47  68  92 120 151 192 236 273
#     4   9  18  31  46  67  95 123 153 193 235 274
#     4  10  19  33  49  63  91 133 167 195 232 277
#     4   9  18  33  50  67  90 122 158 193 233 282
#     4   9  17  30  45  64  94 129 162 192 224 270
#     4  11  21  31  46  70  96 124 160 200 236 272
#     4  10  17  29  48  69  94 126 159 189 230 280
#     4   9  17  30  47  66  89 121 158 193 230 273
#
# _framework density 16.351101
#
# number of rings (size 3 to 8) (size 9 to 14) (size 15 to 20)
#    0.000    2.500    2.500    1.500    0.000    1.500 
#    0.000    2.500    0.000    0.000    0.000    0.875 
#    0.000    5.000    0.000    0.000    0.000    0.000 
#
# Total GULP energy -356735.644252 kJ/mol
# GULP energy per Si atom -5573.994441 kJ/mol
# Density = 1.631389 g / cm^3
# Si number density = 16.351101 Si / 1000 Ang^3
#
#
#
# Elastic Constant Matrix: (Units=GPa)
#
#
# Indices 1 2 3 4 5 6 
#
# 1 134.3161 11.1990 61.8568 0.0000 0.0000 0.0000
# 2 11.1990 6.5746 10.2961 0.0000 0.0000 0.0000
# 3 61.8568 10.2961 87.6395 0.0000 0.0000 0.0000
# 4 0.0000 0.0000 0.0000 19.2103 0.0000 0.0000
# 5 0.0000 0.0000 0.0000 0.0000 23.9691 0.0000
# 6 0.0000 0.0000 0.0000 0.0000 0.0000 20.5974
#
#
#
# Elastic Compliance Matrix: (Units=1/GPa)
#
#
# Indices 1 2 3 4 5 6 
#
# 1 0.011393 -0.008349 -0.007060 0.000000 0.000000 0.000000
# 2 -0.008349 0.192513 -0.016724 0.000000 0.000000 0.000000
# 3 -0.007060 -0.016724 0.018358 0.000000 0.000000 0.000000
# 4 0.000000 0.000000 0.000000 0.052055 0.000000 0.000000
# 5 0.000000 0.000000 0.000000 0.000000 0.041720 0.000000
# 6 0.000000 0.000000 0.000000 0.000000 0.000000 0.048550
#
#
# Mechanical properties :
#
#
# Convention : Reuss Voigt Hill
#
# Bulk Modulus (GPa) = 6.32923 43.91490 25.12206
# Shear Modulus (GPa) = 10.38374 22.43391 16.40882
#
# Velocity S-wave (km/s) = 2.52275 3.70809 3.17129
# Velocity P-wave (km/s) = 3.51638 6.72674 5.36721
#
# Compressibility (1/GPa) = 0.15799710
#
# Stress axis : x y z
#
# Youngs Moduli (GPa) = 87.77536 5.19446 54.47134
#
# Poissons Ratio (x) = 0.04337 0.38458
# Poissons Ratio (y) = 0.73287 0.91097
# Poissons Ratio (z) = 0.61971 0.08687
#
# Static dielectric constant tensor:
#      x y z
#    x 1.549250 0.000000 0.000000 
#    y 0.000000 1.578520 0.000000 
#    z 0.000000 0.000000 1.547770 
# 
# From -- ./inp_files/21829.got.cif
#   From: 2010.05.17/outbox.cif.g08.bks.cpg/sg59_11_cif.got.tgz:21829.got - 2010.06.03 14:40:33.
