data_PCOD9446220
_publ_section_title
;
Structure prediction by ZEFSAII (Michael W. Deem and Ramdas Pophale) SiO2 
 PCOD9446220
Probable space group: P M M N
;
_chemical_formula_sum "Si O2"
_cell_formula_units_Z 56
_cell_length_a 14.055209
_cell_length_b 18.594882
_cell_length_c 14.721594
_cell_angle_alpha 90.000000
_cell_angle_beta 90.000000
_cell_angle_gamma 90.000000
_cell_volume 3847.561506
_symmetry_space_group_name_H-M "P M M N"
_symmetry_group_IT_number 59
_space_group.IT_coordinate_system_code '2'
_symmetry_cell_setting 'orthorhombic'
loop_
_space_group_symop_operation_xyz
x,y,z
1/2-x,1/2-y,z
1/2+x,-y,-z
-x,1/2+y,-z
-x,-y,-z
1/2+x,1/2+y,-z
1/2-x,y,z
x,1/2-y,z
loop_
_atom_site_type_symbol
_atom_site_label
_atom_site_fract_x
_atom_site_fract_y
_atom_site_fract_z
Si Si1 0.861340 0.041787 0.443642
Si Si2 0.358102 0.250000 0.769733
Si Si3 0.529342 0.892950 0.446428
Si Si4 0.362009 0.664794 0.109405
Si Si5 0.523873 0.891696 0.229557
Si Si6 0.137357 0.538025 0.771556
Si Si7 0.634512 0.169128 0.101302
Si Si8 0.640764 0.750000 0.450956
O O1 0.750000 0.048267 0.467338
O O2 0.871385 0.055052 0.335658
O O3 0.932088 0.092365 0.499976
O O4 0.900233 0.960871 0.459969
O O5 0.250000 0.250000 0.802708
O O6 0.412168 0.322599 0.796752
O O7 0.355519 0.250000 0.659456
O O8 0.509430 0.888336 0.338445
O O9 0.583343 0.821240 0.477033
O O10 0.250000 0.648756 0.117933
O O11 0.374279 0.750000 0.130231
O O12 0.426329 0.617877 0.175471
O O13 0.390315 0.654842 0.003853
O O14 0.578418 0.965774 0.209496
O O15 0.250000 0.524902 0.788750
O O16 0.104551 0.605384 0.832058
O O17 0.750000 0.170846 0.104580
O O18 0.601691 0.250000 0.125783
O O19 0.750000 0.750000 0.483027
#
# Coordination Sequence:
#
# PCOD9446220 Si02
#       8
#     8   4   8   8   8   8   8   4
#     4   9  17  31  46  62  89 122 146 178 225 263
#     4   9  16  26  41  63  90 119 141 167 213 268
#     4   9  18  29  44  65  90 117 150 179 211 266
#     4   9  17  29  44  62  88 121 150 177 213 259
#     4  10  17  27  44  66  92 117 145 177 216 261
#     4   9  17  29  46  67  89 113 145 186 225 256
#     4   8  15  29  46  62  84 114 149 185 219 259
#     4   9  16  28  45  63  84 113 149 183 213 252
#
# _framework density 14.554672999999999
#
# number of rings (size 3 to 8) (size 9 to 14) (size 15 to 20)
#    0.000    3.000    0.714    1.714    0.000    4.571 
#    1.286    0.357    0.000    0.000    0.000    0.000 
#    0.000    0.000    0.000    0.000    0.000    0.000 
#
# Total GULP energy -311758.019489 kJ/mol
# GULP energy per Si atom -5567.107491 kJ/mol
# Density = 1.452155 g / cm^3
# Si number density = 14.554673 Si / 1000 Ang^3
#
#
#
# Elastic Constant Matrix: (Units=GPa)
#
#
# Indices 1 2 3 4 5 6 
#
# 1 102.5673 64.7946 50.3226 0.0000 0.0000 0.0000
# 2 64.7946 114.4763 54.8499 0.0000 0.0000 0.0000
# 3 50.3226 54.8499 44.1110 0.0000 0.0000 0.0000
# 4 0.0000 0.0000 0.0000 20.6720 0.0000 0.0000
# 5 0.0000 0.0000 0.0000 0.0000 18.7671 0.0000
# 6 0.0000 0.0000 0.0000 0.0000 0.0000 22.1452
#
#
#
# Elastic Compliance Matrix: (Units=1/GPa)
#
#
# Indices 1 2 3 4 5 6 
#
# 1 0.022197 -0.001065 -0.023998 0.000000 0.000000 0.000000
# 2 -0.001065 0.021662 -0.025720 0.000000 0.000000 0.000000
# 3 -0.023998 -0.025720 0.082029 0.000000 0.000000 0.000000
# 4 0.000000 0.000000 0.000000 0.048375 0.000000 0.000000
# 5 0.000000 0.000000 0.000000 0.000000 0.053285 0.000000
# 6 0.000000 0.000000 0.000000 0.000000 0.000000 0.045156
#
#
# Mechanical properties :
#
#
# Convention : Reuss Voigt Hill
#
# Bulk Modulus (GPa) = 41.11668 66.78765 53.95216
# Shear Modulus (GPa) = 13.07611 18.39602 15.73606
#
# Velocity S-wave (km/s) = 3.00061 3.55903 3.29168
# Velocity P-wave (km/s) = 6.34949 7.92944 7.18303
#
# Compressibility (1/GPa) = 0.02432103
#
# Stress axis : x y z
#
# Youngs Moduli (GPa) = 45.05193 46.16384 12.19084
#
# Poissons Ratio (x) = 0.04918 0.29255
# Poissons Ratio (y) = 0.04799 0.31355
# Poissons Ratio (z) = 1.08114 1.18735
#
# Static dielectric constant tensor:
#      x y z
#    x 1.468790 0.000000 0.000000 
#    y 0.000000 1.479590 0.000000 
#    z 0.000000 0.000000 1.469010 
# 
# From -- ./inp_files/23427.got.cif
#   From: 2010.05.17/outbox.cif.g08.bks.cpg/sg59_12_cif.got.tgz:23427.got - 2010.06.03 14:40:33.
