data_PCOD9446844
_publ_section_title
;
Structure prediction by ZEFSAII (Michael W. Deem and Ramdas Pophale) SiO2 
 PCOD9446844
Probable space group: P M M N
;
_chemical_formula_sum "Si O2"
_cell_formula_units_Z 48
_cell_length_a 7.521638
_cell_length_b 10.751080
_cell_length_c 28.686000
_cell_angle_alpha 90.000000
_cell_angle_beta 90.000000
_cell_angle_gamma 90.000000
_cell_volume 2319.714384
_symmetry_space_group_name_H-M "P M M N"
_symmetry_group_IT_number 59
_space_group.IT_coordinate_system_code '2'
_symmetry_cell_setting 'orthorhombic'
loop_
_space_group_symop_operation_xyz
x,y,z
1/2-x,1/2-y,z
1/2+x,-y,-z
-x,1/2+y,-z
-x,-y,-z
1/2+x,1/2+y,-z
1/2-x,y,z
x,1/2-y,z
loop_
_atom_site_type_symbol
_atom_site_label
_atom_site_fract_x
_atom_site_fract_y
_atom_site_fract_z
Si Si1 0.967590 0.750000 0.106252
Si Si2 0.040370 0.500610 0.737194
Si Si3 0.967856 0.250000 0.213113
Si Si4 0.467481 0.750000 0.895005
Si Si5 0.035803 0.108624 0.358787
Si Si6 0.468149 0.250000 0.785487
Si Si7 0.462900 0.000556 0.945195
Si Si8 0.037138 0.109979 0.464050
O O1 0.750000 0.750000 0.105341
O O2 0.019965 0.750000 0.160350
O O3 0.028652 0.625775 0.079771
O O4 0.250000 0.500061 0.747479
O O5 0.967994 0.625603 0.761186
O O6 0.969274 0.373964 0.759154
O O7 0.019726 0.516082 0.681868
O O8 0.750000 0.250000 0.215033
O O9 0.018444 0.250000 0.159054
O O10 0.250000 0.750000 0.896265
O O11 0.529171 0.874616 0.920926
O O12 0.250000 0.109713 0.359223
O O13 0.975924 0.250000 0.347328
O O14 0.973875 0.080748 0.411377
O O15 0.250000 0.250000 0.784516
O O16 0.250000 0.000653 0.939335
O O17 0.500000 0.000000 0.000000
O O18 0.250000 0.118387 0.461337
O O19 0.972659 0.250000 0.476787
O O20 0.000000 0.000000 0.500000
#
# Coordination Sequence:
#
# PCOD9446844 Si02
#       8
#     4   8   4   4   8   4   8   8
#     4   9  17  31  50  70  94 129 163 192 241 301
#     4  10  18  30  50  76 100 126 164 208 251 291
#     4   9  16  27  48  74  95 117 160 210 238 279
#     4   9  17  29  46  70  94 119 155 198 239 279
#     4   9  18  34  54  74 102 138 171 205 250 304
#     4   9  18  31  48  72 103 131 160 206 254 293
#     4  10  19  31  49  70  93 123 158 195 239 289
#     4   9  19  36  56  79 106 139 178 219 263 309
#
# _framework density 20.692201000000001
#
# number of rings (size 3 to 8) (size 9 to 14) (size 15 to 20)
#    0.000    2.667    0.833    2.500    0.000    5.000 
#    1.500    2.083    0.000    6.000    0.000    0.000 
#    0.000    0.000    0.000    0.000    0.000    0.000 
#
# Total GULP energy -267967.328607 kJ/mol
# GULP energy per Si atom -5582.652679 kJ/mol
# Density = 2.064510 g / cm^3
# Si number density = 20.692201 Si / 1000 Ang^3
#
#
#
# Elastic Constant Matrix: (Units=GPa)
#
#
# Indices 1 2 3 4 5 6 
#
# 1 50.4692 10.7582 -4.9719 0.0000 0.0000 0.0000
# 2 10.7582 221.8455 138.8747 0.0000 0.0000 0.0000
# 3 -4.9719 138.8747 183.9194 0.0000 0.0000 0.0000
# 4 0.0000 0.0000 0.0000 43.1937 0.0000 0.0000
# 5 0.0000 0.0000 0.0000 0.0000 22.4748 0.0000
# 6 0.0000 0.0000 0.0000 0.0000 0.0000 2.2384
#
#
#
# Elastic Compliance Matrix: (Units=1/GPa)
#
#
# Indices 1 2 3 4 5 6 
#
# 1 0.020604 -0.002556 0.002487 0.000000 0.000000 0.000000
# 2 -0.002556 0.008865 -0.006763 0.000000 0.000000 0.000000
# 3 0.002487 -0.006763 0.010611 0.000000 0.000000 0.000000
# 4 0.000000 0.000000 0.000000 0.023152 0.000000 0.000000
# 5 0.000000 0.000000 0.000000 0.000000 0.044494 0.000000
# 6 0.000000 0.000000 0.000000 0.000000 0.000000 0.446756
#
#
# Mechanical properties :
#
#
# Convention : Reuss Voigt Hill
#
# Bulk Modulus (GPa) = 37.85581 82.83957 60.34769
# Shear Modulus (GPa) = 8.66623 34.35291 21.50957
#
# Velocity S-wave (km/s) = 2.04872 4.07896 3.22763
# Velocity P-wave (km/s) = 4.89191 7.89335 6.56642
#
# Compressibility (1/GPa) = 0.02641603
#
# Stress axis : x y z
#
# Youngs Moduli (GPa) = 48.53444 112.79917 94.24046
#
# Poissons Ratio (x) = 0.28832 -0.23438
# Poissons Ratio (y) = 0.12406 0.63736
# Poissons Ratio (z) = -0.12071 0.76288
#
# Static dielectric constant tensor:
#      x y z
#    x 1.787980 0.000000 0.000000 
#    y 0.000000 1.724350 0.000000 
#    z 0.000000 0.000000 1.706400 
# 
# From -- ./inp_files/33107.got.cif
#   From: 2010.05.17/outbox.cif.g08.bks.cpg/sg59_17_cif.got.tgz:33107.got - 2010.06.03 14:40:33.
