data_PCOD9446838
_publ_section_title
;
Structure prediction by ZEFSAII (Michael W. Deem and Ramdas Pophale) SiO2 
 PCOD9446838
Probable space group: P M M N
;
_chemical_formula_sum "Si O2"
_cell_formula_units_Z 56
_cell_length_a 14.792713
_cell_length_b 7.666876
_cell_length_c 23.578394
_cell_angle_alpha 90.000000
_cell_angle_beta 90.000000
_cell_angle_gamma 90.000000
_cell_volume 2674.117531
_symmetry_space_group_name_H-M "P M M N"
_symmetry_group_IT_number 59
_space_group.IT_coordinate_system_code '2'
_symmetry_cell_setting 'orthorhombic'
loop_
_space_group_symop_operation_xyz
x,y,z
1/2-x,1/2-y,z
1/2+x,-y,-z
-x,1/2+y,-z
-x,-y,-z
1/2+x,1/2+y,-z
1/2-x,y,z
x,1/2-y,z
loop_
_atom_site_type_symbol
_atom_site_label
_atom_site_fract_x
_atom_site_fract_y
_atom_site_fract_z
Si Si1 0.146422 0.040887 0.696028
Si Si2 0.353842 0.958583 0.470524
Si Si3 0.600286 0.958962 0.978947
Si Si4 0.845975 0.538037 0.098332
Si Si5 0.149446 0.040040 0.146841
Si Si6 0.532010 0.958810 0.197054
Si Si7 0.960735 0.042330 0.418315
O O1 0.250000 0.974206 0.693225
O O2 0.152830 0.250000 0.702311
O O3 0.088644 0.973456 0.749663
O O4 0.089414 0.007055 0.639345
O O5 0.250000 0.023294 0.461569
O O6 0.346255 0.750000 0.475767
O O7 0.400575 0.027506 0.528702
O O8 0.433802 0.989694 0.424640
O O9 0.613147 0.750000 0.975680
O O10 0.623186 0.027137 0.916481
O O11 0.653927 0.024840 0.033830
O O12 0.500000 0.000000 0.000000
O O13 0.750000 0.497818 0.126155
O O14 0.853455 0.750000 0.095275
O O15 0.925247 0.471934 0.138240
O O16 0.250000 0.978464 0.160661
O O17 0.151115 0.250000 0.143601
O O18 0.073856 0.993695 0.192594
O O19 0.543304 0.750000 0.196768
O O20 0.959827 0.250000 0.422689
#
# Coordination Sequence:
#
# PCOD9446838 Si02
#       7
#     8   8   8   8   8   8   8
#     4  10  21  37  57  81 109 142 181 224 269 319
#     4   9  18  34  56  83 117 154 189 226 268 316
#     4  10  18  30  50  74 100 130 164 205 257 315
#     4   9  16  28  49  74  98 126 161 202 251 308
#     4  10  21  36  53  74 102 136 172 212 264 324
#     4  10  20  35  55  78 101 130 174 222 262 306
#     4  10  20  34  55  85 118 150 186 226 271 323
#
# _framework density 20.941488
#
# number of rings (size 3 to 8) (size 9 to 14) (size 15 to 20)
#    0.000    2.286    1.429    1.714    0.000    6.000 
#    0.000    0.714    0.000    4.286    0.000    0.000 
#    0.000    0.000    0.000    0.000    0.000    0.000 
#
# Total GULP energy -312227.536947 kJ/mol
# GULP energy per Si atom -5575.491731 kJ/mol
# Density = 2.089382 g / cm^3
# Si number density = 20.941488 Si / 1000 Ang^3
#
#
#
# Elastic Constant Matrix: (Units=GPa)
#
#
# Indices 1 2 3 4 5 6 
#
# 1 214.7063 3.7756 85.6404 0.0000 0.0000 0.0000
# 2 3.7756 41.1780 3.8186 0.0000 0.0000 0.0000
# 3 85.6404 3.8186 110.1076 0.0000 0.0000 0.0000
# 4 0.0000 0.0000 0.0000 13.3542 0.0000 0.0000
# 5 0.0000 0.0000 0.0000 0.0000 25.1571 0.0000
# 6 0.0000 0.0000 0.0000 0.0000 0.0000 16.0939
#
#
#
# Elastic Compliance Matrix: (Units=1/GPa)
#
#
# Indices 1 2 3 4 5 6 
#
# 1 0.006753 -0.000133 -0.005248 0.000000 0.000000 0.000000
# 2 -0.000133 0.024366 -0.000742 0.000000 0.000000 0.000000
# 3 -0.005248 -0.000742 0.013189 0.000000 0.000000 0.000000
# 4 0.000000 0.000000 0.000000 0.074883 0.000000 0.000000
# 5 0.000000 0.000000 0.000000 0.000000 0.039750 0.000000
# 6 0.000000 0.000000 0.000000 0.000000 0.000000 0.062135
#
#
# Mechanical properties :
#
#
# Convention : Reuss Voigt Hill
#
# Bulk Modulus (GPa) = 31.18800 61.38459 46.28629
# Shear Modulus (GPa) = 20.49100 29.10484 24.79792
#
# Velocity S-wave (km/s) = 3.13147 3.73207 3.44489
# Velocity P-wave (km/s) = 5.29151 6.92439 6.16228
#
# Compressibility (1/GPa) = 0.03206361
#
# Stress axis : x y z
#
# Youngs Moduli (GPa) = 148.08036 41.04123 75.81793
#
# Poissons Ratio (x) = 0.00544 0.39788
# Poissons Ratio (y) = 0.01963 0.05625
# Poissons Ratio (z) = 0.77711 0.03045
#
# Static dielectric constant tensor:
#      x y z
#    x 1.845780 0.000000 0.000000 
#    y 0.000000 1.796880 0.000000 
#    z 0.000000 0.000000 1.743490 
# 
# From -- ./inp_files/30361.got.cif
#   From: 2010.05.17/outbox.cif.g08.bks.cpg/sg59_16_cif.got.tgz:30361.got - 2010.06.03 14:40:33.
