data_PCOD9446117
_publ_section_title
;
Structure prediction by ZEFSAII (Michael W. Deem and Ramdas Pophale) SiO2 
 PCOD9446117
Probable space group: P N N M
;
_chemical_formula_sum "Si O2"
_cell_formula_units_Z 48
_cell_length_a 9.000000
_cell_length_b 30.000000
_cell_length_c 9.000000
_cell_angle_alpha 90.000000
_cell_angle_beta 90.000000
_cell_angle_gamma 90.000000
_cell_volume 2430.000000
_symmetry_space_group_name_H-M "P N N M"
_symmetry_group_IT_number 58
_symmetry_cell_setting 'orthorhombic'
loop_
_space_group_symop_operation_xyz
x,y,z
-x,-y,z
1/2+x,1/2-y,1/2-z
1/2-x,1/2+y,1/2-z
-x,-y,-z
x,y,-z
1/2-x,1/2+y,1/2+z
1/2+x,1/2-y,1/2+z
loop_
_atom_site_type_symbol
_atom_site_label
_atom_site_fract_x
_atom_site_fract_y
_atom_site_fract_z
Si Si1 0.687781 0.950702 0.675041
Si Si2 0.913740 0.296519 0.178889
Si Si3 0.786430 0.053725 0.676349
Si Si4 0.411099 0.703870 0.677555
Si Si5 0.542820 0.111992 0.821947
Si Si6 0.448389 0.600457 0.675817
O O1 0.643129 0.947068 0.500000
O O2 0.570186 0.928755 0.787042
O O3 0.824590 0.917950 0.711158
O O4 0.724850 0.003154 0.701437
O O5 0.743498 0.294077 0.233630
O O6 0.991721 0.248317 0.212945
O O7 0.985056 0.339907 0.261792
O O8 0.921617 0.303135 0.000000
O O9 0.824636 0.055667 0.500000
O O10 0.676786 0.094059 0.720386
O O11 0.920652 0.066079 0.785459
O O12 0.381276 0.705874 0.500000
O O13 0.477845 0.653619 0.703489
O O14 0.572471 0.114777 0.000000
O O15 0.407395 0.596956 0.500000
#
# Coordination Sequence:
#
# PCOD9446117 Si02
#       6
#     8   8   8   8   8   8
#     4  11  23  42  66  93 127 168 214 262 318 380
#     4  11  24  43  68  96 128 167 210 256 317 380
#     4  11  25  42  63  94 130 169 214 262 314 380
#     4  10  24  44  65  96 129 163 209 259 312 375
#     4  12  25  42  65  94 129 167 214 266 318 376
#     4  11  23  41  65  95 131 167 208 261 315 374
#
# _framework density 19.753086
#
# number of rings (size 3 to 8) (size 9 to 14) (size 15 to 20)
#    0.000    1.000    1.667    4.500    2.333    8.667 
#    0.000    0.000    0.000    0.000    0.000    0.000 
#    0.000    0.000    0.000    0.000    0.000    0.000 
#
# Total GULP energy -267715.100149 kJ/mol
# GULP energy per Si atom -5577.397920 kJ/mol
# Density = 1.970813 g / cm^3
# Si number density = 19.753086 Si / 1000 Ang^3
#
#
#
# Elastic Constant Matrix: (Units=GPa)
#
#
# Indices 1 2 3 4 5 6 
#
# 1 9.4168 0.2608 -6.1893 0.0000 0.0000 0.0000
# 2 0.2608 137.6735 49.4402 0.0000 0.0000 0.0000
# 3 -6.1893 49.4402 89.6309 0.0000 0.0000 0.0000
# 4 0.0000 0.0000 0.0000 43.7673 0.0000 0.0000
# 5 0.0000 0.0000 0.0000 0.0000 33.2238 0.0000
# 6 0.0000 0.0000 0.0000 0.0000 0.0000 41.1351
#
#
#
# Elastic Compliance Matrix: (Units=1/GPa)
#
#
# Indices 1 2 3 4 5 6 
#
# 1 0.112777 -0.003754 0.009858 0.000000 0.000000 0.000000
# 2 -0.003754 0.009183 -0.005324 0.000000 0.000000 0.000000
# 3 0.009858 -0.005324 0.014775 0.000000 0.000000 0.000000
# 4 0.000000 0.000000 0.000000 0.022848 0.000000 0.000000
# 5 0.000000 0.000000 0.000000 0.000000 0.030099 0.000000
# 6 0.000000 0.000000 0.000000 0.000000 0.000000 0.024310
#
#
# Mechanical properties :
#
#
# Convention : Reuss Voigt Hill
#
# Bulk Modulus (GPa) = 7.23099 35.97163 21.60131
# Shear Modulus (GPa) = 19.34019 36.50587 27.92303
#
# Velocity S-wave (km/s) = 3.13245 4.30363 3.76387
# Velocity P-wave (km/s) = 4.09287 6.55325 5.46337
#
# Compressibility (1/GPa) = 0.13829370
#
# Stress axis : x y z
#
# Youngs Moduli (GPa) = 8.86709 108.90018 67.68415
#
# Poissons Ratio (x) = 0.40879 -0.66724
# Poissons Ratio (y) = 0.03329 0.36038
# Poissons Ratio (z) = -0.08741 0.57983
#
# Static dielectric constant tensor:
#      x y z
#    x 1.933550 0.000000 0.000000 
#    y 0.000000 1.659200 0.000000 
#    z 0.000000 0.000000 1.640440 
# 
# From -- ./inp_files/2949.got.cif
#   From: 2010.05.17/outbox.ucp.g08.bks.cvg/sg58_2_cif.got.tgz:2949.got - 2010.06.11 16:41:41.
