data_PCOD9446177
_publ_section_title
;
Structure prediction by ZEFSAII (Michael W. Deem and Ramdas Pophale) SiO2 
 PCOD9446177
Probable space group: P M M N
;
_chemical_formula_sum "Si O2"
_cell_formula_units_Z 64
_cell_length_a 18.644263
_cell_length_b 8.795277
_cell_length_c 22.444888
_cell_angle_alpha 90.000000
_cell_angle_beta 90.000000
_cell_angle_gamma 90.000000
_cell_volume 3680.545449
_symmetry_space_group_name_H-M "P M M N"
_symmetry_group_IT_number 59
_space_group.IT_coordinate_system_code '2'
_symmetry_cell_setting 'orthorhombic'
loop_
_space_group_symop_operation_xyz
x,y,z
1/2-x,1/2-y,z
1/2+x,-y,-z
-x,1/2+y,-z
-x,-y,-z
1/2+x,1/2+y,-z
1/2-x,y,z
x,1/2-y,z
loop_
_atom_site_type_symbol
_atom_site_label
_atom_site_fract_x
_atom_site_fract_y
_atom_site_fract_z
Si Si1 0.598213 0.431507 0.755271
Si Si2 0.667331 0.933415 0.255187
Si Si3 0.469154 0.068628 0.060368
Si Si4 0.920820 0.932095 0.633125
Si Si5 0.580038 0.567132 0.503269
Si Si6 0.581518 0.566464 0.373296
Si Si7 0.958846 0.431410 0.184602
Si Si8 0.668863 0.066638 0.879278
O O1 0.595842 0.250000 0.751017
O O2 0.616873 0.499345 0.691109
O O3 0.519853 0.492429 0.774300
O O4 0.649090 0.474089 0.810789
O O5 0.750000 0.979141 0.251303
O O6 0.663504 0.750000 0.250508
O O7 0.632911 0.976144 0.319015
O O8 0.617481 0.006856 0.205082
O O9 0.465402 0.250000 0.055523
O O10 0.520201 0.030699 0.116726
O O11 0.391249 0.004676 0.078442
O O12 0.500000 0.000000 0.000000
O O13 0.920331 0.750000 0.637479
O O14 0.890030 0.978971 0.568023
O O15 0.003495 0.990172 0.633767
O O16 0.500000 0.500000 0.500000
O O17 0.575614 0.750000 0.504861
O O18 0.612664 0.526552 0.438898
O O19 0.571391 0.750000 0.371289
O O20 0.962666 0.250000 0.191948
O O21 0.750000 0.020135 0.893208
O O22 0.664127 0.250000 0.883452
#
# Coordination Sequence:
#
# PCOD9446177 Si02
#       8
#     8   8   8   8   8   8   8   8
#     4  10  18  29  49  74 100 132 166 204 253 305
#     4  10  20  32  48  71  98 131 172 216 261 308
#     4  10  21  37  59  86 112 141 174 208 249 298
#     4  10  17  25  41  67  96 124 161 208 256 304
#     4   8  15  25  38  59  87 119 156 201 252 304
#     4   9  16  28  44  61  88 125 165 209 259 310
#     4  10  20  34  52  75 102 130 165 208 250 293
#     4   9  19  36  57  81 109 140 174 212 255 304
#
# _framework density 17.388725999999998
#
# number of rings (size 3 to 8) (size 9 to 14) (size 15 to 20)
#    0.000    2.500    1.250    1.500    0.000    3.000 
#    0.000    0.625    0.000    1.500    0.000    1.750 
#    0.000    0.000    0.000    0.000    0.000    0.000 
#
# Total GULP energy -356663.686768 kJ/mol
# GULP energy per Si atom -5572.870106 kJ/mol
# Density = 1.734915 g / cm^3
# Si number density = 17.388726 Si / 1000 Ang^3
#
#
#
# Elastic Constant Matrix: (Units=GPa)
#
#
# Indices 1 2 3 4 5 6 
#
# 1 92.2889 27.3117 59.4856 0.0000 0.0000 0.0000
# 2 27.3117 26.5118 42.3890 0.0000 0.0000 0.0000
# 3 59.4856 42.3890 153.1647 0.0000 0.0000 0.0000
# 4 0.0000 0.0000 0.0000 29.0772 0.0000 0.0000
# 5 0.0000 0.0000 0.0000 0.0000 15.9577 0.0000
# 6 0.0000 0.0000 0.0000 0.0000 0.0000 14.7411
#
#
#
# Elastic Compliance Matrix: (Units=1/GPa)
#
#
# Indices 1 2 3 4 5 6 
#
# 1 0.016334 -0.011989 -0.003026 0.000000 0.000000 0.000000
# 2 -0.011989 0.076456 -0.016504 0.000000 0.000000 0.000000
# 3 -0.003026 -0.016504 0.012271 0.000000 0.000000 0.000000
# 4 0.000000 0.000000 0.000000 0.034391 0.000000 0.000000
# 5 0.000000 0.000000 0.000000 0.000000 0.062666 0.000000
# 6 0.000000 0.000000 0.000000 0.000000 0.000000 0.067838
#
#
# Mechanical properties :
#
#
# Convention : Reuss Voigt Hill
#
# Bulk Modulus (GPa) = 23.79497 58.92645 41.36071
# Shear Modulus (GPa) = 14.40919 21.47379 17.94149
#
# Velocity S-wave (km/s) = 2.88175 3.51796 3.21563
# Velocity P-wave (km/s) = 4.97861 7.10371 6.13389
#
# Compressibility (1/GPa) = 0.04202568
#
# Stress axis : x y z
#
# Youngs Moduli (GPa) = 61.22321 13.07934 81.49003
#
# Poissons Ratio (x) = 0.15681 0.24656
# Poissons Ratio (y) = 0.73399 1.34487
# Poissons Ratio (z) = 0.18524 0.21585
#
# Static dielectric constant tensor:
#      x y z
#    x 1.555580 0.000000 0.000000 
#    y 0.000000 1.583490 0.000000 
#    z 0.000000 0.000000 1.630920 
# 
# From -- ./inp_files/30675.got.cif
#   From: 2010.05.17/outbox.cif.g08.bks.cpg/sg59_16_cif.got.tgz:30675.got - 2010.06.03 14:40:33.
