data_PCOD9446665
_publ_section_title
;
Structure prediction by ZEFSAII (Michael W. Deem and Ramdas Pophale) SiO2 
 PCOD9446665
Probable space group: P M M N
;
_chemical_formula_sum "Si O2"
_cell_formula_units_Z 56
_cell_length_a 16.391075
_cell_length_b 9.198761
_cell_length_c 19.052892
_cell_angle_alpha 90.000000
_cell_angle_beta 90.000000
_cell_angle_gamma 90.000000
_cell_volume 2872.748976
_symmetry_space_group_name_H-M "P M M N"
_symmetry_group_IT_number 59
_space_group.IT_coordinate_system_code '2'
_symmetry_cell_setting 'orthorhombic'
loop_
_space_group_symop_operation_xyz
x,y,z
1/2-x,1/2-y,z
1/2+x,-y,-z
-x,1/2+y,-z
-x,-y,-z
1/2+x,1/2+y,-z
1/2-x,y,z
x,1/2-y,z
loop_
_atom_site_type_symbol
_atom_site_label
_atom_site_fract_x
_atom_site_fract_y
_atom_site_fract_z
Si Si1 0.427133 0.575267 0.215416
Si Si2 0.602679 0.424599 0.214122
Si Si3 0.153870 0.411928 0.649691
Si Si4 0.149842 0.918967 0.514148
Si Si5 0.394331 0.582710 0.939547
Si Si6 0.906749 0.917461 0.922710
Si Si7 0.156404 0.573301 0.361027
O O1 0.430174 0.750000 0.210672
O O2 0.516084 0.504676 0.215486
O O3 0.384721 0.510834 0.145829
O O4 0.387834 0.532012 0.289599
O O5 0.594044 0.250000 0.217640
O O6 0.646207 0.487352 0.282240
O O7 0.639875 0.457692 0.137193
O O8 0.250000 0.396910 0.636772
O O9 0.118958 0.250000 0.661842
O O10 0.119705 0.487004 0.579652
O O11 0.250000 0.921661 0.512560
O O12 0.127144 0.750000 0.523753
O O13 0.122620 0.972731 0.437100
O O14 0.373093 0.750000 0.954811
O O15 0.493686 0.577317 0.930830
O O16 0.372569 0.482782 0.005063
O O17 0.884213 0.750000 0.913174
O O18 0.250000 0.524834 0.356291
O O19 0.156437 0.750000 0.363630
#
# Coordination Sequence:
#
# PCOD9446665 Si02
#       7
#     8   8   8   8   8   8   8
#     4  10  18  29  48  72  99 127 156 195 240 281
#     4  10  20  33  49  70  97 126 158 195 235 282
#     4  10  20  33  50  73  98 122 153 193 236 283
#     4   8  14  28  50  71  91 119 157 196 231 272
#     4   8  15  27  43  64  88 117 155 195 231 270
#     4   9  16  26  42  65  93 123 155 191 232 280
#     4   8  15  29  50  74  96 122 159 198 234 276
#
# _framework density 19.493523
#
# number of rings (size 3 to 8) (size 9 to 14) (size 15 to 20)
#    0.000    3.000    0.000    3.429    0.000    4.857 
#    0.000    2.143    0.000    4.286    0.000    2.000 
#    0.000    0.000    0.000    0.000    0.000    0.000 
#
# Total GULP energy -311966.877458 kJ/mol
# GULP energy per Si atom -5570.837097 kJ/mol
# Density = 1.944916 g / cm^3
# Si number density = 19.493523 Si / 1000 Ang^3
#
#
#
# Elastic Constant Matrix: (Units=GPa)
#
#
# Indices 1 2 3 4 5 6 
#
# 1 5.0213 9.9501 17.9947 0.0000 0.0000 0.0000
# 2 9.9501 93.7869 85.2503 0.0000 0.0000 0.0000
# 3 17.9947 85.2503 192.7872 0.0000 0.0000 0.0000
# 4 0.0000 0.0000 0.0000 31.1328 0.0000 0.0000
# 5 0.0000 0.0000 0.0000 0.0000 21.1598 0.0000
# 6 0.0000 0.0000 0.0000 0.0000 0.0000 1.5110
#
#
#
# Elastic Compliance Matrix: (Units=1/GPa)
#
#
# Indices 1 2 3 4 5 6 
#
# 1 0.305729 -0.010863 -0.023733 0.000000 0.000000 0.000000
# 2 -0.010863 0.018215 -0.007041 0.000000 0.000000 0.000000
# 3 -0.023733 -0.007041 0.010516 0.000000 0.000000 0.000000
# 4 0.000000 0.000000 0.000000 0.032120 0.000000 0.000000
# 5 0.000000 0.000000 0.000000 0.000000 0.047259 0.000000
# 6 0.000000 0.000000 0.000000 0.000000 0.000000 0.661815
#
#
# Mechanical properties :
#
#
# Convention : Reuss Voigt Hill
#
# Bulk Modulus (GPa) = 3.98111 57.55396 30.76753
# Shear Modulus (GPa) = 4.02364 22.65408 13.33886
#
# Velocity S-wave (km/s) = 1.43825 3.41271 2.61870
# Velocity P-wave (km/s) = 2.19199 6.71696 4.99611
#
# Compressibility (1/GPa) = 0.25118649
#
# Stress axis : x y z
#
# Youngs Moduli (GPa) = 3.27087 54.90079 95.09642
#
# Poissons Ratio (x) = 0.59638 2.25693
# Poissons Ratio (y) = 0.03553 0.66953
# Poissons Ratio (z) = 0.07763 0.38653
#
# Static dielectric constant tensor:
#      x y z
#    x 1.718500 0.000000 0.000000 
#    y 0.000000 1.660300 0.000000 
#    z 0.000000 0.000000 1.721300 
# 
# From -- ./inp_files/28023.got.cif
#   From: 2010.05.17/outbox.cif.g08.bks.cpg/sg59_15_cif.got.tgz:28023.got - 2010.06.03 14:40:33.
