data_PCOD9446816
_publ_section_title
;
Structure prediction by ZEFSAII (Michael W. Deem and Ramdas Pophale) SiO2 
 PCOD9446816
Probable space group: P M M N
;
_chemical_formula_sum "Si O2"
_cell_formula_units_Z 64
_cell_length_a 8.734002
_cell_length_b 20.426306
_cell_length_c 20.268380
_cell_angle_alpha 90.000000
_cell_angle_beta 90.000000
_cell_angle_gamma 90.000000
_cell_volume 3615.947853
_symmetry_space_group_name_H-M "P M M N"
_symmetry_group_IT_number 59
_space_group.IT_coordinate_system_code '2'
_symmetry_cell_setting 'orthorhombic'
loop_
_space_group_symop_operation_xyz
x,y,z
1/2-x,1/2-y,z
1/2+x,-y,-z
-x,1/2+y,-z
-x,-y,-z
1/2+x,1/2+y,-z
1/2-x,y,z
x,1/2-y,z
loop_
_atom_site_type_symbol
_atom_site_label
_atom_site_fract_x
_atom_site_fract_y
_atom_site_fract_z
Si Si1 0.433644 0.420530 0.351403
Si Si2 0.066376 0.890836 0.884410
Si Si3 0.931917 0.555415 0.305187
Si Si4 0.565830 0.324793 0.459346
Si Si5 0.934244 0.031289 0.838674
Si Si6 0.065922 0.569954 0.022385
Si Si7 0.433980 0.675103 0.385588
Si Si8 0.066032 0.322545 0.235904
O O1 0.250000 0.425485 0.350986
O O2 0.503783 0.492323 0.344310
O O3 0.487705 0.379075 0.414257
O O4 0.483219 0.377891 0.287569
O O5 0.250000 0.894878 0.880138
O O6 0.005120 0.836271 0.835207
O O7 0.022340 0.882950 0.961664
O O8 0.995324 0.959141 0.857963
O O9 0.750000 0.551541 0.302725
O O10 0.997942 0.552157 0.231038
O O11 0.985533 0.621080 0.341454
O O12 0.750000 0.328784 0.451860
O O13 0.519531 0.250000 0.441500
O O14 0.530779 0.334331 0.536757
O O15 0.750000 0.028506 0.833487
O O16 0.978484 0.077630 0.901062
O O17 0.250000 0.566078 0.022135
O O18 0.000000 0.500000 0.000000
O O19 0.250000 0.669020 0.378548
O O20 0.475666 0.750000 0.368356
O O21 0.250000 0.326139 0.230861
O O22 0.024427 0.250000 0.259858
#
# Coordination Sequence:
#
# PCOD9446816 Si02
#       8
#     8   8   8   8   8   8   8   8
#     4  11  22  36  55  79 110 148 188 227 269 323
#     4  10  18  30  49  75 104 135 176 225 271 316
#     4  12  24  36  55  84 115 144 178 228 278 322
#     4   9  19  37  60  84 111 143 182 227 271 320
#     4  10  18  32  52  75 106 142 176 217 269 322
#     4   8  16  28  46  72 100 131 171 215 261 314
#     4   9  20  41  65  85 107 140 179 218 270 337
#     4  10  21  35  50  71 104 149 193 228 268 323
#
# _framework density 17.699370999999999
#
# number of rings (size 3 to 8) (size 9 to 14) (size 15 to 20)
#    0.000    2.125    1.250    3.375    0.000    3.750 
#    0.000    1.250    0.000    0.750    0.000    1.750 
#    0.000    0.000    0.000    0.000    0.000    0.000 
#
# Total GULP energy -356945.207884 kJ/mol
# GULP energy per Si atom -5577.268873 kJ/mol
# Density = 1.765909 g / cm^3
# Si number density = 17.699371 Si / 1000 Ang^3
#
#
#
# Elastic Constant Matrix: (Units=GPa)
#
#
# Indices 1 2 3 4 5 6 
#
# 1 42.1631 38.2005 37.1766 0.0000 0.0000 0.0000
# 2 38.2005 94.8897 62.3465 0.0000 0.0000 0.0000
# 3 37.1766 62.3465 102.5293 0.0000 0.0000 0.0000
# 4 0.0000 0.0000 0.0000 20.5753 0.0000 0.0000
# 5 0.0000 0.0000 0.0000 0.0000 28.6825 0.0000
# 6 0.0000 0.0000 0.0000 0.0000 0.0000 22.8960
#
#
#
# Elastic Compliance Matrix: (Units=1/GPa)
#
#
# Indices 1 2 3 4 5 6 
#
# 1 0.040958 -0.011210 -0.008035 0.000000 0.000000 0.000000
# 2 -0.011210 0.020619 -0.008473 0.000000 0.000000 0.000000
# 3 -0.008035 -0.008473 0.017819 0.000000 0.000000 0.000000
# 4 0.000000 0.000000 0.000000 0.048602 0.000000 0.000000
# 5 0.000000 0.000000 0.000000 0.000000 0.034864 0.000000
# 6 0.000000 0.000000 0.000000 0.000000 0.000000 0.043676
#
#
# Mechanical properties :
#
#
# Convention : Reuss Voigt Hill
#
# Bulk Modulus (GPa) = 41.73549 57.22550 49.48050
# Shear Modulus (GPa) = 18.52122 21.22131 19.87126
#
# Velocity S-wave (km/s) = 3.23837 3.46640 3.35432
# Velocity P-wave (km/s) = 6.13304 6.95869 6.55887
#
# Compressibility (1/GPa) = 0.02396042
#
# Stress axis : x y z
#
# Youngs Moduli (GPa) = 24.41516 48.49978 56.11932
#
# Poissons Ratio (x) = 0.54367 0.45091
# Poissons Ratio (y) = 0.27369 0.47552
# Poissons Ratio (z) = 0.19617 0.41095
#
# Static dielectric constant tensor:
#      x y z
#    x 1.594230 0.000000 0.000000 
#    y 0.000000 1.584750 0.000000 
#    z 0.000000 0.000000 1.630870 
# 
# From -- ./inp_files/26257.got.cif
#   From: 2010.05.17/outbox.cif.g08.bks.cpg/sg59_14_cif.got.tgz:26257.got - 2010.06.03 14:40:33.
