data_PCOD9446292
_publ_section_title
;
Structure prediction by ZEFSAII (Michael W. Deem and Ramdas Pophale) SiO2 
 PCOD9446292
Probable space group: P M M N
;
_chemical_formula_sum "Si O2"
_cell_formula_units_Z 52
_cell_length_a 25.914285
_cell_length_b 8.308395
_cell_length_c 12.325806
_cell_angle_alpha 90.000000
_cell_angle_beta 90.000000
_cell_angle_gamma 90.000000
_cell_volume 2653.821415
_symmetry_space_group_name_H-M "P M M N"
_symmetry_group_IT_number 59
_space_group.IT_coordinate_system_code '2'
_symmetry_cell_setting 'orthorhombic'
loop_
_space_group_symop_operation_xyz
x,y,z
1/2-x,1/2-y,z
1/2+x,-y,-z
-x,1/2+y,-z
-x,-y,-z
1/2+x,1/2+y,-z
1/2-x,y,z
x,1/2-y,z
loop_
_atom_site_type_symbol
_atom_site_label
_atom_site_fract_x
_atom_site_fract_y
_atom_site_fract_z
Si Si1 0.024801 0.437497 0.887811
Si Si2 0.333991 0.065324 0.078837
Si Si3 0.250000 0.956670 0.237474
Si Si4 0.430146 0.060072 0.231534
Si Si5 0.138337 0.936438 0.854344
Si Si6 0.189653 0.055849 0.635084
Si Si7 0.842474 0.945532 0.604124
O O1 0.037071 0.250000 0.900274
O O2 0.077350 0.528307 0.859275
O O3 0.981580 0.464679 0.795828
O O4 0.000000 0.500000 0.000000
O O5 0.318135 0.250000 0.105249
O O6 0.294668 0.954571 0.142832
O O7 0.390543 0.041345 0.130377
O O8 0.336043 0.037428 0.951573
O O9 0.295474 0.977170 0.329698
O O10 0.442567 0.250000 0.239211
O O11 0.396220 0.013691 0.336461
O O12 0.147471 0.750000 0.877753
O O13 0.161924 0.982349 0.738958
O O14 0.250000 0.009354 0.630683
O O15 0.187606 0.250000 0.643873
O O16 0.162400 0.011835 0.521660
O O17 0.836065 0.750000 0.614959
#
# Coordination Sequence:
#
# PCOD9446292 Si02
#       7
#     8   8   4   8   8   8   8
#     4  12  23  39  62  87 117 154 196 241 297 358
#     4  10  19  32  55  87 121 153 191 238 291 353
#     4  10  17  30  57  92 121 150 193 244 295 348
#     4   9  18  33  58  91 123 151 186 239 296 349
#     4  12  26  41  57  81 120 161 202 245 291 348
#     4  10  21  39  64  89 118 158 203 243 285 344
#     4   9  16  32  60  93 121 150 195 244 290 347
#
# _framework density 19.594384000000002
#
# number of rings (size 3 to 8) (size 9 to 14) (size 15 to 20)
#    0.000    1.692    2.308    5.077    1.077    0.308 
#    0.000    1.538    0.000    2.769    0.000    0.000 
#    0.000    0.000    0.000    0.000    0.000    0.000 
#
# Total GULP energy -289488.700751 kJ/mol
# GULP energy per Si atom -5567.090399 kJ/mol
# Density = 1.954979 g / cm^3
# Si number density = 19.594384 Si / 1000 Ang^3
#
#
#
# Elastic Constant Matrix: (Units=GPa)
#
#
# Indices 1 2 3 4 5 6 
#
# 1 34.9979 3.7334 29.6701 0.0000 0.0000 0.0000
# 2 3.7334 28.0442 10.4348 0.0000 0.0000 0.0000
# 3 29.6701 10.4348 136.1980 0.0000 0.0000 0.0000
# 4 0.0000 0.0000 0.0000 -9.2153 0.0000 0.0000
# 5 0.0000 0.0000 0.0000 0.0000 26.6566 0.0000
# 6 0.0000 0.0000 0.0000 0.0000 0.0000 -31.8023
#
#
#
# Elastic Compliance Matrix: (Units=1/GPa)
#
#
# Indices 1 2 3 4 5 6 
#
# 1 0.035142 -0.001883 -0.007511 0.000000 0.000000 0.000000
# 2 -0.001883 0.036805 -0.002410 0.000000 0.000000 0.000000
# 3 -0.007511 -0.002410 0.009163 0.000000 0.000000 0.000000
# 4 0.000000 0.000000 0.000000 -0.108515 0.000000 0.000000
# 5 0.000000 0.000000 0.000000 0.000000 0.037514 0.000000
# 6 0.000000 0.000000 0.000000 0.000000 0.000000 -0.031444
#
#
# Mechanical properties :
#
#
# Convention : Reuss Voigt Hill
#
# Bulk Modulus (GPa) = 17.39075 31.87963 24.63519
# Shear Modulus (GPa) = 233.19877 7.48791 120.34334
#
# Velocity S-wave (km/s) = 10.92115 1.95698 7.84542
# Velocity P-wave (km/s) = 12.95852 4.62725 9.72971
#
# Compressibility (1/GPa) = 0.05750185
#
# Stress axis : x y z
#
# Youngs Moduli (GPa) = 28.45619 27.17000 109.13304
#
# Poissons Ratio (x) = 0.05117 0.81971
# Poissons Ratio (y) = 0.05360 0.26296
# Poissons Ratio (z) = 0.21374 0.06547
#
# Static dielectric constant tensor:
#      x y z
#    x 1.663570 0.000000 0.000000 
#    y 0.000000 1.737910 0.000000 
#    z 0.000000 0.000000 1.668110 
# 
# From -- ./inp_files/18860.got.cif
#   From: 2010.05.17/outbox.cif.g08.bks.cpg/sg59_10_cif.got.tgz:18860.got - 2010.06.03 14:40:33.
