data_PCOD9446640
_publ_section_title
;
Structure prediction by ZEFSAII (Michael W. Deem and Ramdas Pophale) SiO2 
 PCOD9446640
Probable space group: P M M N
;
_chemical_formula_sum "Si O2"
_cell_formula_units_Z 48
_cell_length_a 13.967837
_cell_length_b 18.133504
_cell_length_c 9.435767
_cell_angle_alpha 90.000000
_cell_angle_beta 90.000000
_cell_angle_gamma 90.000000
_cell_volume 2389.946058
_symmetry_space_group_name_H-M "P M M N"
_symmetry_group_IT_number 59
_space_group.IT_coordinate_system_code '2'
_symmetry_cell_setting 'orthorhombic'
loop_
_space_group_symop_operation_xyz
x,y,z
1/2-x,1/2-y,z
1/2+x,-y,-z
-x,1/2+y,-z
-x,-y,-z
1/2+x,1/2+y,-z
1/2-x,y,z
x,1/2-y,z
loop_
_atom_site_type_symbol
_atom_site_label
_atom_site_fract_x
_atom_site_fract_y
_atom_site_fract_z
Si Si1 0.643729 0.368614 0.643337
Si Si2 0.141305 0.953919 0.093467
Si Si3 0.360664 0.024724 0.511195
Si Si4 0.938375 0.992049 0.173982
Si Si5 0.943755 0.827794 0.480978
Si Si6 0.863094 0.831345 0.166308
O O1 0.750000 0.339612 0.611157
O O2 0.633909 0.379227 0.812937
O O3 0.638711 0.452294 0.584308
O O4 0.553438 0.330723 0.572134
O O5 0.250000 0.981325 0.117291
O O6 0.121224 0.952801 0.925591
O O7 0.051203 0.001419 0.148768
O O8 0.250000 0.044107 0.536324
O O9 0.414319 0.095751 0.447525
O O10 0.408712 0.005757 0.662391
O O11 0.913015 0.907910 0.122723
O O12 0.926043 0.750000 0.556195
O O13 0.882581 0.828617 0.335384
O O14 0.750000 0.838172 0.139462
O O15 0.895012 0.750000 0.111852
#
# Coordination Sequence:
#
# PCOD9446640 Si02
#       6
#     8   8   8   8   8   8
#     4  10  20  33  49  72 102 130 160 204 247 290
#     4  10  19  30  46  72 100 124 154 196 244 283
#     4  10  19  32  51  74  98 129 167 203 244 291
#     4  10  18  30  50  71  95 126 159 200 238 284
#     4  10  18  29  47  70  98 128 162 201 246 289
#     4   9  16  27  44  67  94 123 159 200 238 283
#
# _framework density 20.084133999999999
#
# number of rings (size 3 to 8) (size 9 to 14) (size 15 to 20)
#    0.000    2.167    3.333    3.500    0.000    1.333 
#    0.000    0.000    0.000    1.500    0.000    3.500 
#    0.000    5.333    0.000    0.000    0.000    0.000 
#
# Total GULP energy -267257.636162 kJ/mol
# GULP energy per Si atom -5567.867420 kJ/mol
# Density = 2.003842 g / cm^3
# Si number density = 20.084134 Si / 1000 Ang^3
#
#
#
# Elastic Constant Matrix: (Units=GPa)
#
#
# Indices 1 2 3 4 5 6 
#
# 1 126.1609 17.9602 9.1806 0.0000 0.0000 0.0000
# 2 17.9602 83.2110 13.9766 0.0000 0.0000 0.0000
# 3 9.1806 13.9766 28.5932 0.0000 0.0000 0.0000
# 4 0.0000 0.0000 0.0000 3.5874 0.0000 0.0000
# 5 0.0000 0.0000 0.0000 0.0000 24.7071 0.0000
# 6 0.0000 0.0000 0.0000 0.0000 0.0000 6.0627
#
#
#
# Elastic Compliance Matrix: (Units=1/GPa)
#
#
# Indices 1 2 3 4 5 6 
#
# 1 0.008276 -0.001460 -0.001944 0.000000 0.000000 0.000000
# 2 -0.001460 0.013350 -0.006057 0.000000 0.000000 0.000000
# 3 -0.001944 -0.006057 0.038558 0.000000 0.000000 0.000000
# 4 0.000000 0.000000 0.000000 0.278754 0.000000 0.000000
# 5 0.000000 0.000000 0.000000 0.000000 0.040474 0.000000
# 6 0.000000 0.000000 0.000000 0.000000 0.000000 0.164943
#
#
# Mechanical properties :
#
#
# Convention : Reuss Voigt Hill
#
# Bulk Modulus (GPa) = 24.23467 35.57778 29.90622
# Shear Modulus (GPa) = 8.66506 19.99462 14.32984
#
# Velocity S-wave (km/s) = 2.07936 3.15865 2.67402
# Velocity P-wave (km/s) = 4.22584 5.57275 4.94537
#
# Compressibility (1/GPa) = 0.04126320
#
# Stress axis : x y z
#
# Youngs Moduli (GPa) = 120.83677 74.90595 25.93495
#
# Poissons Ratio (x) = 0.10934 0.05041
# Poissons Ratio (y) = 0.17639 0.15709
# Poissons Ratio (z) = 0.23485 0.45370
#
# Static dielectric constant tensor:
#      x y z
#    x 1.755860 0.000000 0.000000 
#    y 0.000000 1.775600 0.000000 
#    z 0.000000 0.000000 1.741450 
# 
# From -- ./inp_files/17029.got.cif
#   From: 2010.05.17/outbox.cif.g08.bks.cpg/sg59_9_cif.got.tgz:17029.got - 2010.06.03 14:40:33.
