data_PCOD9446787
_publ_section_title
;
Structure prediction by ZEFSAII (Michael W. Deem and Ramdas Pophale) SiO2 
 PCOD9446787
Probable space group: P M M N
;
_chemical_formula_sum "Si O2"
_cell_formula_units_Z 56
_cell_length_a 7.384242
_cell_length_b 19.839128
_cell_length_c 18.384902
_cell_angle_alpha 90.000000
_cell_angle_beta 90.000000
_cell_angle_gamma 90.000000
_cell_volume 2693.331558
_symmetry_space_group_name_H-M "P M M N"
_symmetry_group_IT_number 59
_space_group.IT_coordinate_system_code '2'
_symmetry_cell_setting 'orthorhombic'
loop_
_space_group_symop_operation_xyz
x,y,z
1/2-x,1/2-y,z
1/2+x,-y,-z
-x,1/2+y,-z
-x,-y,-z
1/2+x,1/2+y,-z
1/2-x,y,z
x,1/2-y,z
loop_
_atom_site_type_symbol
_atom_site_label
_atom_site_fract_x
_atom_site_fract_y
_atom_site_fract_z
Si Si1 0.469336 0.433290 0.813388
Si Si2 0.461501 0.083967 0.240605
Si Si3 0.971640 0.673913 0.307179
Si Si4 0.533968 0.923147 0.023525
Si Si5 0.470280 0.446531 0.399993
Si Si6 0.971947 0.827840 0.893030
Si Si7 0.961417 0.599144 0.446429
O O1 0.250000 0.433044 0.813742
O O2 0.525029 0.508788 0.792162
O O3 0.530075 0.379975 0.753024
O O4 0.533732 0.414785 0.894235
O O5 0.250000 0.100862 0.248681
O O6 0.536052 0.080779 0.322545
O O7 0.535065 0.135746 0.180980
O O8 0.750000 0.672094 0.307872
O O9 0.025889 0.750000 0.290539
O O10 0.035649 0.650214 0.386730
O O11 0.750000 0.913665 0.026355
O O12 0.466354 0.871734 0.962276
O O13 0.500000 0.000000 0.000000
O O14 0.250000 0.446049 0.399974
O O15 0.535281 0.407052 0.471844
O O16 0.524265 0.524393 0.411636
O O17 0.750000 0.829908 0.892816
O O18 0.025220 0.750000 0.897242
O O19 0.750000 0.615678 0.454805
#
# Coordination Sequence:
#
# PCOD9446787 Si02
#       7
#     8   8   8   8   8   8   8
#     4  10  19  30  48  73  95 120 159 198 232 276
#     4  10  18  30  49  71  96 124 155 195 236 276
#     4   9  17  29  45  67  97 128 156 192 238 281
#     4  10  19  31  50  74  96 122 157 196 233 276
#     4   9  17  27  44  70  93 116 153 195 231 271
#     4   9  18  32  49  70  97 128 157 188 234 285
#     4   9  16  28  45  66  92 121 154 190 232 276
#
# _framework density 20.792093999999999
#
# number of rings (size 3 to 8) (size 9 to 14) (size 15 to 20)
#    0.000    2.571    2.857    0.000    0.000    0.571 
#    0.000    3.571    0.000    7.714    0.000    2.000 
#    0.000    3.429    0.000    0.000    0.000    0.000 
#
# Total GULP energy -312578.614855 kJ/mol
# GULP energy per Si atom -5581.760980 kJ/mol
# Density = 2.074477 g / cm^3
# Si number density = 20.792094 Si / 1000 Ang^3
#
#
#
# Elastic Constant Matrix: (Units=GPa)
#
#
# Indices 1 2 3 4 5 6 
#
# 1 70.6138 -12.1880 -1.4302 0.0000 0.0000 0.0000
# 2 -12.1880 135.0892 82.9952 0.0000 0.0000 0.0000
# 3 -1.4302 82.9952 198.3851 0.0000 0.0000 0.0000
# 4 0.0000 0.0000 0.0000 33.1904 0.0000 0.0000
# 5 0.0000 0.0000 0.0000 0.0000 2.4412 0.0000
# 6 0.0000 0.0000 0.0000 0.0000 0.0000 14.4956
#
#
#
# Elastic Compliance Matrix: (Units=1/GPa)
#
#
# Indices 1 2 3 4 5 6 
#
# 1 0.014437 0.001667 -0.000593 0.000000 0.000000 0.000000
# 2 0.001667 0.010156 -0.004237 0.000000 0.000000 0.000000
# 3 -0.000593 -0.004237 0.006809 0.000000 0.000000 0.000000
# 4 0.000000 0.000000 0.000000 0.030129 0.000000 0.000000
# 5 0.000000 0.000000 0.000000 0.000000 0.409633 0.000000
# 6 0.000000 0.000000 0.000000 0.000000 0.000000 0.068987
#
#
# Mechanical properties :
#
#
# Convention : Reuss Voigt Hill
#
# Bulk Modulus (GPa) = 39.87874 60.31581 50.09727
# Shear Modulus (GPa) = 9.01168 32.33951 20.67559
#
# Velocity S-wave (km/s) = 2.08413 3.94810 3.15683
# Velocity P-wave (km/s) = 5.00129 7.06083 6.11834
#
# Compressibility (1/GPa) = 0.02507602
#
# Stress axis : x y z
#
# Youngs Moduli (GPa) = 69.26521 98.46537 146.86713
#
# Poissons Ratio (x) = -0.16415 0.08714
# Poissons Ratio (y) = -0.11547 0.62224
# Poissons Ratio (z) = 0.04110 0.41717
#
# Static dielectric constant tensor:
#      x y z
#    x 1.790690 0.000000 0.000000 
#    y 0.000000 1.676570 0.000000 
#    z 0.000000 0.000000 1.759130 
# 
# From -- ./inp_files/26116.got.cif
#   From: 2010.05.17/outbox.cif.g08.bks.cpg/sg59_14_cif.got.tgz:26116.got - 2010.06.03 14:40:33.
