data_PCOD9446453
_publ_section_title
;
Structure prediction by ZEFSAII (Michael W. Deem and Ramdas Pophale) SiO2 
 PCOD9446453
Probable space group: P M M N
;
_chemical_formula_sum "Si O2"
_cell_formula_units_Z 64
_cell_length_a 8.802281
_cell_length_b 23.991122
_cell_length_c 17.269874
_cell_angle_alpha 90.000000
_cell_angle_beta 90.000000
_cell_angle_gamma 90.000000
_cell_volume 3646.993228
_symmetry_space_group_name_H-M "P M M N"
_symmetry_group_IT_number 59
_space_group.IT_coordinate_system_code '2'
_symmetry_cell_setting 'orthorhombic'
loop_
_space_group_symop_operation_xyz
x,y,z
1/2-x,1/2-y,z
1/2+x,-y,-z
-x,1/2+y,-z
-x,-y,-z
1/2+x,1/2+y,-z
1/2-x,y,z
x,1/2-y,z
loop_
_atom_site_type_symbol
_atom_site_label
_atom_site_fract_x
_atom_site_fract_y
_atom_site_fract_z
Si Si1 0.066122 0.689504 0.739197
Si Si2 0.567461 0.187283 0.443667
Si Si3 0.566735 0.008059 0.915247
Si Si4 0.575169 0.396724 0.806313
Si Si5 0.568388 0.687782 0.298036
Si Si6 0.567981 0.894929 0.436726
Si Si7 0.074364 0.985908 0.335753
Si Si8 0.067085 0.931402 0.780391
O O1 0.250000 0.690140 0.745504
O O2 0.009973 0.750000 0.767278
O O3 0.033233 0.685407 0.647646
O O4 0.014922 0.632793 0.779237
O O5 0.750000 0.183823 0.453178
O O6 0.520038 0.250000 0.471610
O O7 0.491414 0.135231 0.486457
O O8 0.750000 0.005117 0.915311
O O9 0.502556 0.963673 0.853539
O O10 0.522990 0.068617 0.880535
O O11 0.500000 0.000000 0.000000
O O12 0.750000 0.380263 0.816276
O O13 0.480037 0.344209 0.779191
O O14 0.569685 0.441207 0.735293
O O15 0.750000 0.690242 0.301095
O O16 0.505826 0.750000 0.302788
O O17 0.520562 0.649805 0.370369
O O18 0.750000 0.899848 0.437946
O O19 0.498182 0.953729 0.408763
O O20 0.250000 0.999735 0.351061
O O21 0.986457 0.038183 0.298958
O O22 0.250000 0.934337 0.783903
#
# Coordination Sequence:
#
# PCOD9446453 Si02
#       8
#     8   8   8   8   8   8   8   8
#     4   8  16  32  53  75  98 127 165 206 246 293
#     4   9  17  30  47  66  91 126 167 210 256 301
#     4  10  20  34  53  78 104 126 152 188 232 281
#     4   8  16  29  44  64  90 119 151 187 223 265
#     4   9  17  27  40  61  90 124 158 191 230 275
#     4  10  18  28  43  65  94 126 165 212 257 296
#     4   9  17  30  46  66  95 128 162 200 244 293
#     4  10  18  31  54  79 101 127 161 199 242 292
#
# _framework density 17.548701999999999
#
# number of rings (size 3 to 8) (size 9 to 14) (size 15 to 20)
#    0.000    2.875    0.000    3.375    0.000    5.000 
#    0.000    1.875    0.000    3.750    0.000    1.750 
#    0.000    0.000    0.000    0.000    0.000    0.000 
#
# Total GULP energy -356527.551991 kJ/mol
# GULP energy per Si atom -5570.743000 kJ/mol
# Density = 1.750876 g / cm^3
# Si number density = 17.548702 Si / 1000 Ang^3
#
#
#
# Elastic Constant Matrix: (Units=GPa)
#
#
# Indices 1 2 3 4 5 6 
#
# 1 33.0964 19.8520 10.6377 0.0000 0.0000 0.0000
# 2 19.8520 90.8579 20.3500 0.0000 0.0000 0.0000
# 3 10.6377 20.3500 34.2890 0.0000 0.0000 0.0000
# 4 0.0000 0.0000 0.0000 18.7230 0.0000 0.0000
# 5 0.0000 0.0000 0.0000 0.0000 18.4410 0.0000
# 6 0.0000 0.0000 0.0000 0.0000 0.0000 19.4116
#
#
#
# Elastic Compliance Matrix: (Units=1/GPa)
#
#
# Indices 1 2 3 4 5 6 
#
# 1 0.036404 -0.006256 -0.007581 0.000000 0.000000 0.000000
# 2 -0.006256 0.013769 -0.006231 0.000000 0.000000 0.000000
# 3 -0.007581 -0.006231 0.035214 0.000000 0.000000 0.000000
# 4 0.000000 0.000000 0.000000 0.053410 0.000000 0.000000
# 5 0.000000 0.000000 0.000000 0.000000 0.054227 0.000000
# 6 0.000000 0.000000 0.000000 0.000000 0.000000 0.051516
#
#
# Mechanical properties :
#
#
# Convention : Reuss Voigt Hill
#
# Bulk Modulus (GPa) = 22.09902 28.88030 25.48966
# Shear Modulus (GPa) = 16.68013 18.47537 17.57775
#
# Velocity S-wave (km/s) = 3.08637 3.24822 3.16833
# Velocity P-wave (km/s) = 5.03202 5.52819 5.28593
#
# Compressibility (1/GPa) = 0.04525088
#
# Stress axis : x y z
#
# Youngs Moduli (GPa) = 27.46950 72.62880 28.39815
#
# Poissons Ratio (x) = 0.45438 0.21528
# Poissons Ratio (y) = 0.17185 0.17694
# Poissons Ratio (z) = 0.20824 0.45252
#
# Static dielectric constant tensor:
#      x y z
#    x 1.592280 0.000000 0.000000 
#    y 0.000000 1.634400 0.000000 
#    z 0.000000 0.000000 1.591220 
# 
# From -- ./inp_files/26564.got.cif
#   From: 2010.05.17/outbox.cif.g08.bks.cpg/sg59_14_cif.got.tgz:26564.got - 2010.06.03 14:40:33.
