data_PCOD9446560
_publ_section_title
;
Structure prediction by ZEFSAII (Michael W. Deem and Ramdas Pophale) SiO2 
 PCOD9446560
Probable space group: P M M N
;
_chemical_formula_sum "Si O2"
_cell_formula_units_Z 64
_cell_length_a 27.090797
_cell_length_b 8.739750
_cell_length_c 18.764336
_cell_angle_alpha 90.000000
_cell_angle_beta 90.000000
_cell_angle_gamma 90.000000
_cell_volume 4442.771659
_symmetry_space_group_name_H-M "P M M N"
_symmetry_group_IT_number 59
_space_group.IT_coordinate_system_code '2'
_symmetry_cell_setting 'orthorhombic'
loop_
_space_group_symop_operation_xyz
x,y,z
1/2-x,1/2-y,z
1/2+x,-y,-z
-x,1/2+y,-z
-x,-y,-z
1/2+x,1/2+y,-z
1/2-x,y,z
x,1/2-y,z
loop_
_atom_site_type_symbol
_atom_site_label
_atom_site_fract_x
_atom_site_fract_y
_atom_site_fract_z
Si Si1 0.452801 0.932880 0.541502
Si Si2 0.489682 0.066218 0.323664
Si Si3 0.509950 0.432304 0.832898
Si Si4 0.394075 0.067419 0.420761
Si Si5 0.193303 0.066088 0.174974
Si Si6 0.101997 0.066122 0.078547
Si Si7 0.807261 0.067090 0.670350
Si Si8 0.953634 0.066937 0.044700
O O1 0.452970 0.750000 0.535183
O O2 0.464415 0.970261 0.623793
O O3 0.500000 0.000000 0.500000
O O4 0.406763 0.999841 0.498432
O O5 0.488931 0.250000 0.311714
O O6 0.491760 0.980595 0.249141
O O7 0.439544 0.027011 0.367194
O O8 0.597537 0.750000 0.926149
O O9 0.559033 0.504261 0.868986
O O10 0.463618 0.500700 0.876982
O O11 0.392926 0.250000 0.425343
O O12 0.344335 0.004418 0.386389
O O13 0.250000 0.023404 0.158461
O O14 0.191367 0.250000 0.183998
O O15 0.154171 0.025662 0.114175
O O16 0.179500 0.991170 0.250409
O O17 0.011435 0.750000 0.158546
O O18 0.092461 0.993318 0.001034
O O19 0.750000 0.023240 0.658003
O O20 0.810856 0.250000 0.668417
O O21 0.955224 0.250000 0.045187
O O22 0.000000 0.000000 0.000000
#
# Coordination Sequence:
#
# PCOD9446560 Si02
#       8
#     8   8   8   8   8   8   8   8
#     4   9  17  29  44  61  84 111 140 174 209 248
#     4   9  18  30  42  60  85 112 140 170 207 247
#     4  11  20  28  41  61  84 110 141 173 206 245
#     4  10  19  30  45  62  83 113 146 177 211 252
#     4   9  18  31  45  61  83 112 143 175 211 248
#     4  10  18  29  44  60  82 110 141 174 207 246
#     4  10  20  31  43  61  85 112 144 182 217 248
#     4  10  18  29  43  58  80 107 137 171 207 247
#
# _framework density 14.405421
#
# number of rings (size 3 to 8) (size 9 to 14) (size 15 to 20)
#    0.000    2.250    0.000    6.750    0.000    7.750 
#    0.000    0.000    0.000    0.000    0.000    0.000 
#    0.000    1.000    0.000    6.500    0.000    3.625 
#
# Total GULP energy -356734.186628 kJ/mol
# GULP energy per Si atom -5573.971666 kJ/mol
# Density = 1.437263 g / cm^3
# Si number density = 14.405421 Si / 1000 Ang^3
#
#
#
# Elastic Constant Matrix: (Units=GPa)
#
#
# Indices 1 2 3 4 5 6 
#
# 1 59.3731 25.5770 34.4810 0.0000 0.0000 0.0000
# 2 25.5770 62.4509 35.0845 0.0000 0.0000 0.0000
# 3 34.4810 35.0845 74.5564 0.0000 0.0000 0.0000
# 4 0.0000 0.0000 0.0000 26.0519 0.0000 0.0000
# 5 0.0000 0.0000 0.0000 0.0000 29.1874 0.0000
# 6 0.0000 0.0000 0.0000 0.0000 0.0000 18.7391
#
#
#
# Elastic Compliance Matrix: (Units=1/GPa)
#
#
# Indices 1 2 3 4 5 6 
#
# 1 0.024083 -0.004902 -0.008831 0.000000 0.000000 0.000000
# 2 -0.004902 0.022765 -0.008446 0.000000 0.000000 0.000000
# 3 -0.008831 -0.008446 0.021471 0.000000 0.000000 0.000000
# 4 0.000000 0.000000 0.000000 0.038385 0.000000 0.000000
# 5 0.000000 0.000000 0.000000 0.000000 0.034261 0.000000
# 6 0.000000 0.000000 0.000000 0.000000 0.000000 0.053364
#
#
# Mechanical properties :
#
#
# Convention : Reuss Voigt Hill
#
# Bulk Modulus (GPa) = 41.73335 42.96284 42.34809
# Shear Modulus (GPa) = 20.26961 21.54487 20.90724
#
# Velocity S-wave (km/s) = 3.75518 3.87151 3.81379
# Velocity P-wave (km/s) = 6.91631 7.06212 6.98959
#
# Compressibility (1/GPa) = 0.02396165
#
# Stress axis : x y z
#
# Youngs Moduli (GPa) = 41.52290 43.92738 46.57389
#
# Poissons Ratio (x) = 0.21533 0.41131
# Poissons Ratio (y) = 0.20354 0.39334
# Poissons Ratio (z) = 0.36670 0.37099
#
# Static dielectric constant tensor:
#      x y z
#    x 1.475870 0.000000 0.000000 
#    y 0.000000 1.480550 0.000000 
#    z 0.000000 0.000000 1.484140 
# 
# From -- ./inp_files/28437.got.cif
#   From: 2010.05.17/outbox.cif.g08.bks.cpg/sg59_15_cif.got.tgz:28437.got - 2010.06.03 14:40:33.
