data_PCOD9446571
_publ_section_title
;
Structure prediction by ZEFSAII (Michael W. Deem and Ramdas Pophale) SiO2 
 PCOD9446571
Probable space group: P M M N
;
_chemical_formula_sum "Si O2"
_cell_formula_units_Z 48
_cell_length_a 20.876228
_cell_length_b 7.830161
_cell_length_c 16.090332
_cell_angle_alpha 90.000000
_cell_angle_beta 90.000000
_cell_angle_gamma 90.000000
_cell_volume 2630.193671
_symmetry_space_group_name_H-M "P M M N"
_symmetry_group_IT_number 59
_space_group.IT_coordinate_system_code '2'
_symmetry_cell_setting 'orthorhombic'
loop_
_space_group_symop_operation_xyz
x,y,z
1/2-x,1/2-y,z
1/2+x,-y,-z
-x,1/2+y,-z
-x,-y,-z
1/2+x,1/2+y,-z
1/2-x,y,z
x,1/2-y,z
loop_
_atom_site_type_symbol
_atom_site_label
_atom_site_fract_x
_atom_site_fract_y
_atom_site_fract_z
Si Si1 0.907115 0.553396 0.071899
Si Si2 0.106637 0.459511 0.749502
Si Si3 0.068241 0.046938 0.459871
Si Si4 0.540017 0.047676 0.724646
Si Si5 0.322340 0.040751 0.584542
Si Si6 0.947107 0.547472 0.901954
O O1 0.885853 0.750000 0.068357
O O2 0.878278 0.478468 0.156870
O O3 0.983892 0.543768 0.089450
O O4 0.902714 0.483668 0.977981
O O5 0.106297 0.250000 0.751817
O O6 0.153785 0.511369 0.676161
O O7 0.034158 0.514638 0.726057
O O8 0.072386 0.250000 0.461690
O O9 0.126068 0.980073 0.516874
O O10 0.069925 0.992110 0.364194
O O11 0.000000 0.000000 0.500000
O O12 0.537638 0.250000 0.734132
O O13 0.574085 0.977428 0.807242
O O14 0.250000 0.985644 0.567957
O O15 0.323051 0.250000 0.583750
O O16 0.957728 0.750000 0.915174
#
# Coordination Sequence:
#
# PCOD9446571 Si02
#       6
#     8   8   8   8   8   8
#     4   8  14  23  37  57  88 122 149 182 225 272
#     4   8  13  24  41  62  87 118 150 182 222 269
#     4  11  20  31  48  71  94 122 158 197 240 285
#     4  10  18  29  44  64  90 122 155 194 238 279
#     4   9  17  29  46  69  95 122 155 192 232 282
#     4   9  15  23  36  60  89 119 151 187 229 272
#
# _framework density 18.249606
#
# number of rings (size 3 to 8) (size 9 to 14) (size 15 to 20)
#    0.000    2.833    1.667    2.500    0.000    0.667 
#    0.000    0.000    0.000    2.000    0.000    1.167 
#    0.000    6.667    0.000    0.000    0.000    0.000 
#
# Total GULP energy -267218.520031 kJ/mol
# GULP energy per Si atom -5567.052501 kJ/mol
# Density = 1.820807 g / cm^3
# Si number density = 18.249606 Si / 1000 Ang^3
#
#
#
# Elastic Constant Matrix: (Units=GPa)
#
#
# Indices 1 2 3 4 5 6 
#
# 1 73.6105 2.3312 63.9103 0.0000 0.0000 0.0000
# 2 2.3312 32.2504 5.1945 0.0000 0.0000 0.0000
# 3 63.9103 5.1945 202.1562 0.0000 0.0000 0.0000
# 4 0.0000 0.0000 0.0000 22.0591 0.0000 0.0000
# 5 0.0000 0.0000 0.0000 0.0000 15.3596 0.0000
# 6 0.0000 0.0000 0.0000 0.0000 0.0000 8.0177
#
#
#
# Elastic Compliance Matrix: (Units=1/GPa)
#
#
# Indices 1 2 3 4 5 6 
#
# 1 0.018730 -0.000402 -0.005911 0.000000 0.000000 0.000000
# 2 -0.000402 0.031145 -0.000673 0.000000 0.000000 0.000000
# 3 -0.005911 -0.000673 0.006833 0.000000 0.000000 0.000000
# 4 0.000000 0.000000 0.000000 0.045333 0.000000 0.000000
# 5 0.000000 0.000000 0.000000 0.000000 0.065106 0.000000
# 6 0.000000 0.000000 0.000000 0.000000 0.000000 0.124723
#
#
# Mechanical properties :
#
#
# Convention : Reuss Voigt Hill
#
# Bulk Modulus (GPa) = 23.39992 50.09878 36.74935
# Shear Modulus (GPa) = 15.62078 24.85937 20.24007
#
# Velocity S-wave (km/s) = 2.92884 3.69479 3.33388
# Velocity P-wave (km/s) = 4.92823 6.76118 5.91612
#
# Compressibility (1/GPa) = 0.04273518
#
# Stress axis : x y z
#
# Youngs Moduli (GPa) = 53.39098 32.10808 146.35552
#
# Poissons Ratio (x) = 0.01290 0.86510
# Poissons Ratio (y) = 0.02145 0.09853
# Poissons Ratio (z) = 0.31559 0.02162
#
# Static dielectric constant tensor:
#      x y z
#    x 1.591110 0.000000 0.000000 
#    y 0.000000 1.680430 0.000000 
#    z 0.000000 0.000000 1.696560 
# 
# From -- ./inp_files/23654.got.cif
#   From: 2010.05.17/outbox.cif.g08.bks.cpg/sg59_12_cif.got.tgz:23654.got - 2010.06.03 14:40:33.
