data_PCOD9446675
_publ_section_title
;
Structure prediction by ZEFSAII (Michael W. Deem and Ramdas Pophale) SiO2 
 PCOD9446675
Probable space group: P M M N
;
_chemical_formula_sum "Si O2"
_cell_formula_units_Z 56
_cell_length_a 23.453000
_cell_length_b 7.733349
_cell_length_c 15.289602
_cell_angle_alpha 90.000000
_cell_angle_beta 90.000000
_cell_angle_gamma 90.000000
_cell_volume 2773.078694
_symmetry_space_group_name_H-M "P M M N"
_symmetry_group_IT_number 59
_space_group.IT_coordinate_system_code '2'
_symmetry_cell_setting 'orthorhombic'
loop_
_space_group_symop_operation_xyz
x,y,z
1/2-x,1/2-y,z
1/2+x,-y,-z
-x,1/2+y,-z
-x,-y,-z
1/2+x,1/2+y,-z
1/2-x,y,z
x,1/2-y,z
loop_
_atom_site_type_symbol
_atom_site_label
_atom_site_fract_x
_atom_site_fract_y
_atom_site_fract_z
Si Si1 0.090294 0.458114 0.708614
Si Si2 0.516030 0.457831 0.599404
Si Si3 0.355487 0.538271 0.379611
Si Si4 0.445065 0.045934 0.890046
Si Si5 0.813206 0.458225 0.430038
Si Si6 0.813196 0.041432 0.808561
Si Si7 0.571790 0.956183 0.913943
O O1 0.085555 0.250000 0.713432
O O2 0.090125 0.524712 0.807836
O O3 0.142595 0.495879 0.645312
O O4 0.033557 0.526187 0.661231
O O5 0.500000 0.500000 0.500000
O O6 0.517262 0.250000 0.606959
O O7 0.578866 0.519536 0.623662
O O8 0.354126 0.750000 0.380106
O O9 0.330951 0.480398 0.472996
O O10 0.323489 0.483132 0.291757
O O11 0.433310 0.250000 0.895785
O O12 0.512918 0.025555 0.872087
O O13 0.430077 0.974251 0.985922
O O14 0.750000 0.521105 0.409276
O O15 0.812313 0.250000 0.435103
O O16 0.750000 0.981689 0.838463
O O17 0.811882 0.250000 0.807719
O O18 0.868907 0.994426 0.865360
O O19 0.565171 0.750000 0.915916
#
# Coordination Sequence:
#
# PCOD9446675 Si02
#       7
#     8   8   8   8   8   8   8
#     4  10  20  34  53  77 104 136 172 211 256 308
#     4  10  18  29  48  74 102 131 164 207 254 299
#     4   9  17  32  53  75 101 137 178 214 253 308
#     4   9  19  37  59  80 105 138 175 212 261 326
#     4  10  20  34  52  73 100 137 179 219 255 297
#     4  10  20  35  56  79 106 145 186 219 258 317
#     4  10  20  35  57  84 109 134 168 220 276 316
#
# _framework density 20.194161999999999
#
# number of rings (size 3 to 8) (size 9 to 14) (size 15 to 20)
#    0.000    2.286    1.429    1.714    0.000    5.714 
#    0.000    3.571    0.000    6.000    0.000    0.000 
#    0.000    0.000    0.000    0.000    0.000    0.000 
#
# Total GULP energy -312493.738627 kJ/mol
# GULP energy per Si atom -5580.245333 kJ/mol
# Density = 2.014820 g / cm^3
# Si number density = 20.194162 Si / 1000 Ang^3
#
#
#
# Elastic Constant Matrix: (Units=GPa)
#
#
# Indices 1 2 3 4 5 6 
#
# 1 100.1613 -14.0675 62.2822 0.0000 0.0000 0.0000
# 2 -14.0675 26.5237 -3.1511 0.0000 0.0000 0.0000
# 3 62.2822 -3.1511 127.9727 0.0000 0.0000 0.0000
# 4 0.0000 0.0000 0.0000 15.9822 0.0000 0.0000
# 5 0.0000 0.0000 0.0000 0.0000 21.8621 0.0000
# 6 0.0000 0.0000 0.0000 0.0000 0.0000 20.2561
#
#
#
# Elastic Compliance Matrix: (Units=1/GPa)
#
#
# Indices 1 2 3 4 5 6 
#
# 1 0.015647 0.007416 -0.007433 0.000000 0.000000 0.000000
# 2 0.007416 0.041327 -0.002592 0.000000 0.000000 0.000000
# 3 -0.007433 -0.002592 0.011368 0.000000 0.000000 0.000000
# 4 0.000000 0.000000 0.000000 0.062569 0.000000 0.000000
# 5 0.000000 0.000000 0.000000 0.000000 0.045741 0.000000
# 6 0.000000 0.000000 0.000000 0.000000 0.000000 0.049368
#
#
# Mechanical properties :
#
#
# Convention : Reuss Voigt Hill
#
# Bulk Modulus (GPa) = 15.84144 38.30943 27.07543
# Shear Modulus (GPa) = 19.81930 25.59303 22.70617
#
# Velocity S-wave (km/s) = 3.13619 3.56385 3.35683
# Velocity P-wave (km/s) = 4.57994 5.99553 5.33490
#
# Compressibility (1/GPa) = 0.06312558
#
# Stress axis : x y z
#
# Youngs Moduli (GPa) = 63.90932 24.19703 87.96870
#
# Poissons Ratio (x) = -0.17944 0.65384
# Poissons Ratio (y) = -0.47394 0.22797
# Poissons Ratio (z) = 0.47501 0.06271
#
# Static dielectric constant tensor:
#      x y z
#    x 1.702230 0.000000 0.000000 
#    y 0.000000 1.753180 0.000000 
#    z 0.000000 0.000000 1.734320 
# 
# From -- ./inp_files/21019.got.cif
#   From: 2010.05.17/outbox.cif.g08.bks.cpg/sg59_11_cif.got.tgz:21019.got - 2010.06.03 14:40:33.
