data_PCOD9446493
_publ_section_title
;
Structure prediction by ZEFSAII (Michael W. Deem and Ramdas Pophale) SiO2 
 PCOD9446493
Probable space group: P M M N
;
_chemical_formula_sum "Si O2"
_cell_formula_units_Z 40
_cell_length_a 7.626473
_cell_length_b 27.021936
_cell_length_c 9.969584
_cell_angle_alpha 90.000000
_cell_angle_beta 90.000000
_cell_angle_gamma 90.000000
_cell_volume 2054.552461
_symmetry_space_group_name_H-M "P M M N"
_symmetry_group_IT_number 59
_space_group.IT_coordinate_system_code '2'
_symmetry_cell_setting 'orthorhombic'
loop_
_space_group_symop_operation_xyz
x,y,z
1/2-x,1/2-y,z
1/2+x,-y,-z
-x,1/2+y,-z
-x,-y,-z
1/2+x,1/2+y,-z
1/2-x,y,z
x,1/2-y,z
loop_
_atom_site_type_symbol
_atom_site_label
_atom_site_fract_x
_atom_site_fract_y
_atom_site_fract_z
Si Si1 0.953029 0.250000 0.626771
Si Si2 0.965652 0.857426 0.654328
Si Si3 0.960849 0.642776 0.345116
Si Si4 0.051722 0.250000 0.323042
Si Si5 0.539064 0.945980 0.844209
Si Si6 0.460069 0.442722 0.850289
O O1 0.750000 0.250000 0.589116
O O2 0.993388 0.198549 0.699402
O O3 0.057625 0.250000 0.486329
O O4 0.750000 0.856038 0.654219
O O5 0.021667 0.862968 0.499347
O O6 0.026625 0.803718 0.708494
O O7 0.023284 0.903104 0.745149
O O8 0.750000 0.639311 0.348255
O O9 0.028147 0.600015 0.247371
O O10 0.250000 0.250000 0.269358
O O11 0.750000 0.942453 0.848269
O O12 0.495585 0.001721 0.800107
O O13 0.472309 0.939507 0.996784
O O14 0.250000 0.436980 0.857201
#
# Coordination Sequence:
#
# PCOD9446493 Si02
#       6
#     4   8   8   4   8   8
#     4  10  18  28  45  70  94 114 142 180 222 262
#     4   8  14  26  46  67  86 113 147 180 214 257
#     4   9  17  31  48  65  88 118 149 179 215 261
#     4   8  14  28  47  64  88 120 146 172 216 266
#     4   9  17  30  46  65  89 116 148 185 223 260
#     4   9  18  31  46  64  88 119 151 181 218 264
#
# _framework density 19.468959000000002
#
# number of rings (size 3 to 8) (size 9 to 14) (size 15 to 20)
#    0.000    3.200    0.000    2.100    0.000    1.600 
#    0.000    5.000    0.000    4.800    0.000    5.600 
#    0.000    0.000    0.000    0.000    0.000    0.000 
#
# Total GULP energy -222856.824892 kJ/mol
# GULP energy per Si atom -5571.420622 kJ/mol
# Density = 1.942465 g / cm^3
# Si number density = 19.468959 Si / 1000 Ang^3
#
#
#
# Elastic Constant Matrix: (Units=GPa)
#
#
# Indices 1 2 3 4 5 6 
#
# 1 42.3277 -3.5826 3.8699 0.0000 0.0000 0.0000
# 2 -3.5826 233.4526 99.5817 0.0000 0.0000 0.0000
# 3 3.8699 99.5817 65.5294 0.0000 0.0000 0.0000
# 4 0.0000 0.0000 0.0000 -30.8358 0.0000 0.0000
# 5 0.0000 0.0000 0.0000 0.0000 3.0719 0.0000
# 6 0.0000 0.0000 0.0000 0.0000 0.0000 19.0781
#
#
#
# Elastic Compliance Matrix: (Units=1/GPa)
#
#
# Indices 1 2 3 4 5 6 
#
# 1 0.024385 0.002810 -0.005710 0.000000 0.000000 0.000000
# 2 0.002810 0.012501 -0.019163 0.000000 0.000000 0.000000
# 3 -0.005710 -0.019163 0.044718 0.000000 0.000000 0.000000
# 4 0.000000 0.000000 0.000000 -0.032430 0.000000 0.000000
# 5 0.000000 0.000000 0.000000 0.000000 0.325529 0.000000
# 6 0.000000 0.000000 0.000000 0.000000 0.000000 0.052416
#
#
# Mechanical properties :
#
#
# Convention : Reuss Voigt Hill
#
# Bulk Modulus (GPa) = 26.68235 60.11642 43.39938
# Shear Modulus (GPa) = 10.33619 14.35889 12.34754
#
# Velocity S-wave (km/s) = 2.30664 2.71869 2.52110
# Velocity P-wave (km/s) = 4.56387 6.38750 5.55109
#
# Compressibility (1/GPa) = 0.03747796
#
# Stress axis : x y z
#
# Youngs Moduli (GPa) = 41.00865 79.99601 22.36242
#
# Poissons Ratio (x) = -0.22479 0.12770
# Poissons Ratio (y) = -0.11523 0.42852
# Poissons Ratio (z) = 0.23417 1.53293
#
# Static dielectric constant tensor:
#      x y z
#    x 1.735080 0.000000 0.000000 
#    y 0.000000 1.699180 0.000000 
#    z 0.000000 0.000000 1.660400 
# 
# From -- ./inp_files/5930.got.cif
#   From: 2010.05.17/outbox.cif.g08.bks.cpg/sg59_3_cif.got.tgz:5930.got - 2010.06.03 14:40:33.
