data_PCOD9446529
_publ_section_title
;
Structure prediction by ZEFSAII (Michael W. Deem and Ramdas Pophale) SiO2 
 PCOD9446529
Probable space group: P M M N
;
_chemical_formula_sum "Si O2"
_cell_formula_units_Z 64
_cell_length_a 7.527320
_cell_length_b 15.127868
_cell_length_c 29.055846
_cell_angle_alpha 90.000000
_cell_angle_beta 90.000000
_cell_angle_gamma 90.000000
_cell_volume 3308.656110
_symmetry_space_group_name_H-M "P M M N"
_symmetry_group_IT_number 59
_space_group.IT_coordinate_system_code '2'
_symmetry_cell_setting 'orthorhombic'
loop_
_space_group_symop_operation_xyz
x,y,z
1/2-x,1/2-y,z
1/2+x,-y,-z
-x,1/2+y,-z
-x,-y,-z
1/2+x,1/2+y,-z
1/2-x,y,z
x,1/2-y,z
loop_
_atom_site_type_symbol
_atom_site_label
_atom_site_fract_x
_atom_site_fract_y
_atom_site_fract_z
Si Si1 0.536301 0.850747 0.697962
Si Si2 0.036715 0.150780 0.575616
Si Si3 0.038204 0.466869 0.386423
Si Si4 0.462075 0.850182 0.803098
Si Si5 0.535772 0.350970 0.028357
Si Si6 0.031734 0.970709 0.886358
Si Si7 0.033708 0.148122 0.471547
Si Si8 0.959834 0.848853 0.076929
O O1 0.750000 0.847712 0.694612
O O2 0.471188 0.750000 0.690396
O O3 0.469638 0.917921 0.659135
O O4 0.493964 0.876376 0.750308
O O5 0.250000 0.154869 0.573362
O O6 0.973712 0.250000 0.587361
O O7 0.972931 0.128721 0.523612
O O8 0.991852 0.071100 0.609324
O O9 0.250000 0.453647 0.386687
O O10 0.968554 0.418257 0.432445
O O11 0.250000 0.845171 0.809531
O O12 0.532403 0.750000 0.809511
O O13 0.528319 0.919017 0.840942
O O14 0.750000 0.351183 0.028820
O O15 0.476787 0.250000 0.037148
O O16 0.475787 0.415730 0.068534
O O17 0.479154 0.374900 0.976769
O O18 0.250000 0.971819 0.886287
O O19 0.969697 0.071346 0.892252
O O20 0.250000 0.144434 0.472103
O O21 0.986694 0.250000 0.460718
O O22 0.750000 0.842693 0.086135
O O23 0.036055 0.750000 0.082433
#
# Coordination Sequence:
#
# PCOD9446529 Si02
#       8
#     8   8   8   8   8   8   8   8
#     4   9  18  32  48  68  94 118 140 173 221 272
#     4   9  18  31  45  63  91 124 153 184 222 259
#     4  10  18  28  47  70  89 116 153 186 217 260
#     4   9  17  30  48  67  85 108 141 179 217 257
#     4   9  16  26  41  61  85 112 141 172 206 246
#     4   9  16  27  44  63  83 110 143 176 210 249
#     4   8  14  26  44  66  92 121 151 181 217 264
#     4   9  17  28  41  59  85 114 141 170 205 246
#
# _framework density 19.343201000000001
#
# number of rings (size 3 to 8) (size 9 to 14) (size 15 to 20)
#    0.000    3.000    0.000    2.250    0.000    3.750 
#    0.000    1.250    0.000    5.625    0.000    1.750 
#    0.000    0.000    0.000    0.000    0.000    0.000 
#
# Total GULP energy -357003.812346 kJ/mol
# GULP energy per Si atom -5578.184568 kJ/mol
# Density = 1.929918 g / cm^3
# Si number density = 19.343201 Si / 1000 Ang^3
#
#
#
# Elastic Constant Matrix: (Units=GPa)
#
#
# Indices 1 2 3 4 5 6 
#
# 1 47.9882 2.9368 1.7103 0.0000 0.0000 0.0000
# 2 2.9368 145.8635 114.5651 0.0000 0.0000 0.0000
# 3 1.7103 114.5651 120.5946 0.0000 0.0000 0.0000
# 4 0.0000 0.0000 0.0000 32.7920 0.0000 0.0000
# 5 0.0000 0.0000 0.0000 0.0000 11.6137 0.0000
# 6 0.0000 0.0000 0.0000 0.0000 0.0000 9.3156
#
#
#
# Elastic Compliance Matrix: (Units=1/GPa)
#
#
# Indices 1 2 3 4 5 6 
#
# 1 0.020869 -0.000740 0.000407 0.000000 0.000000 0.000000
# 2 -0.000740 0.027034 -0.025672 0.000000 0.000000 0.000000
# 3 0.000407 -0.025672 0.032675 0.000000 0.000000 0.000000
# 4 0.000000 0.000000 0.000000 0.030495 0.000000 0.000000
# 5 0.000000 0.000000 0.000000 0.000000 0.086105 0.000000
# 6 0.000000 0.000000 0.000000 0.000000 0.000000 0.107347
#
#
# Mechanical properties :
#
#
# Convention : Reuss Voigt Hill
#
# Bulk Modulus (GPa) = 35.00369 61.43006 48.21688
# Shear Modulus (GPa) = 13.65907 23.75987 18.70947
#
# Velocity S-wave (km/s) = 2.66022 3.50856 3.11342
# Velocity P-wave (km/s) = 5.25082 6.94552 6.15676
#
# Compressibility (1/GPa) = 0.02856841
#
# Stress axis : x y z
#
# Youngs Moduli (GPa) = 47.91744 36.99056 30.60470
#
# Poissons Ratio (x) = 0.02735 -0.01244
# Poissons Ratio (y) = 0.03543 0.78568
# Poissons Ratio (z) = -0.01948 0.94961
#
# Static dielectric constant tensor:
#      x y z
#    x 1.735320 0.000000 0.000000 
#    y 0.000000 1.694340 0.000000 
#    z 0.000000 0.000000 1.648630 
# 
# From -- ./inp_files/33211.got.cif
#   From: 2010.05.17/outbox.cif.g08.bks.cpg/sg59_17_cif.got.tgz:33211.got - 2010.06.03 14:40:33.
