data_PCOD9446678
_publ_section_title
;
Structure prediction by ZEFSAII (Michael W. Deem and Ramdas Pophale) SiO2 
 PCOD9446678
Probable space group: P M M N
;
_chemical_formula_sum "Si O2"
_cell_formula_units_Z 64
_cell_length_a 8.411187
_cell_length_b 24.335753
_cell_length_c 16.974319
_cell_angle_alpha 90.000000
_cell_angle_beta 90.000000
_cell_angle_gamma 90.000000
_cell_volume 3474.516968
_symmetry_space_group_name_H-M "P M M N"
_symmetry_group_IT_number 59
_space_group.IT_coordinate_system_code '2'
_symmetry_cell_setting 'orthorhombic'
loop_
_space_group_symop_operation_xyz
x,y,z
1/2-x,1/2-y,z
1/2+x,-y,-z
-x,1/2+y,-z
-x,-y,-z
1/2+x,1/2+y,-z
1/2-x,y,z
x,1/2-y,z
loop_
_atom_site_type_symbol
_atom_site_label
_atom_site_fract_x
_atom_site_fract_y
_atom_site_fract_z
Si Si1 0.435866 0.021346 0.804432
Si Si2 0.563281 0.915699 0.874349
Si Si3 0.055550 0.686275 0.436216
Si Si4 0.933081 0.316733 0.392508
Si Si5 0.059194 0.626296 0.277908
Si Si6 0.439405 0.313661 0.877023
Si Si7 0.443197 0.686437 0.781050
Si Si8 0.565990 0.417393 0.954320
O O1 0.250000 0.014670 0.790196
O O2 0.508362 0.064277 0.742300
O O3 0.464179 0.050225 0.889499
O O4 0.517812 0.962376 0.811283
O O5 0.750000 0.915820 0.888546
O O6 0.507460 0.856676 0.843375
O O7 0.477858 0.929882 0.956420
O O8 0.250000 0.686164 0.439620
O O9 0.008752 0.750000 0.422765
O O10 0.996616 0.667532 0.522684
O O11 0.008535 0.648485 0.363183
O O12 0.750000 0.336286 0.391574
O O13 0.928122 0.250000 0.394230
O O14 0.002230 0.330274 0.306973
O O15 0.250000 0.630551 0.271809
O O16 0.984177 0.664356 0.209798
O O17 0.250000 0.319729 0.888431
O O18 0.482025 0.250000 0.885231
O O19 0.530127 0.353434 0.937109
O O20 0.250000 0.684617 0.780273
O O21 0.488295 0.750000 0.795811
O O22 0.250000 0.570122 0.061280
#
# Coordination Sequence:
#
# PCOD9446678 Si02
#       8
#     8   8   8   8   8   8   8   8
#     4  11  22  38  56  74 100 132 169 210 253 298
#     4  12  24  38  56  77 101 129 165 207 252 301
#     4   8  13  22  42  75 109 138 169 205 245 292
#     4   7  11  23  45  73 104 135 166 202 244 291
#     4  10  18  29  48  75 105 136 172 211 251 296
#     4  10  20  33  48  69 102 141 175 207 249 297
#     4   9  18  34  56  81 107 134 166 204 249 301
#     4  11  22  37  56  77 100 128 167 211 255 301
#
# _framework density 18.419827999999999
#
# number of rings (size 3 to 8) (size 9 to 14) (size 15 to 20)
#    0.000    2.250    0.000    7.875    0.000    2.250 
#    0.000    0.000    0.000    2.250    0.000    3.500 
#    0.000    0.000    0.000    0.000    0.000    0.000 
#
# Total GULP energy -357011.869122 kJ/mol
# GULP energy per Si atom -5578.310455 kJ/mol
# Density = 1.837790 g / cm^3
# Si number density = 18.419828 Si / 1000 Ang^3
#
#
#
# Elastic Constant Matrix: (Units=GPa)
#
#
# Indices 1 2 3 4 5 6 
#
# 1 24.8930 -0.7272 -6.7510 0.0000 0.0000 0.0000
# 2 -0.7272 62.7455 1.3068 0.0000 0.0000 0.0000
# 3 -6.7510 1.3068 46.7777 0.0000 0.0000 0.0000
# 4 0.0000 0.0000 0.0000 16.9922 0.0000 0.0000
# 5 0.0000 0.0000 0.0000 0.0000 7.0777 0.0000
# 6 0.0000 0.0000 0.0000 0.0000 0.0000 25.3256
#
#
#
# Elastic Compliance Matrix: (Units=1/GPa)
#
#
# Indices 1 2 3 4 5 6 
#
# 1 0.041816 0.000359 0.006025 0.000000 0.000000 0.000000
# 2 0.000359 0.015950 -0.000394 0.000000 0.000000 0.000000
# 3 0.006025 -0.000394 0.022258 0.000000 0.000000 0.000000
# 4 0.000000 0.000000 0.000000 0.058851 0.000000 0.000000
# 5 0.000000 0.000000 0.000000 0.000000 0.141290 0.000000
# 6 0.000000 0.000000 0.000000 0.000000 0.000000 0.039486
#
#
# Mechanical properties :
#
#
# Convention : Reuss Voigt Hill
#
# Bulk Modulus (GPa) = 10.86898 13.56371 12.21635
# Shear Modulus (GPa) = 14.77813 19.25160 17.01486
#
# Velocity S-wave (km/s) = 2.83555 3.23639 3.04258
# Velocity P-wave (km/s) = 4.07848 4.62010 4.35771
#
# Compressibility (1/GPa) = 0.09200497
#
# Stress axis : x y z
#
# Youngs Moduli (GPa) = 23.91410 62.69683 44.92723
#
# Poissons Ratio (x) = -0.02252 -0.27068
# Poissons Ratio (y) = -0.00859 0.01769
# Poissons Ratio (z) = -0.14408 0.02469
#
# Static dielectric constant tensor:
#      x y z
#    x 1.632160 0.000000 0.000000 
#    y 0.000000 1.630620 0.000000 
#    z 0.000000 0.000000 1.655340 
# 
# From -- ./inp_files/26474.got.cif
#   From: 2010.05.17/outbox.cif.g08.bks.cpg/sg59_14_cif.got.tgz:26474.got - 2010.06.03 14:40:33.
