data_PCOD9446537
_publ_section_title
;
Structure prediction by ZEFSAII (Michael W. Deem and Ramdas Pophale) SiO2 
 PCOD9446537
Probable space group: P M M N
;
_chemical_formula_sum "Si O2"
_cell_formula_units_Z 48
_cell_length_a 31.480441
_cell_length_b 8.474992
_cell_length_c 10.478107
_cell_angle_alpha 90.000000
_cell_angle_beta 90.000000
_cell_angle_gamma 90.000000
_cell_volume 2795.522124
_symmetry_space_group_name_H-M "P M M N"
_symmetry_group_IT_number 59
_space_group.IT_coordinate_system_code '2'
_symmetry_cell_setting 'orthorhombic'
loop_
_space_group_symop_operation_xyz
x,y,z
1/2-x,1/2-y,z
1/2+x,-y,-z
-x,1/2+y,-z
-x,-y,-z
1/2+x,1/2+y,-z
1/2-x,y,z
x,1/2-y,z
loop_
_atom_site_type_symbol
_atom_site_label
_atom_site_fract_x
_atom_site_fract_y
_atom_site_fract_z
Si Si1 0.111574 0.942021 0.270609
Si Si2 0.025234 0.563265 0.876979
Si Si3 0.388678 0.061131 0.978206
Si Si4 0.795716 0.438846 0.714351
Si Si5 0.021633 0.938145 0.372397
Si Si6 0.795703 0.940039 0.004121
O O1 0.111702 0.750000 0.262060
O O2 0.157344 0.993794 0.327741
O O3 0.070321 0.992495 0.349888
O O4 0.107441 0.007303 0.126262
O O5 0.020494 0.750000 0.871729
O O6 0.005215 0.489988 0.750509
O O7 0.074196 0.517624 0.897717
O O8 0.000000 0.500000 0.000000
O O9 0.393575 0.250000 0.973001
O O10 0.340786 0.017566 0.934217
O O11 0.750000 0.500318 0.663318
O O12 0.795153 0.250000 0.698571
O O13 0.795636 0.480109 0.864926
O O14 0.022557 0.750000 0.377634
O O15 0.000000 0.000000 0.500000
O O16 0.750000 0.979155 0.065911
O O17 0.796740 0.750000 0.985673
#
# Coordination Sequence:
#
# PCOD9446537 Si02
#       6
#     8   8   8   8   8   8
#     4   9  17  29  46  68  97 131 164 202 248 297
#     4  12  23  36  54  76 102 133 172 215 257 305
#     4  10  18  28  47  73 100 132 169 207 251 300
#     4   8  13  22  38  62  91 122 156 194 239 291
#     4  11  23  38  54  74 102 136 173 214 259 310
#     4   8  14  24  38  61  95 130 161 196 241 294
#
# _framework density 17.170316
#
# number of rings (size 3 to 8) (size 9 to 14) (size 15 to 20)
#    0.000    2.333    1.667    2.500    0.000    1.333 
#    0.000    0.000    0.000    0.000    0.000    1.167 
#    0.000    4.000    0.000    0.000    0.000    0.000 
#
# Total GULP energy -267275.384589 kJ/mol
# GULP energy per Si atom -5568.237179 kJ/mol
# Density = 1.713124 g / cm^3
# Si number density = 17.170316 Si / 1000 Ang^3
#
#
#
# Elastic Constant Matrix: (Units=GPa)
#
#
# Indices 1 2 3 4 5 6 
#
# 1 195.3887 20.4440 54.4940 0.0000 0.0000 0.0000
# 2 20.4440 24.8311 10.3939 0.0000 0.0000 0.0000
# 3 54.4940 10.3939 64.7335 0.0000 0.0000 0.0000
# 4 0.0000 0.0000 0.0000 20.3122 0.0000 0.0000
# 5 0.0000 0.0000 0.0000 0.0000 11.2681 0.0000
# 6 0.0000 0.0000 0.0000 0.0000 0.0000 19.5416
#
#
#
# Elastic Compliance Matrix: (Units=1/GPa)
#
#
# Indices 1 2 3 4 5 6 
#
# 1 0.006963 -0.003516 -0.005297 0.000000 0.000000 0.000000
# 2 -0.003516 0.044949 -0.004258 0.000000 0.000000 0.000000
# 3 -0.005297 -0.004258 0.020591 0.000000 0.000000 0.000000
# 4 0.000000 0.000000 0.000000 0.049232 0.000000 0.000000
# 5 0.000000 0.000000 0.000000 0.000000 0.088746 0.000000
# 6 0.000000 0.000000 0.000000 0.000000 0.000000 0.051173
#
#
# Mechanical properties :
#
#
# Convention : Reuss Voigt Hill
#
# Bulk Modulus (GPa) = 21.56952 50.62412 36.09682
# Shear Modulus (GPa) = 16.48811 23.53247 20.01029
#
# Velocity S-wave (km/s) = 3.10218 3.70609 3.41750
# Velocity P-wave (km/s) = 5.04190 6.91816 6.05317
#
# Compressibility (1/GPa) = 0.04636173
#
# Stress axis : x y z
#
# Youngs Moduli (GPa) = 143.61034 22.24759 48.56493
#
# Poissons Ratio (x) = 0.07821 0.25727
# Poissons Ratio (y) = 0.50488 0.20677
# Poissons Ratio (z) = 0.76075 0.09472
#
# Static dielectric constant tensor:
#      x y z
#    x 1.682720 0.000000 0.000000 
#    y 0.000000 1.578980 0.000000 
#    z 0.000000 0.000000 1.518160 
# 
# From -- ./inp_files/19035.got.cif
#   From: 2010.05.17/outbox.cif.g08.bks.cpg/sg59_10_cif.got.tgz:19035.got - 2010.06.03 14:40:33.
