data_PCOD9446441
_publ_section_title
;
Structure prediction by ZEFSAII (Michael W. Deem and Ramdas Pophale) SiO2 
 PCOD9446441
Probable space group: P M M N
;
_chemical_formula_sum "Si O2"
_cell_formula_units_Z 64
_cell_length_a 9.060572
_cell_length_b 25.184966
_cell_length_c 18.990608
_cell_angle_alpha 90.000000
_cell_angle_beta 90.000000
_cell_angle_gamma 90.000000
_cell_volume 4333.470595
_symmetry_space_group_name_H-M "P M M N"
_symmetry_group_IT_number 59
_space_group.IT_coordinate_system_code '2'
_symmetry_cell_setting 'orthorhombic'
loop_
_space_group_symop_operation_xyz
x,y,z
1/2-x,1/2-y,z
1/2+x,-y,-z
-x,1/2+y,-z
-x,-y,-z
1/2+x,1/2+y,-z
1/2-x,y,z
x,1/2-y,z
loop_
_atom_site_type_symbol
_atom_site_label
_atom_site_fract_x
_atom_site_fract_y
_atom_site_fract_z
Si Si1 0.420767 0.578322 0.968742
Si Si2 0.927650 0.386400 0.179229
Si Si3 0.581303 0.686902 0.711246
Si Si4 0.573793 0.995579 0.770046
Si Si5 0.420139 0.459858 0.899841
Si Si6 0.426058 0.990838 0.393661
Si Si7 0.573193 0.311728 0.438523
Si Si8 0.073945 0.413413 0.496442
O O1 0.250000 0.588771 0.986088
O O2 0.468600 0.615018 0.903570
O O3 0.426696 0.519042 0.934533
O O4 0.515592 0.577753 0.039350
O O5 0.750000 0.387982 0.183147
O O6 0.995646 0.339694 0.224834
O O7 0.993916 0.440292 0.211865
O O8 0.750000 0.666606 0.706407
O O9 0.586248 0.750000 0.720866
O O10 0.496254 0.677244 0.638295
O O11 0.750000 0.989545 0.777642
O O12 0.513893 0.036660 0.828432
O O13 0.541285 0.009820 0.689186
O O14 0.250000 0.448361 0.884427
O O15 0.250000 0.982345 0.403165
O O16 0.514094 0.946605 0.437146
O O17 0.459766 0.048088 0.429322
O O18 0.750000 0.316469 0.436017
O O19 0.537494 0.250000 0.456687
O O20 0.504554 0.356795 0.488080
O O21 0.250000 0.406694 0.499932
#
# Coordination Sequence:
#
# PCOD9446441 Si02
#       8
#     8   8   8   8   8   8   8   8
#     4   8  15  26  38  55  79 108 140 170 204 244
#     4  10  19  29  43  62  84 112 146 181 214 254
#     4  10  20  32  45  62  85 112 143 179 216 254
#     4  10  18  28  43  61  85 116 147 179 214 255
#     4   9  16  25  38  57  81 108 139 174 208 243
#     4   9  19  32  44  62  88 119 151 180 218 267
#     4  10  20  33  49  67  88 116 148 183 222 262
#     4  10  19  31  48  67  88 115 147 185 224 262
#
# _framework density 14.768763
#
# number of rings (size 3 to 8) (size 9 to 14) (size 15 to 20)
#    0.000    2.500    0.000    3.750    0.000    7.500 
#    0.000    0.000    0.000    0.000    0.000    0.000 
#    0.000    1.000    0.000    5.500    0.000    4.500 
#
# Total GULP energy -356666.199069 kJ/mol
# GULP energy per Si atom -5572.909360 kJ/mol
# Density = 1.473515 g / cm^3
# Si number density = 14.768763 Si / 1000 Ang^3
#
#
#
# Elastic Constant Matrix: (Units=GPa)
#
#
# Indices 1 2 3 4 5 6 
#
# 1 73.4266 30.9046 49.8604 0.0000 0.0000 0.0000
# 2 30.9046 47.0570 29.5674 0.0000 0.0000 0.0000
# 3 49.8604 29.5674 90.7997 0.0000 0.0000 0.0000
# 4 0.0000 0.0000 0.0000 23.4120 0.0000 0.0000
# 5 0.0000 0.0000 0.0000 0.0000 25.9364 0.0000
# 6 0.0000 0.0000 0.0000 0.0000 0.0000 21.3703
#
#
#
# Elastic Compliance Matrix: (Units=1/GPa)
#
#
# Indices 1 2 3 4 5 6 
#
# 1 0.024815 -0.009725 -0.010460 0.000000 0.000000 0.000000
# 2 -0.009725 0.030529 -0.004601 0.000000 0.000000 0.000000
# 3 -0.010460 -0.004601 0.018255 0.000000 0.000000 0.000000
# 4 0.000000 0.000000 0.000000 0.042713 0.000000 0.000000
# 5 0.000000 0.000000 0.000000 0.000000 0.038556 0.000000
# 6 0.000000 0.000000 0.000000 0.000000 0.000000 0.046794
#
#
# Mechanical properties :
#
#
# Convention : Reuss Voigt Hill
#
# Bulk Modulus (GPa) = 41.61906 47.99425 44.80666
# Shear Modulus (GPa) = 19.28702 20.87381 20.08041
#
# Velocity S-wave (km/s) = 3.61769 3.76357 3.69135
# Velocity P-wave (km/s) = 6.75958 7.17312 6.96941
#
# Compressibility (1/GPa) = 0.02402745
#
# Stress axis : x y z
#
# Youngs Moduli (GPa) = 40.29841 32.75620 54.77911
#
# Poissons Ratio (x) = 0.31855 0.57297
# Poissons Ratio (y) = 0.39190 0.25203
# Poissons Ratio (z) = 0.42151 0.15071
#
# Static dielectric constant tensor:
#      x y z
#    x 1.493090 0.000000 0.000000 
#    y 0.000000 1.482800 0.000000 
#    z 0.000000 0.000000 1.489620 
# 
# From -- ./inp_files/26551.got.cif
#   From: 2010.05.17/outbox.cif.g08.bks.cpg/sg59_14_cif.got.tgz:26551.got - 2010.06.03 14:40:33.
