data_PCOD9446342
_publ_section_title
;
Structure prediction by ZEFSAII (Michael W. Deem and Ramdas Pophale) SiO2 
 PCOD9446342
Probable space group: P M M N
;
_chemical_formula_sum "Si O2"
_cell_formula_units_Z 40
_cell_length_a 8.279859
_cell_length_b 25.804184
_cell_length_c 10.509405
_cell_angle_alpha 90.000000
_cell_angle_beta 90.000000
_cell_angle_gamma 90.000000
_cell_volume 2245.386979
_symmetry_space_group_name_H-M "P M M N"
_symmetry_group_IT_number 59
_space_group.IT_coordinate_system_code '2'
_symmetry_cell_setting 'orthorhombic'
loop_
_space_group_symop_operation_xyz
x,y,z
1/2-x,1/2-y,z
1/2+x,-y,-z
-x,1/2+y,-z
-x,-y,-z
1/2+x,1/2+y,-z
1/2-x,y,z
x,1/2-y,z
loop_
_atom_site_type_symbol
_atom_site_label
_atom_site_fract_x
_atom_site_fract_y
_atom_site_fract_z
Si Si1 0.552623 0.137347 0.722242
Si Si2 0.056357 0.967636 0.877675
Si Si3 0.555127 0.141577 0.020679
Si Si4 0.442554 0.527259 0.372050
Si Si5 0.061743 0.250000 0.993569
Si Si6 0.439103 0.750000 0.290277
O O1 0.750000 0.138507 0.718791
O O2 0.508964 0.132615 0.871980
O O3 0.496426 0.086275 0.648703
O O4 0.493876 0.193505 0.672109
O O5 0.250000 0.968086 0.874816
O O6 0.003430 0.908196 0.898813
O O7 0.992434 0.993916 0.750409
O O8 0.000000 0.000000 0.000000
O O9 0.750000 0.145192 0.024707
O O10 0.481902 0.196445 0.061886
O O11 0.500000 0.500000 0.500000
O O12 0.250000 0.530231 0.375256
O O13 0.250000 0.250000 0.959112
O O14 0.956875 0.250000 0.863555
O O15 0.250000 0.750000 0.324107
#
# Coordination Sequence:
#
# PCOD9446342 Si02
#       6
#     8   8   8   8   4   4
#     4   8  14  28  50  73  99 131 171 214 256 313
#     4  11  21  35  56  81 107 141 180 222 268 319
#     4   9  17  32  51  72 102 140 176 212 262 322
#     4  11  22  37  53  77 109 144 183 224 274 326
#     4  10  18  26  42  75 108 133 166 216 268 310
#     4   8  14  28  48  69  96 133 168 208 262 316
#
# _framework density 17.814299999999999
#
# number of rings (size 3 to 8) (size 9 to 14) (size 15 to 20)
#    0.000    2.400    2.000    3.300    0.000    1.600 
#    0.000    1.000    0.000    1.200    0.000    7.000 
#    0.000    0.000    0.000    0.000    0.000    0.000 
#
# Total GULP energy -222922.076514 kJ/mol
# GULP energy per Si atom -5573.051913 kJ/mol
# Density = 1.777375 g / cm^3
# Si number density = 17.814300 Si / 1000 Ang^3
#
#
#
# Elastic Constant Matrix: (Units=GPa)
#
#
# Indices 1 2 3 4 5 6 
#
# 1 22.9304 22.8163 12.4322 0.0000 0.0000 0.0000
# 2 22.8163 222.3322 71.9826 0.0000 0.0000 0.0000
# 3 12.4322 71.9826 86.4123 0.0000 0.0000 0.0000
# 4 0.0000 0.0000 0.0000 17.4625 0.0000 0.0000
# 5 0.0000 0.0000 0.0000 0.0000 21.9093 0.0000
# 6 0.0000 0.0000 0.0000 0.0000 0.0000 23.7874
#
#
#
# Elastic Compliance Matrix: (Units=1/GPa)
#
#
# Indices 1 2 3 4 5 6 
#
# 1 0.049540 -0.003802 -0.003961 0.000000 0.000000 0.000000
# 2 -0.003802 0.006451 -0.004826 0.000000 0.000000 0.000000
# 3 -0.003961 -0.004826 0.016163 0.000000 0.000000 0.000000
# 4 0.000000 0.000000 0.000000 0.057266 0.000000 0.000000
# 5 0.000000 0.000000 0.000000 0.000000 0.045643 0.000000
# 6 0.000000 0.000000 0.000000 0.000000 0.000000 0.042039
#
#
# Mechanical properties :
#
#
# Convention : Reuss Voigt Hill
#
# Bulk Modulus (GPa) = 21.28740 60.68190 40.98465
# Shear Modulus (GPa) = 19.38459 27.59475 23.48967
#
# Velocity S-wave (km/s) = 3.30229 3.94003 3.63517
# Velocity P-wave (km/s) = 5.14934 7.40513 6.37776
#
# Compressibility (1/GPa) = 0.04697614
#
# Stress axis : x y z
#
# Youngs Moduli (GPa) = 20.18564 155.02627 61.87083
#
# Poissons Ratio (x) = 0.58936 0.24504
# Poissons Ratio (y) = 0.07674 0.29861
# Poissons Ratio (z) = 0.07995 0.74822
#
# Static dielectric constant tensor:
#      x y z
#    x 1.631270 0.000000 0.000000 
#    y 0.000000 1.679670 0.000000 
#    z 0.000000 0.000000 1.554960 
# 
# From -- ./inp_files/14437.got.cif
#   From: 2010.05.17/outbox.cif.g08.bks.cpg/sg59_8_cif.got.tgz:14437.got - 2010.06.03 14:40:33.
