data_PCOD9446559
_publ_section_title
;
Structure prediction by ZEFSAII (Michael W. Deem and Ramdas Pophale) SiO2 
 PCOD9446559
Probable space group: P M M N
;
_chemical_formula_sum "Si O2"
_cell_formula_units_Z 64
_cell_length_a 30.652501
_cell_length_b 7.521760
_cell_length_c 15.546776
_cell_angle_alpha 90.000000
_cell_angle_beta 90.000000
_cell_angle_gamma 90.000000
_cell_volume 3584.476427
_symmetry_space_group_name_H-M "P M M N"
_symmetry_group_IT_number 59
_space_group.IT_coordinate_system_code '2'
_symmetry_cell_setting 'orthorhombic'
loop_
_space_group_symop_operation_xyz
x,y,z
1/2-x,1/2-y,z
1/2+x,-y,-z
-x,1/2+y,-z
-x,-y,-z
1/2+x,1/2+y,-z
1/2-x,y,z
x,1/2-y,z
loop_
_atom_site_type_symbol
_atom_site_label
_atom_site_fract_x
_atom_site_fract_y
_atom_site_fract_z
Si Si1 0.431385 0.956089 0.044037
Si Si2 0.798493 0.042177 0.500013
Si Si3 0.538250 0.038179 0.318718
Si Si4 0.059131 0.963583 0.368984
Si Si5 0.892575 0.468689 0.456810
Si Si6 0.298510 0.462698 0.300435
Si Si7 0.474878 0.967307 0.875492
Si Si8 0.386149 0.539289 0.206472
O O1 0.419715 0.750000 0.029954
O O2 0.397589 0.035379 0.112557
O O3 0.477721 0.967958 0.093781
O O4 0.441057 0.029294 0.949066
O O5 0.750000 0.964847 0.483679
O O6 0.796234 0.250000 0.476991
O O7 0.842373 0.969573 0.456837
O O8 0.806278 0.031611 0.602874
O O9 0.543785 0.250000 0.312288
O O10 0.577908 0.971596 0.377071
O O11 0.535342 0.971287 0.220821
O O12 0.491900 0.006151 0.364740
O O13 0.063237 0.750000 0.368538
O O14 0.083621 0.025617 0.454827
O O15 0.082927 0.032917 0.282793
O O16 0.892057 0.250000 0.457495
O O17 0.250000 0.521550 0.274019
O O18 0.298710 0.250000 0.306039
O O19 0.336888 0.517477 0.237392
O O20 0.476404 0.750000 0.876726
O O21 0.395450 0.750000 0.201680
#
# Coordination Sequence:
#
# PCOD9446559 Si02
#       8
#     8   8   8   8   8   8   8   8
#     4   9  17  29  44  61  83 110 142 178 213 248
#     4   9  16  29  48  64  81 110 146 178 209 251
#     4  10  19  29  42  60  86 117 146 177 214 252
#     4  10  18  29  42  59  86 117 149 178 202 240
#     4   9  17  29  42  60  85 113 145 177 209 249
#     4  10  20  31  44  65  91 113 136 175 221 259
#     4   9  17  28  42  62  84 110 143 176 214 252
#     4  10  18  29  46  64  84 116 149 176 209 252
#
# _framework density 17.854771
#
# number of rings (size 3 to 8) (size 9 to 14) (size 15 to 20)
#    0.000    2.500    2.500    0.750    0.000    1.750 
#    0.000    0.625    0.000    0.000    0.000    0.875 
#    0.000    5.000    0.000    3.375    0.000    3.000 
#
# Total GULP energy -356862.384079 kJ/mol
# GULP energy per Si atom -5575.974751 kJ/mol
# Density = 1.781413 g / cm^3
# Si number density = 17.854771 Si / 1000 Ang^3
#
#
#
# Elastic Constant Matrix: (Units=GPa)
#
#
# Indices 1 2 3 4 5 6 
#
# 1 133.7010 -9.5571 57.9951 0.0000 0.0000 0.0000
# 2 -9.5571 45.4373 -0.7228 0.0000 0.0000 0.0000
# 3 57.9951 -0.7228 82.7575 0.0000 0.0000 0.0000
# 4 0.0000 0.0000 0.0000 0.2673 0.0000 0.0000
# 5 0.0000 0.0000 0.0000 0.0000 19.4944 0.0000
# 6 0.0000 0.0000 0.0000 0.0000 0.0000 15.6064
#
#
#
# Elastic Compliance Matrix: (Units=1/GPa)
#
#
# Indices 1 2 3 4 5 6 
#
# 1 0.010958 0.002183 -0.007660 0.000000 0.000000 0.000000
# 2 0.002183 0.022446 -0.001334 0.000000 0.000000 0.000000
# 3 -0.007660 -0.001334 0.017440 0.000000 0.000000 0.000000
# 4 0.000000 0.000000 0.000000 3.741264 0.000000 0.000000
# 5 0.000000 0.000000 0.000000 0.000000 0.051297 0.000000
# 6 0.000000 0.000000 0.000000 0.000000 0.000000 0.064076
#
#
# Mechanical properties :
#
#
# Convention : Reuss Voigt Hill
#
# Bulk Modulus (GPa) = 26.86548 39.70292 33.28420
# Shear Modulus (GPa) = 1.27113 21.35231 11.31172
#
# Velocity S-wave (km/s) = 0.84467 3.46191 2.51975
# Velocity P-wave (km/s) = 4.00383 6.18584 5.21034
#
# Compressibility (1/GPa) = 0.03722249
#
# Stress axis : x y z
#
# Youngs Moduli (GPa) = 91.25588 44.55077 57.33932
#
# Poissons Ratio (x) = -0.09726 0.43923
# Poissons Ratio (y) = -0.19922 0.07648
# Poissons Ratio (z) = 0.69904 0.05942
#
# Static dielectric constant tensor:
#      x y z
#    x 1.620090 0.000000 0.000000 
#    y 0.000000 1.663200 0.000000 
#    z 0.000000 0.000000 1.620400 
# 
# From -- ./inp_files/25048.got.cif
#   From: 2010.05.17/outbox.cif.g08.bks.cpg/sg59_13_cif.got.tgz:25048.got - 2010.06.03 14:40:33.
