data_PCOD9446564
_publ_section_title
;
Structure prediction by ZEFSAII (Michael W. Deem and Ramdas Pophale) SiO2 
 PCOD9446564
Probable space group: P M M N
;
_chemical_formula_sum "Si O2"
_cell_formula_units_Z 56
_cell_length_a 29.568126
_cell_length_b 8.155561
_cell_length_c 13.764610
_cell_angle_alpha 90.000000
_cell_angle_beta 90.000000
_cell_angle_gamma 90.000000
_cell_volume 3319.262133
_symmetry_space_group_name_H-M "P M M N"
_symmetry_group_IT_number 59
_space_group.IT_coordinate_system_code '2'
_symmetry_cell_setting 'orthorhombic'
loop_
_space_group_symop_operation_xyz
x,y,z
1/2-x,1/2-y,z
1/2+x,-y,-z
-x,1/2+y,-z
-x,-y,-z
1/2+x,1/2+y,-z
1/2-x,y,z
x,1/2-y,z
loop_
_atom_site_type_symbol
_atom_site_label
_atom_site_fract_x
_atom_site_fract_y
_atom_site_fract_z
Si Si1 0.480514 0.446422 0.602831
Si Si2 0.945034 0.942916 0.093164
Si Si3 0.112976 0.940589 0.084346
Si Si4 0.467654 0.549626 0.203720
Si Si5 0.699989 0.444019 0.239197
Si Si6 0.603839 0.446383 0.287379
Si Si7 0.199176 0.057267 0.978535
O O1 0.500000 0.500000 0.500000
O O2 0.478349 0.250000 0.607191
O O3 0.513031 0.502319 0.691963
O O4 0.430587 0.514499 0.625962
O O5 0.945788 0.750000 0.068012
O O6 0.995266 0.000484 0.122674
O O7 0.916982 0.966526 0.192615
O O8 0.919660 0.039634 0.009199
O O9 0.122113 0.750000 0.101502
O O10 0.082089 0.006652 0.172405
O O11 0.160072 0.022122 0.055474
O O12 0.467467 0.750000 0.202518
O O13 0.750000 0.516050 0.258848
O O14 0.702835 0.250000 0.257354
O O15 0.655771 0.503785 0.296321
O O16 0.690599 0.468234 0.124154
O O17 0.603690 0.250000 0.270669
O O18 0.250000 0.011885 0.011095
O O19 0.198582 0.250000 0.956605
#
# Coordination Sequence:
#
# PCOD9446564 Si02
#       7
#     8   8   8   8   8   8   8
#     4  10  20  36  54  72  95 121 153 196 243 294
#     4  10  18  29  43  63  95 129 159 192 228 269
#     4  11  19  29  45  65  91 125 161 194 230 273
#     4   8  18  32  46  66  92 121 153 190 231 277
#     4   9  17  29  45  66  94 127 162 197 230 271
#     4  10  18  29  47  71  96 127 162 195 234 283
#     4  10  20  31  43  62  91 127 164 199 236 275
#
# _framework density 16.871219
#
# number of rings (size 3 to 8) (size 9 to 14) (size 15 to 20)
#    0.000    2.286    1.429    3.429    0.000    1.429 
#    0.000    7.857    0.000    0.000    0.000    1.000 
#    0.000    3.429    0.000    0.000    0.000    0.000 
#
# Total GULP energy -312160.028304 kJ/mol
# GULP energy per Si atom -5574.286220 kJ/mol
# Density = 1.683282 g / cm^3
# Si number density = 16.871219 Si / 1000 Ang^3
#
#
#
# Elastic Constant Matrix: (Units=GPa)
#
#
# Indices 1 2 3 4 5 6 
#
# 1 149.6790 4.5293 49.3864 0.0000 0.0000 0.0000
# 2 4.5293 19.0523 -2.7925 0.0000 0.0000 0.0000
# 3 49.3864 -2.7925 54.5941 0.0000 0.0000 0.0000
# 4 0.0000 0.0000 0.0000 7.3760 0.0000 0.0000
# 5 0.0000 0.0000 0.0000 0.0000 20.3152 0.0000
# 6 0.0000 0.0000 0.0000 0.0000 0.0000 20.8248
#
#
#
# Elastic Compliance Matrix: (Units=1/GPa)
#
#
# Indices 1 2 3 4 5 6 
#
# 1 0.009768 -0.003645 -0.009023 0.000000 0.000000 0.000000
# 2 -0.003645 0.054244 0.006072 0.000000 0.000000 0.000000
# 3 -0.009023 0.006072 0.026790 0.000000 0.000000 0.000000
# 4 0.000000 0.000000 0.000000 0.135575 0.000000 0.000000
# 5 0.000000 0.000000 0.000000 0.000000 0.049224 0.000000
# 6 0.000000 0.000000 0.000000 0.000000 0.000000 0.048020
#
#
# Mechanical properties :
#
#
# Convention : Reuss Voigt Hill
#
# Bulk Modulus (GPa) = 12.88501 36.17465 24.52983
# Shear Modulus (GPa) = 13.78616 21.18333 17.48475
#
# Velocity S-wave (km/s) = 2.86167 3.54727 3.22276
# Velocity P-wave (km/s) = 4.30961 6.18593 5.33097
#
# Compressibility (1/GPa) = 0.07760956
#
# Stress axis : x y z
#
# Youngs Moduli (GPa) = 102.37105 18.43536 37.32752
#
# Poissons Ratio (x) = 0.06719 0.33681
# Poissons Ratio (y) = 0.37312 -0.22664
# Poissons Ratio (z) = 0.92370 -0.11193
#
# Static dielectric constant tensor:
#      x y z
#    x 1.628640 0.000000 0.000000 
#    y 0.000000 1.602650 0.000000 
#    z 0.000000 0.000000 1.545080 
# 
# From -- ./inp_files/24959.got.cif
#   From: 2010.05.17/outbox.cif.g08.bks.cpg/sg59_13_cif.got.tgz:24959.got - 2010.06.03 14:40:33.
