data_PCOD9446934
_publ_section_title
;
Structure prediction by ZEFSAII (Michael W. Deem and Ramdas Pophale) SiO2 
 PCOD9446934
Probable space group: P M M N
;
_chemical_formula_sum "Si O2"
_cell_formula_units_Z 48
_cell_length_a 18.554379
_cell_length_b 8.708407
_cell_length_c 15.205329
_cell_angle_alpha 90.000000
_cell_angle_beta 90.000000
_cell_angle_gamma 90.000000
_cell_volume 2456.863131
_symmetry_space_group_name_H-M "P M M N"
_symmetry_group_IT_number 59
_space_group.IT_coordinate_system_code '2'
_symmetry_cell_setting 'orthorhombic'
loop_
_space_group_symop_operation_xyz
x,y,z
1/2-x,1/2-y,z
1/2+x,-y,-z
-x,1/2+y,-z
-x,-y,-z
1/2+x,1/2+y,-z
1/2-x,y,z
x,1/2-y,z
loop_
_atom_site_type_symbol
_atom_site_label
_atom_site_fract_x
_atom_site_fract_y
_atom_site_fract_z
Si Si1 0.471090 0.932694 0.591436
Si Si2 0.167193 0.066667 0.969299
Si Si3 0.616616 0.432669 0.844306
Si Si4 0.830634 0.565267 0.467159
Si Si5 0.378015 0.434147 0.335567
Si Si6 0.973494 0.066062 0.093601
O O1 0.466290 0.750000 0.586256
O O2 0.536381 0.969062 0.656590
O O3 0.500000 0.000000 0.500000
O O4 0.391417 0.000374 0.597609
O O5 0.250000 0.035033 0.945664
O O6 0.155442 0.250000 0.969990
O O7 0.152916 0.004735 0.068530
O O8 0.108953 0.989912 0.904099
O O9 0.617562 0.250000 0.852664
O O10 0.650761 0.485984 0.752084
O O11 0.534104 0.494354 0.844244
O O12 0.750000 0.519262 0.442922
O O13 0.836136 0.750000 0.466381
O O14 0.845186 0.519384 0.569585
O O15 0.368880 0.250000 0.327348
O O16 0.977046 0.250000 0.096513
O O17 0.000000 0.000000 0.000000
#
# Coordination Sequence:
#
# PCOD9446934 Si02
#       6
#     8   8   8   8   8   8
#     4   9  17  30  49  70  93 124 162 202 239 282
#     4  10  20  34  52  73  99 130 161 195 238 287
#     4  11  21  32  49  73 100 128 162 202 241 283
#     4   9  18  32  50  72  99 130 161 196 240 289
#     4   9  18  32  48  69  98 130 163 197 239 288
#     4  10  18  31  51  71  95 126 162 200 236 280
#
# _framework density 19.537106999999999
#
# number of rings (size 3 to 8) (size 9 to 14) (size 15 to 20)
#    0.000    2.333    0.000    7.000    0.000    5.667 
#    0.000    1.667    0.000    1.000    0.000    4.667 
#    0.000    0.000    0.000    0.000    0.000    0.000 
#
# Total GULP energy -267551.914987 kJ/mol
# GULP energy per Si atom -5573.998229 kJ/mol
# Density = 1.949264 g / cm^3
# Si number density = 19.537107 Si / 1000 Ang^3
#
#
#
# Elastic Constant Matrix: (Units=GPa)
#
#
# Indices 1 2 3 4 5 6 
#
# 1 95.1505 20.2673 -22.8950 0.0000 0.0000 0.0000
# 2 20.2673 58.4958 -3.3704 0.0000 0.0000 0.0000
# 3 -22.8950 -3.3704 14.3338 0.0000 0.0000 0.0000
# 4 0.0000 0.0000 0.0000 14.4566 0.0000 0.0000
# 5 0.0000 0.0000 0.0000 0.0000 11.1079 0.0000
# 6 0.0000 0.0000 0.0000 0.0000 0.0000 28.5804
#
#
#
# Elastic Compliance Matrix: (Units=1/GPa)
#
#
# Indices 1 2 3 4 5 6 
#
# 1 0.018268 -0.004712 0.028070 0.000000 0.000000 0.000000
# 2 -0.004712 0.018545 -0.003165 0.000000 0.000000 0.000000
# 3 0.028070 -0.003165 0.113857 0.000000 0.000000 0.000000
# 4 0.000000 0.000000 0.000000 0.069173 0.000000 0.000000
# 5 0.000000 0.000000 0.000000 0.000000 0.090026 0.000000
# 6 0.000000 0.000000 0.000000 0.000000 0.000000 0.034989
#
#
# Mechanical properties :
#
#
# Convention : Reuss Voigt Hill
#
# Bulk Modulus (GPa) = 5.23406 17.33154 11.28280
# Shear Modulus (GPa) = 13.58116 22.42753 18.00435
#
# Velocity S-wave (km/s) = 2.63942 3.39181 3.03899
# Velocity P-wave (km/s) = 3.46029 4.92235 4.25459
#
# Compressibility (1/GPa) = 0.19105612
#
# Stress axis : x y z
#
# Youngs Moduli (GPa) = 54.74179 53.92175 8.78294
#
# Poissons Ratio (x) = 0.25407 -0.24654
# Poissons Ratio (y) = 0.25794 0.02780
# Poissons Ratio (z) = -1.53663 0.17069
#
# Static dielectric constant tensor:
#      x y z
#    x 1.754310 0.000000 0.000000 
#    y 0.000000 1.652160 0.000000 
#    z 0.000000 0.000000 1.642770 
# 
# From -- ./inp_files/27792.got.cif
#   From: 2010.05.17/outbox.cif.g08.bks.cpg/sg59_14_cif.got.tgz:27792.got - 2010.06.03 14:40:33.
