data_PCOD9446666
_publ_section_title
;
Structure prediction by ZEFSAII (Michael W. Deem and Ramdas Pophale) SiO2 
 PCOD9446666
Probable space group: P M M N
;
_chemical_formula_sum "Si O2"
_cell_formula_units_Z 56
_cell_length_a 7.694034
_cell_length_b 23.482340
_cell_length_c 15.239248
_cell_angle_alpha 90.000000
_cell_angle_beta 90.000000
_cell_angle_gamma 90.000000
_cell_volume 2753.334710
_symmetry_space_group_name_H-M "P M M N"
_symmetry_group_IT_number 59
_space_group.IT_coordinate_system_code '2'
_symmetry_cell_setting 'orthorhombic'
loop_
_space_group_symop_operation_xyz
x,y,z
1/2-x,1/2-y,z
1/2+x,-y,-z
-x,1/2+y,-z
-x,-y,-z
1/2+x,1/2+y,-z
1/2-x,y,z
x,1/2-y,z
loop_
_atom_site_type_symbol
_atom_site_label
_atom_site_fract_x
_atom_site_fract_y
_atom_site_fract_z
Si Si1 0.540148 0.147222 0.120573
Si Si2 0.459632 0.812893 0.689989
Si Si3 0.043006 0.427962 0.415450
Si Si4 0.454984 0.054578 0.611756
Si Si5 0.958495 0.019377 0.098355
Si Si6 0.541657 0.687560 0.074232
Si Si7 0.463847 0.089129 0.795432
O O1 0.750000 0.146572 0.124385
O O2 0.479691 0.177463 0.209495
O O3 0.474333 0.082227 0.118374
O O4 0.493476 0.174614 0.027659
O O5 0.250000 0.811391 0.691225
O O6 0.519727 0.750000 0.659106
O O7 0.505532 0.868771 0.633432
O O8 0.250000 0.434612 0.418329
O O9 0.972884 0.429884 0.515803
O O10 0.974607 0.486568 0.372483
O O11 0.250000 0.066421 0.607485
O O12 0.523570 0.089375 0.694914
O O13 0.750000 0.021852 0.106406
O O14 0.021506 0.970566 0.163028
O O15 0.000000 0.000000 0.000000
O O16 0.750000 0.688191 0.084054
O O17 0.472944 0.750000 0.096156
O O18 0.476097 0.638991 0.139911
O O19 0.250000 0.089688 0.795795
#
# Coordination Sequence:
#
# PCOD9446666 Si02
#       7
#     8   8   8   8   8   8   8
#     4  10  20  34  53  75  99 135 178 213 253 309
#     4  10  21  37  56  76 103 144 185 216 256 317
#     4  10  20  34  55  84 110 132 166 220 273 311
#     4   9  18  35  58  79 104 139 174 209 260 322
#     4  10  18  29  48  73 100 129 163 205 251 294
#     4  10  20  33  50  72  99 133 171 211 254 298
#     4   9  17  32  52  73 100 134 170 207 248 302
#
# _framework density 20.338972999999999
#
# number of rings (size 3 to 8) (size 9 to 14) (size 15 to 20)
#    0.000    2.286    1.429    1.714    0.000    4.571 
#    0.000    3.571    0.000    2.571    0.000    0.000 
#    0.000    0.000    0.000    0.000    0.000    0.000 
#
# Total GULP energy -312512.652649 kJ/mol
# GULP energy per Si atom -5580.583083 kJ/mol
# Density = 2.029268 g / cm^3
# Si number density = 20.338973 Si / 1000 Ang^3
#
#
#
# Elastic Constant Matrix: (Units=GPa)
#
#
# Indices 1 2 3 4 5 6 
#
# 1 31.3458 -9.5025 -6.2914 0.0000 0.0000 0.0000
# 2 -9.5025 104.5649 50.4265 0.0000 0.0000 0.0000
# 3 -6.2914 50.4265 120.0357 0.0000 0.0000 0.0000
# 4 0.0000 0.0000 0.0000 19.8240 0.0000 0.0000
# 5 0.0000 0.0000 0.0000 0.0000 18.1058 0.0000
# 6 0.0000 0.0000 0.0000 0.0000 0.0000 12.0516
#
#
#
# Elastic Compliance Matrix: (Units=1/GPa)
#
#
# Indices 1 2 3 4 5 6 
#
# 1 0.032839 0.002702 0.000586 0.000000 0.000000 0.000000
# 2 0.002702 0.012215 -0.004990 0.000000 0.000000 0.000000
# 3 0.000586 -0.004990 0.010458 0.000000 0.000000 0.000000
# 4 0.000000 0.000000 0.000000 0.050444 0.000000 0.000000
# 5 0.000000 0.000000 0.000000 0.000000 0.055231 0.000000
# 6 0.000000 0.000000 0.000000 0.000000 0.000000 0.082977
#
#
# Mechanical properties :
#
#
# Convention : Reuss Voigt Hill
#
# Bulk Modulus (GPa) = 19.19102 36.13461 27.66281
# Shear Modulus (GPa) = 18.87237 24.75052 21.81144
#
# Velocity S-wave (km/s) = 3.04944 3.49220 3.27830
# Velocity P-wave (km/s) = 4.67491 5.83655 5.28773
#
# Compressibility (1/GPa) = 0.05210771
#
# Stress axis : x y z
#
# Youngs Moduli (GPa) = 30.45171 81.86391 95.62170
#
# Poissons Ratio (x) = -0.22116 -0.05606
# Poissons Ratio (y) = -0.08227 0.47716
# Poissons Ratio (z) = -0.01785 0.40850
#
# Static dielectric constant tensor:
#      x y z
#    x 1.753730 0.000000 0.000000 
#    y 0.000000 1.717420 0.000000 
#    z 0.000000 0.000000 1.736360 
# 
# From -- ./inp_files/21020.got.cif
#   From: 2010.05.17/outbox.cif.g08.bks.cpg/sg59_11_cif.got.tgz:21020.got - 2010.06.03 14:40:33.
