data_PCOD9446610
_publ_section_title
;
Structure prediction by ZEFSAII (Michael W. Deem and Ramdas Pophale) SiO2 
 PCOD9446610
Probable space group: P M M N
;
_chemical_formula_sum "Si O2"
_cell_formula_units_Z 64
_cell_length_a 8.690870
_cell_length_b 22.375124
_cell_length_c 19.674511
_cell_angle_alpha 90.000000
_cell_angle_beta 90.000000
_cell_angle_gamma 90.000000
_cell_volume 3825.891517
_symmetry_space_group_name_H-M "P M M N"
_symmetry_group_IT_number 59
_space_group.IT_coordinate_system_code '2'
_symmetry_cell_setting 'orthorhombic'
loop_
_space_group_symop_operation_xyz
x,y,z
1/2-x,1/2-y,z
1/2+x,-y,-z
-x,1/2+y,-z
-x,-y,-z
1/2+x,1/2+y,-z
1/2-x,y,z
x,1/2-y,z
loop_
_atom_site_type_symbol
_atom_site_label
_atom_site_fract_x
_atom_site_fract_y
_atom_site_fract_z
Si Si1 0.934831 0.558187 0.461530
Si Si2 0.565671 0.992802 0.325164
Si Si3 0.928891 0.181731 0.298437
Si Si4 0.931109 0.607315 0.596528
Si Si5 0.565462 0.942392 0.041593
Si Si6 0.932737 0.492185 0.826107
Si Si7 0.065704 0.878908 0.841709
Si Si8 0.435780 0.182359 0.030466
O O1 0.750000 0.553863 0.459069
O O2 0.984033 0.555638 0.382945
O O3 0.975735 0.608448 0.516913
O O4 0.000000 0.500000 0.500000
O O5 0.750000 0.991867 0.316349
O O6 0.518531 0.055263 0.361304
O O7 0.490521 0.985568 0.251468
O O8 0.750000 0.169652 0.314651
O O9 0.942460 0.250000 0.277567
O O10 0.972694 0.141945 0.234205
O O11 0.029161 0.166806 0.363523
O O12 0.750000 0.593899 0.600599
O O13 0.750000 0.946302 0.037948
O O14 0.509756 0.948374 0.119258
O O15 0.518352 0.877045 0.012417
O O16 0.500000 0.000000 0.000000
O O17 0.750000 0.486732 0.828396
O O18 0.983182 0.558003 0.851510
O O19 0.250000 0.886028 0.847016
O O20 0.007300 0.830992 0.895842
O O21 0.250000 0.181279 0.034653
O O22 0.479450 0.250000 0.007483
#
# Coordination Sequence:
#
# PCOD9446610 Si02
#       8
#     8   8   8   8   8   8   8   8
#     4   8  16  28  44  67  94 123 157 195 238 292
#     4  10  18  31  49  70  98 131 164 202 252 307
#     4  10  21  34  46  65  97 138 180 216 251 300
#     4  10  18  29  46  69  96 128 165 207 253 299
#     4  11  22  37  57  80 109 142 175 215 265 319
#     4  12  23  34  51  77 107 139 176 218 262 313
#     4  11  21  34  53  74 101 139 180 217 258 310
#     4  10  22  39  58  80 106 137 176 220 264 313
#
# _framework density 16.728128000000002
#
# number of rings (size 3 to 8) (size 9 to 14) (size 15 to 20)
#    0.000    1.750    2.500    3.000    0.000    3.000 
#    0.000    0.000    0.000    0.000    0.000    0.875 
#    0.000    3.000    0.000    0.000    0.000    0.000 
#
# Total GULP energy -356634.332736 kJ/mol
# GULP energy per Si atom -5572.411449 kJ/mol
# Density = 1.669005 g / cm^3
# Si number density = 16.728128 Si / 1000 Ang^3
#
#
#
# Elastic Constant Matrix: (Units=GPa)
#
#
# Indices 1 2 3 4 5 6 
#
# 1 25.0877 25.6020 21.9841 0.0000 0.0000 0.0000
# 2 25.6020 71.9351 40.4798 0.0000 0.0000 0.0000
# 3 21.9841 40.4798 98.4871 0.0000 0.0000 0.0000
# 4 0.0000 0.0000 0.0000 22.5306 0.0000 0.0000
# 5 0.0000 0.0000 0.0000 0.0000 22.4826 0.0000
# 6 0.0000 0.0000 0.0000 0.0000 0.0000 17.7238
#
#
#
# Elastic Compliance Matrix: (Units=1/GPa)
#
#
# Indices 1 2 3 4 5 6 
#
# 1 0.065714 -0.019687 -0.006577 0.000000 0.000000 0.000000
# 2 -0.019687 0.023982 -0.005462 0.000000 0.000000 0.000000
# 3 -0.006577 -0.005462 0.013867 0.000000 0.000000 0.000000
# 4 0.000000 0.000000 0.000000 0.044384 0.000000 0.000000
# 5 0.000000 0.000000 0.000000 0.000000 0.044479 0.000000
# 6 0.000000 0.000000 0.000000 0.000000 0.000000 0.056421
#
#
# Mechanical properties :
#
#
# Convention : Reuss Voigt Hill
#
# Bulk Modulus (GPa) = 24.93136 41.29354 33.11245
# Shear Modulus (GPa) = 15.35298 19.71032 17.53165
#
# Velocity S-wave (km/s) = 3.03280 3.43632 3.24085
# Velocity P-wave (km/s) = 5.21536 6.36263 5.81735
#
# Compressibility (1/GPa) = 0.04011013
#
# Stress axis : x y z
#
# Youngs Moduli (GPa) = 15.21748 41.69803 72.11425
#
# Poissons Ratio (x) = 0.82090 0.47429
# Poissons Ratio (y) = 0.29958 0.39392
# Poissons Ratio (z) = 0.10008 0.22778
#
# Static dielectric constant tensor:
#      x y z
#    x 1.569960 0.000000 0.000000 
#    y 0.000000 1.586910 0.000000 
#    z 0.000000 0.000000 1.597980 
# 
# From -- ./inp_files/26463.got.cif
#   From: 2010.05.17/outbox.cif.g08.bks.cpg/sg59_14_cif.got.tgz:26463.got - 2010.06.03 14:40:33.
