data_PCOD9446050
_publ_section_title
;
Structure prediction by ZEFSAII (Michael W. Deem and Ramdas Pophale) SiO2 
 PCOD9446050
Probable space group: P N N M
;
_chemical_formula_sum "Si O2"
_cell_formula_units_Z 64
_cell_length_a 30.000000
_cell_length_b 12.000000
_cell_length_c 9.000000
_cell_angle_alpha 90.000000
_cell_angle_beta 90.000000
_cell_angle_gamma 90.000000
_cell_volume 3240.000000
_symmetry_space_group_name_H-M "P N N M"
_symmetry_group_IT_number 58
_symmetry_cell_setting 'orthorhombic'
loop_
_space_group_symop_operation_xyz
x,y,z
-x,-y,z
1/2+x,1/2-y,1/2-z
1/2-x,1/2+y,1/2-z
-x,-y,-z
x,y,-z
1/2-x,1/2+y,1/2+z
1/2+x,1/2-y,1/2+z
loop_
_atom_site_type_symbol
_atom_site_label
_atom_site_fract_x
_atom_site_fract_y
_atom_site_fract_z
Si Si1 0.427061 0.578580 0.822728
Si Si2 0.323932 0.294290 0.677216
Si Si3 0.850475 0.799179 0.171579
Si Si4 0.334986 0.038944 0.679250
Si Si5 0.079927 0.828512 0.679083
Si Si6 0.491198 0.780641 0.179266
Si Si7 0.082613 0.415628 0.172185
Si Si8 0.731188 0.155628 0.680222
O O1 0.378177 0.609861 0.761368
O O2 0.439045 0.451967 0.786970
O O3 0.462915 0.670622 0.772720
O O4 0.425295 0.587556 0.000000
O O5 0.324218 0.312747 0.500000
O O6 0.319952 0.162704 0.709687
O O7 0.371953 0.323970 0.745088
O O8 0.279984 0.346991 0.749894
O O9 0.882832 0.689901 0.176311
O O10 0.801376 0.759829 0.222307
O O11 0.847116 0.833765 0.000000
O O12 0.338351 0.025653 0.500000
O O13 0.384977 0.011714 0.735386
O O14 0.298000 0.950945 0.728837
O O15 0.085217 0.819786 0.500000
O O16 0.042324 0.739101 0.726832
O O17 0.462101 0.882386 0.242336
O O18 0.490881 0.785779 0.000000
O O19 0.071311 0.436667 0.000000
O O20 0.734381 0.156231 0.500000
#
# Coordination Sequence:
#
# PCOD9446050 Si02
#       8
#     8   8   8   8   8   8   8   8
#     4   9  17  30  51  76 102 135 171 205 246 300
#     4  11  23  37  53  76 103 131 170 214 248 287
#     4   8  15  28  49  77 104 128 160 205 251 295
#     4   8  17  36  58  75  98 134 168 200 245 303
#     4  10  21  36  50  68 102 143 173 202 251 306
#     4   9  17  31  52  77 102 130 169 212 248 291
#     4   8  14  29  53  76  97 126 164 203 247 297
#     4   9  18  36  58  76  99 134 169 201 249 306
#
# _framework density 19.753086
#
# number of rings (size 3 to 8) (size 9 to 14) (size 15 to 20)
#    0.000    3.000    0.000    2.250    0.000    4.000 
#    0.000    8.750    0.000    7.500    0.000    0.000 
#    0.000    0.000    0.000    0.000    0.000    0.000 
#
# Total GULP energy -356640.992767 kJ/mol
# GULP energy per Si atom -5572.515512 kJ/mol
# Density = 1.970813 g / cm^3
# Si number density = 19.753086 Si / 1000 Ang^3
#
#
#
# Elastic Constant Matrix: (Units=GPa)
#
#
# Indices 1 2 3 4 5 6 
#
# 1 125.3584 18.9914 24.3097 0.0000 0.0000 0.0000
# 2 18.9914 31.6376 9.5228 0.0000 0.0000 0.0000
# 3 24.3097 9.5228 13.9168 0.0000 0.0000 0.0000
# 4 0.0000 0.0000 0.0000 7.9903 0.0000 0.0000
# 5 0.0000 0.0000 0.0000 0.0000 29.9522 0.0000
# 6 0.0000 0.0000 0.0000 0.0000 0.0000 24.8462
#
#
#
# Elastic Compliance Matrix: (Units=1/GPa)
#
#
# Indices 1 2 3 4 5 6 
#
# 1 0.012096 -0.001135 -0.020352 0.000000 0.000000 0.000000
# 2 -0.001135 0.039913 -0.025329 0.000000 0.000000 0.000000
# 3 -0.020352 -0.025329 0.124738 0.000000 0.000000 0.000000
# 4 0.000000 0.000000 0.000000 0.125152 0.000000 0.000000
# 5 0.000000 0.000000 0.000000 0.000000 0.033387 0.000000
# 6 0.000000 0.000000 0.000000 0.000000 0.000000 0.040248
#
#
# Mechanical properties :
#
#
# Convention : Reuss Voigt Hill
#
# Bulk Modulus (GPa) = 12.03149 30.72895 21.38022
# Shear Modulus (GPa) = 10.06299 20.43035 15.24667
#
# Velocity S-wave (km/s) = 2.25952 3.21952 2.78126
# Velocity P-wave (km/s) = 3.59325 5.42317 4.60012
#
# Compressibility (1/GPa) = 0.08311525
#
# Stress axis : x y z
#
# Youngs Moduli (GPa) = 82.67349 25.05442 8.01678
#
# Poissons Ratio (x) = 0.02843 0.16316
# Poissons Ratio (y) = 0.09382 0.20306
# Poissons Ratio (z) = 1.68259 0.63460
#
# Static dielectric constant tensor:
#      x y z
#    x 1.696680 0.000000 0.000000 
#    y 0.000000 1.751980 0.000000 
#    z 0.000000 0.000000 1.665850 
# 
# From -- ./inp_files/10970.got.cif
#   From: 2010.05.17/outbox.ucp.g08.bks.cvg/sg58_6_cif.got.tgz:10970.got - 2010.06.11 16:41:41.
