data_PCOD9446193
_publ_section_title
;
Structure prediction by ZEFSAII (Michael W. Deem and Ramdas Pophale) SiO2 
 PCOD9446193
Probable space group: P M M N
;
_chemical_formula_sum "Si O2"
_cell_formula_units_Z 56
_cell_length_a 7.652992
_cell_length_b 28.750419
_cell_length_c 14.485856
_cell_angle_alpha 90.000000
_cell_angle_beta 90.000000
_cell_angle_gamma 90.000000
_cell_volume 3187.275478
_symmetry_space_group_name_H-M "P M M N"
_symmetry_group_IT_number 59
_space_group.IT_coordinate_system_code '2'
_symmetry_cell_setting 'orthorhombic'
loop_
_space_group_symop_operation_xyz
x,y,z
1/2-x,1/2-y,z
1/2+x,-y,-z
-x,1/2+y,-z
-x,-y,-z
1/2+x,1/2+y,-z
1/2-x,y,z
x,1/2-y,z
loop_
_atom_site_type_symbol
_atom_site_label
_atom_site_fract_x
_atom_site_fract_y
_atom_site_fract_z
Si Si1 0.539669 0.301204 0.245333
Si Si2 0.959748 0.511406 0.604991
Si Si3 0.450512 0.955920 0.889503
Si Si4 0.536981 0.301873 0.031613
Si Si5 0.544011 0.599476 0.716096
Si Si6 0.465098 0.603386 0.061777
Si Si7 0.549541 0.455568 0.776294
O O1 0.750000 0.300581 0.244162
O O2 0.479786 0.250000 0.276550
O O3 0.481503 0.307392 0.138559
O O4 0.485177 0.346383 0.301940
O O5 0.750000 0.510768 0.613771
O O6 0.017504 0.562618 0.639162
O O7 0.029814 0.474303 0.680580
O O8 0.000000 0.500000 0.500000
O O9 0.250000 0.970204 0.904034
O O10 0.454849 0.915554 0.811957
O O11 0.547310 0.999373 0.843863
O O12 0.520278 0.933747 0.983457
O O13 0.750000 0.302609 0.031959
O O14 0.483596 0.250000 0.001042
O O15 0.479298 0.345447 0.970504
O O16 0.750000 0.592254 0.729905
O O17 0.250000 0.602652 0.061240
O O18 0.526536 0.585696 0.161534
O O19 0.750000 0.442696 0.756712
#
# Coordination Sequence:
#
# PCOD9446193 Si02
#       7
#     8   8   8   8   8   8   8
#     4   9  16  27  44  66  92 121 154 184 208 246
#     4   9  19  33  47  63  83 110 144 185 231 274
#     4  10  17  26  41  61  86 118 151 173 203 253
#     4   8  13  22  38  61  87 115 148 178 200 233
#     4  10  19  30  44  65  92 119 147 183 225 264
#     4   9  15  24  40  60  86 118 146 173 207 250
#     4   9  18  30  42  61  87 110 139 180 223 263
#
# _framework density 17.569866999999999
#
# number of rings (size 3 to 8) (size 9 to 14) (size 15 to 20)
#    0.000    2.857    1.429    3.000    0.000    3.143 
#    0.000    0.714    0.000    0.000    0.000    1.000 
#    0.000    3.429    0.000    0.000    0.000    0.000 
#
# Total GULP energy -312036.815678 kJ/mol
# GULP energy per Si atom -5572.085994 kJ/mol
# Density = 1.752988 g / cm^3
# Si number density = 17.569867 Si / 1000 Ang^3
#
#
#
# Elastic Constant Matrix: (Units=GPa)
#
#
# Indices 1 2 3 4 5 6 
#
# 1 37.2671 -0.2378 3.1811 0.0000 0.0000 0.0000
# 2 -0.2378 84.0635 58.5731 0.0000 0.0000 0.0000
# 3 3.1811 58.5731 111.6921 0.0000 0.0000 0.0000
# 4 0.0000 0.0000 0.0000 18.2761 0.0000 0.0000
# 5 0.0000 0.0000 0.0000 0.0000 -0.1187 0.0000
# 6 0.0000 0.0000 0.0000 0.0000 0.0000 14.1061
#
#
#
# Elastic Compliance Matrix: (Units=1/GPa)
#
#
# Indices 1 2 3 4 5 6 
#
# 1 0.026948 0.000963 -0.001272 0.000000 0.000000 0.000000
# 2 0.000963 0.018780 -0.009876 0.000000 0.000000 0.000000
# 3 -0.001272 -0.009876 0.014168 0.000000 0.000000 0.000000
# 4 0.000000 0.000000 0.000000 0.054716 0.000000 0.000000
# 5 0.000000 0.000000 0.000000 0.000000 -8.425736 0.000000
# 6 0.000000 0.000000 0.000000 0.000000 0.000000 0.070891
#
#
# Mechanical properties :
#
#
# Convention : Reuss Voigt Hill
#
# Bulk Modulus (GPa) = 25.30018 39.56172 32.43095
# Shear Modulus (GPa) = -0.60926 17.88646 8.63860
#
# Velocity S-wave (km/s) = -0.58951 3.19410 2.21977
# Velocity P-wave (km/s) = 3.73733 6.01404 5.00682
#
# Compressibility (1/GPa) = 0.03952542
#
# Stress axis : x y z
#
# Youngs Moduli (GPa) = 37.10841 53.24915 70.57951
#
# Poissons Ratio (x) = -0.05127 0.08981
# Poissons Ratio (y) = -0.03573 0.69703
# Poissons Ratio (z) = 0.04722 0.52588
#
# Static dielectric constant tensor:
#      x y z
#    x 1.663370 0.000000 0.000000 
#    y 0.000000 1.641160 0.000000 
#    z 0.000000 0.000000 1.584610 
# 
# From -- ./inp_files/21754.got.cif
#   From: 2010.05.17/outbox.cif.g08.bks.cpg/sg59_11_cif.got.tgz:21754.got - 2010.06.03 14:40:33.
