data_PCOD9446388
_publ_section_title
;
Structure prediction by ZEFSAII (Michael W. Deem and Ramdas Pophale) SiO2 
 PCOD9446388
Probable space group: P M M N
;
_chemical_formula_sum "Si O2"
_cell_formula_units_Z 56
_cell_length_a 9.124262
_cell_length_b 21.685037
_cell_length_c 18.013475
_cell_angle_alpha 90.000000
_cell_angle_beta 90.000000
_cell_angle_gamma 90.000000
_cell_volume 3564.145426
_symmetry_space_group_name_H-M "P M M N"
_symmetry_group_IT_number 59
_space_group.IT_coordinate_system_code '2'
_symmetry_cell_setting 'orthorhombic'
loop_
_space_group_symop_operation_xyz
x,y,z
1/2-x,1/2-y,z
1/2+x,-y,-z
-x,1/2+y,-z
-x,-y,-z
1/2+x,1/2+y,-z
1/2-x,y,z
x,1/2-y,z
loop_
_atom_site_type_symbol
_atom_site_label
_atom_site_fract_x
_atom_site_fract_y
_atom_site_fract_z
Si Si1 0.922586 0.895537 0.209351
Si Si2 0.080807 0.584261 0.059117
Si Si3 0.419236 0.436150 0.089097
Si Si4 0.423532 0.087739 0.550193
Si Si5 0.423481 0.676819 0.342350
Si Si6 0.923507 0.963671 0.609629
Si Si7 0.077556 0.542501 0.760857
O O1 0.750000 0.881449 0.208028
O O2 0.994250 0.887375 0.128460
O O3 0.004705 0.855551 0.270874
O O4 0.937954 0.968067 0.230180
O O5 0.250000 0.416954 0.093692
O O6 0.079994 0.510083 0.073132
O O7 0.001378 0.594123 0.980639
O O8 0.750000 0.396028 0.942442
O O9 0.503128 0.428152 0.166600
O O10 0.250000 0.086829 0.566719
O O11 0.499012 0.146678 0.586352
O O12 0.442831 0.080280 0.461818
O O13 0.498598 0.027842 0.587314
O O14 0.250000 0.663639 0.343987
O O15 0.444691 0.750000 0.339734
O O16 0.750000 0.974053 0.620299
O O17 0.996641 0.940097 0.684928
O O18 0.250000 0.556201 0.757974
#
# Coordination Sequence:
#
# PCOD9446388 Si02
#       7
#     8   8   8   8   8   8   8
#     4  10  19  30  45  64  87 118 156 192 230 276
#     4   9  16  26  40  58  84 117 151 186 222 263
#     4   9  16  25  38  58  86 119 152 184 221 262
#     4  10  20  33  48  68  90 119 155 192 237 285
#     4  11  23  36  50  68  91 121 158 199 241 283
#     4  10  19  30  47  68  93 121 153 192 234 284
#     4  10  18  27  42  65  92 121 155 189 228 277
#
# _framework density 15.712040999999999
#
# number of rings (size 3 to 8) (size 9 to 14) (size 15 to 20)
#    0.000    2.143    1.429    3.000    0.000    7.429 
#    0.000    0.000    0.000    0.000    0.000    0.000 
#    0.000    1.143    0.000    8.286    0.000    7.000 
#
# Total GULP energy -312366.868774 kJ/mol
# GULP energy per Si atom -5577.979800 kJ/mol
# Density = 1.567628 g / cm^3
# Si number density = 15.712041 Si / 1000 Ang^3
#
#
#
# Elastic Constant Matrix: (Units=GPa)
#
#
# Indices 1 2 3 4 5 6 
#
# 1 150.4706 37.7634 95.2809 0.0000 0.0000 0.0000
# 2 37.7634 28.5787 25.0208 0.0000 0.0000 0.0000
# 3 95.2809 25.0208 147.2480 0.0000 0.0000 0.0000
# 4 0.0000 0.0000 0.0000 8.7260 0.0000 0.0000
# 5 0.0000 0.0000 0.0000 0.0000 34.4980 0.0000
# 6 0.0000 0.0000 0.0000 0.0000 0.0000 15.2972
#
#
#
# Elastic Compliance Matrix: (Units=1/GPa)
#
#
# Indices 1 2 3 4 5 6 
#
# 1 0.014350 -0.012726 -0.007123 0.000000 0.000000 0.000000
# 2 -0.012726 0.052391 -0.000668 0.000000 0.000000 0.000000
# 3 -0.007123 -0.000668 0.011514 0.000000 0.000000 0.000000
# 4 0.000000 0.000000 0.000000 0.114600 0.000000 0.000000
# 5 0.000000 0.000000 0.000000 0.000000 0.028987 0.000000
# 6 0.000000 0.000000 0.000000 0.000000 0.000000 0.065372
#
#
# Mechanical properties :
#
#
# Convention : Reuss Voigt Hill
#
# Bulk Modulus (GPa) = 26.86595 71.38084 49.12339
# Shear Modulus (GPa) = 14.67756 22.91970 18.79863
#
# Velocity S-wave (km/s) = 3.05972 3.82348 3.46272
# Velocity P-wave (km/s) = 5.44230 8.06358 6.87895
#
# Compressibility (1/GPa) = 0.03722184
#
# Stress axis : x y z
#
# Youngs Moduli (GPa) = 69.68567 19.08707 86.85001
#
# Poissons Ratio (x) = 0.24289 0.61866
# Poissons Ratio (y) = 0.88679 0.05802
# Poissons Ratio (z) = 0.49639 0.01275
#
# Static dielectric constant tensor:
#      x y z
#    x 1.523410 0.000000 0.000000 
#    y 0.000000 1.487540 0.000000 
#    z 0.000000 0.000000 1.531260 
# 
# From -- ./inp_files/26077.got.cif
#   From: 2010.05.17/outbox.cif.g08.bks.cpg/sg59_14_cif.got.tgz:26077.got - 2010.06.03 14:40:33.
