data_PCOD9446513
_publ_section_title
;
Structure prediction by ZEFSAII (Michael W. Deem and Ramdas Pophale) SiO2 
 PCOD9446513
Probable space group: P M M N
;
_chemical_formula_sum "Si O2"
_cell_formula_units_Z 56
_cell_length_a 15.133224
_cell_length_b 7.488288
_cell_length_c 21.498992
_cell_angle_alpha 90.000000
_cell_angle_beta 90.000000
_cell_angle_gamma 90.000000
_cell_volume 2436.307475
_symmetry_space_group_name_H-M "P M M N"
_symmetry_group_IT_number 59
_space_group.IT_coordinate_system_code '2'
_symmetry_cell_setting 'orthorhombic'
loop_
_space_group_symop_operation_xyz
x,y,z
1/2-x,1/2-y,z
1/2+x,-y,-z
-x,1/2+y,-z
-x,-y,-z
1/2+x,1/2+y,-z
1/2-x,y,z
x,1/2-y,z
loop_
_atom_site_type_symbol
_atom_site_label
_atom_site_fract_x
_atom_site_fract_y
_atom_site_fract_z
Si Si1 0.850928 0.957145 0.966792
Si Si2 0.844789 0.035874 0.729295
Si Si3 0.036097 0.465688 0.774650
Si Si4 0.926308 0.962635 0.604423
Si Si5 0.651781 0.535743 0.479560
Si Si6 0.387602 0.050102 0.653194
Si Si7 0.464022 0.539459 0.915997
O O1 0.750000 0.031146 0.962212
O O2 0.843812 0.750000 0.948275
O O3 0.935804 0.033533 0.928569
O O4 0.890749 0.964513 0.036803
O O5 0.750000 0.970020 0.753896
O O6 0.845493 0.250000 0.736273
O O7 0.935820 0.968589 0.760266
O O8 0.851456 0.992562 0.655859
O O9 0.035584 0.250000 0.768404
O O10 0.104512 0.532249 0.721657
O O11 0.059746 0.511269 0.844611
O O12 0.942754 0.750000 0.600962
O O13 0.909506 0.030981 0.534900
O O14 0.009845 0.058380 0.633822
O O15 0.750000 0.511837 0.504361
O O16 0.636402 0.750000 0.473539
O O17 0.649034 0.462133 0.409585
O O18 0.349763 0.250000 0.658540
O O19 0.467512 0.750000 0.929539
#
# Coordination Sequence:
#
# PCOD9446513 Si02
#       7
#     8   8   8   8   8   8   8
#     4   9  19  37  59  82 109 140 173 207 245 296
#     4   9  18  32  48  68  97 132 170 209 248 298
#     4   9  18  32  49  70  98 134 172 205 242 291
#     4  10  18  28  46  70  94 120 154 202 259 310
#     4   9  17  29  46  68  91 116 154 207 259 301
#     4   9  18  33  50  66  90 127 168 203 237 290
#     4  10  20  34  55  83 112 140 171 210 254 297
#
# _framework density 22.985603999999999
#
# number of rings (size 3 to 8) (size 9 to 14) (size 15 to 20)
#    0.000    2.714    0.000    2.571    0.000    4.571 
#    0.000    1.429    0.000    4.714    0.000    0.000 
#    0.000    0.000    0.000    0.000    0.000    0.000 
#
# Total GULP energy -312036.101855 kJ/mol
# GULP energy per Si atom -5572.073247 kJ/mol
# Density = 2.293329 g / cm^3
# Si number density = 22.985604 Si / 1000 Ang^3
#
#
#
# Elastic Constant Matrix: (Units=GPa)
#
#
# Indices 1 2 3 4 5 6 
#
# 1 31.5371 -0.8828 -24.8023 0.0000 0.0000 0.0000
# 2 -0.8828 75.0904 -15.1969 0.0000 0.0000 0.0000
# 3 -24.8023 -15.1969 106.2080 0.0000 0.0000 0.0000
# 4 0.0000 0.0000 0.0000 11.2830 0.0000 0.0000
# 5 0.0000 0.0000 0.0000 0.0000 15.4355 0.0000
# 6 0.0000 0.0000 0.0000 0.0000 0.0000 4.4871
#
#
#
# Elastic Compliance Matrix: (Units=1/GPa)
#
#
# Indices 1 2 3 4 5 6 
#
# 1 0.039253 0.002386 0.009508 0.000000 0.000000 0.000000
# 2 0.002386 0.013859 0.002540 0.000000 0.000000 0.000000
# 3 0.009508 0.002540 0.011999 0.000000 0.000000 0.000000
# 4 0.000000 0.000000 0.000000 0.088629 0.000000 0.000000
# 5 0.000000 0.000000 0.000000 0.000000 0.064786 0.000000
# 6 0.000000 0.000000 0.000000 0.000000 0.000000 0.222859
#
#
# Mechanical properties :
#
#
# Convention : Reuss Voigt Hill
#
# Bulk Modulus (GPa) = 10.64062 14.56350 12.60206
# Shear Modulus (GPa) = 11.26523 23.15565 17.21044
#
# Velocity S-wave (km/s) = 2.21622 3.17740 2.73930
# Velocity P-wave (km/s) = 3.34487 4.45093 3.93694
#
# Compressibility (1/GPa) = 0.09397950
#
# Stress axis : x y z
#
# Youngs Moduli (GPa) = 25.47576 72.15308 83.33822
#
# Poissons Ratio (x) = -0.17214 -0.79237
# Poissons Ratio (y) = -0.06078 -0.21170
# Poissons Ratio (z) = -0.24222 -0.18328
#
# Static dielectric constant tensor:
#      x y z
#    x 1.908600 0.000000 0.000000 
#    y 0.000000 1.881740 0.000000 
#    z 0.000000 0.000000 1.886250 
# 
# From -- ./inp_files/30567.got.cif
#   From: 2010.05.17/outbox.cif.g08.bks.cpg/sg59_16_cif.got.tgz:30567.got - 2010.06.03 14:40:33.
