data_PCOD9446166
_publ_section_title
;
Structure prediction by ZEFSAII (Michael W. Deem and Ramdas Pophale) SiO2 
 PCOD9446166
Probable space group: P M M N
;
_chemical_formula_sum "Si O2"
_cell_formula_units_Z 56
_cell_length_a 27.926805
_cell_length_b 7.399298
_cell_length_c 14.904557
_cell_angle_alpha 90.000000
_cell_angle_beta 90.000000
_cell_angle_gamma 90.000000
_cell_volume 3079.859063
_symmetry_space_group_name_H-M "P M M N"
_symmetry_group_IT_number 59
_space_group.IT_coordinate_system_code '2'
_symmetry_cell_setting 'orthorhombic'
loop_
_space_group_symop_operation_xyz
x,y,z
1/2-x,1/2-y,z
1/2+x,-y,-z
-x,1/2+y,-z
-x,-y,-z
1/2+x,1/2+y,-z
1/2-x,y,z
x,1/2-y,z
loop_
_atom_site_type_symbol
_atom_site_label
_atom_site_fract_x
_atom_site_fract_y
_atom_site_fract_z
Si Si1 0.125169 0.045908 0.970467
Si Si2 0.057264 0.028157 0.825110
Si Si3 0.044248 0.540665 0.107291
Si Si4 0.427145 0.040235 0.439500
Si Si5 0.116695 0.469295 0.263128
Si Si6 0.804934 0.528852 0.878157
Si Si7 0.465482 0.030328 0.623979
O O1 0.140700 0.250000 0.949387
O O2 0.103966 0.965455 0.879247
O O3 0.166560 0.964882 0.033008
O O4 0.078837 0.052837 0.036147
O O5 0.057051 0.250000 0.826937
O O6 0.052506 0.973667 0.721677
O O7 0.009030 0.970028 0.877109
O O8 0.041402 0.750000 0.080853
O O9 0.071952 0.528266 0.201975
O O10 0.414225 0.250000 0.450841
O O11 0.391459 0.964502 0.364304
O O12 0.433679 0.965450 0.539670
O O13 0.480255 0.029917 0.395915
O O14 0.116071 0.250000 0.264378
O O15 0.163906 0.525787 0.208564
O O16 0.750000 0.472536 0.875444
O O17 0.806087 0.750000 0.879973
O O18 0.466414 0.250000 0.622437
#
# Coordination Sequence:
#
# PCOD9446166 Si02
#       7
#     8   8   8   8   8   8   8
#     4   9  17  28  40  54  74  99 129 159 190 226
#     4   9  16  25  37  54  76 104 130 154 183 222
#     4  10  17  25  37  55  78 103 129 153 186 225
#     4   9  16  25  38  56  76 101 130 157 184 215
#     4   9  16  26  40  58  78 100 129 160 190 225
#     4   8  14  25  41  58  73  92 124 165 199 227
#     4   9  16  26  38  53  77 105 130 153 180 219
#
# _framework density 18.182651
#
# number of rings (size 3 to 8) (size 9 to 14) (size 15 to 20)
#    0.000    3.000    1.429    1.714    0.000    0.000 
#    0.000    1.429    0.000    6.857    0.000    1.000 
#    0.000    8.000    0.000    0.000    0.000   18.143 
#
# Total GULP energy -312098.112666 kJ/mol
# GULP energy per Si atom -5573.180583 kJ/mol
# Density = 1.814127 g / cm^3
# Si number density = 18.182651 Si / 1000 Ang^3
#
#
#
# Elastic Constant Matrix: (Units=GPa)
#
#
# Indices 1 2 3 4 5 6 
#
# 1 104.2904 -0.8215 44.9936 0.0000 0.0000 0.0000
# 2 -0.8215 65.8124 -3.9753 0.0000 0.0000 0.0000
# 3 44.9936 -3.9753 87.9480 0.0000 0.0000 0.0000
# 4 0.0000 0.0000 0.0000 5.0871 0.0000 0.0000
# 5 0.0000 0.0000 0.0000 0.0000 16.0336 0.0000
# 6 0.0000 0.0000 0.0000 0.0000 0.0000 5.7088
#
#
#
# Elastic Compliance Matrix: (Units=1/GPa)
#
#
# Indices 1 2 3 4 5 6 
#
# 1 0.012308 -0.000227 -0.006307 0.000000 0.000000 0.000000
# 2 -0.000227 0.015241 0.000805 0.000000 0.000000 0.000000
# 3 -0.006307 0.000805 0.014633 0.000000 0.000000 0.000000
# 4 0.000000 0.000000 0.000000 0.196574 0.000000 0.000000
# 5 0.000000 0.000000 0.000000 0.000000 0.062369 0.000000
# 6 0.000000 0.000000 0.000000 0.000000 0.000000 0.175168
#
#
# Mechanical properties :
#
#
# Convention : Reuss Voigt Hill
#
# Bulk Modulus (GPa) = 32.54830 37.60495 35.07662
# Shear Modulus (GPa) = 10.04034 19.88951 14.96492
#
# Velocity S-wave (km/s) = 2.35243 3.31096 2.87197
# Velocity P-wave (km/s) = 5.03172 5.94502 5.50733
#
# Compressibility (1/GPa) = 0.03072357
#
# Stress axis : x y z
#
# Youngs Moduli (GPa) = 81.24954 65.61462 68.33730
#
# Poissons Ratio (x) = 0.01492 0.43099
# Poissons Ratio (y) = 0.01847 -0.05502
# Poissons Ratio (z) = 0.51243 -0.05283
#
# Static dielectric constant tensor:
#      x y z
#    x 1.589550 0.000000 0.000000 
#    y 0.000000 1.711790 0.000000 
#    z 0.000000 0.000000 1.669200 
# 
# From -- ./inp_files/21709.got.cif
#   From: 2010.05.17/outbox.cif.g08.bks.cpg/sg59_11_cif.got.tgz:21709.got - 2010.06.03 14:40:33.
