data_PCOD9446534
_publ_section_title
;
Structure prediction by ZEFSAII (Michael W. Deem and Ramdas Pophale) SiO2 
 PCOD9446534
Probable space group: P M M N
;
_chemical_formula_sum "Si O2"
_cell_formula_units_Z 48
_cell_length_a 7.450930
_cell_length_b 14.149890
_cell_length_c 21.906842
_cell_angle_alpha 90.000000
_cell_angle_beta 90.000000
_cell_angle_gamma 90.000000
_cell_volume 2309.634845
_symmetry_space_group_name_H-M "P M M N"
_symmetry_group_IT_number 59
_space_group.IT_coordinate_system_code '2'
_symmetry_cell_setting 'orthorhombic'
loop_
_space_group_symop_operation_xyz
x,y,z
1/2-x,1/2-y,z
1/2+x,-y,-z
-x,1/2+y,-z
-x,-y,-z
1/2+x,1/2+y,-z
1/2-x,y,z
x,1/2-y,z
loop_
_atom_site_type_symbol
_atom_site_label
_atom_site_fract_x
_atom_site_fract_y
_atom_site_fract_z
Si Si1 0.033872 0.643478 0.468233
Si Si2 0.037017 0.548136 0.593280
Si Si3 0.960265 0.045614 0.157347
Si Si4 0.469758 0.640075 0.718481
Si Si5 0.533371 0.142055 0.899026
Si Si6 0.466608 0.638331 0.965754
O O1 0.250000 0.646899 0.471449
O O2 0.969983 0.750000 0.456410
O O3 0.966452 0.603990 0.533698
O O4 0.989852 0.562891 0.419058
O O5 0.250000 0.565222 0.593794
O O6 0.967646 0.587290 0.657296
O O7 0.750000 0.071191 0.156681
O O8 0.976284 0.933213 0.151099
O O9 0.032849 0.089592 0.219522
O O10 0.038422 0.086895 0.094192
O O11 0.250000 0.636903 0.718428
O O12 0.520570 0.750000 0.717701
O O13 0.750000 0.143159 0.900561
O O14 0.474328 0.250000 0.889116
O O15 0.468491 0.109902 0.966678
O O16 0.250000 0.626591 0.966987
O O17 0.501807 0.750000 0.959939
#
# Coordination Sequence:
#
# PCOD9446534 Si02
#       6
#     8   8   8   8   8   8
#     4   9  17  30  49  72  97 124 154 189 228 268
#     4   9  17  30  49  72  96 123 155 189 225 267
#     4  10  18  28  47  72  92 113 147 191 230 264
#     4   9  17  30  49  72  96 121 149 182 225 277
#     4   9  18  32  47  62  86 122 156 185 225 275
#     4   8  14  26  45  68  91 115 146 184 227 275
#
# _framework density 20.782505
#
# number of rings (size 3 to 8) (size 9 to 14) (size 15 to 20)
#    0.000    3.000    0.000    2.500    0.000    4.667 
#    0.000    1.667    0.000   10.500    0.000    0.000 
#    0.000    0.000    0.000    0.000    0.000    0.000 
#
# Total GULP energy -267835.363789 kJ/mol
# GULP energy per Si atom -5579.903412 kJ/mol
# Density = 2.073520 g / cm^3
# Si number density = 20.782505 Si / 1000 Ang^3
#
#
#
# Elastic Constant Matrix: (Units=GPa)
#
#
# Indices 1 2 3 4 5 6 
#
# 1 61.2109 -8.1872 4.6031 0.0000 0.0000 0.0000
# 2 -8.1872 151.3475 117.4757 0.0000 0.0000 0.0000
# 3 4.6031 117.4757 155.2537 0.0000 0.0000 0.0000
# 4 0.0000 0.0000 0.0000 30.7376 0.0000 0.0000
# 5 0.0000 0.0000 0.0000 0.0000 -22.1555 0.0000
# 6 0.0000 0.0000 0.0000 0.0000 0.0000 18.0111
#
#
#
# Elastic Compliance Matrix: (Units=1/GPa)
#
#
# Indices 1 2 3 4 5 6 
#
# 1 0.016980 0.003173 -0.002904 0.000000 0.000000 0.000000
# 2 0.003173 0.016604 -0.012658 0.000000 0.000000 0.000000
# 3 -0.002904 -0.012658 0.016105 0.000000 0.000000 0.000000
# 4 0.000000 0.000000 0.000000 0.032533 0.000000 0.000000
# 5 0.000000 0.000000 0.000000 0.000000 -0.045135 0.000000
# 6 0.000000 0.000000 0.000000 0.000000 0.000000 0.055521
#
#
# Mechanical properties :
#
#
# Convention : Reuss Voigt Hill
#
# Bulk Modulus (GPa) = 40.14420 66.17724 53.16072
# Shear Modulus (GPa) = 39.78073 22.24667 31.01370
#
# Velocity S-wave (km/s) = 4.37984 3.27533 3.86722
# Velocity P-wave (km/s) = 6.70340 6.79820 6.75097
#
# Compressibility (1/GPa) = 0.02491020
#
# Stress axis : x y z
#
# Youngs Moduli (GPa) = 58.89385 60.22730 62.09328
#
# Poissons Ratio (x) = -0.19108 0.18032
# Poissons Ratio (y) = -0.18685 0.78595
# Poissons Ratio (z) = 0.17103 0.76233
#
# Static dielectric constant tensor:
#      x y z
#    x 1.817770 0.000000 0.000000 
#    y 0.000000 1.732750 0.000000 
#    z 0.000000 0.000000 1.732670 
# 
# From -- ./inp_files/26915.got.cif
#   From: 2010.05.17/outbox.cif.g08.bks.cpg/sg59_14_cif.got.tgz:26915.got - 2010.06.03 14:40:33.
