data_PCOD9446991
_publ_section_title
;
Structure prediction by ZEFSAII (Michael W. Deem and Ramdas Pophale) SiO2 
 PCOD9446991
Probable space group: P M M N
;
_chemical_formula_sum "Si O2"
_cell_formula_units_Z 64
_cell_length_a 29.745330
_cell_length_b 9.032510
_cell_length_c 12.791049
_cell_angle_alpha 90.000000
_cell_angle_beta 90.000000
_cell_angle_gamma 90.000000
_cell_volume 3436.634971
_symmetry_space_group_name_H-M "P M M N"
_symmetry_group_IT_number 59
_space_group.IT_coordinate_system_code '2'
_symmetry_cell_setting 'orthorhombic'
loop_
_space_group_symop_operation_xyz
x,y,z
1/2-x,1/2-y,z
1/2+x,-y,-z
-x,1/2+y,-z
-x,-y,-z
1/2+x,1/2+y,-z
1/2-x,y,z
x,1/2-y,z
loop_
_atom_site_type_symbol
_atom_site_label
_atom_site_fract_x
_atom_site_fract_y
_atom_site_fract_z
Si Si1 0.602152 0.072881 0.630855
Si Si2 0.075327 0.077709 0.580779
Si Si3 0.201243 0.572712 0.437432
Si Si4 0.699422 0.426800 0.127315
Si Si5 0.678410 0.921777 0.346958
Si Si6 0.535160 0.571221 0.205465
Si Si7 0.112650 0.427250 0.957005
Si Si8 0.058076 0.426989 0.166845
O O1 0.598204 0.250000 0.639227
O O2 0.655258 0.031980 0.621734
O O3 0.578536 0.017909 0.523897
O O4 0.580490 0.994953 0.730071
O O5 0.066382 0.250000 0.554105
O O6 0.124688 0.072443 0.634306
O O7 0.041742 0.029060 0.672727
O O8 0.250000 0.537394 0.388376
O O9 0.199251 0.750000 0.452546
O O10 0.198879 0.494988 0.549843
O O11 0.750000 0.465214 0.092375
O O12 0.695599 0.250000 0.131359
O O13 0.692065 0.492426 0.243183
O O14 0.660059 0.493462 0.056816
O O15 0.691283 0.750000 0.337902
O O16 0.531023 0.750000 0.201871
O O17 0.578895 0.531089 0.137379
O O18 0.491349 0.496237 0.158201
O O19 0.119361 0.250000 0.950676
O O20 0.087868 0.462366 0.065248
O O21 0.054922 0.250000 0.175146
#
# Coordination Sequence:
#
# PCOD9446991 Si02
#       8
#     8   8   8   8   8   8   8   8
#     4  10  21  37  57  81 114 155 194 233 284 342
#     4   9  18  34  57  84 117 150 183 230 281 333
#     4   9  18  33  53  79 110 145 190 240 285 334
#     4  11  23  36  54  84 119 153 190 232 280 337
#     4  10  18  31  52  81 117 153 185 225 280 338
#     4  10  20  38  63  89 116 146 185 235 291 346
#     4  10  22  42  63  85 115 150 191 239 286 336
#     4  11  24  40  60  85 113 148 192 240 288 341
#
# _framework density 18.622869000000001
#
# number of rings (size 3 to 8) (size 9 to 14) (size 15 to 20)
#    0.000    2.000    1.250    2.250    0.000    6.250 
#    0.000    0.625    0.000    2.250    0.000    0.000 
#    0.000    0.000    0.000    0.000    0.000    0.000 
#
# Total GULP energy -357379.691102 kJ/mol
# GULP energy per Si atom -5584.057673 kJ/mol
# Density = 1.858048 g / cm^3
# Si number density = 18.622869 Si / 1000 Ang^3
#
#
#
# Elastic Constant Matrix: (Units=GPa)
#
#
# Indices 1 2 3 4 5 6 
#
# 1 86.7310 34.0361 38.3906 0.0000 0.0000 0.0000
# 2 34.0361 30.7232 32.4415 0.0000 0.0000 0.0000
# 3 38.3906 32.4415 85.3501 0.0000 0.0000 0.0000
# 4 0.0000 0.0000 0.0000 19.6957 0.0000 0.0000
# 5 0.0000 0.0000 0.0000 0.0000 4092.1942 0.0000
# 6 0.0000 0.0000 0.0000 0.0000 0.0000 27.2769
#
#
#
# Elastic Compliance Matrix: (Units=1/GPa)
#
#
# Indices 1 2 3 4 5 6 
#
# 1 0.020447 -0.021616 -0.000981 0.000000 0.000000 0.000000
# 2 -0.021616 0.077223 -0.019630 0.000000 0.000000 0.000000
# 3 -0.000981 -0.019630 0.019619 0.000000 0.000000 0.000000
# 4 0.000000 0.000000 0.000000 0.050773 0.000000 0.000000
# 5 0.000000 0.000000 0.000000 0.000000 0.000244 0.000000
# 6 0.000000 0.000000 0.000000 0.000000 0.000000 0.036661
#
#
# Mechanical properties :
#
#
# Convention : Reuss Voigt Hill
#
# Bulk Modulus (GPa) = 30.45435 45.83787 38.14611
# Shear Modulus (GPa) = 16.64640 834.36241 425.50441
#
# Velocity S-wave (km/s) = 2.99301 21.18971 15.13212
# Velocity P-wave (km/s) = 5.32286 24.96675 18.05092
#
# Compressibility (1/GPa) = 0.03283603
#
# Stress axis : x y z
#
# Youngs Moduli (GPa) = 48.90716 12.94946 50.97150
#
# Poissons Ratio (x) = 0.27992 0.04999
# Poissons Ratio (y) = 1.05718 1.00055
# Poissons Ratio (z) = 0.04797 0.25419
#
# Static dielectric constant tensor:
#      x y z
#    x 1.677020 0.000000 0.000000 
#    y 0.000000 1.617690 0.000000 
#    z 0.000000 0.000000 1.610660 
# 
# From -- ./inp_files/19232.got.cif
#   From: 2010.05.17/outbox.cif.g08.bks.cpg/sg59_10_cif.got.tgz:19232.got - 2010.06.03 14:40:33.
