data_PCOD9446323
_publ_section_title
;
Structure prediction by ZEFSAII (Michael W. Deem and Ramdas Pophale) SiO2 
 PCOD9446323
Probable space group: P M M N
;
_chemical_formula_sum "Si O2"
_cell_formula_units_Z 48
_cell_length_a 22.249923
_cell_length_b 8.616041
_cell_length_c 15.827983
_cell_angle_alpha 90.000000
_cell_angle_beta 90.000000
_cell_angle_gamma 90.000000
_cell_volume 3034.323247
_symmetry_space_group_name_H-M "P M M N"
_symmetry_group_IT_number 59
_space_group.IT_coordinate_system_code '2'
_symmetry_cell_setting 'orthorhombic'
loop_
_space_group_symop_operation_xyz
x,y,z
1/2-x,1/2-y,z
1/2+x,-y,-z
-x,1/2+y,-z
-x,-y,-z
1/2+x,1/2+y,-z
1/2-x,y,z
x,1/2-y,z
loop_
_atom_site_type_symbol
_atom_site_label
_atom_site_fract_x
_atom_site_fract_y
_atom_site_fract_z
Si Si1 0.095631 0.562947 0.346437
Si Si2 0.042253 0.564572 0.879242
Si Si3 0.085130 0.937504 0.058813
Si Si4 0.958565 0.936696 0.299890
Si Si5 0.566806 0.935897 0.481898
Si Si6 0.818688 0.439576 0.805819
O O1 0.095358 0.750000 0.349944
O O2 0.105758 0.500173 0.440864
O O3 0.144517 0.512616 0.277715
O O4 0.028504 0.515609 0.315597
O O5 0.039444 0.750000 0.878255
O O6 0.062891 0.505286 0.788314
O O7 0.975582 0.499161 0.897676
O O8 0.081907 0.515901 0.960464
O O9 0.082803 0.750000 0.062387
O O10 0.142633 0.988395 0.112585
O O11 0.958377 0.750000 0.293789
O O12 0.921768 0.981120 0.384374
O O13 0.565716 0.750000 0.485913
O O14 0.500000 0.000000 0.500000
O O15 0.750000 0.492828 0.806576
O O16 0.818031 0.250000 0.805599
#
# Coordination Sequence:
#
# PCOD9446323 Si02
#       6
#     8   8   8   8   8   8
#     4   9  16  27  42  61  85 112 141 176 211 251
#     4  10  18  25  41  64  86 114 143 174 217 261
#     4   9  17  30  42  59  87 113 142 179 215 258
#     4   9  16  27  41  59  86 115 139 170 210 256
#     4   9  17  27  40  59  84 114 141 169 209 253
#     4   9  16  28  47  65  83 114 150 179 213 259
#
# _framework density 15.819013999999999
#
# number of rings (size 3 to 8) (size 9 to 14) (size 15 to 20)
#    0.000    2.833    1.667    2.000    0.000    4.000 
#    0.000    0.000    0.000    2.000    0.000    1.167 
#    0.000    6.667    0.000    0.000    0.000    0.000 
#
# Total GULP energy -267207.732016 kJ/mol
# GULP energy per Si atom -5566.827750 kJ/mol
# Density = 1.578301 g / cm^3
# Si number density = 15.819014 Si / 1000 Ang^3
#
#
#
# Elastic Constant Matrix: (Units=GPa)
#
#
# Indices 1 2 3 4 5 6 
#
# 1 69.3845 10.5176 58.0800 0.0000 0.0000 0.0000
# 2 10.5176 6.5778 26.0367 0.0000 0.0000 0.0000
# 3 58.0800 26.0367 182.3796 0.0000 0.0000 0.0000
# 4 0.0000 0.0000 0.0000 27.5968 0.0000 0.0000
# 5 0.0000 0.0000 0.0000 0.0000 15.5266 0.0000
# 6 0.0000 0.0000 0.0000 0.0000 0.0000 9.6495
#
#
#
# Elastic Compliance Matrix: (Units=1/GPa)
#
#
# Indices 1 2 3 4 5 6 
#
# 1 0.020343 -0.015829 -0.004219 0.000000 0.000000 0.000000
# 2 -0.015829 0.361866 -0.046619 0.000000 0.000000 0.000000
# 3 -0.004219 -0.046619 0.013482 0.000000 0.000000 0.000000
# 4 0.000000 0.000000 0.000000 0.036236 0.000000 0.000000
# 5 0.000000 0.000000 0.000000 0.000000 0.064406 0.000000
# 6 0.000000 0.000000 0.000000 0.000000 0.000000 0.103632
#
#
# Mechanical properties :
#
#
# Convention : Reuss Voigt Hill
#
# Bulk Modulus (GPa) = 3.81160 49.73451 26.77306
# Shear Modulus (GPa) = 6.09197 21.46842 13.78020
#
# Velocity S-wave (km/s) = 1.96454 3.68792 2.95467
# Velocity P-wave (km/s) = 2.74966 7.04573 5.34803
#
# Compressibility (1/GPa) = 0.26235670
#
# Stress axis : x y z
#
# Youngs Moduli (GPa) = 49.15646 2.76345 74.17317
#
# Poissons Ratio (x) = 0.04374 0.31291
# Poissons Ratio (y) = 0.77811 3.45791
# Poissons Ratio (z) = 0.20737 0.12883
#
# Static dielectric constant tensor:
#      x y z
#    x 1.540500 0.000000 0.000000 
#    y 0.000000 1.540780 0.000000 
#    z 0.000000 0.000000 1.580320 
# 
# From -- ./inp_files/21244.got.cif
#   From: 2010.05.17/outbox.cif.g08.bks.cpg/sg59_11_cif.got.tgz:21244.got - 2010.06.03 14:40:33.
