data_PCOD9446017
_publ_section_title
;
Structure prediction by ZEFSAII (Michael W. Deem and Ramdas Pophale) SiO2 
 PCOD9446017
Probable space group: P N N M
;
_chemical_formula_sum "Si O2"
_cell_formula_units_Z 64
_cell_length_a 18.000000
_cell_length_b 21.000000
_cell_length_c 9.000000
_cell_angle_alpha 90.000000
_cell_angle_beta 90.000000
_cell_angle_gamma 90.000000
_cell_volume 3402.000000
_symmetry_space_group_name_H-M "P N N M"
_symmetry_group_IT_number 58
_symmetry_cell_setting 'orthorhombic'
loop_
_space_group_symop_operation_xyz
x,y,z
-x,-y,z
1/2+x,1/2-y,1/2-z
1/2-x,1/2+y,1/2-z
-x,-y,-z
x,y,-z
1/2-x,1/2+y,1/2+z
1/2+x,1/2-y,1/2+z
loop_
_atom_site_type_symbol
_atom_site_label
_atom_site_fract_x
_atom_site_fract_y
_atom_site_fract_z
Si Si1 0.785045 0.830906 0.325288
Si Si2 0.921532 0.752381 0.320004
Si Si3 0.027545 0.378903 0.179291
Si Si4 0.893589 0.953510 0.673526
Si Si5 0.672134 0.577477 0.323718
Si Si6 0.642994 0.900362 0.318715
Si Si7 0.824948 0.544479 0.178934
Si Si8 0.967841 0.132171 0.322280
O O1 0.774459 0.816430 0.500000
O O2 0.840277 0.776474 0.265599
O O3 0.836019 0.894520 0.318243
O O4 0.703416 0.848226 0.264554
O O5 0.918622 0.747745 0.500000
O O6 0.946036 0.687272 0.247328
O O7 0.983820 0.805544 0.284776
O O8 0.093405 0.428361 0.217499
O O9 0.942862 0.393500 0.228833
O O10 0.025499 0.375897 0.000000
O O11 0.894921 0.974472 0.500000
O O12 0.975047 0.926029 0.711746
O O13 0.863048 0.009712 0.774191
O O14 0.676935 0.583231 0.500000
O O15 0.754804 0.579296 0.253844
O O16 0.610819 0.626219 0.258648
O O17 0.642940 0.897978 0.500000
O O18 0.673971 0.970042 0.278760
O O19 0.816093 0.548729 0.000000
O O20 0.956317 0.131386 0.500000
#
# Coordination Sequence:
#
# PCOD9446017 Si02
#       8
#     8   8   8   8   8   8   8   8
#     4   8  14  29  57  84 103 138 186 224 255 312
#     4   9  19  37  58  79 109 148 187 221 264 326
#     4  10  21  36  58  87 112 139 179 231 286 328
#     4   9  16  31  55  79 105 142 185 222 266 327
#     4  12  23  32  48  80 117 145 177 227 285 330
#     4   9  16  32  61  88 106 133 185 235 269 318
#     4  10  20  37  59  80 109 146 185 229 273 330
#     4   9  19  35  56  78 104 148 195 223 258 329
#
# _framework density 18.812463000000001
#
# number of rings (size 3 to 8) (size 9 to 14) (size 15 to 20)
#    0.000    2.500    1.250    3.375    0.000    4.500 
#    2.250    2.500    0.000    1.500    0.000    0.000 
#    0.000    0.000    0.000    0.000    0.000    0.000 
#
# Total GULP energy -356861.886161 kJ/mol
# GULP energy per Si atom -5575.966971 kJ/mol
# Density = 1.876965 g / cm^3
# Si number density = 18.812463 Si / 1000 Ang^3
#
#
#
# Elastic Constant Matrix: (Units=GPa)
#
#
# Indices 1 2 3 4 5 6 
#
# 1 174.1072 24.8394 30.9034 0.0000 0.0000 0.0000
# 2 24.8394 40.3644 5.0909 0.0000 0.0000 0.0000
# 3 30.9034 5.0909 21.9475 0.0000 0.0000 0.0000
# 4 0.0000 0.0000 0.0000 23.3829 0.0000 0.0000
# 5 0.0000 0.0000 0.0000 0.0000 16.2465 0.0000
# 6 0.0000 0.0000 0.0000 0.0000 0.0000 19.2724
#
#
#
# Elastic Compliance Matrix: (Units=1/GPa)
#
#
# Indices 1 2 3 4 5 6 
#
# 1 0.008155 -0.003678 -0.010630 0.000000 0.000000 0.000000
# 2 -0.003678 0.027180 -0.001126 0.000000 0.000000 0.000000
# 3 -0.010630 -0.001126 0.060792 0.000000 0.000000 0.000000
# 4 0.000000 0.000000 0.000000 0.042766 0.000000 0.000000
# 5 0.000000 0.000000 0.000000 0.000000 0.061552 0.000000
# 6 0.000000 0.000000 0.000000 0.000000 0.000000 0.051888
#
#
# Mechanical properties :
#
#
# Convention : Reuss Voigt Hill
#
# Bulk Modulus (GPa) = 15.32347 39.78740 27.55543
# Shear Modulus (GPa) = 16.39601 23.48603 19.94102
#
# Velocity S-wave (km/s) = 2.95541 3.53714 3.25928
# Velocity P-wave (km/s) = 4.45073 6.15445 5.37058
#
# Compressibility (1/GPa) = 0.06525937
#
# Stress axis : x y z
#
# Youngs Moduli (GPa) = 122.62387 36.79237 16.44962
#
# Poissons Ratio (x) = 0.13531 0.17485
# Poissons Ratio (y) = 0.45098 0.01852
# Poissons Ratio (z) = 1.30345 0.04143
#
# Static dielectric constant tensor:
#      x y z
#    x 1.672550 0.000000 0.000000 
#    y 0.000000 1.668470 0.000000 
#    z 0.000000 0.000000 1.619260 
# 
# From -- ./inp_files/8342.got.cif
#   From: 2010.05.17/outbox.ucp.g08.bks.cvg/sg58_5_cif.got.tgz:8342.got - 2010.06.11 16:41:41.
