data_PCOD9446460
_publ_section_title
;
Structure prediction by ZEFSAII (Michael W. Deem and Ramdas Pophale) SiO2 
 PCOD9446460
Probable space group: P M M N
;
_chemical_formula_sum "Si O2"
_cell_formula_units_Z 64
_cell_length_a 30.866777
_cell_length_b 7.503227
_cell_length_c 15.430353
_cell_angle_alpha 90.000000
_cell_angle_beta 90.000000
_cell_angle_gamma 90.000000
_cell_volume 3573.676461
_symmetry_space_group_name_H-M "P M M N"
_symmetry_group_IT_number 59
_space_group.IT_coordinate_system_code '2'
_symmetry_cell_setting 'orthorhombic'
loop_
_space_group_symop_operation_xyz
x,y,z
1/2-x,1/2-y,z
1/2+x,-y,-z
-x,1/2+y,-z
-x,-y,-z
1/2+x,1/2+y,-z
1/2-x,y,z
x,1/2-y,z
loop_
_atom_site_type_symbol
_atom_site_label
_atom_site_fract_x
_atom_site_fract_y
_atom_site_fract_z
Si Si1 0.964272 0.031490 0.827389
Si Si2 0.025692 0.958218 0.367763
Si Si3 0.610347 0.041075 0.952634
Si Si4 0.386907 0.459204 0.702088
Si Si5 0.202166 0.535393 0.786939
Si Si6 0.701369 0.467845 0.012582
Si Si7 0.437384 0.034465 0.541876
Si Si8 0.560911 0.966004 0.130124
O O1 0.963376 0.250000 0.829328
O O2 0.963568 0.971256 0.727231
O O3 0.923412 0.966470 0.882752
O O4 0.010607 0.979198 0.868251
O O5 0.016612 0.750000 0.353706
O O6 0.981680 0.030856 0.411154
O O7 0.061593 0.974268 0.442527
O O8 0.615290 0.250000 0.932326
O O9 0.659215 0.968285 0.960666
O O10 0.587260 0.026832 0.046249
O O11 0.397540 0.250000 0.699837
O O12 0.337189 0.478461 0.727429
O O13 0.400017 0.526853 0.607350
O O14 0.415685 0.531333 0.781847
O O15 0.250000 0.475061 0.759566
O O16 0.202218 0.750000 0.788164
O O17 0.195398 0.477953 0.886729
O O18 0.750000 0.522421 0.985288
O O19 0.701005 0.250000 0.011651
O O20 0.438160 0.250000 0.537152
O O21 0.562074 0.750000 0.129690
#
# Coordination Sequence:
#
# PCOD9446460 Si02
#       8
#     8   8   8   8   8   8   8   8
#     4   9  17  29  44  61  85 116 147 178 217 255
#     4   9  16  29  45  61  83 111 143 181 218 254
#     4  10  18  28  44  63  82 113 152 179 202 253
#     4  10  18  28  44  63  87 118 145 173 214 263
#     4   9  17  29  44  62  87 115 142 179 220 252
#     4   8  14  25  40  59  83 108 136 175 215 242
#     4   9  17  29  44  62  84 111 142 176 217 257
#     4  10  18  29  41  58  89 121 142 170 213 253
#
# _framework density 17.908729000000001
#
# number of rings (size 3 to 8) (size 9 to 14) (size 15 to 20)
#    0.000    2.750    2.500    1.125    0.000    0.750 
#    0.000    1.250    0.000    0.375    0.000    0.875 
#    0.000    3.000    0.000    0.000    0.000    0.000 
#
# Total GULP energy -356763.475735 kJ/mol
# GULP energy per Si atom -5574.429308 kJ/mol
# Density = 1.786797 g / cm^3
# Si number density = 17.908729 Si / 1000 Ang^3
#
#
#
# Elastic Constant Matrix: (Units=GPa)
#
#
# Indices 1 2 3 4 5 6 
#
# 1 140.4731 -5.4318 56.3086 0.0000 0.0000 0.0000
# 2 -5.4318 42.3000 -7.0046 0.0000 0.0000 0.0000
# 3 56.3086 -7.0046 70.4415 0.0000 0.0000 0.0000
# 4 0.0000 0.0000 0.0000 3.9471 0.0000 0.0000
# 5 0.0000 0.0000 0.0000 0.0000 25.4562 0.0000
# 6 0.0000 0.0000 0.0000 0.0000 0.0000 9.1286
#
#
#
# Elastic Compliance Matrix: (Units=1/GPa)
#
#
# Indices 1 2 3 4 5 6 
#
# 1 0.010475 -0.000042 -0.008378 0.000000 0.000000 0.000000
# 2 -0.000042 0.024037 0.002424 0.000000 0.000000 0.000000
# 3 -0.008378 0.002424 0.021134 0.000000 0.000000 0.000000
# 4 0.000000 0.000000 0.000000 0.253353 0.000000 0.000000
# 5 0.000000 0.000000 0.000000 0.000000 0.039283 0.000000
# 6 0.000000 0.000000 0.000000 0.000000 0.000000 0.109546
#
#
# Mechanical properties :
#
#
# Convention : Reuss Voigt Hill
#
# Bulk Modulus (GPa) = 22.90749 37.88434 30.39592
# Shear Modulus (GPa) = 10.32263 21.66252 15.99257
#
# Velocity S-wave (km/s) = 2.40344 3.48171 2.99156
# Velocity P-wave (km/s) = 4.53002 6.11254 5.37979
#
# Compressibility (1/GPa) = 0.04365384
#
# Stress axis : x y z
#
# Youngs Moduli (GPa) = 95.46115 41.60322 47.31655
#
# Poissons Ratio (x) = 0.00175 0.39642
# Poissons Ratio (y) = 0.00402 -0.11469
# Poissons Ratio (z) = 0.79977 -0.10084
#
# Static dielectric constant tensor:
#      x y z
#    x 1.625690 0.000000 0.000000 
#    y 0.000000 1.707360 0.000000 
#    z 0.000000 0.000000 1.608800 
# 
# From -- ./inp_files/25092.got.cif
#   From: 2010.05.17/outbox.cif.g08.bks.cpg/sg59_13_cif.got.tgz:25092.got - 2010.06.03 14:40:33.
