data_PCOD9446476
_publ_section_title
;
Structure prediction by ZEFSAII (Michael W. Deem and Ramdas Pophale) SiO2 
 PCOD9446476
Probable space group: P M M N
;
_chemical_formula_sum "Si O2"
_cell_formula_units_Z 56
_cell_length_a 23.119015
_cell_length_b 18.108329
_cell_length_c 6.623125
_cell_angle_alpha 90.000000
_cell_angle_beta 90.000000
_cell_angle_gamma 90.000000
_cell_volume 2772.749622
_symmetry_space_group_name_H-M "P M M N"
_symmetry_group_IT_number 59
_space_group.IT_coordinate_system_code '2'
_symmetry_cell_setting 'orthorhombic'
loop_
_space_group_symop_operation_xyz
x,y,z
1/2-x,1/2-y,z
1/2+x,-y,-z
-x,1/2+y,-z
-x,-y,-z
1/2+x,1/2+y,-z
1/2-x,y,z
x,1/2-y,z
loop_
_atom_site_type_symbol
_atom_site_label
_atom_site_fract_x
_atom_site_fract_y
_atom_site_fract_z
Si Si1 0.816431 0.660097 0.210872
Si Si2 0.037157 0.668333 0.965830
Si Si3 0.595614 0.623459 0.959917
Si Si4 0.469973 0.916599 0.598695
Si Si5 0.184096 0.339029 0.289555
Si Si6 0.911375 0.660305 0.458343
Si Si7 0.942606 0.476217 0.788061
O O1 0.750000 0.631973 0.213401
O O2 0.815418 0.750000 0.199525
O O3 0.893149 0.637372 0.214541
O O4 0.831374 0.641811 0.961432
O O5 0.055058 0.750000 0.025214
O O6 0.056116 0.646108 0.739584
O O7 0.967562 0.662594 0.962504
O O8 0.056612 0.602364 0.108299
O O9 0.607705 0.646960 0.707082
O O10 0.591956 0.535046 0.919782
O O11 0.525322 0.881240 0.480343
O O12 0.427111 0.957346 0.444531
O O13 0.497272 0.979059 0.747730
O O14 0.250000 0.370191 0.292114
O O15 0.188415 0.250000 0.279365
O O16 0.168293 0.350746 0.539951
O O17 0.921046 0.750000 0.446980
#
# Coordination Sequence:
#
# PCOD9446476 Si02
#       7
#     8   8   8   8   8   8   8
#     4  10  20  31  46  72 104 139 178 216 251 291
#     4  11  21  34  53  76  99 131 177 218 258 308
#     4  11  19  32  47  67  98 136 172 206 248 301
#     4  10  19  34  52  71 102 139 177 214 261 305
#     4  10  18  28  44  67  97 132 170 207 237 277
#     4  10  18  30  47  68  98 137 178 211 246 294
#     4  10  22  35  49  74 101 133 177 220 258 308
#
# _framework density 20.196559000000001
#
# number of rings (size 3 to 8) (size 9 to 14) (size 15 to 20)
#    0.000    1.714    2.857    5.143    0.000    6.286 
#    0.000    0.000    0.000    0.000    0.000    0.000 
#    0.000    2.286    0.000    2.571    0.000    0.000 
#
# Total GULP energy -311818.610182 kJ/mol
# GULP energy per Si atom -5568.189468 kJ/mol
# Density = 2.015059 g / cm^3
# Si number density = 20.196559 Si / 1000 Ang^3
#
#
#
# Elastic Constant Matrix: (Units=GPa)
#
#
# Indices 1 2 3 4 5 6 
#
# 1 28.0612 14.1687 26.3623 0.0000 0.0000 0.0000
# 2 14.1687 142.4831 42.6539 0.0000 0.0000 0.0000
# 3 26.3623 42.6539 149.2958 0.0000 0.0000 0.0000
# 4 0.0000 0.0000 0.0000 48.5840 0.0000 0.0000
# 5 0.0000 0.0000 0.0000 0.0000 43.3085 0.0000
# 6 0.0000 0.0000 0.0000 0.0000 0.0000 15.6295
#
#
#
# Elastic Compliance Matrix: (Units=1/GPa)
#
#
# Indices 1 2 3 4 5 6 
#
# 1 0.043350 -0.002208 -0.007024 0.000000 0.000000 0.000000
# 2 -0.002208 0.007787 -0.001835 0.000000 0.000000 0.000000
# 3 -0.007024 -0.001835 0.008463 0.000000 0.000000 0.000000
# 4 0.000000 0.000000 0.000000 0.020583 0.000000 0.000000
# 5 0.000000 0.000000 0.000000 0.000000 0.023090 0.000000
# 6 0.000000 0.000000 0.000000 0.000000 0.000000 0.063981
#
#
# Mechanical properties :
#
#
# Convention : Reuss Voigt Hill
#
# Bulk Modulus (GPa) = 26.69076 54.02332 40.35704
# Shear Modulus (GPa) = 24.76761 37.28142 31.02451
#
# Velocity S-wave (km/s) = 3.50570 4.30109 3.92360
# Velocity P-wave (km/s) = 5.44341 7.17444 6.36802
#
# Compressibility (1/GPa) = 0.03746615
#
# Stress axis : x y z
#
# Youngs Moduli (GPa) = 23.06811 128.41488 118.16723
#
# Poissons Ratio (x) = 0.28356 0.82998
# Poissons Ratio (y) = 0.05094 0.21683
# Poissons Ratio (z) = 0.16202 0.23563
#
# Static dielectric constant tensor:
#      x y z
#    x 1.783070 0.000000 0.000000 
#    y 0.000000 1.671620 0.000000 
#    z 0.000000 0.000000 1.933880 
# 
# From -- ./inp_files/11537.got.cif
#   From: 2010.05.17/outbox.cif.g08.bks.cpg/sg59_6_cif.got.tgz:11537.got - 2010.06.03 14:40:33.
