data_PCOD9446900
_publ_section_title
;
Structure prediction by ZEFSAII (Michael W. Deem and Ramdas Pophale) SiO2 
 PCOD9446900
Probable space group: P M M N
;
_chemical_formula_sum "Si O2"
_cell_formula_units_Z 48
_cell_length_a 17.736882
_cell_length_b 14.018831
_cell_length_c 11.401980
_cell_angle_alpha 90.000000
_cell_angle_beta 90.000000
_cell_angle_gamma 90.000000
_cell_volume 2835.106332
_symmetry_space_group_name_H-M "P M M N"
_symmetry_group_IT_number 59
_space_group.IT_coordinate_system_code '2'
_symmetry_cell_setting 'orthorhombic'
loop_
_space_group_symop_operation_xyz
x,y,z
1/2-x,1/2-y,z
1/2+x,-y,-z
-x,1/2+y,-z
-x,-y,-z
1/2+x,1/2+y,-z
1/2-x,y,z
x,1/2-y,z
loop_
_atom_site_type_symbol
_atom_site_label
_atom_site_fract_x
_atom_site_fract_y
_atom_site_fract_z
Si Si1 0.053563 0.424586 0.844219
Si Si2 0.871956 0.750000 0.855721
Si Si3 0.832918 0.546879 0.750037
Si Si4 0.025899 0.750000 0.719193
Si Si5 0.511144 0.956486 0.627462
Si Si6 0.396584 0.576661 0.040581
Si Si7 0.659733 0.750000 0.133070
Si Si8 0.664101 0.250000 0.106666
O O1 0.031860 0.482605 0.727555
O O2 0.115215 0.343260 0.821838
O O3 0.975063 0.386962 0.901316
O O4 0.083635 0.497807 0.942421
O O5 0.838545 0.653945 0.801074
O O6 0.960504 0.750000 0.820120
O O7 0.855478 0.750000 0.993069
O O8 0.750000 0.529611 0.701800
O O9 0.850434 0.475406 0.857094
O O10 0.900549 0.537611 0.659058
O O11 0.013988 0.653580 0.644795
O O12 0.104989 0.750000 0.786533
O O13 0.500000 0.000000 0.500000
O O14 0.352685 0.659251 0.974911
O O15 0.750000 0.750000 0.154620
O O16 0.750000 0.250000 0.147502
#
# Coordination Sequence:
#
# PCOD9446900 Si02
#       8
#     8   4   8   4   8   8   4   4
#     4  10  20  35  55  80 112 147 188 225 281 347
#     4  10  18  30  56  84 116 147 176 216 278 354
#     4  10  19  33  56  88 114 140 183 236 281 329
#     4  10  20  39  57  78 107 144 201 236 270 337
#     4  10  22  40  61  79 105 156 199 234 278 329
#     4  10  19  33  55  80 112 146 181 230 283 341
#     4  12  22  31  51  87 126 152 170 220 295 355
#     4  12  22  32  52  83 117 151 185 230 279 334
#
# _framework density 16.930582000000001
#
# number of rings (size 3 to 8) (size 9 to 14) (size 15 to 20)
#    0.000    1.667    3.333    2.750    0.000    1.333 
#    0.000    2.500    0.000    0.000    0.000    0.000 
#    0.000    0.000    0.000    0.000    0.000    0.000 
#
# Total GULP energy -267908.926624 kJ/mol
# GULP energy per Si atom -5581.435971 kJ/mol
# Density = 1.689205 g / cm^3
# Si number density = 16.930582 Si / 1000 Ang^3
#
#
#
# Elastic Constant Matrix: (Units=GPa)
#
#
# Indices 1 2 3 4 5 6 
#
# 1 147.2605 71.8962 47.2417 0.0000 0.0000 0.0000
# 2 71.8962 101.6479 46.5558 0.0000 0.0000 0.0000
# 3 47.2417 46.5558 91.8532 0.0000 0.0000 0.0000
# 4 0.0000 0.0000 0.0000 17.4231 0.0000 0.0000
# 5 0.0000 0.0000 0.0000 0.0000 8.7452 0.0000
# 6 0.0000 0.0000 0.0000 0.0000 0.0000 -50.2467
#
#
#
# Elastic Compliance Matrix: (Units=1/GPa)
#
#
# Indices 1 2 3 4 5 6 
#
# 1 0.010695 -0.006570 -0.002170 0.000000 0.000000 0.000000
# 2 -0.006570 0.016849 -0.005160 0.000000 0.000000 0.000000
# 3 -0.002170 -0.005160 0.014619 0.000000 0.000000 0.000000
# 4 0.000000 0.000000 0.000000 0.057395 0.000000 0.000000
# 5 0.000000 0.000000 0.000000 0.000000 0.114349 0.000000
# 6 0.000000 0.000000 0.000000 0.000000 0.000000 -0.019902
#
#
# Mechanical properties :
#
#
# Convention : Reuss Voigt Hill
#
# Bulk Modulus (GPa) = 69.63870 74.68319 72.16095
# Shear Modulus (GPa) = 22.06596 6.85552 14.46074
#
# Velocity S-wave (km/s) = 3.61407 2.01444 2.92570
# Velocity P-wave (km/s) = 7.65745 7.04399 7.35712
#
# Compressibility (1/GPa) = 0.01435983
#
# Stress axis : x y z
#
# Youngs Moduli (GPa) = 93.50345 59.35143 68.40534
#
# Poissons Ratio (x) = 0.38997 0.14846
# Poissons Ratio (y) = 0.61436 0.35301
# Poissons Ratio (z) = 0.20293 0.30628
#
# Static dielectric constant tensor:
#      x y z
#    x 1.592810 0.000000 0.000000 
#    y 0.000000 1.584920 0.000000 
#    z 0.000000 0.000000 1.525800 
# 
# From -- ./inp_files/16901.got.cif
#   From: 2010.05.17/outbox.cif.g08.bks.cpg/sg59_9_cif.got.tgz:16901.got - 2010.06.03 14:40:33.
