data_PCOD9446484
_publ_section_title
;
Structure prediction by ZEFSAII (Michael W. Deem and Ramdas Pophale) SiO2 
 PCOD9446484
Probable space group: P M M N
;
_chemical_formula_sum "Si O2"
_cell_formula_units_Z 64
_cell_length_a 14.363112
_cell_length_b 7.541907
_cell_length_c 28.710387
_cell_angle_alpha 90.000000
_cell_angle_beta 90.000000
_cell_angle_gamma 90.000000
_cell_volume 3110.059991
_symmetry_space_group_name_H-M "P M M N"
_symmetry_group_IT_number 59
_space_group.IT_coordinate_system_code '2'
_symmetry_cell_setting 'orthorhombic'
loop_
_space_group_symop_operation_xyz
x,y,z
1/2-x,1/2-y,z
1/2+x,-y,-z
-x,1/2+y,-z
-x,-y,-z
1/2+x,1/2+y,-z
1/2-x,y,z
x,1/2-y,z
loop_
_atom_site_type_symbol
_atom_site_label
_atom_site_fract_x
_atom_site_fract_y
_atom_site_fract_z
Si Si1 0.144510 0.534398 0.123328
Si Si2 0.358920 0.963100 0.472134
Si Si3 0.514196 0.546405 0.793287
Si Si4 0.511204 0.959827 0.054194
Si Si5 0.144656 0.539482 0.862459
Si Si6 0.143496 0.967343 0.577278
Si Si7 0.962886 0.545668 0.621108
Si Si8 0.143170 0.467687 0.289004
O O1 0.250000 0.479018 0.118405
O O2 0.141717 0.750000 0.126281
O O3 0.096883 0.458966 0.169098
O O4 0.080939 0.475004 0.080561
O O5 0.250000 0.005084 0.465644
O O6 0.368860 0.750000 0.470564
O O7 0.383351 0.022193 0.524522
O O8 0.416242 0.039975 0.429633
O O9 0.489464 0.750000 0.781968
O O10 0.426383 0.468253 0.822454
O O11 0.564144 0.470207 0.747533
O O12 0.513784 0.750000 0.058280
O O13 0.597527 0.020433 0.086427
O O14 0.500000 0.000000 0.000000
O O15 0.250000 0.468446 0.860894
O O16 0.149516 0.750000 0.854429
O O17 0.250000 0.021082 0.586287
O O18 0.142765 0.750000 0.577141
O O19 0.065871 0.031781 0.613350
O O20 0.977206 0.750000 0.634754
O O21 0.893148 0.474111 0.660109
O O22 0.250000 0.525542 0.279898
O O23 0.146017 0.250000 0.286690
#
# Coordination Sequence:
#
# PCOD9446484 Si02
#       8
#     8   8   8   8   8   8   8   8
#     4   9  18  32  49  69  93 120 151 190 231 266
#     4   9  17  29  44  62  87 118 149 185 231 278
#     4   9  17  31  50  69  90 120 155 187 227 280
#     4  10  20  33  49  72 102 133 163 194 232 280
#     4   9  18  33  52  72  95 125 163 207 246 276
#     4   8  15  28  44  62  86 117 152 189 229 271
#     4  10  18  28  45  67  90 118 152 188 227 277
#     4   9  17  28  43  67  97 121 143 183 238 285
#
# _framework density 20.578382000000001
#
# number of rings (size 3 to 8) (size 9 to 14) (size 15 to 20)
#    0.000    2.875    0.000    2.250    0.000    2.750 
#    0.000    2.500    0.000    7.125    0.000    0.000 
#    0.000    2.000    0.000    0.000    0.000    0.000 
#
# Total GULP energy -356687.456167 kJ/mol
# GULP energy per Si atom -5573.241503 kJ/mol
# Density = 2.053154 g / cm^3
# Si number density = 20.578382 Si / 1000 Ang^3
#
#
#
# Elastic Constant Matrix: (Units=GPa)
#
#
# Indices 1 2 3 4 5 6 
#
# 1 153.1383 7.3934 70.8807 0.0000 0.0000 0.0000
# 2 7.3934 46.9581 0.2412 0.0000 0.0000 0.0000
# 3 70.8807 0.2412 78.2289 0.0000 0.0000 0.0000
# 4 0.0000 0.0000 0.0000 8.8319 0.0000 0.0000
# 5 0.0000 0.0000 0.0000 0.0000 11.5692 0.0000
# 6 0.0000 0.0000 0.0000 0.0000 0.0000 8.7971
#
#
#
# Elastic Compliance Matrix: (Units=1/GPa)
#
#
# Indices 1 2 3 4 5 6 
#
# 1 0.011387 -0.001740 -0.010312 0.000000 0.000000 0.000000
# 2 -0.001740 0.021562 0.001510 0.000000 0.000000 0.000000
# 3 -0.010312 0.001510 0.022122 0.000000 0.000000 0.000000
# 4 0.000000 0.000000 0.000000 0.113226 0.000000 0.000000
# 5 0.000000 0.000000 0.000000 0.000000 0.086436 0.000000
# 6 0.000000 0.000000 0.000000 0.000000 0.000000 0.113674
#
#
# Mechanical properties :
#
#
# Convention : Reuss Voigt Hill
#
# Bulk Modulus (GPa) = 29.42338 48.37290 38.89814
# Shear Modulus (GPa) = 12.47445 19.16032 15.81738
#
# Velocity S-wave (km/s) = 2.46477 3.05469 2.77545
# Velocity P-wave (km/s) = 4.73596 5.99993 5.40502
#
# Compressibility (1/GPa) = 0.03398658
#
# Stress axis : x y z
#
# Youngs Moduli (GPa) = 87.81936 46.37844 45.20441
#
# Poissons Ratio (x) = 0.08069 0.46615
# Poissons Ratio (y) = 0.15279 -0.06826
# Poissons Ratio (z) = 0.90560 -0.07003
#
# Static dielectric constant tensor:
#      x y z
#    x 1.743450 0.000000 0.000000 
#    y 0.000000 1.867550 0.000000 
#    z 0.000000 0.000000 3.960540 
# 
# From -- ./inp_files/33310.got.cif
#   From: 2010.05.17/outbox.cif.g08.bks.cpg/sg59_17_cif.got.tgz:33310.got - 2010.06.03 14:40:33.
