data_PCOD9446351
_publ_section_title
;
Structure prediction by ZEFSAII (Michael W. Deem and Ramdas Pophale) SiO2 
 PCOD9446351
Probable space group: P M M N
;
_chemical_formula_sum "Si O2"
_cell_formula_units_Z 64
_cell_length_a 8.280678
_cell_length_b 27.195419
_cell_length_c 17.863666
_cell_angle_alpha 90.000000
_cell_angle_beta 90.000000
_cell_angle_gamma 90.000000
_cell_volume 4022.835200
_symmetry_space_group_name_H-M "P M M N"
_symmetry_group_IT_number 59
_space_group.IT_coordinate_system_code '2'
_symmetry_cell_setting 'orthorhombic'
loop_
_space_group_symop_operation_xyz
x,y,z
1/2-x,1/2-y,z
1/2+x,-y,-z
-x,1/2+y,-z
-x,-y,-z
1/2+x,1/2+y,-z
1/2-x,y,z
x,1/2-y,z
loop_
_atom_site_type_symbol
_atom_site_label
_atom_site_fract_x
_atom_site_fract_y
_atom_site_fract_z
Si Si1 0.058819 0.076243 0.858051
Si Si2 0.060188 0.434221 0.333381
Si Si3 0.445683 0.306490 0.595978
Si Si4 0.557768 0.055786 0.015642
Si Si5 0.061556 0.617520 0.289019
Si Si6 0.447313 0.110682 0.479744
Si Si7 0.556009 0.964287 0.827534
Si Si8 0.561106 0.965342 0.396355
O O1 0.750000 0.968307 0.824405
O O2 0.977198 0.112168 0.798194
O O3 0.005824 0.085023 0.943739
O O4 0.009098 0.020068 0.836375
O O5 0.250000 0.423617 0.324837
O O6 0.994294 0.395925 0.394809
O O7 0.993489 0.440315 0.249598
O O8 0.038138 0.487270 0.372376
O O9 0.250000 0.308447 0.599534
O O10 0.494733 0.250000 0.587685
O O11 0.514073 0.331894 0.670682
O O12 0.496881 0.341282 0.526420
O O13 0.750000 0.056913 0.016433
O O14 0.492296 0.066053 0.098566
O O15 0.500000 0.000000 0.000000
O O16 0.250000 0.607381 0.301782
O O17 0.959577 0.575491 0.331606
O O18 0.250000 0.110419 0.479126
O O19 0.495408 0.063065 0.529115
O O20 0.250000 0.080025 0.852408
O O21 0.750000 0.978292 0.403553
#
# Coordination Sequence:
#
# PCOD9446351 Si02
#       8
#     8   8   8   8   8   8   8   8
#     4  11  19  29  44  61  85 114 149 187 220 261
#     4  10  18  27  41  59  87 119 150 185 221 261
#     4   9  18  34  53  69  88 114 146 186 230 272
#     4  10  18  28  41  57  81 114 151 186 219 257
#     4  11  20  30  45  66  90 116 149 184 223 270
#     4   8  16  29  43  63  85 112 147 183 223 267
#     4  10  18  27  39  58  85 119 154 186 222 260
#     4  10  18  28  42  59  85 116 151 186 220 259
#
# _framework density 15.909178000000001
#
# number of rings (size 3 to 8) (size 9 to 14) (size 15 to 20)
#    0.000    2.125    1.250    6.750    0.000    0.750 
#    0.000    2.500    0.000    0.000    0.000    0.000 
#    0.000    1.000    0.000    7.500    0.000    1.750 
#
# Total GULP energy -356749.724458 kJ/mol
# GULP energy per Si atom -5574.214445 kJ/mol
# Density = 1.587297 g / cm^3
# Si number density = 15.909178 Si / 1000 Ang^3
#
#
#
# Elastic Constant Matrix: (Units=GPa)
#
#
# Indices 1 2 3 4 5 6 
#
# 1 33.2275 -2.8803 5.9049 0.0000 0.0000 0.0000
# 2 -2.8803 48.3183 43.4079 0.0000 0.0000 0.0000
# 3 5.9049 43.4079 151.1485 0.0000 0.0000 0.0000
# 4 0.0000 0.0000 0.0000 11.2088 0.0000 0.0000
# 5 0.0000 0.0000 0.0000 0.0000 13.2805 0.0000
# 6 0.0000 0.0000 0.0000 0.0000 0.0000 11.4400
#
#
#
# Elastic Compliance Matrix: (Units=1/GPa)
#
#
# Indices 1 2 3 4 5 6 
#
# 1 0.030852 0.003938 -0.002336 0.000000 0.000000 0.000000
# 2 0.003938 0.028395 -0.008309 0.000000 0.000000 0.000000
# 3 -0.002336 -0.008309 0.009093 0.000000 0.000000 0.000000
# 4 0.000000 0.000000 0.000000 0.089216 0.000000 0.000000
# 5 0.000000 0.000000 0.000000 0.000000 0.075298 0.000000
# 6 0.000000 0.000000 0.000000 0.000000 0.000000 0.087412
#
#
# Mechanical properties :
#
#
# Convention : Reuss Voigt Hill
#
# Bulk Modulus (GPa) = 18.20604 36.17327 27.18966
# Shear Modulus (GPa) = 14.20498 19.60332 16.90415
#
# Velocity S-wave (km/s) = 2.99135 3.51408 3.26320
# Velocity P-wave (km/s) = 4.83730 6.26512 5.59693
#
# Compressibility (1/GPa) = 0.05492681
#
# Stress axis : x y z
#
# Youngs Moduli (GPa) = 32.41275 35.21751 109.97012
#
# Poissons Ratio (x) = -0.13868 0.25692
# Poissons Ratio (y) = -0.12764 0.91369
# Poissons Ratio (z) = 0.07572 0.29261
#
# Static dielectric constant tensor:
#      x y z
#    x 1.791930 0.000000 0.000000 
#    y 0.000000 1.499840 0.000000 
#    z 0.000000 0.000000 1.598060 
# 
# From -- ./inp_files/26681.got.cif
#   From: 2010.05.17/outbox.cif.g08.bks.cpg/sg59_14_cif.got.tgz:26681.got - 2010.06.03 14:40:33.
