data_PCOD9446135
_publ_section_title
;
Structure prediction by ZEFSAII (Michael W. Deem and Ramdas Pophale) SiO2 
 PCOD9446135
Probable space group: P M M N
;
_chemical_formula_sum "Si O2"
_cell_formula_units_Z 56
_cell_length_a 7.646524
_cell_length_b 29.852991
_cell_length_c 13.704432
_cell_angle_alpha 90.000000
_cell_angle_beta 90.000000
_cell_angle_gamma 90.000000
_cell_volume 3128.332786
_symmetry_space_group_name_H-M "P M M N"
_symmetry_group_IT_number 59
_space_group.IT_coordinate_system_code '2'
_symmetry_cell_setting 'orthorhombic'
loop_
_space_group_symop_operation_xyz
x,y,z
1/2-x,1/2-y,z
1/2+x,-y,-z
-x,1/2+y,-z
-x,-y,-z
1/2+x,1/2+y,-z
1/2-x,y,z
x,1/2-y,z
loop_
_atom_site_type_symbol
_atom_site_label
_atom_site_fract_x
_atom_site_fract_y
_atom_site_fract_z
Si Si1 0.537211 0.299594 0.238602
Si Si2 0.957546 0.519952 0.604886
Si Si3 0.549157 0.945228 0.910380
Si Si4 0.536408 0.300193 0.011320
Si Si5 0.455554 0.604826 0.714825
Si Si6 0.449851 0.612611 0.090037
Si Si7 0.964955 0.469278 0.797849
O O1 0.750000 0.297898 0.241353
O O2 0.475366 0.250000 0.268954
O O3 0.486826 0.306560 0.124866
O O4 0.482440 0.344019 0.296646
O O5 0.750000 0.521568 0.614875
O O6 0.023148 0.488311 0.693449
O O7 0.000000 0.500000 0.500000
O O8 0.021604 0.570327 0.626201
O O9 0.750000 0.948793 0.942248
O O10 0.543928 0.917537 0.809140
O O11 0.481471 0.994125 0.879263
O O12 0.448893 0.918153 0.992808
O O13 0.750000 0.301919 0.010594
O O14 0.484471 0.250000 0.981907
O O15 0.469939 0.340360 0.943710
O O16 0.250000 0.606537 0.738342
O O17 0.250000 0.622081 0.119454
O O18 0.527017 0.579960 0.172138
O O19 0.750000 0.469040 0.799221
#
# Coordination Sequence:
#
# PCOD9446135 Si02
#       7
#     8   8   8   8   8   8   8
#     4   8  13  22  38  63  91 116 147 183 212 246
#     4  10  20  35  50  67  89 112 141 185 231 278
#     4  10  18  27  37  57  91 121 145 179 213 246
#     4   8  13  21  36  60  86 112 146 183 210 240
#     4  10  17  28  47  68  87 118 153 181 218 266
#     4  10  16  26  43  60  81 115 150 176 208 253
#     4   8  17  29  42  61  84 108 140 180 218 254
#
# _framework density 17.900908999999999
#
# number of rings (size 3 to 8) (size 9 to 14) (size 15 to 20)
#    0.000    2.857    1.429    3.429    0.000    0.000 
#    0.000    3.571    0.000    3.000    0.000    1.000 
#    0.000    5.714    0.000    0.000    0.000    0.000 
#
# Total GULP energy -312061.276518 kJ/mol
# GULP energy per Si atom -5572.522795 kJ/mol
# Density = 1.786017 g / cm^3
# Si number density = 17.900909 Si / 1000 Ang^3
#
#
#
# Elastic Constant Matrix: (Units=GPa)
#
#
# Indices 1 2 3 4 5 6 
#
# 1 42.9767 3.3132 -0.4142 0.0000 0.0000 0.0000
# 2 3.3132 185.2963 59.9979 0.0000 0.0000 0.0000
# 3 -0.4142 59.9979 60.5589 0.0000 0.0000 0.0000
# 4 0.0000 0.0000 0.0000 20.8662 0.0000 0.0000
# 5 0.0000 0.0000 0.0000 0.0000 8.3255 0.0000
# 6 0.0000 0.0000 0.0000 0.0000 0.0000 9.9699
#
#
#
# Elastic Compliance Matrix: (Units=1/GPa)
#
#
# Indices 1 2 3 4 5 6 
#
# 1 0.023330 -0.000690 0.000843 0.000000 0.000000 0.000000
# 2 -0.000690 0.007966 -0.007897 0.000000 0.000000 0.000000
# 3 0.000843 -0.007897 0.024343 0.000000 0.000000 0.000000
# 4 0.000000 0.000000 0.000000 0.047924 0.000000 0.000000
# 5 0.000000 0.000000 0.000000 0.000000 0.120114 0.000000
# 6 0.000000 0.000000 0.000000 0.000000 0.000000 0.100302
#
#
# Mechanical properties :
#
#
# Convention : Reuss Voigt Hill
#
# Bulk Modulus (GPa) = 24.90618 46.06951 35.48785
# Shear Modulus (GPa) = 14.17036 22.89466 18.53251
#
# Velocity S-wave (km/s) = 2.81659 3.58014 3.22107
# Velocity P-wave (km/s) = 4.95188 6.54841 5.80529
#
# Compressibility (1/GPa) = 0.04015068
#
# Stress axis : x y z
#
# Youngs Moduli (GPa) = 42.86368 125.53161 41.08037
#
# Poissons Ratio (x) = 0.08665 -0.03465
# Poissons Ratio (y) = 0.02959 0.32441
# Poissons Ratio (z) = -0.03615 0.99133
#
# Static dielectric constant tensor:
#      x y z
#    x 1.717970 0.000000 0.000000 
#    y 0.000000 1.676120 0.000000 
#    z 0.000000 0.000000 1.600130 
# 
# From -- ./inp_files/21753.got.cif
#   From: 2010.05.17/outbox.cif.g08.bks.cpg/sg59_11_cif.got.tgz:21753.got - 2010.06.03 14:40:33.
