data_PCOD9446539
_publ_section_title
;
Structure prediction by ZEFSAII (Michael W. Deem and Ramdas Pophale) SiO2 
 PCOD9446539
Probable space group: P M M N
;
_chemical_formula_sum "Si O2"
_cell_formula_units_Z 56
_cell_length_a 14.833000
_cell_length_b 16.500216
_cell_length_c 13.240000
_cell_angle_alpha 90.000000
_cell_angle_beta 90.000000
_cell_angle_gamma 90.000000
_cell_volume 3240.459600
_symmetry_space_group_name_H-M "P M M N"
_symmetry_group_IT_number 59
_space_group.IT_coordinate_system_code '2'
_symmetry_cell_setting 'orthorhombic'
loop_
_space_group_symop_operation_xyz
x,y,z
1/2-x,1/2-y,z
1/2+x,-y,-z
-x,1/2+y,-z
-x,-y,-z
1/2+x,1/2+y,-z
1/2-x,y,z
x,1/2-y,z
loop_
_atom_site_type_symbol
_atom_site_label
_atom_site_fract_x
_atom_site_fract_y
_atom_site_fract_z
Si Si1 0.850669 0.421651 0.551186
Si Si2 0.962548 0.652474 0.756612
Si Si3 0.645747 0.848674 0.949705
Si Si4 0.853534 0.848855 0.177602
Si Si5 0.975801 0.655701 0.361251
Si Si6 0.645685 0.885103 0.552292
Si Si7 0.149738 0.651934 0.671990
O O1 0.750000 0.400411 0.588744
O O2 0.855130 0.518012 0.539319
O O3 0.861675 0.380821 0.441476
O O4 0.932466 0.392059 0.619383
O O5 0.966774 0.750000 0.764742
O O6 0.916952 0.621429 0.859193
O O7 0.901393 0.634299 0.658817
O O8 0.064345 0.623292 0.736472
O O9 0.750000 0.871698 0.931683
O O10 0.643574 0.750000 0.948733
O O11 0.620712 0.873457 0.063719
O O12 0.750000 0.873881 0.196668
O O13 0.853722 0.750000 0.180073
O O14 0.919549 0.876395 0.265809
O O15 0.997698 0.750000 0.344747
O O16 0.912673 0.650063 0.460440
O O17 0.750000 0.857430 0.550351
O O18 0.250000 0.627719 0.707733
O O19 0.147362 0.750000 0.668089
#
# Coordination Sequence:
#
# PCOD9446539 Si02
#       7
#     8   8   8   8   8   8   8
#     4  10  21  35  48  65  94 134 168 192 227 283
#     4  10  18  28  47  73  97 123 154 194 239 284
#     4   8  14  26  44  67  96 126 155 187 229 288
#     4   8  15  28  46  69  96 125 155 190 236 286
#     4  11  20  31  50  73  97 124 157 202 241 277
#     4  11  22  32  45  71 102 129 152 187 244 296
#     4   9  17  30  47  67  91 122 163 201 230 269
#
# _framework density 17.281499
#
# number of rings (size 3 to 8) (size 9 to 14) (size 15 to 20)
#    0.000    2.429    1.429    3.000    0.000    3.143 
#    0.000    0.000    0.000    1.714    0.000    4.000 
#    0.000    0.000    0.000    0.000    0.000    0.000 
#
# Total GULP energy -312235.812823 kJ/mol
# GULP energy per Si atom -5575.639515 kJ/mol
# Density = 1.724217 g / cm^3
# Si number density = 17.281499 Si / 1000 Ang^3
#
#
#
# Elastic Constant Matrix: (Units=GPa)
#
#
# Indices 1 2 3 4 5 6 
#
# 1 135.0511 15.2449 77.4786 0.0000 0.0000 0.0000
# 2 15.2449 10.4042 6.4063 0.0000 0.0000 0.0000
# 3 77.4786 6.4063 113.1449 0.0000 0.0000 0.0000
# 4 0.0000 0.0000 0.0000 -13.3331 0.0000 0.0000
# 5 0.0000 0.0000 0.0000 0.0000 25.6738 0.0000
# 6 0.0000 0.0000 0.0000 0.0000 0.0000 19.5249
#
#
#
# Elastic Compliance Matrix: (Units=1/GPa)
#
#
# Indices 1 2 3 4 5 6 
#
# 1 0.014234 -0.015391 -0.008876 0.000000 0.000000 0.000000
# 2 -0.015391 0.116230 0.003959 0.000000 0.000000 0.000000
# 3 -0.008876 0.003959 0.014692 0.000000 0.000000 0.000000
# 4 0.000000 0.000000 0.000000 -0.075001 0.000000 0.000000
# 5 0.000000 0.000000 0.000000 0.000000 0.038950 0.000000
# 6 0.000000 0.000000 0.000000 0.000000 0.000000 0.051217
#
#
# Mechanical properties :
#
#
# Convention : Reuss Voigt Hill
#
# Bulk Modulus (GPa) = 9.56580 50.76221 30.16400
# Shear Modulus (GPa) = 21.20582 17.00448 19.10515
#
# Velocity S-wave (km/s) = 3.50677 3.14023 3.32855
# Velocity P-wave (km/s) = 4.68443 6.52576 5.68021
#
# Compressibility (1/GPa) = 0.10453912
#
# Stress axis : x y z
#
# Youngs Moduli (GPa) = 70.25479 8.60363 68.06510
#
# Poissons Ratio (x) = 0.13242 0.60411
# Poissons Ratio (y) = 1.08132 -0.26944
# Poissons Ratio (z) = 0.62355 -0.03406
#
# Static dielectric constant tensor:
#      x y z
#    x 1.606590 0.000000 0.000000 
#    y 0.000000 1.575730 0.000000 
#    z 0.000000 0.000000 1.572340 
# 
# From -- ./inp_files/16965.got.cif
#   From: 2010.05.17/outbox.cif.g08.bks.cpg/sg59_9_cif.got.tgz:16965.got - 2010.06.03 14:40:33.
