data_PCOD9446641
_publ_section_title
;
Structure prediction by ZEFSAII (Michael W. Deem and Ramdas Pophale) SiO2 
 PCOD9446641
Probable space group: P M M N
;
_chemical_formula_sum "Si O2"
_cell_formula_units_Z 56
_cell_length_a 7.596861
_cell_length_b 18.287401
_cell_length_c 18.056762
_cell_angle_alpha 90.000000
_cell_angle_beta 90.000000
_cell_angle_gamma 90.000000
_cell_volume 2508.568948
_symmetry_space_group_name_H-M "P M M N"
_symmetry_group_IT_number 59
_space_group.IT_coordinate_system_code '2'
_symmetry_cell_setting 'orthorhombic'
loop_
_space_group_symop_operation_xyz
x,y,z
1/2-x,1/2-y,z
1/2+x,-y,-z
-x,1/2+y,-z
-x,-y,-z
1/2+x,1/2+y,-z
1/2-x,y,z
x,1/2-y,z
loop_
_atom_site_type_symbol
_atom_site_label
_atom_site_fract_x
_atom_site_fract_y
_atom_site_fract_z
Si Si1 0.039144 0.414789 0.483394
Si Si2 0.533785 0.668877 0.979328
Si Si3 0.464660 0.446257 0.325190
Si Si4 0.956975 0.615979 0.359305
Si Si5 0.048989 0.099035 0.165476
Si Si6 0.050554 0.051068 0.902590
Si Si7 0.952522 0.329152 0.793949
O O1 0.250000 0.405449 0.483005
O O2 0.977955 0.402674 0.399226
O O3 0.972725 0.374122 0.556971
O O4 0.000000 0.500000 0.500000
O O5 0.750000 0.666985 0.980635
O O6 0.480319 0.750000 0.004130
O O7 0.473095 0.653876 0.895409
O O8 0.476980 0.602189 0.032013
O O9 0.250000 0.447434 0.323167
O O10 0.520496 0.530398 0.337191
O O11 0.529317 0.414847 0.246790
O O12 0.750000 0.632975 0.359055
O O13 0.043001 0.661338 0.294072
O O14 0.250000 0.122709 0.178240
O O15 0.048853 0.021062 0.122967
O O16 0.250000 0.029366 0.921621
O O17 0.052517 0.105234 0.832508
O O18 0.750000 0.333921 0.818273
O O19 0.025438 0.250000 0.814479
#
# Coordination Sequence:
#
# PCOD9446641 Si02
#       7
#     8   8   8   8   8   8   8
#     4   8  15  26  42  67  97 129 162 197 242 291
#     4   9  19  35  53  75 103 136 173 210 253 307
#     4   9  16  28  47  72 103 133 164 205 250 295
#     4  10  18  29  47  70  99 132 169 210 251 300
#     4  10  19  32  54  79 105 136 170 211 256 304
#     4  11  21  34  54  77 103 133 169 216 262 309
#     4  11  23  36  50  70 100 137 175 215 263 320
#
# _framework density 22.323484000000001
#
# number of rings (size 3 to 8) (size 9 to 14) (size 15 to 20)
#    0.000    2.286    1.429    2.143    0.000    2.286 
#    0.000    0.714    0.000    3.000    0.000    4.000 
#    0.000    0.000    0.000    0.000    0.000    0.000 
#
# Total GULP energy -312459.227839 kJ/mol
# GULP energy per Si atom -5579.629069 kJ/mol
# Density = 2.227267 g / cm^3
# Si number density = 22.323484 Si / 1000 Ang^3
#
#
#
# Elastic Constant Matrix: (Units=GPa)
#
#
# Indices 1 2 3 4 5 6 
#
# 1 58.8307 -4.8406 -1.9993 0.0000 0.0000 0.0000
# 2 -4.8406 27.3326 17.9483 0.0000 0.0000 0.0000
# 3 -1.9993 17.9483 170.8476 0.0000 0.0000 0.0000
# 4 0.0000 0.0000 0.0000 -14.3009 0.0000 0.0000
# 5 0.0000 0.0000 0.0000 0.0000 9.9181 0.0000
# 6 0.0000 0.0000 0.0000 0.0000 0.0000 28.5716
#
#
#
# Elastic Compliance Matrix: (Units=1/GPa)
#
#
# Indices 1 2 3 4 5 6 
#
# 1 0.017252 0.003139 -0.000128 0.000000 0.000000 0.000000
# 2 0.003139 0.039869 -0.004152 0.000000 0.000000 0.000000
# 3 -0.000128 -0.004152 0.006288 0.000000 0.000000 0.000000
# 4 0.000000 0.000000 0.000000 -0.069926 0.000000 0.000000
# 5 0.000000 0.000000 0.000000 0.000000 0.100826 0.000000
# 6 0.000000 0.000000 0.000000 0.000000 0.000000 0.035000
#
#
# Mechanical properties :
#
#
# Convention : Reuss Voigt Hill
#
# Bulk Modulus (GPa) = 16.35916 31.02529 23.69223
# Shear Modulus (GPa) = 32.90229 21.23124 27.06676
#
# Velocity S-wave (km/s) = 3.84329 3.08729 3.48585
# Velocity P-wave (km/s) = 5.19987 5.16108 5.18051
#
# Compressibility (1/GPa) = 0.06112782
#
# Stress axis : x y z
#
# Youngs Moduli (GPa) = 57.96466 25.08241 159.03761
#
# Poissons Ratio (x) = -0.07874 0.02034
# Poissons Ratio (y) = -0.18197 0.66027
# Poissons Ratio (z) = 0.00741 0.10413
#
# Static dielectric constant tensor:
#      x y z
#    x 1.834530 0.000000 0.000000 
#    y 0.000000 1.771200 0.000000 
#    z 0.000000 0.000000 1.897750 
# 
# From -- ./inp_files/26067.got.cif
#   From: 2010.05.17/outbox.cif.g08.bks.cpg/sg59_14_cif.got.tgz:26067.got - 2010.06.03 14:40:33.
