data_PCOD9446472
_publ_section_title
;
Structure prediction by ZEFSAII (Michael W. Deem and Ramdas Pophale) SiO2 
 PCOD9446472
Probable space group: P M M N
;
_chemical_formula_sum "Si O2"
_cell_formula_units_Z 64
_cell_length_a 22.345752
_cell_length_b 7.733103
_cell_length_c 19.928683
_cell_angle_alpha 90.000000
_cell_angle_beta 90.000000
_cell_angle_gamma 90.000000
_cell_volume 3443.716316
_symmetry_space_group_name_H-M "P M M N"
_symmetry_group_IT_number 59
_space_group.IT_coordinate_system_code '2'
_symmetry_cell_setting 'orthorhombic'
loop_
_space_group_symop_operation_xyz
x,y,z
1/2-x,1/2-y,z
1/2+x,-y,-z
-x,1/2+y,-z
-x,-y,-z
1/2+x,1/2+y,-z
1/2-x,y,z
x,1/2-y,z
loop_
_atom_site_type_symbol
_atom_site_label
_atom_site_fract_x
_atom_site_fract_y
_atom_site_fract_z
Si Si1 0.016081 0.945268 0.316874
Si Si2 0.559427 0.040797 0.544442
Si Si3 0.062777 0.457636 0.036257
Si Si4 0.816549 0.539942 0.217395
Si Si5 0.999429 0.953873 0.836392
Si Si6 0.887350 0.448511 0.343907
Si Si7 0.317696 0.960438 0.527807
Si Si8 0.878403 0.951197 0.091538
O O1 0.037339 0.750000 0.307507
O O2 0.051986 0.025881 0.379163
O O3 0.013502 0.022232 0.242130
O O4 0.948265 0.946387 0.344872
O O5 0.561131 0.250000 0.547101
O O6 0.623307 0.982994 0.513835
O O7 0.500000 0.000000 0.500000
O O8 0.070188 0.250000 0.037654
O O9 0.053535 0.514788 0.113050
O O10 0.110253 0.528327 0.982157
O O11 0.000000 0.500000 0.000000
O O12 0.750000 0.495551 0.238518
O O13 0.823034 0.750000 0.219199
O O14 0.862306 0.460427 0.269424
O O15 0.829682 0.476743 0.142299
O O16 0.008376 0.750000 0.847953
O O17 0.060059 0.040468 0.864482
O O18 0.903070 0.250000 0.360571
O O19 0.836690 0.505858 0.395999
O O20 0.250000 0.021437 0.511651
O O21 0.315695 0.750000 0.523243
O O22 0.863571 0.750000 0.081396
#
# Coordination Sequence:
#
# PCOD9446472 Si02
#       8
#     8   8   8   8   8   8   8   8
#     4  11  21  31  46  69  98 129 157 191 241 293
#     4  10  20  34  52  73  98 126 158 198 243 293
#     4   8  15  26  41  62  85 112 145 181 221 266
#     4  10  20  31  43  63  94 129 161 193 232 280
#     4  10  18  28  44  66  90 117 153 191 229 277
#     4  11  20  31  49  69  93 126 163 200 234 277
#     4   9  18  33  52  73  95 122 159 201 242 284
#     4   9  16  28  44  61  88 121 151 188 232 273
#
# _framework density 18.584572999999999
#
# number of rings (size 3 to 8) (size 9 to 14) (size 15 to 20)
#    0.000    2.250    2.500    1.500    0.000    1.750 
#    0.000    0.000    0.000    1.125    0.000    0.875 
#    0.000    1.000    0.000    0.000    0.000    0.000 
#
# Total GULP energy -356337.390261 kJ/mol
# GULP energy per Si atom -5567.771723 kJ/mol
# Density = 1.854227 g / cm^3
# Si number density = 18.584573 Si / 1000 Ang^3
#
#
#
# Elastic Constant Matrix: (Units=GPa)
#
#
# Indices 1 2 3 4 5 6 
#
# 1 73.6808 -1.9784 40.2003 0.0000 0.0000 0.0000
# 2 -1.9784 31.5872 -1.3677 0.0000 0.0000 0.0000
# 3 40.2003 -1.3677 100.5748 0.0000 0.0000 0.0000
# 4 0.0000 0.0000 0.0000 8.4745 0.0000 0.0000
# 5 0.0000 0.0000 0.0000 0.0000 28.6406 0.0000
# 6 0.0000 0.0000 0.0000 0.0000 0.0000 7.4928
#
#
#
# Elastic Compliance Matrix: (Units=1/GPa)
#
#
# Indices 1 2 3 4 5 6 
#
# 1 0.017377 0.000788 -0.006935 0.000000 0.000000 0.000000
# 2 0.000788 0.031713 0.000116 0.000000 0.000000 0.000000
# 3 -0.006935 0.000116 0.012716 0.000000 0.000000 0.000000
# 4 0.000000 0.000000 0.000000 0.118001 0.000000 0.000000
# 5 0.000000 0.000000 0.000000 0.000000 0.034915 0.000000
# 6 0.000000 0.000000 0.000000 0.000000 0.000000 0.133461
#
#
# Mechanical properties :
#
#
# Convention : Reuss Voigt Hill
#
# Bulk Modulus (GPa) = 20.10257 31.06123 25.58190
# Shear Modulus (GPa) = 13.26874 20.18751 16.72812
#
# Velocity S-wave (km/s) = 2.67491 3.29941 3.00343
# Velocity P-wave (km/s) = 4.51448 5.59147 5.08158
#
# Compressibility (1/GPa) = 0.04974489
#
# Stress axis : x y z
#
# Youngs Moduli (GPa) = 57.54766 31.53304 78.63890
#
# Poissons Ratio (x) = -0.02485 0.54535
# Poissons Ratio (y) = -0.04535 -0.00914
# Poissons Ratio (z) = 0.39909 -0.00367
#
# Static dielectric constant tensor:
#      x y z
#    x 1.645930 0.000000 0.000000 
#    y 0.000000 4.076610 0.000000 
#    z 0.000000 0.000000 1.696010 
# 
# From -- ./inp_files/28402.got.cif
#   From: 2010.05.17/outbox.cif.g08.bks.cpg/sg59_15_cif.got.tgz:28402.got - 2010.06.03 14:40:33.
