data_PCOD9446907
_publ_section_title
;
Structure prediction by ZEFSAII (Michael W. Deem and Ramdas Pophale) SiO2 
 PCOD9446907
Probable space group: P M M N
;
_chemical_formula_sum "Si O2"
_cell_formula_units_Z 64
_cell_length_a 8.899496
_cell_length_b 29.192106
_cell_length_c 15.913831
_cell_angle_alpha 90.000000
_cell_angle_beta 90.000000
_cell_angle_gamma 90.000000
_cell_volume 4134.334211
_symmetry_space_group_name_H-M "P M M N"
_symmetry_group_IT_number 59
_space_group.IT_coordinate_system_code '2'
_symmetry_cell_setting 'orthorhombic'
loop_
_space_group_symop_operation_xyz
x,y,z
1/2-x,1/2-y,z
1/2+x,-y,-z
-x,1/2+y,-z
-x,-y,-z
1/2+x,1/2+y,-z
1/2-x,y,z
x,1/2-y,z
loop_
_atom_site_type_symbol
_atom_site_label
_atom_site_fract_x
_atom_site_fract_y
_atom_site_fract_z
Si Si1 0.571051 0.052317 0.402966
Si Si2 0.422810 0.194431 0.003868
Si Si3 0.067309 0.197520 0.498842
Si Si4 0.929620 0.304054 0.179831
Si Si5 0.569549 0.859244 0.666364
Si Si6 0.930969 0.645910 0.330286
Si Si7 0.070126 0.052134 0.586852
Si Si8 0.070411 0.803845 0.171819
O O1 0.750000 0.058580 0.399716
O O2 0.490880 0.089416 0.344828
O O3 0.512940 0.059345 0.498329
O O4 0.536579 0.999196 0.382208
O O5 0.250000 0.179277 0.006539
O O6 0.424076 0.250000 0.003233
O O7 0.501343 0.180546 0.917099
O O8 0.509337 0.181146 0.088548
O O9 0.250000 0.197742 0.498453
O O10 0.015796 0.250000 0.493860
O O11 0.020853 0.168494 0.417627
O O12 0.022306 0.173951 0.586131
O O13 0.750000 0.308095 0.182174
O O14 0.967953 0.250000 0.191521
O O15 0.003706 0.333621 0.253107
O O16 0.750000 0.859117 0.669644
O O17 0.750000 0.650042 0.321967
O O18 0.967262 0.592913 0.349522
O O19 0.007239 0.666896 0.248685
O O20 0.250000 0.054856 0.570184
O O21 0.250000 0.806615 0.167985
O O22 0.029605 0.750000 0.184427
#
# Coordination Sequence:
#
# PCOD9446907 Si02
#       8
#     8   8   8   8   8   8   8   8
#     4  10  19  31  49  70  94 122 158 205 255 295
#     4   9  17  31  51  72  93 124 165 202 237 281
#     4   9  17  28  43  63  90 126 165 200 230 267
#     4  10  20  33  49  72 102 131 160 200 247 288
#     4  11  20  32  48  68  97 131 169 203 236 286
#     4  10  18  31  49  68  92 125 166 202 236 283
#     4   9  18  33  50  69  92 122 160 205 251 295
#     4  10  20  32  46  69 101 131 159 197 243 285
#
# _framework density 15.480122
#
# number of rings (size 3 to 8) (size 9 to 14) (size 15 to 20)
#    0.000    2.250    1.250    2.625    0.000    5.000 
#    0.000    0.000    0.000    2.250    0.000    0.875 
#    0.000    0.000    0.000    0.000    0.000    0.000 
#
# Total GULP energy -356981.927484 kJ/mol
# GULP energy per Si atom -5577.842617 kJ/mol
# Density = 1.544489 g / cm^3
# Si number density = 15.480122 Si / 1000 Ang^3
#
#
#
# Elastic Constant Matrix: (Units=GPa)
#
#
# Indices 1 2 3 4 5 6 
#
# 1 53.1539 46.2051 51.7883 0.0000 0.0000 0.0000
# 2 46.2051 101.2355 68.2033 0.0000 0.0000 0.0000
# 3 51.7883 68.2033 137.1423 0.0000 0.0000 0.0000
# 4 0.0000 0.0000 0.0000 9.1077 0.0000 0.0000
# 5 0.0000 0.0000 0.0000 0.0000 25.7046 0.0000
# 6 0.0000 0.0000 0.0000 0.0000 0.0000 20.8196
#
#
#
# Elastic Compliance Matrix: (Units=1/GPa)
#
#
# Indices 1 2 3 4 5 6 
#
# 1 0.036516 -0.011093 -0.008273 0.000000 0.000000 0.000000
# 2 -0.011093 0.018225 -0.004875 0.000000 0.000000 0.000000
# 3 -0.008273 -0.004875 0.012840 0.000000 0.000000 0.000000
# 4 0.000000 0.000000 0.000000 0.109797 0.000000 0.000000
# 5 0.000000 0.000000 0.000000 0.000000 0.038904 0.000000
# 6 0.000000 0.000000 0.000000 0.000000 0.000000 0.048032
#
#
# Mechanical properties :
#
#
# Convention : Reuss Voigt Hill
#
# Bulk Modulus (GPa) = 52.35467 69.32502 60.83984
# Shear Modulus (GPa) = 15.66607 19.48205 17.57406
#
# Velocity S-wave (km/s) = 3.18466 3.55141 3.37303
# Velocity P-wave (km/s) = 6.88598 7.85475 7.38627
#
# Compressibility (1/GPa) = 0.01910049
#
# Stress axis : x y z
#
# Youngs Moduli (GPa) = 27.38498 54.86941 77.88230
#
# Poissons Ratio (x) = 0.60868 0.64429
# Poissons Ratio (y) = 0.30379 0.37965
# Poissons Ratio (z) = 0.22655 0.26747
#
# Static dielectric constant tensor:
#      x y z
#    x 1.518430 0.000000 0.000000 
#    y 0.000000 1.516100 0.000000 
#    z 0.000000 0.000000 1.487150 
# 
# From -- ./inp_files/21964.got.cif
#   From: 2010.05.17/outbox.cif.g08.bks.cpg/sg59_11_cif.got.tgz:21964.got - 2010.06.03 14:40:33.
