data_PCOD9446127
_publ_section_title
;
Structure prediction by ZEFSAII (Michael W. Deem and Ramdas Pophale) SiO2 
 PCOD9446127
Probable space group: P M M N
;
_chemical_formula_sum "Si O2"
_cell_formula_units_Z 56
_cell_length_a 8.437970
_cell_length_b 20.847861
_cell_length_c 18.713790
_cell_angle_alpha 90.000000
_cell_angle_beta 90.000000
_cell_angle_gamma 90.000000
_cell_volume 3292.010649
_symmetry_space_group_name_H-M "P M M N"
_symmetry_group_IT_number 59
_space_group.IT_coordinate_system_code '2'
_symmetry_cell_setting 'orthorhombic'
loop_
_space_group_symop_operation_xyz
x,y,z
1/2-x,1/2-y,z
1/2+x,-y,-z
-x,1/2+y,-z
-x,-y,-z
1/2+x,1/2+y,-z
1/2-x,y,z
x,1/2-y,z
loop_
_atom_site_type_symbol
_atom_site_label
_atom_site_fract_x
_atom_site_fract_y
_atom_site_fract_z
Si Si1 0.943638 0.177796 0.569011
Si Si2 0.440475 0.565139 0.537243
Si Si3 0.436879 0.548675 0.841864
Si Si4 0.062550 0.072483 0.014365
Si Si5 0.057099 0.890442 0.287884
Si Si6 0.060146 0.460388 0.307406
Si Si7 0.937523 0.405492 0.866870
O O1 0.750000 0.177417 0.569565
O O2 0.995789 0.250000 0.553736
O O3 0.993083 0.125407 0.510746
O O4 0.995398 0.154685 0.647752
O O5 0.500000 0.500000 0.500000
O O6 0.250000 0.563867 0.538196
O O7 0.503888 0.567884 0.617742
O O8 0.250000 0.535911 0.845070
O O9 0.485625 0.571522 0.763202
O O10 0.529082 0.481095 0.852112
O O11 0.485697 0.591378 0.909981
O O12 0.750000 0.929363 0.978076
O O13 0.016781 0.110468 0.942510
O O14 0.000000 0.000000 0.000000
O O15 0.250000 0.889542 0.286530
O O16 0.005263 0.873541 0.207202
O O17 0.011715 0.964022 0.305734
O O18 0.250000 0.457933 0.302401
O O19 0.750000 0.396122 0.874334
#
# Coordination Sequence:
#
# PCOD9446127 Si02
#       7
#     8   8   8   8   8   8   8
#     4   9  17  30  48  70  95 123 158 199 241 285
#     4  11  20  31  49  72  94 122 159 200 244 289
#     4  10  17  25  37  57  84 114 149 186 230 278
#     4  10  16  23  34  51  79 115 152 185 224 272
#     4   8  14  25  41  62  86 115 151 190 231 272
#     4  10  18  30  45  64  90 119 154 195 236 283
#     4   9  15  23  36  54  81 115 151 188 225 270
#
# _framework density 17.010881000000001
#
# number of rings (size 3 to 8) (size 9 to 14) (size 15 to 20)
#    0.000    2.429    1.429    6.429    0.000    0.000 
#    0.000    0.000    0.000    1.714    0.000    0.000 
#    0.000    1.143    0.000    9.714    0.000    6.143 
#
# Total GULP energy -311913.786320 kJ/mol
# GULP energy per Si atom -5569.889041 kJ/mol
# Density = 1.697216 g / cm^3
# Si number density = 17.010881 Si / 1000 Ang^3
#
#
#
# Elastic Constant Matrix: (Units=GPa)
#
#
# Indices 1 2 3 4 5 6 
#
# 1 45.4526 8.1141 23.8779 0.0000 0.0000 0.0000
# 2 8.1141 56.7411 48.5632 0.0000 0.0000 0.0000
# 3 23.8779 48.5632 184.2980 0.0000 0.0000 0.0000
# 4 0.0000 0.0000 0.0000 10.8561 0.0000 0.0000
# 5 0.0000 0.0000 0.0000 0.0000 30.0742 0.0000
# 6 0.0000 0.0000 0.0000 0.0000 0.0000 7.4056
#
#
#
# Elastic Compliance Matrix: (Units=1/GPa)
#
#
# Indices 1 2 3 4 5 6 
#
# 1 0.023650 -0.000981 -0.002806 0.000000 0.000000 0.000000
# 2 -0.000981 0.022797 -0.005880 0.000000 0.000000 0.000000
# 3 -0.002806 -0.005880 0.007339 0.000000 0.000000 0.000000
# 4 0.000000 0.000000 0.000000 0.092114 0.000000 0.000000
# 5 0.000000 0.000000 0.000000 0.000000 0.033251 0.000000
# 6 0.000000 0.000000 0.000000 0.000000 0.000000 0.135033
#
#
# Mechanical properties :
#
#
# Convention : Reuss Voigt Hill
#
# Bulk Modulus (GPa) = 29.02517 49.73357 39.37937
# Shear Modulus (GPa) = 14.49274 23.39628 18.94451
#
# Velocity S-wave (km/s) = 2.92202 3.71262 3.34079
# Velocity P-wave (km/s) = 5.33704 6.90492 6.17098
#
# Compressibility (1/GPa) = 0.03445286
#
# Stress axis : x y z
#
# Youngs Moduli (GPa) = 42.28334 43.86617 136.26039
#
# Poissons Ratio (x) = 0.04302 0.38231
# Poissons Ratio (y) = 0.04147 0.80120
# Poissons Ratio (z) = 0.11863 0.25793
#
# Static dielectric constant tensor:
#      x y z
#    x 1.579500 0.000000 0.000000 
#    y 0.000000 1.549820 0.000000 
#    z 0.000000 0.000000 1.650540 
# 
# From -- ./inp_files/29626.got.cif
#   From: 2010.05.17/outbox.cif.g08.bks.cpg/sg59_15_cif.got.tgz:29626.got - 2010.06.03 14:40:33.
