data_PCOD9446499
_publ_section_title
;
Structure prediction by ZEFSAII (Michael W. Deem and Ramdas Pophale) SiO2 
 PCOD9446499
Probable space group: P M M N
;
_chemical_formula_sum "Si O2"
_cell_formula_units_Z 64
_cell_length_a 20.591856
_cell_length_b 8.385093
_cell_length_c 20.491517
_cell_angle_alpha 90.000000
_cell_angle_beta 90.000000
_cell_angle_gamma 90.000000
_cell_volume 3538.160152
_symmetry_space_group_name_H-M "P M M N"
_symmetry_group_IT_number 59
_space_group.IT_coordinate_system_code '2'
_symmetry_cell_setting 'orthorhombic'
loop_
_space_group_symop_operation_xyz
x,y,z
1/2-x,1/2-y,z
1/2+x,-y,-z
-x,1/2+y,-z
-x,-y,-z
1/2+x,1/2+y,-z
1/2-x,y,z
x,1/2-y,z
loop_
_atom_site_type_symbol
_atom_site_label
_atom_site_fract_x
_atom_site_fract_y
_atom_site_fract_z
Si Si1 0.031548 0.443398 0.342099
Si Si2 0.941128 0.557022 0.805353
Si Si3 0.081622 0.942439 0.849798
Si Si4 0.676376 0.559527 0.038953
Si Si5 0.071425 0.057677 0.478605
Si Si6 0.321297 0.941701 0.738338
Si Si7 0.611229 0.940850 0.385413
Si Si8 0.823519 0.440727 0.892308
O O1 0.027462 0.250000 0.341440
O O2 0.053813 0.494495 0.270374
O O3 0.077518 0.492417 0.403083
O O4 0.959637 0.506642 0.358694
O O5 0.940135 0.750000 0.805931
O O6 0.877651 0.496584 0.841848
O O7 0.007277 0.503744 0.841997
O O8 0.080481 0.750000 0.848016
O O9 0.123127 0.000439 0.787340
O O10 0.121505 0.993417 0.913220
O O11 0.750000 0.501786 0.055910
O O12 0.676356 0.750000 0.043590
O O13 0.663767 0.510158 0.964351
O O14 0.072390 0.250000 0.478948
O O15 0.116405 0.004610 0.538917
O O16 0.000000 0.000000 0.500000
O O17 0.250000 0.999901 0.758168
O O18 0.321583 0.750000 0.742195
O O19 0.337351 0.989487 0.664754
O O20 0.614901 0.750000 0.383819
O O21 0.750000 0.490134 0.873596
O O22 0.824927 0.250000 0.896927
#
# Coordination Sequence:
#
# PCOD9446499 Si02
#       8
#     8   8   8   8   8   8   8   8
#     4   9  16  31  51  72 102 136 171 209 255 310
#     4  10  20  34  56  82 107 136 171 216 263 307
#     4  10  20  35  54  78 106 137 175 216 260 308
#     4  10  21  37  57  80 106 138 177 217 255 301
#     4   8  15  26  44  69  96 129 166 207 253 300
#     4  10  20  34  51  70  99 144 188 219 255 310
#     4  10  18  28  45  72 103 132 170 219 265 304
#     4  10  22  40  60  80 103 134 170 209 260 319
#
# _framework density 18.088495999999999
#
# number of rings (size 3 to 8) (size 9 to 14) (size 15 to 20)
#    0.000    2.375    1.250    1.500    0.000    4.750 
#    0.000    0.000    0.000    0.750    0.000    5.250 
#    0.000    0.000    0.000    0.000    0.000    0.000 
#
# Total GULP energy -356742.431986 kJ/mol
# GULP energy per Si atom -5574.100500 kJ/mol
# Density = 1.804733 g / cm^3
# Si number density = 18.088496 Si / 1000 Ang^3
#
#
#
# Elastic Constant Matrix: (Units=GPa)
#
#
# Indices 1 2 3 4 5 6 
#
# 1 99.1867 16.1669 69.3199 0.0000 0.0000 0.0000
# 2 16.1669 7.1388 11.0999 0.0000 0.0000 0.0000
# 3 69.3199 11.0999 113.8232 0.0000 0.0000 0.0000
# 4 0.0000 0.0000 0.0000 24.7706 0.0000 0.0000
# 5 0.0000 0.0000 0.0000 0.0000 17.1659 0.0000
# 6 0.0000 0.0000 0.0000 0.0000 0.0000 21.0929
#
#
#
# Elastic Compliance Matrix: (Units=1/GPa)
#
#
# Indices 1 2 3 4 5 6 
#
# 1 0.023608 -0.036669 -0.010802 0.000000 0.000000 0.000000
# 2 -0.036669 0.222073 0.000676 0.000000 0.000000 0.000000
# 3 -0.010802 0.000676 0.015298 0.000000 0.000000 0.000000
# 4 0.000000 0.000000 0.000000 0.040370 0.000000 0.000000
# 5 0.000000 0.000000 0.000000 0.000000 0.058255 0.000000
# 6 0.000000 0.000000 0.000000 0.000000 0.000000 0.047409
#
#
# Mechanical properties :
#
#
# Convention : Reuss Voigt Hill
#
# Bulk Modulus (GPa) = 5.97411 45.92470 25.94941
# Shear Modulus (GPa) = 8.98634 20.84335 14.91484
#
# Velocity S-wave (km/s) = 2.23132 3.39823 2.87461
# Velocity P-wave (km/s) = 3.15408 6.39072 5.03933
#
# Compressibility (1/GPa) = 0.16738894
#
# Stress axis : x y z
#
# Youngs Moduli (GPa) = 42.35861 4.50302 65.36784
#
# Poissons Ratio (x) = 0.16512 0.70608
# Poissons Ratio (y) = 1.55325 -0.04416
# Poissons Ratio (z) = 0.45754 -0.00304
#
# Static dielectric constant tensor:
#      x y z
#    x 1.608470 0.000000 0.000000 
#    y 0.000000 1.645240 0.000000 
#    z 0.000000 0.000000 1.645970 
# 
# From -- ./inp_files/28267.got.cif
#   From: 2010.05.17/outbox.cif.g08.bks.cpg/sg59_15_cif.got.tgz:28267.got - 2010.06.03 14:40:33.
