data_PCOD9446338
_publ_section_title
;
Structure prediction by ZEFSAII (Michael W. Deem and Ramdas Pophale) SiO2 
 PCOD9446338
Probable space group: P M M N
;
_chemical_formula_sum "Si O2"
_cell_formula_units_Z 64
_cell_length_a 7.335118
_cell_length_b 14.415151
_cell_length_c 30.227594
_cell_angle_alpha 90.000000
_cell_angle_beta 90.000000
_cell_angle_gamma 90.000000
_cell_volume 3196.170076
_symmetry_space_group_name_H-M "P M M N"
_symmetry_group_IT_number 59
_space_group.IT_coordinate_system_code '2'
_symmetry_cell_setting 'orthorhombic'
loop_
_space_group_symop_operation_xyz
x,y,z
1/2-x,1/2-y,z
1/2+x,-y,-z
-x,1/2+y,-z
-x,-y,-z
1/2+x,1/2+y,-z
1/2-x,y,z
x,1/2-y,z
loop_
_atom_site_type_symbol
_atom_site_label
_atom_site_fract_x
_atom_site_fract_y
_atom_site_fract_z
Si Si1 0.470869 0.641725 0.082566
Si Si2 0.527711 0.643785 0.346715
Si Si3 0.459612 0.481394 0.832687
Si Si4 0.973574 0.143067 0.109752
Si Si5 0.464311 0.637086 0.986647
Si Si6 0.470042 0.855346 0.516221
Si Si7 0.535383 0.527847 0.428722
Si Si8 0.972496 0.644173 0.245935
O O1 0.250000 0.638095 0.082385
O O2 0.522165 0.750000 0.086749
O O3 0.537458 0.585327 0.124534
O O4 0.537058 0.606286 0.034332
O O5 0.750000 0.643397 0.347575
O O6 0.472779 0.750000 0.356743
O O7 0.461782 0.572574 0.383824
O O8 0.473820 0.622210 0.296306
O O9 0.250000 0.501208 0.820866
O O10 0.538768 0.576880 0.851277
O O11 0.539088 0.427094 0.791020
O O12 0.750000 0.140146 0.108636
O O13 0.024900 0.250000 0.115270
O O14 0.037781 0.108757 0.061227
O O15 0.250000 0.614553 0.986758
O O16 0.477531 0.750000 0.986986
O O17 0.250000 0.853970 0.518767
O O18 0.534669 0.750000 0.521508
O O19 0.516164 0.897635 0.468284
O O20 0.537686 0.930675 0.552080
O O21 0.750000 0.512956 0.421368
O O22 0.750000 0.644319 0.244792
O O23 0.028452 0.750000 0.235825
#
# Coordination Sequence:
#
# PCOD9446338 Si02
#       8
#     8   8   8   8   8   8   8   8
#     4   9  17  28  41  57  79 106 130 152 185 234
#     4   8  13  22  38  58  77 100 133 169 197 224
#     4  10  18  26  41  63  81 100 128 162 199 235
#     4   8  14  25  40  57  77 101 130 162 193 228
#     4   7  11  22  38  53  72 101 131 153 180 226
#     4   9  17  27  38  57  88 116 131 157 209 252
#     4   9  16  26  42  61  78 104 146 179 190 219
#     4   8  14  24  37  56  82 104 122 155 204 244
#
# _framework density 20.023966000000001
#
# number of rings (size 3 to 8) (size 9 to 14) (size 15 to 20)
#    0.000    3.500    0.000    3.000    0.000    2.000 
#    0.000    0.000    0.000    1.875    0.000   10.500 
#    0.000    0.000    0.000    2.875    0.000    3.750 
#
# Total GULP energy -356934.094501 kJ/mol
# GULP energy per Si atom -5577.095227 kJ/mol
# Density = 1.997839 g / cm^3
# Si number density = 20.023966 Si / 1000 Ang^3
#
#
#
# Elastic Constant Matrix: (Units=GPa)
#
#
# Indices 1 2 3 4 5 6 
#
# 1 74.8501 -6.1292 -6.3120 0.0000 0.0000 0.0000
# 2 -6.1292 122.2939 79.6865 0.0000 0.0000 0.0000
# 3 -6.3120 79.6865 135.7146 0.0000 0.0000 0.0000
# 4 0.0000 0.0000 0.0000 32.6435 0.0000 0.0000
# 5 0.0000 0.0000 0.0000 0.0000 -2.2318 0.0000
# 6 0.0000 0.0000 0.0000 0.0000 0.0000 -0.1722
#
#
#
# Elastic Compliance Matrix: (Units=1/GPa)
#
#
# Indices 1 2 3 4 5 6 
#
# 1 0.013427 0.000431 0.000371 0.000000 0.000000 0.000000
# 2 0.000431 0.013258 -0.007765 0.000000 0.000000 0.000000
# 3 0.000371 -0.007765 0.011945 0.000000 0.000000 0.000000
# 4 0.000000 0.000000 0.000000 0.030634 0.000000 0.000000
# 5 0.000000 0.000000 0.000000 0.000000 -0.448061 0.000000
# 6 0.000000 0.000000 0.000000 0.000000 0.000000 -5.808580
#
#
# Mechanical properties :
#
#
# Convention : Reuss Voigt Hill
#
# Bulk Modulus (GPa) = 40.47772 51.92770 46.20271
# Shear Modulus (GPa) = -0.81100 23.75546 11.47223
#
# Velocity S-wave (km/s) = -0.63710 3.44808 2.39618
# Velocity P-wave (km/s) = 4.44042 6.46850 5.54792
#
# Compressibility (1/GPa) = 0.02470495
#
# Stress axis : x y z
#
# Youngs Moduli (GPa) = 74.47875 75.42626 83.71897
#
# Poissons Ratio (x) = -0.03250 -0.03110
# Poissons Ratio (y) = -0.03209 0.65004
# Poissons Ratio (z) = -0.02767 0.58565
#
# Static dielectric constant tensor:
#      x y z
#    x 1.794910 0.000000 0.000000 
#    y 0.000000 1.718630 0.000000 
#    z 0.000000 0.000000 1.693550 
# 
# From -- ./inp_files/33250.got.cif
#   From: 2010.05.17/outbox.cif.g08.bks.cpg/sg59_17_cif.got.tgz:33250.got - 2010.06.03 14:40:33.
