data_PCOD9446790
_publ_section_title
;
Structure prediction by ZEFSAII (Michael W. Deem and Ramdas Pophale) SiO2 
 PCOD9446790
Probable space group: P M M N
;
_chemical_formula_sum "Si O2"
_cell_formula_units_Z 64
_cell_length_a 9.139036
_cell_length_b 30.358594
_cell_length_c 15.061660
_cell_angle_alpha 90.000000
_cell_angle_beta 90.000000
_cell_angle_gamma 90.000000
_cell_volume 4178.831713
_symmetry_space_group_name_H-M "P M M N"
_symmetry_group_IT_number 59
_space_group.IT_coordinate_system_code '2'
_symmetry_cell_setting 'orthorhombic'
loop_
_space_group_symop_operation_xyz
x,y,z
1/2-x,1/2-y,z
1/2+x,-y,-z
-x,1/2+y,-z
-x,-y,-z
1/2+x,1/2+y,-z
1/2-x,y,z
x,1/2-y,z
loop_
_atom_site_type_symbol
_atom_site_label
_atom_site_fract_x
_atom_site_fract_y
_atom_site_fract_z
Si Si1 0.926041 0.054917 0.628854
Si Si2 0.074139 0.882143 0.206534
Si Si3 0.574114 0.799783 0.502049
Si Si4 0.425356 0.534153 0.680526
Si Si5 0.925201 0.388623 0.454276
Si Si6 0.078107 0.468769 0.129285
Si Si7 0.422748 0.564821 0.038688
Si Si8 0.074758 0.200343 0.707405
O O1 0.750000 0.047983 0.626928
O O2 0.963349 0.081236 0.719040
O O3 0.965943 0.085437 0.545058
O O4 0.006510 0.008239 0.631090
O O5 0.250000 0.878691 0.207225
O O6 0.029218 0.898502 0.109212
O O7 0.003583 0.836773 0.236388
O O8 0.750000 0.802204 0.509970
O O9 0.529653 0.750000 0.529524
O O10 0.501168 0.841198 0.549746
O O11 0.537897 0.804338 0.397103
O O12 0.250000 0.529658 0.683907
O O13 0.460902 0.578411 0.626040
O O14 0.492252 0.535528 0.778902
O O15 0.750000 0.382373 0.456747
O O16 0.250000 0.460954 0.143492
O O17 0.061779 0.518424 0.091107
O O18 0.012970 0.438235 0.051667
O O19 0.250000 0.570023 0.018936
O O20 0.250000 0.195890 0.714454
O O21 0.034735 0.250000 0.734358
#
# Coordination Sequence:
#
# PCOD9446790 Si02
#       8
#     8   8   8   8   8   8   8   8
#     4  10  19  33  47  66  98 132 167 202 231 275
#     4  10  18  30  49  71  97 128 161 197 236 281
#     4   9  18  32  49  70  95 124 161 203 244 285
#     4  11  22  33  47  69  97 131 168 204 240 282
#     4  10  21  34  48  69  97 130 167 202 239 283
#     4  10  19  33  50  69  93 124 159 198 239 281
#     4   9  18  32  48  69  95 122 155 197 238 278
#     4   9  18  31  46  68  98 127 158 198 239 283
#
# _framework density 15.315284999999999
#
# number of rings (size 3 to 8) (size 9 to 14) (size 15 to 20)
#    0.000    2.250    2.500    1.875    0.000    3.500 
#    0.000    1.250    0.000    0.000    0.000    0.875 
#    0.000    7.000    0.000    0.000    0.000    0.000 
#
# Total GULP energy -356933.040230 kJ/mol
# GULP energy per Si atom -5577.078754 kJ/mol
# Density = 1.528043 g / cm^3
# Si number density = 15.315285 Si / 1000 Ang^3
#
#
#
# Elastic Constant Matrix: (Units=GPa)
#
#
# Indices 1 2 3 4 5 6 
#
# 1 32.4903 44.5353 28.1255 0.0000 0.0000 0.0000
# 2 44.5353 120.4590 37.1433 0.0000 0.0000 0.0000
# 3 28.1255 37.1433 55.4518 0.0000 0.0000 0.0000
# 4 0.0000 0.0000 0.0000 23.0289 0.0000 0.0000
# 5 0.0000 0.0000 0.0000 0.0000 22.8341 0.0000
# 6 0.0000 0.0000 0.0000 0.0000 0.0000 29.9859
#
#
#
# Elastic Compliance Matrix: (Units=1/GPa)
#
#
# Indices 1 2 3 4 5 6 
#
# 1 0.088365 -0.023757 -0.028907 0.000000 0.000000 0.000000
# 2 -0.023757 0.016849 0.000763 0.000000 0.000000 0.000000
# 3 -0.028907 0.000763 0.032184 0.000000 0.000000 0.000000
# 4 0.000000 0.000000 0.000000 0.043424 0.000000 0.000000
# 5 0.000000 0.000000 0.000000 0.000000 0.043794 0.000000
# 6 0.000000 0.000000 0.000000 0.000000 0.000000 0.033349
#
#
# Mechanical properties :
#
#
# Convention : Reuss Voigt Hill
#
# Bulk Modulus (GPa) = 29.76283 47.55659 38.65971
# Shear Modulus (GPa) = 13.40608 21.74290 17.57449
#
# Velocity S-wave (km/s) = 2.96182 3.77196 3.39117
# Velocity P-wave (km/s) = 5.58320 7.07738 6.37423
#
# Compressibility (1/GPa) = 0.03359895
#
# Stress axis : x y z
#
# Youngs Moduli (GPa) = 11.31666 59.34950 31.07134
#
# Poissons Ratio (x) = 1.40994 0.89817
# Poissons Ratio (y) = 0.26884 -0.02372
# Poissons Ratio (z) = 0.32713 -0.04530
#
# Static dielectric constant tensor:
#      x y z
#    x 1.509500 0.000000 0.000000 
#    y 0.000000 1.498960 0.000000 
#    z 0.000000 0.000000 1.497280 
# 
# From -- ./inp_files/21932.got.cif
#   From: 2010.05.17/outbox.cif.g08.bks.cpg/sg59_11_cif.got.tgz:21932.got - 2010.06.03 14:40:33.
