data_PCOD9446002
_publ_section_title
;
Structure prediction by ZEFSAII (Michael W. Deem and Ramdas Pophale) SiO2 
 PCOD9446002
Probable space group: P N N M
;
_chemical_formula_sum "Si O2"
_cell_formula_units_Z 64
_cell_length_a 15.000000
_cell_length_b 9.000000
_cell_length_c 24.000000
_cell_angle_alpha 90.000000
_cell_angle_beta 90.000000
_cell_angle_gamma 90.000000
_cell_volume 3240.000000
_symmetry_space_group_name_H-M "P N N M"
_symmetry_group_IT_number 58
_symmetry_cell_setting 'orthorhombic'
loop_
_space_group_symop_operation_xyz
x,y,z
-x,-y,z
1/2+x,1/2-y,1/2-z
1/2-x,1/2+y,1/2-z
-x,-y,-z
x,y,-z
1/2-x,1/2+y,1/2+z
1/2+x,1/2-y,1/2+z
loop_
_atom_site_type_symbol
_atom_site_label
_atom_site_fract_x
_atom_site_fract_y
_atom_site_fract_z
Si Si1 0.216937 0.571211 0.569050
Si Si2 0.740753 0.457080 0.829038
Si Si3 0.457652 0.247110 0.936493
Si Si4 0.602587 0.477347 0.729032
Si Si5 0.018883 0.676909 0.935282
Si Si6 0.678113 0.681753 0.633188
Si Si7 0.854336 0.736671 0.143179
Si Si8 0.875342 0.918765 0.435779
O O1 0.225642 0.574599 0.500000
O O2 0.115751 0.627716 0.583514
O O3 0.251912 0.415943 0.596135
O O4 0.279558 0.687983 0.602838
O O5 0.669236 0.500365 0.781515
O O6 0.778714 0.292715 0.821555
O O7 0.817533 0.577614 0.837598
O O8 0.699518 0.435754 0.890430
O O9 0.555049 0.292661 0.913863
O O10 0.414890 0.413030 0.937767
O O11 0.475402 0.201393 0.000000
O O12 0.500000 0.500000 0.746706
O O13 0.621007 0.576997 0.674075
O O14 0.623819 0.319117 0.701021
O O15 0.112302 0.728838 0.908331
O O16 0.000000 0.500000 0.935223
O O17 0.941625 0.738539 0.895393
O O18 0.013359 0.726846 0.000000
O O19 0.850544 0.883419 0.500000
#
# Coordination Sequence:
#
# PCOD9446002 Si02
#       8
#     8   8   8   8   8   8   8   8
#     4  10  20  35  60  91 127 167 204 254 324 395
#     4  12  24  39  66  93 123 163 220 266 325 388
#     4   8  15  31  52  83 122 157 196 242 297 363
#     4  11  25  44  66  87 119 165 216 270 327 381
#     4  11  22  38  64  97 135 173 208 258 330 403
#     4  11  24  43  60  92 131 162 212 275 327 390
#     4  11  22  40  62  90 125 165 212 265 318 387
#     4   9  18  32  57  91 125 159 203 259 312 378
#
# _framework density 19.753086
#
# number of rings (size 3 to 8) (size 9 to 14) (size 15 to 20)
#    0.000    1.625    3.750    2.250    1.750    1.500 
#    0.000    2.500    0.000    2.250    0.000    0.000 
#    0.000    0.000    0.000    0.000    0.000    0.000 
#
# Total GULP energy -356402.089482 kJ/mol
# GULP energy per Si atom -5568.782648 kJ/mol
# Density = 1.970813 g / cm^3
# Si number density = 19.753086 Si / 1000 Ang^3
#
#
#
# Elastic Constant Matrix: (Units=GPa)
#
#
# Indices 1 2 3 4 5 6 
#
# 1 76.9606 28.1882 31.0138 0.0000 0.0000 0.0000
# 2 28.1882 79.9490 14.9230 0.0000 0.0000 0.0000
# 3 31.0138 14.9230 75.7315 0.0000 0.0000 0.0000
# 4 0.0000 0.0000 0.0000 25.8372 0.0000 0.0000
# 5 0.0000 0.0000 0.0000 0.0000 34.4446 0.0000
# 6 0.0000 0.0000 0.0000 0.0000 0.0000 33.7422
#
#
#
# Elastic Compliance Matrix: (Units=1/GPa)
#
#
# Indices 1 2 3 4 5 6 
#
# 1 0.017262 -0.004949 -0.006094 0.000000 0.000000 0.000000
# 2 -0.004949 0.014404 -0.000812 0.000000 0.000000 0.000000
# 3 -0.006094 -0.000812 0.015860 0.000000 0.000000 0.000000
# 4 0.000000 0.000000 0.000000 0.038704 0.000000 0.000000
# 5 0.000000 0.000000 0.000000 0.000000 0.029032 0.000000
# 6 0.000000 0.000000 0.000000 0.000000 0.000000 0.029636
#
#
# Mechanical properties :
#
#
# Convention : Reuss Voigt Hill
#
# Bulk Modulus (GPa) = 41.98607 42.32122 42.15364
# Shear Modulus (GPa) = 28.32105 29.37254 28.84679
#
# Velocity S-wave (km/s) = 3.79060 3.86033 3.82562
# Velocity P-wave (km/s) = 6.36080 6.42971 6.39535
#
# Compressibility (1/GPa) = 0.02381743
#
# Stress axis : x y z
#
# Youngs Moduli (GPa) = 57.93068 69.42378 63.05106
#
# Poissons Ratio (x) = 0.34356 0.38424
# Poissons Ratio (y) = 0.28668 0.05118
# Poissons Ratio (z) = 0.35303 0.05636
#
# Static dielectric constant tensor:
#      x y z
#    x 1.796670 0.000000 0.000000 
#    y 0.000000 1.848250 0.000000 
#    z 0.000000 0.000000 1.641350 
# 
# From -- ./inp_files/32213.got.cif
#   From: 2010.05.17/outbox.ucp.g08.bks.cvg/sg58_17_cif.got.tgz:32213.got - 2010.06.11 16:41:41.
