data_PCOD9446440
_publ_section_title
;
Structure prediction by ZEFSAII (Michael W. Deem and Ramdas Pophale) SiO2 
 PCOD9446440
Probable space group: P M M N
;
_chemical_formula_sum "Si O2"
_cell_formula_units_Z 64
_cell_length_a 18.984353
_cell_length_b 8.638670
_cell_length_c 27.014027
_cell_angle_alpha 90.000000
_cell_angle_beta 90.000000
_cell_angle_gamma 90.000000
_cell_volume 4430.288562
_symmetry_space_group_name_H-M "P M M N"
_symmetry_group_IT_number 59
_space_group.IT_coordinate_system_code '2'
_symmetry_cell_setting 'orthorhombic'
loop_
_space_group_symop_operation_xyz
x,y,z
1/2-x,1/2-y,z
1/2+x,-y,-z
-x,1/2+y,-z
-x,-y,-z
1/2+x,1/2+y,-z
1/2-x,y,z
x,1/2-y,z
loop_
_atom_site_type_symbol
_atom_site_label
_atom_site_fract_x
_atom_site_fract_y
_atom_site_fract_z
Si Si1 0.085574 0.935590 0.394433
Si Si2 0.332475 0.564921 0.192840
Si Si3 0.170395 0.938228 0.493456
Si Si4 0.461950 0.564094 0.549239
Si Si5 0.414740 0.065737 0.100315
Si Si6 0.331849 0.435273 0.301398
Si Si7 0.041364 0.434847 0.951985
Si Si8 0.167732 0.564194 0.004879
O O1 0.085862 0.750000 0.392966
O O2 0.133935 0.985458 0.441581
O O3 0.118906 0.002438 0.344806
O O4 0.006768 0.994478 0.406008
O O5 0.250000 0.526068 0.183573
O O6 0.339708 0.750000 0.189595
O O7 0.380437 0.485417 0.151711
O O8 0.349261 0.508149 0.248154
O O9 0.250000 0.995503 0.497229
O O10 0.172148 0.750000 0.492388
O O11 0.119154 0.980537 0.539027
O O12 0.500000 0.500000 0.500000
O O13 0.466917 0.750000 0.550410
O O14 0.417730 0.250000 0.095784
O O15 0.493092 0.996839 0.092477
O O16 0.365498 0.000371 0.055916
O O17 0.250000 0.476346 0.312485
O O18 0.336645 0.250000 0.298226
O O19 0.041076 0.250000 0.952712
O O20 0.120024 0.497730 0.960295
O O21 0.000000 0.500000 0.000000
O O22 0.250000 0.523357 0.001214
O O23 0.161220 0.750000 0.005712
#
# Coordination Sequence:
#
# PCOD9446440 Si02
#       8
#     8   8   8   8   8   8   8   8
#     4  10  18  28  43  60  82 114 146 174 208 252
#     4  10  20  33  47  63  85 113 145 179 214 252
#     4   8  14  24  39  59  81 107 140 174 208 248
#     4   9  16  26  40  58  81 108 139 176 213 251
#     4  11  20  30  45  63  86 115 147 180 215 254
#     4  10  20  32  45  63  86 110 140 179 217 250
#     4  10  18  29  44  61  84 112 144 179 214 254
#     4  10  19  30  44  63  88 116 146 179 215 256
#
# _framework density 14.446012
#
# number of rings (size 3 to 8) (size 9 to 14) (size 15 to 20)
#    0.000    2.250    0.000    7.125    0.000    4.500 
#    0.000    0.000    0.000    7.500    0.000    0.000 
#    0.000    1.000    0.000    6.000    0.000    4.625 
#
# Total GULP energy -356718.643232 kJ/mol
# GULP energy per Si atom -5573.728800 kJ/mol
# Density = 1.441313 g / cm^3
# Si number density = 14.446012 Si / 1000 Ang^3
#
#
#
# Elastic Constant Matrix: (Units=GPa)
#
#
# Indices 1 2 3 4 5 6 
#
# 1 112.1604 39.4320 55.7266 0.0000 0.0000 0.0000
# 2 39.4320 71.5735 30.3290 0.0000 0.0000 0.0000
# 3 55.7266 30.3290 77.9562 0.0000 0.0000 0.0000
# 4 0.0000 0.0000 0.0000 23.0288 0.0000 0.0000
# 5 0.0000 0.0000 0.0000 0.0000 29.5244 0.0000
# 6 0.0000 0.0000 0.0000 0.0000 0.0000 20.5294
#
#
#
# Elastic Compliance Matrix: (Units=1/GPa)
#
#
# Indices 1 2 3 4 5 6 
#
# 1 0.014914 -0.004429 -0.008938 0.000000 0.000000 0.000000
# 2 -0.004429 0.018045 -0.003854 0.000000 0.000000 0.000000
# 3 -0.008938 -0.003854 0.020716 0.000000 0.000000 0.000000
# 4 0.000000 0.000000 0.000000 0.043424 0.000000 0.000000
# 5 0.000000 0.000000 0.000000 0.000000 0.033870 0.000000
# 6 0.000000 0.000000 0.000000 0.000000 0.000000 0.048711
#
#
# Mechanical properties :
#
#
# Convention : Reuss Voigt Hill
#
# Bulk Modulus (GPa) = 51.99498 56.96283 54.47890
# Shear Modulus (GPa) = 22.67232 23.69669 23.18451
#
# Velocity S-wave (km/s) = 3.96593 4.05453 4.01048
# Velocity P-wave (km/s) = 7.55263 7.83812 7.69670
#
# Compressibility (1/GPa) = 0.01923263
#
# Stress axis : x y z
#
# Youngs Moduli (GPa) = 67.05272 55.41697 48.27078
#
# Poissons Ratio (x) = 0.24544 0.43144
# Poissons Ratio (y) = 0.29698 0.18606
# Poissons Ratio (z) = 0.59931 0.21360
#
# Static dielectric constant tensor:
#      x y z
#    x 1.503010 0.000000 0.000000 
#    y 0.000000 1.482260 0.000000 
#    z 0.000000 0.000000 1.524840 
# 
# From -- ./inp_files/32287.got.cif
#   From: 2010.05.17/outbox.cif.g08.bks.cpg/sg59_17_cif.got.tgz:32287.got - 2010.06.03 14:40:33.
