data_PCOD9446316
_publ_section_title
;
Structure prediction by ZEFSAII (Michael W. Deem and Ramdas Pophale) SiO2 
 PCOD9446316
Probable space group: P M M N
;
_chemical_formula_sum "Si O2"
_cell_formula_units_Z 48
_cell_length_a 14.637490
_cell_length_b 17.292221
_cell_length_c 9.804427
_cell_angle_alpha 90.000000
_cell_angle_beta 90.000000
_cell_angle_gamma 90.000000
_cell_volume 2481.644716
_symmetry_space_group_name_H-M "P M M N"
_symmetry_group_IT_number 59
_space_group.IT_coordinate_system_code '2'
_symmetry_cell_setting 'orthorhombic'
loop_
_space_group_symop_operation_xyz
x,y,z
1/2-x,1/2-y,z
1/2+x,-y,-z
-x,1/2+y,-z
-x,-y,-z
1/2+x,1/2+y,-z
1/2-x,y,z
x,1/2-y,z
loop_
_atom_site_type_symbol
_atom_site_label
_atom_site_fract_x
_atom_site_fract_y
_atom_site_fract_z
Si Si1 0.649464 0.085279 0.716729
Si Si2 0.352858 0.126872 0.941257
Si Si3 0.992264 0.841039 0.814228
Si Si4 0.098506 0.540624 0.978148
Si Si5 0.954522 0.837484 0.335353
Si Si6 0.923948 0.943771 0.564273
O O1 0.750000 0.119729 0.691885
O O2 0.560064 0.133665 0.672038
O O3 0.643297 0.002481 0.640255
O O4 0.636535 0.068896 0.877577
O O5 0.250000 0.157257 0.944087
O O6 0.411853 0.156954 0.814706
O O7 0.347672 0.033606 0.925380
O O8 0.408605 0.147920 0.078272
O O9 0.008739 0.750000 0.795097
O O10 0.965699 0.886169 0.676937
O O11 0.077923 0.887400 0.880001
O O12 0.000000 0.500000 0.000000
O O13 0.952550 0.750000 0.384151
O O14 0.896073 0.891340 0.436649
O O15 0.000000 0.000000 0.500000
#
# Coordination Sequence:
#
# PCOD9446316 Si02
#       6
#     8   8   8   8   8   8
#     4  11  21  37  62  90 120 157 209 254 297 365
#     4  11  22  38  62  89 123 165 209 256 307 364
#     4  11  21  36  61  91 123 157 201 257 317 369
#     4  10  17  35  59  88 115 155 203 253 298 358
#     4  11  23  40  60  90 128 162 199 250 315 370
#     4  10  21  39  60  85 116 161 209 247 295 362
#
# _framework density 19.342010999999999
#
# number of rings (size 3 to 8) (size 9 to 14) (size 15 to 20)
#    0.000    1.333    6.667    2.500    0.000    2.333 
#    0.000    0.000    0.000    5.500    0.000    0.000 
#    0.000    0.000    0.000    0.000    0.000    0.000 
#
# Total GULP energy -267645.106711 kJ/mol
# GULP energy per Si atom -5575.939723 kJ/mol
# Density = 1.929799 g / cm^3
# Si number density = 19.342011 Si / 1000 Ang^3
#
#
#
# Elastic Constant Matrix: (Units=GPa)
#
#
# Indices 1 2 3 4 5 6 
#
# 1 67.8215 9.2852 7.3430 0.0000 0.0000 0.0000
# 2 9.2852 109.9171 17.4346 0.0000 0.0000 0.0000
# 3 7.3430 17.4346 88.9163 0.0000 0.0000 0.0000
# 4 0.0000 0.0000 0.0000 17.6780 0.0000 0.0000
# 5 0.0000 0.0000 0.0000 0.0000 2.5819 0.0000
# 6 0.0000 0.0000 0.0000 0.0000 0.0000 3.9524
#
#
#
# Elastic Compliance Matrix: (Units=1/GPa)
#
#
# Indices 1 2 3 4 5 6 
#
# 1 0.015007 -0.001105 -0.001023 0.000000 0.000000 0.000000
# 2 -0.001105 0.009471 -0.001766 0.000000 0.000000 0.000000
# 3 -0.001023 -0.001766 0.011677 0.000000 0.000000 0.000000
# 4 0.000000 0.000000 0.000000 0.056567 0.000000 0.000000
# 5 0.000000 0.000000 0.000000 0.000000 0.387317 0.000000
# 6 0.000000 0.000000 0.000000 0.000000 0.000000 0.253012
#
#
# Mechanical properties :
#
#
# Convention : Reuss Voigt Hill
#
# Bulk Modulus (GPa) = 35.25170 37.19783 36.22476
# Shear Modulus (GPa) = 6.66405 20.34860 13.50632
#
# Velocity S-wave (km/s) = 1.85819 3.24704 2.64538
# Velocity P-wave (km/s) = 4.78214 5.77330 5.30094
#
# Compressibility (1/GPa) = 0.02836743
#
# Stress axis : x y z
#
# Youngs Moduli (GPa) = 66.63711 105.58287 85.63689
#
# Poissons Ratio (x) = 0.11672 0.08757
# Poissons Ratio (y) = 0.07367 0.15122
# Poissons Ratio (z) = 0.06814 0.18644
#
# Static dielectric constant tensor:
#      x y z
#    x 1.687730 0.000000 0.000000 
#    y 0.000000 1.707210 0.000000 
#    z 0.000000 0.000000 1.676020 
# 
# From -- ./inp_files/9020.got.cif
#   From: 2010.05.17/outbox.cif.g08.bks.cpg/sg59_5_cif.got.tgz:9020.got - 2010.06.03 14:40:33.
