data_PCOD9446567
_publ_section_title
;
Structure prediction by ZEFSAII (Michael W. Deem and Ramdas Pophale) SiO2 
 PCOD9446567
Probable space group: P M M N
;
_chemical_formula_sum "Si O2"
_cell_formula_units_Z 64
_cell_length_a 7.538526
_cell_length_b 24.334970
_cell_length_c 19.744560
_cell_angle_alpha 90.000000
_cell_angle_beta 90.000000
_cell_angle_gamma 90.000000
_cell_volume 3622.135663
_symmetry_space_group_name_H-M "P M M N"
_symmetry_group_IT_number 59
_space_group.IT_coordinate_system_code '2'
_symmetry_cell_setting 'orthorhombic'
loop_
_space_group_symop_operation_xyz
x,y,z
1/2-x,1/2-y,z
1/2+x,-y,-z
-x,1/2+y,-z
-x,-y,-z
1/2+x,1/2+y,-z
1/2-x,y,z
x,1/2-y,z
loop_
_atom_site_type_symbol
_atom_site_label
_atom_site_fract_x
_atom_site_fract_y
_atom_site_fract_z
Si Si1 0.541160 0.972812 0.106380
Si Si2 0.467679 0.812946 0.607168
Si Si3 0.035903 0.993120 0.751046
Si Si4 0.536280 0.366825 0.251708
Si Si5 0.545619 0.091618 0.485325
Si Si6 0.538845 0.811585 0.891607
Si Si7 0.965808 0.584133 0.973463
Si Si8 0.039699 0.987254 0.400512
O O1 0.750000 0.960601 0.111690
O O2 0.468300 0.975396 0.182373
O O3 0.521125 0.033970 0.075246
O O4 0.469789 0.931872 0.048740
O O5 0.250000 0.814348 0.607051
O O6 0.521660 0.750000 0.599146
O O7 0.524694 0.837148 0.679772
O O8 0.531486 0.853783 0.548114
O O9 0.250000 0.991122 0.755616
O O10 0.990461 0.018980 0.678851
O O11 0.971969 0.929780 0.751937
O O12 0.750000 0.368824 0.254498
O O13 0.488023 0.333581 0.184494
O O14 0.750000 0.104347 0.501577
O O15 0.469102 0.061826 0.551784
O O16 0.541036 0.044334 0.427534
O O17 0.750000 0.808712 0.902805
O O18 0.466331 0.750000 0.899423
O O19 0.470460 0.858457 0.942617
O O20 0.750000 0.584142 0.973954
O O21 0.250000 0.991828 0.413173
#
# Coordination Sequence:
#
# PCOD9446567 Si02
#       8
#     8   8   8   8   8   8   8   8
#     4   9  17  29  45  63  83 110 143 178 218 256
#     4   9  16  27  44  62  81 110 146 178 206 239
#     4  10  18  29  45  64  88 115 142 177 216 256
#     4  10  18  29  44  62  86 117 151 180 202 241
#     4   9  17  31  45  62  87 113 144 181 214 251
#     4  10  20  31  42  60  89 120 145 176 217 255
#     4   9  17  29  44  62  84 111 144 179 213 255
#     4  10  19  28  44  65  87 114 143 176 217 260
#
# _framework density 17.669134
#
# number of rings (size 3 to 8) (size 9 to 14) (size 15 to 20)
#    0.000    2.500    2.500    0.750    0.000    2.250 
#    0.000    0.000    0.000    0.375    0.000    0.875 
#    0.000    1.000    0.000    0.000    0.000    0.000 
#
# Total GULP energy -356925.984024 kJ/mol
# GULP energy per Si atom -5576.968500 kJ/mol
# Density = 1.762892 g / cm^3
# Si number density = 17.669134 Si / 1000 Ang^3
#
#
#
# Elastic Constant Matrix: (Units=GPa)
#
#
# Indices 1 2 3 4 5 6 
#
# 1 41.5144 -1.4751 -7.1366 0.0000 0.0000 0.0000
# 2 -1.4751 115.2436 75.8365 0.0000 0.0000 0.0000
# 3 -7.1366 75.8365 148.5062 0.0000 0.0000 0.0000
# 4 0.0000 0.0000 0.0000 21.2504 0.0000 0.0000
# 5 0.0000 0.0000 0.0000 0.0000 6.9336 0.0000
# 6 0.0000 0.0000 0.0000 0.0000 0.0000 2.1983
#
#
#
# Elastic Compliance Matrix: (Units=1/GPa)
#
#
# Indices 1 2 3 4 5 6 
#
# 1 0.024325 -0.000690 0.001521 0.000000 0.000000 0.000000
# 2 -0.000690 0.013089 -0.006717 0.000000 0.000000 0.000000
# 3 0.001521 -0.006717 0.010237 0.000000 0.000000 0.000000
# 4 0.000000 0.000000 0.000000 0.047058 0.000000 0.000000
# 5 0.000000 0.000000 0.000000 0.000000 0.144225 0.000000
# 6 0.000000 0.000000 0.000000 0.000000 0.000000 0.454888
#
#
# Mechanical properties :
#
#
# Convention : Reuss Voigt Hill
#
# Bulk Modulus (GPa) = 27.87100 48.85709 38.36404
# Shear Modulus (GPa) = 6.96814 21.94578 14.45696
#
# Velocity S-wave (km/s) = 1.98802 3.52808 2.86353
# Velocity P-wave (km/s) = 4.59105 6.65640 5.71775
#
# Compressibility (1/GPa) = 0.03587959
#
# Stress axis : x y z
#
# Youngs Moduli (GPa) = 41.10989 76.40253 97.68552
#
# Poissons Ratio (x) = 0.05269 -0.14859
# Poissons Ratio (y) = 0.02835 0.65615
# Poissons Ratio (z) = -0.06253 0.51319
#
# Static dielectric constant tensor:
#      x y z
#    x 1.665620 0.000000 0.000000 
#    y 0.000000 1.593120 0.000000 
#    z 0.000000 0.000000 1.613390 
# 
# From -- ./inp_files/29653.got.cif
#   From: 2010.05.17/outbox.cif.g08.bks.cpg/sg59_15_cif.got.tgz:29653.got - 2010.06.03 14:40:33.
