data_PCOD9446115
_publ_section_title
;
Structure prediction by ZEFSAII (Michael W. Deem and Ramdas Pophale) SiO2 
 PCOD9446115
Probable space group: P N N M
;
_chemical_formula_sum "Si O2"
_cell_formula_units_Z 64
_cell_length_a 24.000000
_cell_length_b 15.000000
_cell_length_c 9.000000
_cell_angle_alpha 90.000000
_cell_angle_beta 90.000000
_cell_angle_gamma 90.000000
_cell_volume 3240.000000
_symmetry_space_group_name_H-M "P N N M"
_symmetry_group_IT_number 58
_symmetry_cell_setting 'orthorhombic'
loop_
_space_group_symop_operation_xyz
x,y,z
-x,-y,z
1/2+x,1/2-y,1/2-z
1/2-x,1/2+y,1/2-z
-x,-y,-z
x,y,-z
1/2-x,1/2+y,1/2+z
1/2+x,1/2-y,1/2+z
loop_
_atom_site_type_symbol
_atom_site_label
_atom_site_fract_x
_atom_site_fract_y
_atom_site_fract_z
Si Si1 0.174188 0.214074 0.178216
Si Si2 0.946100 0.769671 0.322007
Si Si3 0.361300 0.364732 0.825154
Si Si4 0.468713 0.406657 0.669956
Si Si5 0.777120 0.414438 0.674327
Si Si6 0.122977 0.683751 0.829372
Si Si7 0.000529 0.601836 0.173550
Si Si8 0.759049 0.623469 0.324531
O O1 0.114172 0.204464 0.255171
O O2 0.217732 0.133007 0.208273
O O3 0.203043 0.304104 0.240736
O O4 0.167145 0.219867 0.000000
O O5 0.945123 0.773487 0.500000
O O6 0.993080 0.835937 0.256630
O O7 0.963265 0.670912 0.265762
O O8 0.409767 0.421930 0.749644
O O9 0.380200 0.264823 0.785211
O O10 0.302222 0.374030 0.745969
O O11 0.357055 0.379817 0.000000
O O12 0.500000 0.500000 0.665711
O O13 0.460289 0.374676 0.500000
O O14 0.788721 0.393271 0.500000
O O15 0.824505 0.373984 0.778409
O O16 0.777420 0.520825 0.690535
O O17 0.064619 0.632917 0.822421
O O18 0.131220 0.714361 0.000000
O O19 0.000000 0.500000 0.226454
O O20 0.982162 0.603992 0.000000
O O21 0.757598 0.645316 0.500000
#
# Coordination Sequence:
#
# PCOD9446115 Si02
#       8
#     8   8   8   8   8   8   8   8
#     4  11  24  44  66  91 128 174 215 260 319 380
#     4  12  26  43  65  96 132 170 211 264 323 382
#     4  12  24  41  66  96 130 167 211 265 321 378
#     4  11  25  45  69  95 127 170 216 265 321 380
#     4  10  24  43  65  93 129 168 210 263 322 377
#     4  11  22  39  67  95 126 167 214 265 317 373
#     4  10  23  43  66  95 128 169 217 264 316 379
#     4  11  24  43  66  97 130 167 215 264 319 380
#
# _framework density 19.753086
#
# number of rings (size 3 to 8) (size 9 to 14) (size 15 to 20)
#    0.000    1.000    2.500    3.750    3.500    3.250 
#    0.000    0.000    0.000    0.000    0.000    0.000 
#    0.000    0.000    0.000    0.000    0.000    0.000 
#
# Total GULP energy -357886.699367 kJ/mol
# GULP energy per Si atom -5591.979678 kJ/mol
# Density = 1.970813 g / cm^3
# Si number density = 19.753086 Si / 1000 Ang^3
#
#
#
# Elastic Constant Matrix: (Units=GPa)
#
#
# Indices 1 2 3 4 5 6 
#
# 1 66.6389 -20.1843 12.8720 0.0000 0.0000 0.0000
# 2 -20.1843 41.3836 5.2602 0.0000 0.0000 0.0000
# 3 12.8720 5.2602 94.8290 0.0000 0.0000 0.0000
# 4 0.0000 0.0000 0.0000 10.9040 0.0000 0.0000
# 5 0.0000 0.0000 0.0000 0.0000 -132.1321 0.0000
# 6 0.0000 0.0000 0.0000 0.0000 0.0000 26.0717
#
#
#
# Elastic Compliance Matrix: (Units=1/GPa)
#
#
# Indices 1 2 3 4 5 6 
#
# 1 0.018429 0.009372 -0.003021 0.000000 0.000000 0.000000
# 2 0.009372 0.029102 -0.002886 0.000000 0.000000 0.000000
# 3 -0.003021 -0.002886 0.011116 0.000000 0.000000 0.000000
# 4 0.000000 0.000000 0.000000 0.091709 0.000000 0.000000
# 5 0.000000 0.000000 0.000000 0.000000 -0.007568 0.000000
# 6 0.000000 0.000000 0.000000 0.000000 0.000000 0.038356
#
#
# Mechanical properties :
#
#
# Convention : Reuss Voigt Hill
#
# Bulk Modulus (GPa) = 15.24961 22.08302 18.66632
# Shear Modulus (GPa) = 25.50074 -5.37102 10.06486
#
# Velocity S-wave (km/s) = 3.59691 -1.65075 2.25973
# Velocity P-wave (km/s) = 4.99872 2.75145 4.03471
#
# Compressibility (1/GPa) = 0.06557545
#
# Stress axis : x y z
#
# Youngs Moduli (GPa) = 54.26334 34.36158 89.96424
#
# Poissons Ratio (x) = -0.32205 0.27181
# Poissons Ratio (y) = -0.50858 0.25968
# Poissons Ratio (z) = 0.16395 0.09918
#
# Static dielectric constant tensor:
#      x y z
#    x 1.632100 0.000000 0.000000 
#    y 0.000000 1.712730 0.000000 
#    z 0.000000 0.000000 1.671840 
# 
# From -- ./inp_files/10032.got.cif
#   From: 2010.05.17/outbox.ucp.g08.bks.cvg/sg58_6_cif.got.tgz:10032.got - 2010.06.11 16:41:41.
