data_PCOD9446598
_publ_section_title
;
Structure prediction by ZEFSAII (Michael W. Deem and Ramdas Pophale) SiO2 
 PCOD9446598
Probable space group: P M M N
;
_chemical_formula_sum "Si O2"
_cell_formula_units_Z 64
_cell_length_a 9.045923
_cell_length_b 20.188796
_cell_length_c 22.401753
_cell_angle_alpha 90.000000
_cell_angle_beta 90.000000
_cell_angle_gamma 90.000000
_cell_volume 4091.149131
_symmetry_space_group_name_H-M "P M M N"
_symmetry_group_IT_number 59
_space_group.IT_coordinate_system_code '2'
_symmetry_cell_setting 'orthorhombic'
loop_
_space_group_symop_operation_xyz
x,y,z
1/2-x,1/2-y,z
1/2+x,-y,-z
-x,1/2+y,-z
-x,-y,-z
1/2+x,1/2+y,-z
1/2-x,y,z
x,1/2-y,z
loop_
_atom_site_type_symbol
_atom_site_label
_atom_site_fract_x
_atom_site_fract_y
_atom_site_fract_z
Si Si1 0.427866 0.549085 0.326989
Si Si2 0.073319 0.325346 0.618878
Si Si3 0.428231 0.541719 0.191853
Si Si4 0.070760 0.322842 0.479179
Si Si5 0.919514 0.466180 0.087944
Si Si6 0.429511 0.035032 0.442159
Si Si7 0.928139 0.174839 0.877659
Si Si8 0.080328 0.104895 0.985766
O O1 0.250000 0.550529 0.327201
O O2 0.489139 0.621093 0.342850
O O3 0.475096 0.531035 0.260100
O O4 0.474633 0.500861 0.380940
O O5 0.250000 0.335398 0.622693
O O6 0.040973 0.250000 0.636799
O O7 0.031593 0.332362 0.548946
O O8 0.250000 0.538149 0.188260
O O9 0.496643 0.487507 0.147749
O O10 0.470956 0.615576 0.167983
O O11 0.250000 0.320905 0.477333
O O12 0.017345 0.250000 0.459915
O O13 0.024829 0.387863 0.443631
O O14 0.750000 0.448106 0.099343
O O15 0.919349 0.534254 0.049097
O O16 0.999546 0.410953 0.047879
O O17 0.250000 0.031443 0.447210
O O18 0.500000 0.000000 0.500000
O O19 0.750000 0.173114 0.882161
O O20 0.971515 0.250000 0.860616
O O21 0.996774 0.154852 0.941550
O O22 0.250000 0.124899 0.994711
#
# Coordination Sequence:
#
# PCOD9446598 Si02
#       8
#     8   8   8   8   8   8   8   8
#     4  10  20  30  43  66  92 118 153 196 243 286
#     4   9  17  29  44  61  83 116 154 186 221 274
#     4   9  18  31  43  59  88 123 155 187 225 273
#     4   8  14  26  44  63  83 110 143 178 221 277
#     4   9  16  27  44  65  86 110 145 184 219 261
#     4  10  18  29  46  67  89 114 146 190 241 287
#     4   9  17  29  44  61  85 121 159 186 210 252
#     4   9  16  26  43  66  89 112 138 178 227 261
#
# _framework density 15.643526
#
# number of rings (size 3 to 8) (size 9 to 14) (size 15 to 20)
#    0.000    2.875    1.250    1.500    0.000    4.500 
#    0.000    1.250    0.000    0.375    0.000    0.875 
#    0.000    3.000    0.000    0.000    0.000    0.000 
#
# Total GULP energy -356349.633518 kJ/mol
# GULP energy per Si atom -5567.963024 kJ/mol
# Density = 1.560792 g / cm^3
# Si number density = 15.643526 Si / 1000 Ang^3
#
#
#
# Elastic Constant Matrix: (Units=GPa)
#
#
# Indices 1 2 3 4 5 6 
#
# 1 16.6273 14.0444 30.2049 0.0000 0.0000 0.0000
# 2 14.0444 52.9183 50.5663 0.0000 0.0000 0.0000
# 3 30.2049 50.5663 121.2313 0.0000 0.0000 0.0000
# 4 0.0000 0.0000 0.0000 15.3484 0.0000 0.0000
# 5 0.0000 0.0000 0.0000 0.0000 18.0851 0.0000
# 6 0.0000 0.0000 0.0000 0.0000 0.0000 18.2710
#
#
#
# Elastic Compliance Matrix: (Units=1/GPa)
#
#
# Indices 1 2 3 4 5 6 
#
# 1 0.110668 -0.005027 -0.025476 0.000000 0.000000 0.000000
# 2 -0.005027 0.031648 -0.011948 0.000000 0.000000 0.000000
# 3 -0.025476 -0.011948 0.019580 0.000000 0.000000 0.000000
# 4 0.000000 0.000000 0.000000 0.065153 0.000000 0.000000
# 5 0.000000 0.000000 0.000000 0.000000 0.055294 0.000000
# 6 0.000000 0.000000 0.000000 0.000000 0.000000 0.054732
#
#
# Mechanical properties :
#
#
# Convention : Reuss Voigt Hill
#
# Bulk Modulus (GPa) = 12.98819 42.26756 27.62788
# Shear Modulus (GPa) = 11.16963 16.73832 13.95397
#
# Velocity S-wave (km/s) = 2.67499 3.27461 2.98987
# Velocity P-wave (km/s) = 4.22628 6.43236 5.44227
#
# Compressibility (1/GPa) = 0.07699303
#
# Stress axis : x y z
#
# Youngs Moduli (GPa) = 9.03604 31.59719 51.07311
#
# Poissons Ratio (x) = 0.15884 1.30115
# Poissons Ratio (y) = 0.04543 0.61023
# Poissons Ratio (z) = 0.23020 0.37753
#
# Static dielectric constant tensor:
#      x y z
#    x 1.525540 0.000000 0.000000 
#    y 0.000000 1.526210 0.000000 
#    z 0.000000 0.000000 1.515200 
# 
# From -- ./inp_files/29676.got.cif
#   From: 2010.05.17/outbox.cif.g08.bks.cpg/sg59_15_cif.got.tgz:29676.got - 2010.06.03 14:40:33.
