data_PCOD9446664
_publ_section_title
;
Structure prediction by ZEFSAII (Michael W. Deem and Ramdas Pophale) SiO2 
 PCOD9446664
Probable space group: P M M N
;
_chemical_formula_sum "Si O2"
_cell_formula_units_Z 64
_cell_length_a 8.550386
_cell_length_b 28.198964
_cell_length_c 15.210173
_cell_angle_alpha 90.000000
_cell_angle_beta 90.000000
_cell_angle_gamma 90.000000
_cell_volume 3667.355643
_symmetry_space_group_name_H-M "P M M N"
_symmetry_group_IT_number 59
_space_group.IT_coordinate_system_code '2'
_symmetry_cell_setting 'orthorhombic'
loop_
_space_group_symop_operation_xyz
x,y,z
1/2-x,1/2-y,z
1/2+x,-y,-z
-x,1/2+y,-z
-x,-y,-z
1/2+x,1/2+y,-z
1/2-x,y,z
x,1/2-y,z
loop_
_atom_site_type_symbol
_atom_site_label
_atom_site_fract_x
_atom_site_fract_y
_atom_site_fract_z
Si Si1 0.440599 0.695811 0.346334
Si Si2 0.563063 0.920682 0.654427
Si Si3 0.561294 0.531233 0.156051
Si Si4 0.061615 0.805375 0.146424
Si Si5 0.561343 0.029726 0.652383
Si Si6 0.439102 0.887044 0.475908
Si Si7 0.436736 0.387034 0.976170
Si Si8 0.436826 0.921982 0.845180
O O1 0.250000 0.695640 0.346144
O O2 0.489996 0.750000 0.363650
O O3 0.487810 0.682620 0.246715
O O4 0.491834 0.658113 0.418781
O O5 0.750000 0.920426 0.654829
O O6 0.501112 0.889473 0.574458
O O7 0.502343 0.906767 0.750620
O O8 0.509005 0.975401 0.638798
O O9 0.750000 0.531977 0.158294
O O10 0.498596 0.545376 0.251955
O O11 0.507569 0.567715 0.081667
O O12 0.510442 0.476861 0.139956
O O13 0.250000 0.809906 0.142295
O O14 0.023464 0.750000 0.131628
O O15 0.986963 0.840398 0.076476
O O16 0.750000 0.030223 0.654171
O O17 0.509207 0.065800 0.577031
O O18 0.250000 0.886903 0.478087
O O19 0.250000 0.389191 0.981823
O O20 0.506014 0.391222 0.073243
O O21 0.250000 0.921759 0.841444
#
# Coordination Sequence:
#
# PCOD9446664 Si02
#       8
#     8   8   8   8   8   8   8   8
#     4   8  15  29  50  75 100 125 157 198 237 276
#     4  10  20  33  47  67  97 129 162 203 248 288
#     4   9  19  32  47  71 102 133 164 200 242 291
#     4   9  18  34  55  77 101 131 166 200 237 287
#     4   9  18  30  46  69  97 130 165 200 238 285
#     4  10  18  29  48  72  96 126 164 199 237 289
#     4  11  21  32  49  75 104 131 161 200 249 297
#     4  10  20  35  52  69  94 131 172 208 241 284
#
# _framework density 17.451266
#
# number of rings (size 3 to 8) (size 9 to 14) (size 15 to 20)
#    0.000    2.500    0.000    3.375    0.000    3.750 
#    0.000    0.625    0.000    1.875    0.000    1.750 
#    0.000    0.000    0.000    0.000    0.000    0.000 
#
# Total GULP energy -357128.715703 kJ/mol
# GULP energy per Si atom -5580.136183 kJ/mol
# Density = 1.741155 g / cm^3
# Si number density = 17.451266 Si / 1000 Ang^3
#
#
#
# Elastic Constant Matrix: (Units=GPa)
#
#
# Indices 1 2 3 4 5 6 
#
# 1 17.4798 20.9299 29.5227 0.0000 0.0000 0.0000
# 2 20.9299 66.6510 79.0440 0.0000 0.0000 0.0000
# 3 29.5227 79.0440 165.0152 0.0000 0.0000 0.0000
# 4 0.0000 0.0000 0.0000 28.2357 0.0000 0.0000
# 5 0.0000 0.0000 0.0000 0.0000 27.3692 0.0000
# 6 0.0000 0.0000 0.0000 0.0000 0.0000 17.0458
#
#
#
# Elastic Compliance Matrix: (Units=1/GPa)
#
#
# Indices 1 2 3 4 5 6 
#
# 1 0.094364 -0.022251 -0.006224 0.000000 0.000000 0.000000
# 2 -0.022251 0.039984 -0.015172 0.000000 0.000000 0.000000
# 3 -0.006224 -0.015172 0.014441 0.000000 0.000000 0.000000
# 4 0.000000 0.000000 0.000000 0.035416 0.000000 0.000000
# 5 0.000000 0.000000 0.000000 0.000000 0.036537 0.000000
# 6 0.000000 0.000000 0.000000 0.000000 0.000000 0.058665
#
#
# Mechanical properties :
#
#
# Convention : Reuss Voigt Hill
#
# Bulk Modulus (GPa) = 16.26151 56.45993 36.36072
# Shear Modulus (GPa) = 12.91325 22.50676 17.71000
#
# Velocity S-wave (km/s) = 2.72317 3.59512 3.18909
# Velocity P-wave (km/s) = 4.38475 7.04673 5.86866
#
# Compressibility (1/GPa) = 0.06149491
#
# Stress axis : x y z
#
# Youngs Moduli (GPa) = 10.59726 25.01031 69.24753
#
# Poissons Ratio (x) = 0.55651 0.43100
# Poissons Ratio (y) = 0.23580 1.05060
# Poissons Ratio (z) = 0.06596 0.37945
#
# Static dielectric constant tensor:
#      x y z
#    x 1.586690 0.000000 0.000000 
#    y 0.000000 1.594750 0.000000 
#    z 0.000000 0.000000 1.574990 
# 
# From -- ./inp_files/21553.got.cif
#   From: 2010.05.17/outbox.cif.g08.bks.cpg/sg59_11_cif.got.tgz:21553.got - 2010.06.03 14:40:33.
