data_PCOD9446231
_publ_section_title
;
Structure prediction by ZEFSAII (Michael W. Deem and Ramdas Pophale) SiO2 
 PCOD9446231
Probable space group: P M M N
;
_chemical_formula_sum "Si O2"
_cell_formula_units_Z 64
_cell_length_a 20.542219
_cell_length_b 21.968917
_cell_length_c 8.625711
_cell_angle_alpha 90.000000
_cell_angle_beta 90.000000
_cell_angle_gamma 90.000000
_cell_volume 3892.699741
_symmetry_space_group_name_H-M "P M M N"
_symmetry_group_IT_number 59
_space_group.IT_coordinate_system_code '2'
_symmetry_cell_setting 'orthorhombic'
loop_
_space_group_symop_operation_xyz
x,y,z
1/2-x,1/2-y,z
1/2+x,-y,-z
-x,1/2+y,-z
-x,-y,-z
1/2+x,1/2+y,-z
1/2-x,y,z
x,1/2-y,z
loop_
_atom_site_type_symbol
_atom_site_label
_atom_site_fract_x
_atom_site_fract_y
_atom_site_fract_z
Si Si1 0.458399 0.182514 0.206338
Si Si2 0.176150 0.104317 0.673866
Si Si3 0.961765 0.450457 0.699492
Si Si4 0.178187 0.532310 0.787240
Si Si5 0.045791 0.926197 0.657657
Si Si6 0.560930 0.879852 0.100490
Si Si7 0.822828 0.633169 0.688440
Si Si8 0.135985 0.022170 0.101766
O O1 0.481004 0.250000 0.246553
O O2 0.501591 0.129620 0.284467
O O3 0.383417 0.173430 0.258141
O O4 0.457486 0.171531 0.021638
O O5 0.250000 0.121166 0.720571
O O6 0.122208 0.132746 0.786935
O O7 0.167403 0.119559 0.493752
O O8 0.170589 0.031389 0.693757
O O9 0.946963 0.427159 0.527678
O O10 0.898709 0.473438 0.789663
O O11 0.008146 0.510377 0.692198
O O12 0.001124 0.400543 0.795249
O O13 0.250000 0.557791 0.753402
O O14 0.115633 0.571831 0.741920
O O15 0.175010 0.511373 0.966469
O O16 0.582967 0.937323 0.993188
O O17 0.750000 0.658644 0.709368
O O18 0.827811 0.571219 0.790161
#
# Coordination Sequence:
#
# PCOD9446231 Si02
#       8
#     8   8   8   8   8   8   8   8
#     4  11  24  38  52  72 100 140 184 221 257 303
#     4   9  17  29  47  74 106 137 168 209 262 312
#     4  11  18  30  54  84 104 132 170 208 272 314
#     4  10  19  30  49  80 114 139 163 204 262 324
#     4  11  20  33  56  78 107 136 171 216 262 317
#     4  10  18  30  49  72 102 134 169 216 258 305
#     4  10  19  32  50  72 102 142 182 218 254 295
#     4  10  17  27  47  76 108 138 163 206 254 318
#
# _framework density 16.441032
#
# number of rings (size 3 to 8) (size 9 to 14) (size 15 to 20)
#    0.000    1.750    5.000    3.000    0.000    3.250 
#    0.000    3.125    0.000    1.125    0.000    0.000 
#    0.000    2.000    0.000    0.000    0.000    0.000 
#
# Total GULP energy -356892.325134 kJ/mol
# GULP energy per Si atom -5576.442580 kJ/mol
# Density = 1.640361 g / cm^3
# Si number density = 16.441032 Si / 1000 Ang^3
#
#
#
# Elastic Constant Matrix: (Units=GPa)
#
#
# Indices 1 2 3 4 5 6 
#
# 1 66.8003 32.0912 19.7768 0.0000 0.0000 0.0000
# 2 32.0912 44.7021 24.8964 0.0000 0.0000 0.0000
# 3 19.7768 24.8964 77.9132 0.0000 0.0000 0.0000
# 4 0.0000 0.0000 0.0000 5.5629 0.0000 0.0000
# 5 0.0000 0.0000 0.0000 0.0000 12.2302 0.0000
# 6 0.0000 0.0000 0.0000 0.0000 0.0000 2.8868
#
#
#
# Elastic Compliance Matrix: (Units=1/GPa)
#
#
# Indices 1 2 3 4 5 6 
#
# 1 0.022880 -0.016047 -0.000680 0.000000 0.000000 0.000000
# 2 -0.016047 0.038467 -0.008219 0.000000 0.000000 0.000000
# 3 -0.000680 -0.008219 0.015634 0.000000 0.000000 0.000000
# 4 0.000000 0.000000 0.000000 0.179764 0.000000 0.000000
# 5 0.000000 0.000000 0.000000 0.000000 0.081765 0.000000
# 6 0.000000 0.000000 0.000000 0.000000 0.000000 0.346402
#
#
# Mechanical properties :
#
#
# Convention : Reuss Voigt Hill
#
# Bulk Modulus (GPa) = 36.91380 38.10494 37.50937
# Shear Modulus (GPa) = 6.72193 11.64605 9.18399
#
# Velocity S-wave (km/s) = 2.02420 2.66438 2.36604
# Velocity P-wave (km/s) = 5.28812 5.71771 5.50711
#
# Compressibility (1/GPa) = 0.02709014
#
# Stress axis : x y z
#
# Youngs Moduli (GPa) = 43.70581 25.99605 63.96450
#
# Poissons Ratio (x) = 0.41715 0.04351
# Poissons Ratio (y) = 0.70133 0.52571
# Poissons Ratio (z) = 0.02973 0.21366
#
# Static dielectric constant tensor:
#      x y z
#    x 1.571970 0.000000 0.000000 
#    y 0.000000 1.526850 0.000000 
#    z 0.000000 0.000000 1.566140 
# 
# From -- ./inp_files/12280.got.cif
#   From: 2010.05.17/outbox.cif.g08.bks.cpg/sg59_7_cif.got.tgz:12280.got - 2010.06.03 14:40:33.
