data_PCOD9446306
_publ_section_title
;
Structure prediction by ZEFSAII (Michael W. Deem and Ramdas Pophale) SiO2 
 PCOD9446306
Probable space group: P M M N
;
_chemical_formula_sum "Si O2"
_cell_formula_units_Z 48
_cell_length_a 15.109271
_cell_length_b 7.876029
_cell_length_c 18.744451
_cell_angle_alpha 90.000000
_cell_angle_beta 90.000000
_cell_angle_gamma 90.000000
_cell_volume 2230.609474
_symmetry_space_group_name_H-M "P M M N"
_symmetry_group_IT_number 59
_space_group.IT_coordinate_system_code '2'
_symmetry_cell_setting 'orthorhombic'
loop_
_space_group_symop_operation_xyz
x,y,z
1/2-x,1/2-y,z
1/2+x,-y,-z
-x,1/2+y,-z
-x,-y,-z
1/2+x,1/2+y,-z
1/2-x,y,z
x,1/2-y,z
loop_
_atom_site_type_symbol
_atom_site_label
_atom_site_fract_x
_atom_site_fract_y
_atom_site_fract_z
Si Si1 0.250000 0.440677 0.070313
Si Si2 0.918191 0.454747 0.676989
Si Si3 0.400593 0.953969 0.481507
Si Si4 0.250000 0.951333 0.753234
Si Si5 0.250000 0.950743 0.224676
Si Si6 0.250000 0.541672 0.589734
Si Si7 0.445367 0.451654 0.789410
Si Si8 0.055647 0.452296 0.068992
O O1 0.250000 0.250000 0.038380
O O2 0.250000 0.435227 0.155717
O O3 0.154821 0.524633 0.056411
O O4 0.928961 0.250000 0.668948
O O5 0.890606 0.520233 0.599259
O O6 0.836922 0.482805 0.729651
O O7 0.005677 0.521093 0.717723
O O8 0.388590 0.750000 0.479712
O O9 0.334208 0.015136 0.542796
O O10 0.500000 0.000000 0.500000
O O11 0.250000 0.750000 0.748308
O O12 0.250000 0.019762 0.671404
O O13 0.157733 0.999240 0.791163
O O14 0.250000 0.750000 0.204491
O O15 0.250000 0.750000 0.592333
O O16 0.448084 0.250000 0.784178
O O17 0.503911 0.495928 0.859001
O O18 0.065874 0.250000 0.073611
O O19 0.000000 0.500000 0.000000
#
# Coordination Sequence:
#
# PCOD9446306 Si02
#       8
#     4   8   8   4   4   4   8   8
#     4  10  22  40  62  91 125 155 186 233 290 339
#     4   9  18  31  55  86 115 148 195 249 300 356
#     4  10  19  34  53  78 111 152 198 247 301 356
#     4  11  23  39  58  83 116 162 210 255 307 368
#     4  10  17  32  58  86 113 148 191 233 283 350
#     4   9  19  35  56  80 114 159 203 245 300 363
#     4  11  22  39  61  89 119 155 203 256 308 363
#     4  11  24  43  66  94 128 165 201 245 297 356
#
# _framework density 21.518784
#
# number of rings (size 3 to 8) (size 9 to 14) (size 15 to 20)
#    0.000    1.833    1.667    2.750    0.000    3.333 
#    0.000    5.417    0.000    0.000    0.000    0.000 
#    0.000    0.000    0.000    0.000    0.000    0.000 
#
# Total GULP energy -267866.502249 kJ/mol
# GULP energy per Si atom -5580.552130 kJ/mol
# Density = 2.146981 g / cm^3
# Si number density = 21.518784 Si / 1000 Ang^3
#
#
#
# Elastic Constant Matrix: (Units=GPa)
#
#
# Indices 1 2 3 4 5 6 
#
# 1 176.9509 11.0405 48.6815 0.0000 0.0000 0.0000
# 2 11.0405 34.1875 1.7628 0.0000 0.0000 0.0000
# 3 48.6815 1.7628 84.5283 0.0000 0.0000 0.0000
# 4 0.0000 0.0000 0.0000 15.0954 0.0000 0.0000
# 5 0.0000 0.0000 0.0000 0.0000 -163.4273 0.0000
# 6 0.0000 0.0000 0.0000 0.0000 0.0000 14.3392
#
#
#
# Elastic Compliance Matrix: (Units=1/GPa)
#
#
# Indices 1 2 3 4 5 6 
#
# 1 0.006851 -0.002011 -0.003903 0.000000 0.000000 0.000000
# 2 -0.002011 0.029872 0.000535 0.000000 0.000000 0.000000
# 3 -0.003903 0.000535 0.014067 0.000000 0.000000 0.000000
# 4 0.000000 0.000000 0.000000 0.066245 0.000000 0.000000
# 5 0.000000 0.000000 0.000000 0.000000 -0.006119 0.000000
# 6 0.000000 0.000000 0.000000 0.000000 0.000000 0.069739
#
#
# Mechanical properties :
#
#
# Convention : Reuss Voigt Hill
#
# Bulk Modulus (GPa) = 24.98024 46.51515 35.74769
# Shear Modulus (GPa) = 24.41907 -11.18642 6.61632
#
# Velocity S-wave (km/s) = 3.37230 -2.28248 1.75538
# Velocity P-wave (km/s) = 5.17658 3.83623 4.55597
#
# Compressibility (1/GPa) = 0.04003165
#
# Stress axis : x y z
#
# Youngs Moduli (GPa) = 145.97122 33.47577 71.08689
#
# Poissons Ratio (x) = 0.06732 0.27749
# Poissons Ratio (y) = 0.29356 -0.03805
# Poissons Ratio (z) = 0.56980 -0.01792
#
# Static dielectric constant tensor:
#      x y z
#    x 1.846880 0.000000 0.000000 
#    y 0.000000 1.773860 0.000000 
#    z 0.000000 0.000000 1.777600 
# 
# From -- ./inp_files/27536.got.cif
#   From: 2010.05.17/outbox.cif.g08.bks.cpg/sg59_14_cif.got.tgz:27536.got - 2010.06.03 14:40:33.
