data_PCOD9446621
_publ_section_title
;
Structure prediction by ZEFSAII (Michael W. Deem and Ramdas Pophale) SiO2 
 PCOD9446621
Probable space group: P M M N
;
_chemical_formula_sum "Si O2"
_cell_formula_units_Z 64
_cell_length_a 13.977001
_cell_length_b 17.620283
_cell_length_c 17.273913
_cell_angle_alpha 90.000000
_cell_angle_beta 90.000000
_cell_angle_gamma 90.000000
_cell_volume 4254.197064
_symmetry_space_group_name_H-M "P M M N"
_symmetry_group_IT_number 59
_space_group.IT_coordinate_system_code '2'
_symmetry_cell_setting 'orthorhombic'
loop_
_space_group_symop_operation_xyz
x,y,z
1/2-x,1/2-y,z
1/2+x,-y,-z
-x,1/2+y,-z
-x,-y,-z
1/2+x,1/2+y,-z
1/2-x,y,z
x,1/2-y,z
loop_
_atom_site_type_symbol
_atom_site_label
_atom_site_fract_x
_atom_site_fract_y
_atom_site_fract_z
Si Si1 0.363309 0.056436 0.775319
Si Si2 0.858314 0.615319 0.054353
Si Si3 0.634862 0.659245 0.708056
Si Si4 0.953938 0.164306 0.025802
Si Si5 0.639690 0.657913 0.536283
Si Si6 0.866765 0.837766 0.367464
Si Si7 0.859228 0.473302 0.942692
Si Si8 0.507445 0.566941 0.828463
O O1 0.250000 0.038923 0.768688
O O2 0.374062 0.105090 0.854426
O O3 0.393767 0.106779 0.701958
O O4 0.426299 0.981371 0.785415
O O5 0.750000 0.643210 0.040815
O O6 0.865048 0.531671 0.015230
O O7 0.939998 0.662319 0.012031
O O8 0.750000 0.646807 0.713689
O O9 0.620311 0.750000 0.717988
O O10 0.601042 0.637308 0.620837
O O11 0.576737 0.612202 0.770881
O O12 0.918594 0.250000 0.029552
O O13 0.962864 0.125603 0.109804
O O14 0.891713 0.108315 0.972673
O O15 0.750000 0.632032 0.536648
O O16 0.641384 0.750000 0.534914
O O17 0.597942 0.636185 0.452697
O O18 0.750000 0.837137 0.370436
O O19 0.895726 0.750000 0.353981
O O20 0.750000 0.473074 0.915464
O O21 0.929426 0.507626 0.878628
#
# Coordination Sequence:
#
# PCOD9446621 Si02
#       8
#     8   8   8   8   8   8   8   8
#     4  10  18  29  47  66  91 124 153 181 219 269
#     4   9  17  32  49  64  86 116 145 180 227 271
#     4   9  17  29  48  72  93 116 147 183 225 268
#     4  11  21  32  46  65  87 112 149 190 226 266
#     4   7  11  23  42  64  92 119 142 174 219 268
#     4   8  14  25  43  67  91 117 148 182 221 261
#     4  10  19  34  50  62  83 117 154 185 222 269
#     4  11  19  33  46  68  91 121 146 186 227 271
#
# _framework density 15.043967
#
# number of rings (size 3 to 8) (size 9 to 14) (size 15 to 20)
#    0.000    2.625    2.500    3.000    0.000    1.500 
#    0.000    1.875    0.000    1.125    0.000    0.000 
#    0.000    0.000    0.000    6.750    0.000    0.500 
#
# Total GULP energy -356309.135656 kJ/mol
# GULP energy per Si atom -5567.330245 kJ/mol
# Density = 1.500973 g / cm^3
# Si number density = 15.043967 Si / 1000 Ang^3
#
#
#
# Elastic Constant Matrix: (Units=GPa)
#
#
# Indices 1 2 3 4 5 6 
#
# 1 31.4359 21.9895 23.6407 0.0000 0.0000 0.0000
# 2 21.9895 81.3540 45.6677 0.0000 0.0000 0.0000
# 3 23.6407 45.6677 105.1104 0.0000 0.0000 0.0000
# 4 0.0000 0.0000 0.0000 16.6704 0.0000 0.0000
# 5 0.0000 0.0000 0.0000 0.0000 14.2749 0.0000
# 6 0.0000 0.0000 0.0000 0.0000 0.0000 14.5380
#
#
#
# Elastic Compliance Matrix: (Units=1/GPa)
#
#
# Indices 1 2 3 4 5 6 
#
# 1 0.041865 -0.007975 -0.005951 0.000000 0.000000 0.000000
# 2 -0.007975 0.017776 -0.005930 0.000000 0.000000 0.000000
# 3 -0.005951 -0.005930 0.013428 0.000000 0.000000 0.000000
# 4 0.000000 0.000000 0.000000 0.059987 0.000000 0.000000
# 5 0.000000 0.000000 0.000000 0.000000 0.070053 0.000000
# 6 0.000000 0.000000 0.000000 0.000000 0.000000 0.068785
#
#
# Mechanical properties :
#
#
# Convention : Reuss Voigt Hill
#
# Bulk Modulus (GPa) = 29.97789 44.49957 37.23873
# Shear Modulus (GPa) = 15.49308 17.53683 16.51496
#
# Velocity S-wave (km/s) = 3.21261 3.41795 3.31687
# Velocity P-wave (km/s) = 5.80787 6.72461 6.28298
#
# Compressibility (1/GPa) = 0.03335792
#
# Stress axis : x y z
#
# Youngs Moduli (GPa) = 23.88650 56.25518 74.46880
#
# Poissons Ratio (x) = 0.44865 0.44315
# Poissons Ratio (y) = 0.19050 0.44156
# Poissons Ratio (z) = 0.14214 0.33357
#
# Static dielectric constant tensor:
#      x y z
#    x 1.501070 0.000000 0.000000 
#    y 0.000000 1.490770 0.000000 
#    z 0.000000 0.000000 1.522520 
# 
# From -- ./inp_files/23445.got.cif
#   From: 2010.05.17/outbox.cif.g08.bks.cpg/sg59_12_cif.got.tgz:23445.got - 2010.06.03 14:40:33.
