data_PCOD9446758
_publ_section_title
;
Structure prediction by ZEFSAII (Michael W. Deem and Ramdas Pophale) SiO2 
 PCOD9446758
Probable space group: P M M N
;
_chemical_formula_sum "Si O2"
_cell_formula_units_Z 56
_cell_length_a 20.785976
_cell_length_b 8.663405
_cell_length_c 18.662499
_cell_angle_alpha 90.000000
_cell_angle_beta 90.000000
_cell_angle_gamma 90.000000
_cell_volume 3360.692961
_symmetry_space_group_name_H-M "P M M N"
_symmetry_group_IT_number 59
_space_group.IT_coordinate_system_code '2'
_symmetry_cell_setting 'orthorhombic'
loop_
_space_group_symop_operation_xyz
x,y,z
1/2-x,1/2-y,z
1/2+x,-y,-z
-x,1/2+y,-z
-x,-y,-z
1/2+x,1/2+y,-z
1/2-x,y,z
x,1/2-y,z
loop_
_atom_site_type_symbol
_atom_site_label
_atom_site_fract_x
_atom_site_fract_y
_atom_site_fract_z
Si Si1 0.822728 0.564088 0.929139
Si Si2 0.428158 0.563509 0.514141
Si Si3 0.466219 0.566304 0.812078
Si Si4 0.889972 0.063824 0.791931
Si Si5 0.099001 0.568975 0.363013
Si Si6 0.444066 0.430398 0.662527
Si Si7 0.564384 0.564484 0.037122
O O1 0.750000 0.521623 0.948620
O O2 0.826305 0.750000 0.922506
O O3 0.842481 0.491841 0.853325
O O4 0.874878 0.517684 0.988644
O O5 0.500000 0.500000 0.500000
O O6 0.429886 0.750000 0.514608
O O7 0.388773 0.509151 0.443498
O O8 0.410366 0.502541 0.592683
O O9 0.469893 0.750000 0.815846
O O10 0.538916 0.499003 0.810597
O O11 0.433227 0.514181 0.737878
O O12 0.432630 0.499711 0.882573
O O13 0.893242 0.250000 0.790529
O O14 0.872651 0.006319 0.711382
O O15 0.115823 0.750000 0.365274
O O16 0.021553 0.558014 0.350988
O O17 0.428946 0.250000 0.668310
O O18 0.560811 0.750000 0.038982
O O19 0.500000 0.500000 0.000000
#
# Coordination Sequence:
#
# PCOD9446758 Si02
#       7
#     8   8   8   8   8   8   8
#     4  10  22  38  53  71  98 131 165 203 251 303
#     4   9  14  22  35  53  82 120 157 191 234 284
#     4  11  20  30  46  69  95 125 162 202 246 297
#     4  10  18  30  48  69  94 124 162 203 243 289
#     4   7  13  23  36  56  83 116 152 190 229 274
#     4   9  16  26  38  57  87 120 156 197 240 285
#     4  11  21  34  53  74  98 127 163 207 252 301
#
# _framework density 16.663229999999999
#
# number of rings (size 3 to 8) (size 9 to 14) (size 15 to 20)
#    0.000    2.429    1.429    4.714    0.000    0.857 
#    0.000    2.143    0.000    0.000    0.000    0.000 
#    0.000    1.143    0.000    8.286    0.000    6.857 
#
# Total GULP energy -311862.149955 kJ/mol
# GULP energy per Si atom -5568.966963 kJ/mol
# Density = 1.662530 g / cm^3
# Si number density = 16.663230 Si / 1000 Ang^3
#
#
#
# Elastic Constant Matrix: (Units=GPa)
#
#
# Indices 1 2 3 4 5 6 
#
# 1 56.3402 23.8609 51.3679 0.0000 0.0000 0.0000
# 2 23.8609 52.4648 42.2030 0.0000 0.0000 0.0000
# 3 51.3679 42.2030 172.0711 0.0000 0.0000 0.0000
# 4 0.0000 0.0000 0.0000 31.3071 0.0000 0.0000
# 5 0.0000 0.0000 0.0000 0.0000 11.6293 0.0000
# 6 0.0000 0.0000 0.0000 0.0000 0.0000 10.5855
#
#
#
# Elastic Compliance Matrix: (Units=1/GPa)
#
#
# Indices 1 2 3 4 5 6 
#
# 1 0.026320 -0.007039 -0.006131 0.000000 0.000000 0.000000
# 2 -0.007039 0.025627 -0.004184 0.000000 0.000000 0.000000
# 3 -0.006131 -0.004184 0.008668 0.000000 0.000000 0.000000
# 4 0.000000 0.000000 0.000000 0.031942 0.000000 0.000000
# 5 0.000000 0.000000 0.000000 0.000000 0.085990 0.000000
# 6 0.000000 0.000000 0.000000 0.000000 0.000000 0.094469
#
#
# Mechanical properties :
#
#
# Convention : Reuss Voigt Hill
#
# Bulk Modulus (GPa) = 38.59821 57.30443 47.95132
# Shear Modulus (GPa) = 15.80479 21.60065 18.70272
#
# Velocity S-wave (km/s) = 3.08309 3.60433 3.35385
# Velocity P-wave (km/s) = 5.99065 7.19625 6.62095
#
# Compressibility (1/GPa) = 0.02590793
#
# Stress axis : x y z
#
# Youngs Moduli (GPa) = 37.99372 39.02069 115.36594
#
# Poissons Ratio (x) = 0.27465 0.70730
# Poissons Ratio (y) = 0.26742 0.48273
# Poissons Ratio (z) = 0.23294 0.16327
#
# Static dielectric constant tensor:
#      x y z
#    x 1.538620 0.000000 0.000000 
#    y 0.000000 1.562690 0.000000 
#    z 0.000000 0.000000 1.623840 
# 
# From -- ./inp_files/28074.got.cif
#   From: 2010.05.17/outbox.cif.g08.bks.cpg/sg59_15_cif.got.tgz:28074.got - 2010.06.03 14:40:33.
