data_PCOD9446369
_publ_section_title
;
Structure prediction by ZEFSAII (Michael W. Deem and Ramdas Pophale) SiO2 
 PCOD9446369
Probable space group: P M M N
;
_chemical_formula_sum "Si O2"
_cell_formula_units_Z 64
_cell_length_a 9.113184
_cell_length_b 21.907264
_cell_length_c 20.815654
_cell_angle_alpha 90.000000
_cell_angle_beta 90.000000
_cell_angle_gamma 90.000000
_cell_volume 4155.739739
_symmetry_space_group_name_H-M "P M M N"
_symmetry_group_IT_number 59
_space_group.IT_coordinate_system_code '2'
_symmetry_cell_setting 'orthorhombic'
loop_
_space_group_symop_operation_xyz
x,y,z
1/2-x,1/2-y,z
1/2+x,-y,-z
-x,1/2+y,-z
-x,-y,-z
1/2+x,1/2+y,-z
1/2-x,y,z
x,1/2-y,z
loop_
_atom_site_type_symbol
_atom_site_label
_atom_site_fract_x
_atom_site_fract_y
_atom_site_fract_z
Si Si1 0.077013 0.038468 0.726951
Si Si2 0.423859 0.535232 0.404293
Si Si3 0.578545 0.392317 0.252450
Si Si4 0.920556 0.443629 0.857311
Si Si5 0.426376 0.065535 0.985769
Si Si6 0.076247 0.586802 0.542092
Si Si7 0.081155 0.091522 0.124876
Si Si8 0.076250 0.177812 0.367372
O O1 0.250000 0.051475 0.726002
O O2 0.999100 0.057151 0.660968
O O3 0.000713 0.066770 0.789741
O O4 0.060086 0.964632 0.732756
O O5 0.250000 0.526194 0.394607
O O6 0.498148 0.471281 0.424804
O O7 0.444624 0.579141 0.465723
O O8 0.750000 0.377864 0.258515
O O9 0.522020 0.382222 0.179985
O O10 0.486289 0.354216 0.303567
O O11 0.750000 0.425976 0.855886
O O12 0.924620 0.517536 0.867506
O O13 0.004345 0.414688 0.918177
O O14 0.250000 0.058901 0.980615
O O15 0.456897 0.104165 0.050441
O O16 0.500000 0.000000 0.000000
O O17 0.250000 0.584000 0.555812
O O18 0.005854 0.646380 0.573026
O O19 0.250000 0.109671 0.136487
O O20 0.250000 0.166461 0.372184
O O21 0.050840 0.250000 0.365198
#
# Coordination Sequence:
#
# PCOD9446369 Si02
#       8
#     8   8   8   8   8   8   8   8
#     4  10  18  27  41  62  86 113 146 180 218 261
#     4  10  19  30  47  67  90 115 142 181 223 267
#     4  10  19  29  43  62  82 107 143 183 220 262
#     4   9  16  24  35  52  77 109 142 175 213 251
#     4   9  15  23  34  50  73 103 139 175 210 247
#     4  10  20  33  48  68  88 112 145 180 223 269
#     4   8  15  25  37  52  74 105 138 175 214 250
#     4  11  23  36  50  66  86 115 148 185 229 273
#
# _framework density 15.400387
#
# number of rings (size 3 to 8) (size 9 to 14) (size 15 to 20)
#    0.000    2.375    1.250    3.375    0.000    7.000 
#    0.000    0.000    0.000    0.000    0.000    0.000 
#    0.000    0.000    0.000    1.125    0.000   18.875 
#
# Total GULP energy -356645.161590 kJ/mol
# GULP energy per Si atom -5572.580650 kJ/mol
# Density = 1.536533 g / cm^3
# Si number density = 15.400387 Si / 1000 Ang^3
#
#
#
# Elastic Constant Matrix: (Units=GPa)
#
#
# Indices 1 2 3 4 5 6 
#
# 1 107.9155 28.2481 80.3783 0.0000 0.0000 0.0000
# 2 28.2481 21.2906 18.3857 0.0000 0.0000 0.0000
# 3 80.3783 18.3857 143.5368 0.0000 0.0000 0.0000
# 4 0.0000 0.0000 0.0000 5.8192 0.0000 0.0000
# 5 0.0000 0.0000 0.0000 0.0000 34.0910 0.0000
# 6 0.0000 0.0000 0.0000 0.0000 0.0000 12.7840
#
#
#
# Elastic Compliance Matrix: (Units=1/GPa)
#
#
# Indices 1 2 3 4 5 6 
#
# 1 0.021794 -0.020662 -0.009558 0.000000 0.000000 0.000000
# 2 -0.020662 0.072400 0.002297 0.000000 0.000000 0.000000
# 3 -0.009558 0.002297 0.012025 0.000000 0.000000 0.000000
# 4 0.000000 0.000000 0.000000 0.171844 0.000000 0.000000
# 5 0.000000 0.000000 0.000000 0.000000 0.029333 0.000000
# 6 0.000000 0.000000 0.000000 0.000000 0.000000 0.078222
#
#
# Mechanical properties :
#
#
# Convention : Reuss Voigt Hill
#
# Bulk Modulus (GPa) = 19.85209 58.52968 39.19088
# Shear Modulus (GPa) = 10.91095 20.25424 15.58260
#
# Velocity S-wave (km/s) = 2.66463 3.63047 3.18438
# Velocity P-wave (km/s) = 4.73134 7.46067 6.24689
#
# Compressibility (1/GPa) = 0.05037254
#
# Stress axis : x y z
#
# Youngs Moduli (GPa) = 45.88461 13.81215 83.16198
#
# Poissons Ratio (x) = 0.28539 0.79482
# Poissons Ratio (y) = 0.94808 -0.19100
# Poissons Ratio (z) = 0.43854 -0.03172
#
# Static dielectric constant tensor:
#      x y z
#    x 1.512350 0.000000 0.000000 
#    y 0.000000 1.473170 0.000000 
#    z 0.000000 0.000000 1.546330 
# 
# From -- ./inp_files/29783.got.cif
#   From: 2010.05.17/outbox.cif.g08.bks.cpg/sg59_15_cif.got.tgz:29783.got - 2010.06.03 14:40:33.
