data_PCOD9446556
_publ_section_title
;
Structure prediction by ZEFSAII (Michael W. Deem and Ramdas Pophale) SiO2 
 PCOD9446556
Probable space group: P M M N
;
_chemical_formula_sum "Si O2"
_cell_formula_units_Z 64
_cell_length_a 16.991219
_cell_length_b 26.289532
_cell_length_c 10.205079
_cell_angle_alpha 90.000000
_cell_angle_beta 90.000000
_cell_angle_gamma 90.000000
_cell_volume 4558.518940
_symmetry_space_group_name_H-M "P M M N"
_symmetry_group_IT_number 59
_space_group.IT_coordinate_system_code '2'
_symmetry_cell_setting 'orthorhombic'
loop_
_space_group_symop_operation_xyz
x,y,z
1/2-x,1/2-y,z
1/2+x,-y,-z
-x,1/2+y,-z
-x,-y,-z
1/2+x,1/2+y,-z
1/2-x,y,z
x,1/2-y,z
loop_
_atom_site_type_symbol
_atom_site_label
_atom_site_fract_x
_atom_site_fract_y
_atom_site_fract_z
Si Si1 0.656618 0.123757 0.000832
Si Si2 0.156237 0.506953 0.670469
Si Si3 0.937798 0.956150 0.543046
Si Si4 0.911911 0.486151 0.045136
Si Si5 0.580160 0.111539 0.441652
Si Si6 0.659861 0.114081 0.713547
Si Si7 0.161534 0.493492 0.221546
Si Si8 0.657778 0.190015 0.252825
O O1 0.750000 0.108624 0.000364
O O2 0.606127 0.074331 0.039247
O O3 0.647238 0.167588 0.106997
O O4 0.637102 0.138926 0.851951
O O5 0.250000 0.508044 0.689800
O O6 0.129858 0.464383 0.565221
O O7 0.111363 0.498108 0.807947
O O8 0.128649 0.561879 0.612137
O O9 0.901239 0.967121 0.684690
O O10 0.989556 0.905597 0.550940
O O11 0.000000 0.000000 0.500000
O O12 0.857622 0.510465 0.931787
O O13 0.000000 0.500000 0.000000
O O14 0.607864 0.123997 0.587987
O O15 0.602401 0.157624 0.347564
O O16 0.750000 0.127576 0.682853
O O17 0.657127 0.053470 0.742629
O O18 0.250000 0.476082 0.249793
O O19 0.750000 0.180743 0.288397
O O20 0.643607 0.250000 0.258063
#
# Coordination Sequence:
#
# PCOD9446556 Si02
#       8
#     8   8   8   8   8   8   8   8
#     4   9  18  31  45  62  88 123 157 188 232 276
#     4  11  19  29  44  64  94 131 160 187 225 280
#     4  10  19  28  41  64  91 123 158 189 227 271
#     4  11  20  27  43  66  93 123 161 196 224 272
#     4  11  19  29  45  66  93 118 159 196 233 271
#     4   9  16  26  43  61  85 119 148 179 223 273
#     4  10  18  29  40  59  91 126 157 185 218 268
#     4  10  20  34  51  68  87 118 162 205 237 271
#
# _framework density 14.039648
#
# number of rings (size 3 to 8) (size 9 to 14) (size 15 to 20)
#    0.000    1.875    3.750    4.875    1.750    0.000 
#    0.000    0.625    0.000    2.250    0.000    0.000 
#    0.000    2.000    0.000    0.250    0.000    0.000 
#
# Total GULP energy -356636.679252 kJ/mol
# GULP energy per Si atom -5572.448113 kJ/mol
# Density = 1.400769 g / cm^3
# Si number density = 14.039648 Si / 1000 Ang^3
#
#
#
# Elastic Constant Matrix: (Units=GPa)
#
#
# Indices 1 2 3 4 5 6 
#
# 1 51.9399 26.5239 17.5773 0.0000 0.0000 0.0000
# 2 26.5239 53.0316 32.9523 0.0000 0.0000 0.0000
# 3 17.5773 32.9523 91.4763 0.0000 0.0000 0.0000
# 4 0.0000 0.0000 0.0000 12.8619 0.0000 0.0000
# 5 0.0000 0.0000 0.0000 0.0000 25.6055 0.0000
# 6 0.0000 0.0000 0.0000 0.0000 0.0000 11.7065
#
#
#
# Elastic Compliance Matrix: (Units=1/GPa)
#
#
# Indices 1 2 3 4 5 6 
#
# 1 0.025869 -0.012690 -0.000399 0.000000 0.000000 0.000000
# 2 -0.012690 0.030520 -0.008556 0.000000 0.000000 0.000000
# 3 -0.000399 -0.008556 0.014091 0.000000 0.000000 0.000000
# 4 0.000000 0.000000 0.000000 0.077749 0.000000 0.000000
# 5 0.000000 0.000000 0.000000 0.000000 0.039054 0.000000
# 6 0.000000 0.000000 0.000000 0.000000 0.000000 0.085423
#
#
# Mechanical properties :
#
#
# Convention : Reuss Voigt Hill
#
# Bulk Modulus (GPa) = 36.77994 38.95052 37.86523
# Shear Modulus (GPa) = 15.38186 17.99439 16.68813
#
# Velocity S-wave (km/s) = 3.31358 3.58395 3.45141
# Velocity P-wave (km/s) = 6.39483 6.70296 6.55071
#
# Compressibility (1/GPa) = 0.02718873
#
# Stress axis : x y z
#
# Youngs Moduli (GPa) = 38.65699 32.76551 70.96959
#
# Poissons Ratio (x) = 0.41580 0.02834
# Poissons Ratio (y) = 0.49056 0.60719
# Poissons Ratio (z) = 0.01544 0.28033
#
# Static dielectric constant tensor:
#      x y z
#    x 1.446520 0.000000 0.000000 
#    y 0.000000 1.435890 0.000000 
#    z 0.000000 0.000000 1.496380 
# 
# From -- ./inp_files/10829.got.cif
#   From: 2010.05.17/outbox.cif.g08.bks.cpg/sg59_6_cif.got.tgz:10829.got - 2010.06.03 14:40:33.
