data_PCOD9446416
_publ_section_title
;
Structure prediction by ZEFSAII (Michael W. Deem and Ramdas Pophale) SiO2 
 PCOD9446416
Probable space group: P M M N
;
_chemical_formula_sum "Si O2"
_cell_formula_units_Z 48
_cell_length_a 19.353533
_cell_length_b 7.567946
_cell_length_c 13.674584
_cell_angle_alpha 90.000000
_cell_angle_beta 90.000000
_cell_angle_gamma 90.000000
_cell_volume 2002.868357
_symmetry_space_group_name_H-M "P M M N"
_symmetry_group_IT_number 59
_space_group.IT_coordinate_system_code '2'
_symmetry_cell_setting 'orthorhombic'
loop_
_space_group_symop_operation_xyz
x,y,z
1/2-x,1/2-y,z
1/2+x,-y,-z
-x,1/2+y,-z
-x,-y,-z
1/2+x,1/2+y,-z
1/2-x,y,z
x,1/2-y,z
loop_
_atom_site_type_symbol
_atom_site_label
_atom_site_fract_x
_atom_site_fract_y
_atom_site_fract_z
Si Si1 0.127721 0.448815 0.425770
Si Si2 0.899214 0.042863 0.160203
Si Si3 0.250000 0.950854 0.068155
Si Si4 0.750000 0.046898 0.701341
Si Si5 0.094846 0.048617 0.054408
Si Si6 0.250000 0.959834 0.788545
Si Si7 0.750000 0.963871 0.439135
Si Si8 0.966575 0.967555 0.739181
O O1 0.108706 0.250000 0.456703
O O2 0.183429 0.447079 0.337641
O O3 0.178142 0.527220 0.509655
O O4 0.063512 0.529962 0.365510
O O5 0.893087 0.250000 0.181359
O O6 0.822403 0.966119 0.171131
O O7 0.955488 0.974519 0.237050
O O8 0.928639 0.028442 0.049859
O O9 0.250000 0.750000 0.028851
O O10 0.250000 0.944541 0.184318
O O11 0.177703 0.037959 0.043798
O O12 0.750000 0.250000 0.664731
O O13 0.071972 0.250000 0.055623
O O14 0.074419 0.974180 0.161484
O O15 0.250000 0.750000 0.808826
O O16 0.250000 0.987825 0.672906
O O17 0.750000 0.750000 0.452371
O O18 0.963040 0.750000 0.735588
#
# Coordination Sequence:
#
# PCOD9446416 Si02
#       8
#     8   8   4   4   8   4   4   8
#     4   9  17  33  55  80 107 139 173 212 268 334
#     4  10  21  38  56  76 105 148 189 224 267 321
#     4  11  21  31  46  73 109 148 181 217 260 312
#     4  10  18  27  44  74 108 139 168 208 259 311
#     4  11  21  33  53  81 110 147 187 229 265 306
#     4  10  22  40  59  74 100 141 184 225 270 322
#     4   9  19  34  59  83 103 132 171 224 279 325
#     4   9  18  33  55  80 111 145 180 216 264 327
#
# _framework density 23.965630000000001
#
# number of rings (size 3 to 8) (size 9 to 14) (size 15 to 20)
#    0.000    2.167    1.667    2.500    0.000    3.333 
#    0.000    2.500    0.000    0.000    0.000    0.000 
#    0.000    0.000    0.000    0.000    0.000    0.000 
#
# Total GULP energy -267644.344008 kJ/mol
# GULP energy per Si atom -5575.923833 kJ/mol
# Density = 2.391108 g / cm^3
# Si number density = 23.965630 Si / 1000 Ang^3
#
#
#
# Elastic Constant Matrix: (Units=GPa)
#
#
# Indices 1 2 3 4 5 6 
#
# 1 112.2464 3.9850 23.9701 0.0000 0.0000 0.0000
# 2 3.9850 61.0729 -5.0757 0.0000 0.0000 0.0000
# 3 23.9701 -5.0757 119.0433 0.0000 0.0000 0.0000
# 4 0.0000 0.0000 0.0000 18.0065 0.0000 0.0000
# 5 0.0000 0.0000 0.0000 0.0000 19.3880 0.0000
# 6 0.0000 0.0000 0.0000 0.0000 0.0000 9.4041
#
#
#
# Elastic Compliance Matrix: (Units=1/GPa)
#
#
# Indices 1 2 3 4 5 6 
#
# 1 0.009345 -0.000769 -0.001914 0.000000 0.000000 0.000000
# 2 -0.000769 0.016495 0.000858 0.000000 0.000000 0.000000
# 3 -0.001914 0.000858 0.008822 0.000000 0.000000 0.000000
# 4 0.000000 0.000000 0.000000 0.055536 0.000000 0.000000
# 5 0.000000 0.000000 0.000000 0.000000 0.051578 0.000000
# 6 0.000000 0.000000 0.000000 0.000000 0.000000 0.106336
#
#
# Mechanical properties :
#
#
# Convention : Reuss Voigt Hill
#
# Bulk Modulus (GPa) = 32.24516 37.56907 34.90711
# Shear Modulus (GPa) = 19.07662 27.32527 23.20094
#
# Velocity S-wave (km/s) = 2.82441 3.38033 3.11479
# Velocity P-wave (km/s) = 4.91124 5.56289 5.24719
#
# Compressibility (1/GPa) = 0.03101241
#
# Stress axis : x y z
#
# Youngs Moduli (GPa) = 107.00793 60.62309 113.34804
#
# Poissons Ratio (x) = 0.04661 0.21700
# Poissons Ratio (y) = 0.08228 -0.09727
# Poissons Ratio (z) = 0.20486 -0.05202
#
# Static dielectric constant tensor:
#      x y z
#    x 2.018770 0.000000 0.000000 
#    y 0.000000 1.937750 0.000000 
#    z 0.000000 0.000000 1.892030 
# 
# From -- ./inp_files/23799.got.cif
#   From: 2010.05.17/outbox.cif.g08.bks.cpg/sg59_12_cif.got.tgz:23799.got - 2010.06.03 14:40:33.
