data_PCOD9446122
_publ_section_title
;
Structure prediction by ZEFSAII (Michael W. Deem and Ramdas Pophale) SiO2 
 PCOD9446122
Probable space group: P N N M
;
_chemical_formula_sum "Si O2"
_cell_formula_units_Z 56
_cell_length_a 21.000000
_cell_length_b 15.000000
_cell_length_c 9.000000
_cell_angle_alpha 90.000000
_cell_angle_beta 90.000000
_cell_angle_gamma 90.000000
_cell_volume 2835.000000
_symmetry_space_group_name_H-M "P N N M"
_symmetry_group_IT_number 58
_symmetry_cell_setting 'orthorhombic'
loop_
_space_group_symop_operation_xyz
x,y,z
-x,-y,z
1/2+x,1/2-y,1/2-z
1/2-x,1/2+y,1/2-z
-x,-y,-z
x,y,-z
1/2-x,1/2+y,1/2+z
1/2+x,1/2-y,1/2+z
loop_
_atom_site_type_symbol
_atom_site_label
_atom_site_fract_x
_atom_site_fract_y
_atom_site_fract_z
Si Si1 0.810239 0.562488 0.822628
Si Si2 0.725845 0.414312 0.675410
Si Si3 0.602197 0.469010 0.827954
Si Si4 0.258260 0.268527 0.677989
Si Si5 0.401295 0.206011 0.324965
Si Si6 0.425192 0.016357 0.175325
Si Si7 0.519707 0.648667 0.171557
O O1 0.777739 0.472073 0.763130
O O2 0.770955 0.643015 0.749536
O O3 0.882212 0.554986 0.763146
O O4 0.807817 0.567395 0.000000
O O5 0.738726 0.412551 0.500000
O O6 0.658845 0.460115 0.713024
O O7 0.725244 0.316215 0.745376
O O8 0.550516 0.390948 0.803945
O O9 0.565840 0.562815 0.813713
O O10 0.625225 0.462660 0.000000
O O11 0.248754 0.268871 0.500000
O O12 0.333678 0.254330 0.706951
O O13 0.402890 0.185715 0.500000
O O14 0.408418 0.114886 0.234348
O O15 0.456777 0.273859 0.278024
O O16 0.500000 0.000000 0.197723
O O17 0.410996 0.009955 0.000000
O O18 0.523932 0.679449 0.000000
#
# Coordination Sequence:
#
# PCOD9446122 Si02
#       7
#     8   8   8   8   8   8   8
#     4  12  25  43  67  96 130 169 213 269 327 387
#     4  12  24  39  62  92 126 165 206 258 317 377
#     4   9  19  37  59  87 123 163 208 258 313 374
#     4  11  24  42  65  94 126 166 214 265 321 382
#     4  11  23  39  63  93 125 165 213 264 319 384
#     4  11  25  45  69  94 125 168 215 266 325 390
#     4   9  19  36  60  87 120 164 208 254 312 376
#
# _framework density 19.753086
#
# number of rings (size 3 to 8) (size 9 to 14) (size 15 to 20)
#    0.000    1.286    1.429    5.571    0.000    7.429 
#    0.000    2.857    0.000    0.000    0.000    0.000 
#    0.000    0.000    0.000    0.000    0.000    0.000 
#
# Total GULP energy -313147.510058 kJ/mol
# GULP energy per Si atom -5591.919822 kJ/mol
# Density = 1.970813 g / cm^3
# Si number density = 19.753086 Si / 1000 Ang^3
#
#
#
# Elastic Constant Matrix: (Units=GPa)
#
#
# Indices 1 2 3 4 5 6 
#
# 1 70.6706 19.2794 53.1960 0.0000 0.0000 0.0000
# 2 19.2794 79.2273 40.2627 0.0000 0.0000 0.0000
# 3 53.1960 40.2627 127.8977 0.0000 0.0000 0.0000
# 4 0.0000 0.0000 0.0000 21.1334 0.0000 0.0000
# 5 0.0000 0.0000 0.0000 0.0000 4.3987 0.0000
# 6 0.0000 0.0000 0.0000 0.0000 0.0000 17.6655
#
#
#
# Elastic Compliance Matrix: (Units=1/GPa)
#
#
# Indices 1 2 3 4 5 6 
#
# 1 0.020640 -0.000786 -0.008338 0.000000 0.000000 0.000000
# 2 -0.000786 0.015056 -0.004413 0.000000 0.000000 0.000000
# 3 -0.008338 -0.004413 0.012676 0.000000 0.000000 0.000000
# 4 0.000000 0.000000 0.000000 0.047318 0.000000 0.000000
# 5 0.000000 0.000000 0.000000 0.000000 0.227337 0.000000
# 6 0.000000 0.000000 0.000000 0.000000 0.000000 0.056607
#
#
# Mechanical properties :
#
#
# Convention : Reuss Voigt Hill
#
# Bulk Modulus (GPa) = 46.94883 55.91909 51.43396
# Shear Modulus (GPa) = 12.08293 19.64337 15.86315
#
# Velocity S-wave (km/s) = 2.47594 3.15690 2.83693
# Velocity P-wave (km/s) = 5.65625 6.45434 6.06843
#
# Compressibility (1/GPa) = 0.02129979
#
# Stress axis : x y z
#
# Youngs Moduli (GPa) = 48.44859 66.42027 78.89088
#
# Poissons Ratio (x) = 0.05218 0.65776
# Poissons Ratio (y) = 0.03806 0.34813
# Poissons Ratio (z) = 0.40394 0.29310
#
# Static dielectric constant tensor:
#      x y z
#    x 1.722750 0.000000 0.000000 
#    y 0.000000 1.686140 0.000000 
#    z 0.000000 0.000000 1.659820 
# 
# From -- ./inp_files/9037.got.cif
#   From: 2010.05.17/outbox.ucp.g08.bks.cvg/sg58_5_cif.got.tgz:9037.got - 2010.06.11 16:41:41.
