data_PCOD9446189
_publ_section_title
;
Structure prediction by ZEFSAII (Michael W. Deem and Ramdas Pophale) SiO2 
 PCOD9446189
Probable space group: P M M N
;
_chemical_formula_sum "Si O2"
_cell_formula_units_Z 48
_cell_length_a 22.170230
_cell_length_b 8.427855
_cell_length_c 15.835030
_cell_angle_alpha 90.000000
_cell_angle_beta 90.000000
_cell_angle_gamma 90.000000
_cell_volume 2958.735511
_symmetry_space_group_name_H-M "P M M N"
_symmetry_group_IT_number 59
_space_group.IT_coordinate_system_code '2'
_symmetry_cell_setting 'orthorhombic'
loop_
_space_group_symop_operation_xyz
x,y,z
1/2-x,1/2-y,z
1/2+x,-y,-z
-x,1/2+y,-z
-x,-y,-z
1/2+x,1/2+y,-z
1/2-x,y,z
x,1/2-y,z
loop_
_atom_site_type_symbol
_atom_site_label
_atom_site_fract_x
_atom_site_fract_y
_atom_site_fract_z
Si Si1 0.542652 0.058230 0.379385
Si Si2 0.432056 0.438082 0.982549
Si Si3 0.318836 0.943761 0.305110
Si Si4 0.956971 0.439583 0.192128
Si Si5 0.592167 0.060183 0.844187
Si Si6 0.586659 0.441792 0.557347
O O1 0.541435 0.250000 0.378901
O O2 0.561766 0.006256 0.285876
O O3 0.582740 0.006594 0.459536
O O4 0.475002 0.999236 0.398739
O O5 0.431426 0.250000 0.989626
O O6 0.394190 0.511140 0.059409
O O7 0.500000 0.500000 0.000000
O O8 0.420295 0.488467 0.886358
O O9 0.250000 0.999105 0.304013
O O10 0.317772 0.750000 0.305652
O O11 0.357172 0.990406 0.222567
O O12 0.356518 0.995235 0.387516
O O13 0.952662 0.250000 0.186664
O O14 0.027450 0.486610 0.181035
O O15 0.585596 0.250000 0.840119
O O16 0.586119 0.250000 0.558585
#
# Coordination Sequence:
#
# PCOD9446189 Si02
#       6
#     8   8   8   8   8   8
#     4   9  17  26  41  63  88 114 141 176 219 260
#     4  10  18  27  40  59  84 112 141 171 209 254
#     4   9  17  28  44  65  87 114 148 181 214 256
#     4  10  17  26  40  61  88 114 141 172 213 260
#     4  10  17  27  42  60  84 113 143 175 212 253
#     4   9  16  28  43  61  85 114 145 177 214 258
#
# _framework density 16.223147000000001
#
# number of rings (size 3 to 8) (size 9 to 14) (size 15 to 20)
#    0.000    2.500    1.667    4.500    0.000    0.667 
#    0.000    0.000    0.000    4.500    0.000    1.167 
#    0.000    6.667    0.000    0.000    0.000    0.000 
#
# Total GULP energy -267355.214199 kJ/mol
# GULP energy per Si atom -5569.900296 kJ/mol
# Density = 1.618622 g / cm^3
# Si number density = 16.223147 Si / 1000 Ang^3
#
#
#
# Elastic Constant Matrix: (Units=GPa)
#
#
# Indices 1 2 3 4 5 6 
#
# 1 64.6109 2.3435 48.6355 0.0000 0.0000 0.0000
# 2 2.3435 23.1229 9.2954 0.0000 0.0000 0.0000
# 3 48.6355 9.2954 163.0069 0.0000 0.0000 0.0000
# 4 0.0000 0.0000 0.0000 18.1694 0.0000 0.0000
# 5 0.0000 0.0000 0.0000 0.0000 15.0364 0.0000
# 6 0.0000 0.0000 0.0000 0.0000 0.0000 9.9767
#
#
#
# Elastic Compliance Matrix: (Units=1/GPa)
#
#
# Indices 1 2 3 4 5 6 
#
# 1 0.019963 0.000380 -0.005978 0.000000 0.000000 0.000000
# 2 0.000380 0.044269 -0.002638 0.000000 0.000000 0.000000
# 3 -0.005978 -0.002638 0.008069 0.000000 0.000000 0.000000
# 4 0.000000 0.000000 0.000000 0.055038 0.000000 0.000000
# 5 0.000000 0.000000 0.000000 0.000000 0.066505 0.000000
# 6 0.000000 0.000000 0.000000 0.000000 0.000000 0.100234
#
#
# Mechanical properties :
#
#
# Convention : Reuss Voigt Hill
#
# Bulk Modulus (GPa) = 17.91174 41.25442 29.58308
# Shear Modulus (GPa) = 15.19021 21.33425 18.26223
#
# Velocity S-wave (km/s) = 3.06327 3.63030 3.35877
# Velocity P-wave (km/s) = 4.85554 6.56175 5.77204
#
# Compressibility (1/GPa) = 0.05582931
#
# Stress axis : x y z
#
# Youngs Moduli (GPa) = 50.09163 22.58915 123.93471
#
# Poissons Ratio (x) = -0.00858 0.74089
# Poissons Ratio (y) = -0.01903 0.32691
# Poissons Ratio (z) = 0.29945 0.05958
#
# Static dielectric constant tensor:
#      x y z
#    x 1.500470 0.000000 0.000000 
#    y 0.000000 1.580320 0.000000 
#    z 0.000000 0.000000 1.615960 
# 
# From -- ./inp_files/28005.got.cif
#   From: 2010.05.17/outbox.cif.g08.bks.cpg/sg59_15_cif.got.tgz:28005.got - 2010.06.03 14:40:33.
