data_PCOD9446569
_publ_section_title
;
Structure prediction by ZEFSAII (Michael W. Deem and Ramdas Pophale) SiO2 
 PCOD9446569
Probable space group: P M M N
;
_chemical_formula_sum "Si O2"
_cell_formula_units_Z 64
_cell_length_a 8.526389
_cell_length_b 33.949981
_cell_length_c 14.346794
_cell_angle_alpha 90.000000
_cell_angle_beta 90.000000
_cell_angle_gamma 90.000000
_cell_volume 4152.977141
_symmetry_space_group_name_H-M "P M M N"
_symmetry_group_IT_number 59
_space_group.IT_coordinate_system_code '2'
_symmetry_cell_setting 'orthorhombic'
loop_
_space_group_symop_operation_xyz
x,y,z
1/2-x,1/2-y,z
1/2+x,-y,-z
-x,1/2+y,-z
-x,-y,-z
1/2+x,1/2+y,-z
1/2-x,y,z
x,1/2-y,z
loop_
_atom_site_type_symbol
_atom_site_label
_atom_site_fract_x
_atom_site_fract_y
_atom_site_fract_z
Si Si1 0.064366 0.980674 0.725284
Si Si2 0.932754 0.437957 0.647499
Si Si3 0.566093 0.625884 0.220488
Si Si4 0.438291 0.465480 0.068369
Si Si5 0.559683 0.706893 0.991309
Si Si6 0.436522 0.793202 0.203434
Si Si7 0.439509 0.379783 0.999544
Si Si8 0.936850 0.957653 0.536552
O O1 0.250000 0.976242 0.731734
O O2 0.998781 0.953416 0.641520
O O3 0.988473 0.973482 0.825541
O O4 0.022751 0.024886 0.692158
O O5 0.750000 0.448197 0.641028
O O6 0.997822 0.429426 0.544009
O O7 0.963364 0.402120 0.715985
O O8 0.750000 0.616541 0.231115
O O9 0.530904 0.670890 0.246536
O O10 0.524671 0.620880 0.111083
O O11 0.250000 0.465799 0.061476
O O12 0.496356 0.421449 0.040322
O O13 0.500000 0.500000 0.000000
O O14 0.750000 0.706188 0.996005
O O15 0.516701 0.750000 0.947913
O O16 0.510244 0.662834 0.957339
O O17 0.491346 0.708203 0.095736
O O18 0.250000 0.800495 0.206623
O O19 0.468129 0.750000 0.243989
O O20 0.250000 0.380456 0.007437
O O21 0.250000 0.042294 0.463803
O O22 0.000000 0.000000 0.500000
#
# Coordination Sequence:
#
# PCOD9446569 Si02
#       8
#     8   8   8   8   8   8   8   8
#     4  11  21  34  48  64  87 116 150 186 222 261
#     4  11  20  31  47  68  90 113 143 180 223 266
#     4  10  18  29  44  63  87 117 150 184 221 260
#     4  11  21  33  46  62  87 121 158 191 224 263
#     4   8  13  24  42  60  78 105 141 180 224 269
#     4   9  16  25  37  56  83 114 146 179 216 259
#     4   8  16  28  42  60  84 113 147 186 221 257
#     4  10  18  31  49  68  87 110 140 176 219 262
#
# _framework density 15.410631
#
# number of rings (size 3 to 8) (size 9 to 14) (size 15 to 20)
#    0.000    2.250    0.000    7.500    0.000    1.750 
#    0.000    5.625    0.000    0.000    0.000    0.000 
#    0.000    1.000    0.000    5.000    0.000    3.875 
#
# Total GULP energy -356285.238126 kJ/mol
# GULP energy per Si atom -5566.956846 kJ/mol
# Density = 1.537556 g / cm^3
# Si number density = 15.410631 Si / 1000 Ang^3
#
#
#
# Elastic Constant Matrix: (Units=GPa)
#
#
# Indices 1 2 3 4 5 6 
#
# 1 50.4366 8.1104 13.1506 0.0000 0.0000 0.0000
# 2 8.1104 95.2040 35.2816 0.0000 0.0000 0.0000
# 3 13.1506 35.2816 72.1452 0.0000 0.0000 0.0000
# 4 0.0000 0.0000 0.0000 8.4324 0.0000 0.0000
# 5 0.0000 0.0000 0.0000 0.0000 19.0813 0.0000
# 6 0.0000 0.0000 0.0000 0.0000 0.0000 19.7631
#
#
#
# Elastic Compliance Matrix: (Units=1/GPa)
#
#
# Indices 1 2 3 4 5 6 
#
# 1 0.020832 -0.000449 -0.003578 0.000000 0.000000 0.000000
# 2 -0.000449 0.012838 -0.006197 0.000000 0.000000 0.000000
# 3 -0.003578 -0.006197 0.017543 0.000000 0.000000 0.000000
# 4 0.000000 0.000000 0.000000 0.118590 0.000000 0.000000
# 5 0.000000 0.000000 0.000000 0.000000 0.052407 0.000000
# 6 0.000000 0.000000 0.000000 0.000000 0.000000 0.050599
#
#
# Mechanical properties :
#
#
# Convention : Reuss Voigt Hill
#
# Bulk Modulus (GPa) = 32.50194 36.76346 34.63270
# Shear Modulus (GPa) = 16.47377 20.20491 18.33934
#
# Velocity S-wave (km/s) = 3.27308 3.62484 3.45345
# Velocity P-wave (km/s) = 5.95151 6.43638 6.19869
#
# Compressibility (1/GPa) = 0.03076740
#
# Stress axis : x y z
#
# Youngs Moduli (GPa) = 48.00332 77.89132 57.00128
#
# Poissons Ratio (x) = 0.03496 0.20394
# Poissons Ratio (y) = 0.02154 0.35322
# Poissons Ratio (z) = 0.17174 0.48266
#
# Static dielectric constant tensor:
#      x y z
#    x 1.519550 0.000000 0.000000 
#    y 0.000000 1.576940 0.000000 
#    z 0.000000 0.000000 1.510110 
# 
# From -- ./inp_files/21828.got.cif
#   From: 2010.05.17/outbox.cif.g08.bks.cpg/sg59_11_cif.got.tgz:21828.got - 2010.06.03 14:40:33.
