data_PCOD9446358
_publ_section_title
;
Structure prediction by ZEFSAII (Michael W. Deem and Ramdas Pophale) SiO2 
 PCOD9446358
Probable space group: P M M N
;
_chemical_formula_sum "Si O2"
_cell_formula_units_Z 56
_cell_length_a 8.831906
_cell_length_b 27.294220
_cell_length_c 14.954862
_cell_angle_alpha 90.000000
_cell_angle_beta 90.000000
_cell_angle_gamma 90.000000
_cell_volume 3605.018815
_symmetry_space_group_name_H-M "P M M N"
_symmetry_group_IT_number 59
_space_group.IT_coordinate_system_code '2'
_symmetry_cell_setting 'orthorhombic'
loop_
_space_group_symop_operation_xyz
x,y,z
1/2-x,1/2-y,z
1/2+x,-y,-z
-x,1/2+y,-z
-x,-y,-z
1/2+x,1/2+y,-z
1/2-x,y,z
x,1/2-y,z
loop_
_atom_site_type_symbol
_atom_site_label
_atom_site_fract_x
_atom_site_fract_y
_atom_site_fract_z
Si Si1 0.565879 0.194486 0.118647
Si Si2 0.068841 0.879586 0.731905
Si Si3 0.569715 0.539189 0.378713
Si Si4 0.569631 0.433071 0.803396
Si Si5 0.566818 0.108858 0.984448
Si Si6 0.569600 0.566141 0.577653
Si Si7 0.430384 0.042981 0.131011
O O1 0.750000 0.195549 0.117067
O O2 0.510988 0.250000 0.109776
O O3 0.522872 0.168824 0.212560
O O4 0.520470 0.157665 0.038599
O O5 0.250000 0.880977 0.727379
O O6 0.000515 0.889939 0.634942
O O7 0.010022 0.923967 0.793777
O O8 0.750000 0.532196 0.374997
O O9 0.513448 0.567338 0.291189
O O10 0.532466 0.566002 0.472262
O O11 0.492850 0.485643 0.384757
O O12 0.750000 0.429191 0.787880
O O13 0.540581 0.486499 0.847027
O O14 0.525040 0.394510 0.880297
O O15 0.750000 0.104738 0.989899
O O16 0.496186 0.063361 0.038413
O O17 0.750000 0.566248 0.588250
O O18 0.250000 0.050734 0.133578
#
# Coordination Sequence:
#
# PCOD9446358 Si02
#       7
#     8   8   8   8   8   8   8
#     4   8  15  29  48  69  91 113 142 184 229 272
#     4  10  18  28  46  68  89 118 153 184 223 273
#     4  10  20  30  44  63  87 122 157 184 214 258
#     4  10  19  29  41  61  90 122 153 187 219 255
#     4   9  18  30  44  63  87 117 152 184 221 267
#     4  10  19  31  44  63  90 119 152 188 222 257
#     4  10  18  27  40  60  88 121 150 181 220 256
#
# _framework density 15.533899
#
# number of rings (size 3 to 8) (size 9 to 14) (size 15 to 20)
#    0.000    2.429    1.429    3.000    0.000    2.857 
#    0.000    0.000    0.000   10.714    0.000    1.000 
#    0.000    5.714    0.000    0.000    0.000    0.000 
#
# Total GULP energy -312091.374513 kJ/mol
# GULP energy per Si atom -5573.060259 kJ/mol
# Density = 1.549854 g / cm^3
# Si number density = 15.533899 Si / 1000 Ang^3
#
#
#
# Elastic Constant Matrix: (Units=GPa)
#
#
# Indices 1 2 3 4 5 6 
#
# 1 27.0621 24.0816 38.8746 0.0000 0.0000 0.0000
# 2 24.0816 65.1925 47.8105 0.0000 0.0000 0.0000
# 3 38.8746 47.8105 136.8932 0.0000 0.0000 0.0000
# 4 0.0000 0.0000 0.0000 11.6507 0.0000 0.0000
# 5 0.0000 0.0000 0.0000 0.0000 26.4530 0.0000
# 6 0.0000 0.0000 0.0000 0.0000 0.0000 10.7848
#
#
#
# Elastic Compliance Matrix: (Units=1/GPa)
#
#
# Indices 1 2 3 4 5 6 
#
# 1 0.072742 -0.015757 -0.015154 0.000000 0.000000 0.000000
# 2 -0.015757 0.024034 -0.003919 0.000000 0.000000 0.000000
# 3 -0.015154 -0.003919 0.012977 0.000000 0.000000 0.000000
# 4 0.000000 0.000000 0.000000 0.085832 0.000000 0.000000
# 5 0.000000 0.000000 0.000000 0.000000 0.037803 0.000000
# 6 0.000000 0.000000 0.000000 0.000000 0.000000 0.092723
#
#
# Mechanical properties :
#
#
# Convention : Reuss Voigt Hill
#
# Bulk Modulus (GPa) = 24.94205 50.07569 37.50887
# Shear Modulus (GPa) = 12.22087 17.66978 14.94533
#
# Velocity S-wave (km/s) = 2.80790 3.37634 3.10516
# Velocity P-wave (km/s) = 5.15789 6.89246 6.08727
#
# Compressibility (1/GPa) = 0.04009294
#
# Stress axis : x y z
#
# Youngs Moduli (GPa) = 13.74717 41.60768 77.05816
#
# Poissons Ratio (x) = 0.65561 1.16774
# Poissons Ratio (y) = 0.21661 0.30202
# Poissons Ratio (z) = 0.20832 0.16308
#
# Static dielectric constant tensor:
#      x y z
#    x 1.525180 0.000000 0.000000 
#    y 0.000000 1.501200 0.000000 
#    z 0.000000 0.000000 1.553110 
# 
# From -- ./inp_files/21712.got.cif
#   From: 2010.05.17/outbox.cif.g08.bks.cpg/sg59_11_cif.got.tgz:21712.got - 2010.06.03 14:40:33.
