data_PCOD9446700
_publ_section_title
;
Structure prediction by ZEFSAII (Michael W. Deem and Ramdas Pophale) SiO2 
 PCOD9446700
Probable space group: P M M N
;
_chemical_formula_sum "Si O2"
_cell_formula_units_Z 64
_cell_length_a 7.656084
_cell_length_b 30.581668
_cell_length_c 12.691352
_cell_angle_alpha 90.000000
_cell_angle_beta 90.000000
_cell_angle_gamma 90.000000
_cell_volume 2971.500096
_symmetry_space_group_name_H-M "P M M N"
_symmetry_group_IT_number 59
_space_group.IT_coordinate_system_code '2'
_symmetry_cell_setting 'orthorhombic'
loop_
_space_group_symop_operation_xyz
x,y,z
1/2-x,1/2-y,z
1/2+x,-y,-z
-x,1/2+y,-z
-x,-y,-z
1/2+x,1/2+y,-z
1/2-x,y,z
x,1/2-y,z
loop_
_atom_site_type_symbol
_atom_site_label
_atom_site_fract_x
_atom_site_fract_y
_atom_site_fract_z
Si Si1 0.547760 0.608947 0.059831
Si Si2 0.538371 0.202404 0.425752
Si Si3 0.450282 0.937817 0.852305
Si Si4 0.535753 0.967483 0.212757
Si Si5 0.461167 0.416547 0.592070
Si Si6 0.548000 0.797220 0.108635
Si Si7 0.044754 0.819685 0.339835
Si Si8 0.954374 0.893716 0.639150
O O1 0.750000 0.614163 0.093324
O O2 0.475093 0.572218 0.138547
O O3 0.467641 0.657372 0.067099
O O4 0.542237 0.589454 0.943268
O O5 0.750000 0.200337 0.425048
O O6 0.485304 0.250000 0.383562
O O7 0.482282 0.198975 0.548271
O O8 0.473163 0.158719 0.369643
O O9 0.250000 0.942585 0.887354
O O10 0.455731 0.912790 0.741606
O O11 0.524687 0.986148 0.831496
O O12 0.750000 0.968776 0.211053
O O13 0.484082 0.956299 0.332793
O O14 0.250000 0.415905 0.588331
O O15 0.518283 0.371707 0.648757
O O16 0.523414 0.413651 0.471475
O O17 0.750000 0.795994 0.073264
O O18 0.468726 0.750000 0.080651
O O19 0.543976 0.802080 0.235312
O O20 0.250000 0.809841 0.330192
O O21 0.750000 0.904452 0.647517
#
# Coordination Sequence:
#
# PCOD9446700 Si02
#       8
#     8   8   8   8   8   8   8   8
#     4  10  20  38  60  80 110 144 182 232 279 325
#     4   9  18  33  53  78 110 147 184 224 273 324
#     4  11  23  38  57  80 108 145 190 233 281 336
#     4   9  18  35  60  85 109 142 180 229 286 333
#     4   9  17  34  57  81 112 147 181 222 272 326
#     4  10  20  34  55  81 109 145 183 219 269 330
#     4  10  18  29  49  81 118 149 175 215 269 327
#     4  10  21  36  56  81 111 147 187 228 271 327
#
# _framework density 21.537944
#
# number of rings (size 3 to 8) (size 9 to 14) (size 15 to 20)
#    0.000    2.250    1.250    1.875    0.000    3.000 
#    0.000    2.500    0.000    2.250    0.000    0.000 
#    0.000    0.000    0.000    0.000    0.000    0.000 
#
# Total GULP energy -357302.332717 kJ/mol
# GULP energy per Si atom -5582.848949 kJ/mol
# Density = 2.148892 g / cm^3
# Si number density = 21.537944 Si / 1000 Ang^3
#
#
#
# Elastic Constant Matrix: (Units=GPa)
#
#
# Indices 1 2 3 4 5 6 
#
# 1 45.4317 -3.2129 -6.1819 0.0000 0.0000 0.0000
# 2 -3.2129 125.1275 48.6898 0.0000 0.0000 0.0000
# 3 -6.1819 48.6898 82.7676 0.0000 0.0000 0.0000
# 4 0.0000 0.0000 0.0000 8.5832 0.0000 0.0000
# 5 0.0000 0.0000 0.0000 0.0000 6.4821 0.0000
# 6 0.0000 0.0000 0.0000 0.0000 0.0000 3.5872
#
#
#
# Elastic Compliance Matrix: (Units=1/GPa)
#
#
# Indices 1 2 3 4 5 6 
#
# 1 0.022238 -0.000098 0.001718 0.000000 0.000000 0.000000
# 2 -0.000098 0.010365 -0.006105 0.000000 0.000000 0.000000
# 3 0.001718 -0.006105 0.015802 0.000000 0.000000 0.000000
# 4 0.000000 0.000000 0.000000 0.116506 0.000000 0.000000
# 5 0.000000 0.000000 0.000000 0.000000 0.154270 0.000000
# 6 0.000000 0.000000 0.000000 0.000000 0.000000 0.278767
#
#
# Mechanical properties :
#
#
# Convention : Reuss Voigt Hill
#
# Bulk Modulus (GPa) = 25.35715 36.87963 31.11839
# Shear Modulus (GPa) = 8.06372 17.99930 13.03151
#
# Velocity S-wave (km/s) = 1.93703 2.89399 2.46244
# Velocity P-wave (km/s) = 4.09897 5.32233 4.75020
#
# Compressibility (1/GPa) = 0.03943660
#
# Stress axis : x y z
#
# Youngs Moduli (GPa) = 44.96808 96.48075 63.28505
#
# Poissons Ratio (x) = 0.00942 -0.10875
# Poissons Ratio (y) = 0.00439 0.38633
# Poissons Ratio (z) = -0.07727 0.58897
#
# Static dielectric constant tensor:
#      x y z
#    x 1.829150 0.000000 0.000000 
#    y 0.000000 1.813260 0.000000 
#    z 0.000000 0.000000 1.746120 
# 
# From -- ./inp_files/15021.got.cif
#   From: 2010.05.17/outbox.cif.g08.bks.cpg/sg59_8_cif.got.tgz:15021.got - 2010.06.03 14:40:33.
