data_PCOD9446238
_publ_section_title
;
Structure prediction by ZEFSAII (Michael W. Deem and Ramdas Pophale) SiO2 
 PCOD9446238
Probable space group: P M M N
;
_chemical_formula_sum "Si O2"
_cell_formula_units_Z 64
_cell_length_a 24.210901
_cell_length_b 7.476604
_cell_length_c 19.919709
_cell_angle_alpha 90.000000
_cell_angle_beta 90.000000
_cell_angle_gamma 90.000000
_cell_volume 3605.772484
_symmetry_space_group_name_H-M "P M M N"
_symmetry_group_IT_number 59
_space_group.IT_coordinate_system_code '2'
_symmetry_cell_setting 'orthorhombic'
loop_
_space_group_symop_operation_xyz
x,y,z
1/2-x,1/2-y,z
1/2+x,-y,-z
-x,1/2+y,-z
-x,-y,-z
1/2+x,1/2+y,-z
1/2-x,y,z
x,1/2-y,z
loop_
_atom_site_type_symbol
_atom_site_label
_atom_site_fract_x
_atom_site_fract_y
_atom_site_fract_z
Si Si1 0.312890 0.968925 0.890778
Si Si2 0.913554 0.463764 0.021801
Si Si3 0.972009 0.539906 0.605650
Si Si4 0.504314 0.469456 0.251526
Si Si5 0.311862 0.462490 0.608994
Si Si6 0.584187 0.967442 0.473290
Si Si7 0.979819 0.963768 0.895556
Si Si8 0.367797 0.965055 0.751093
O O1 0.250000 0.028205 0.899579
O O2 0.312161 0.750000 0.890534
O O3 0.355792 0.027874 0.948126
O O4 0.337587 0.026091 0.818843
O O5 0.913477 0.250000 0.029796
O O6 0.964994 0.533275 0.066691
O O7 0.928834 0.499840 0.944803
O O8 0.959356 0.750000 0.611203
O O9 0.974244 0.466792 0.680950
O O10 0.931440 0.467548 0.547981
O O11 0.033581 0.521594 0.574935
O O12 0.504237 0.250000 0.253388
O O13 0.478220 0.527431 0.180892
O O14 0.568638 0.525925 0.252528
O O15 0.250000 0.536072 0.602249
O O16 0.308761 0.250000 0.597317
O O17 0.358434 0.532064 0.557954
O O18 0.334613 0.487234 0.684263
O O19 0.584368 0.750000 0.474076
O O20 0.985685 0.750000 0.892060
O O21 0.369781 0.750000 0.754593
#
# Coordination Sequence:
#
# PCOD9446238 Si02
#       8
#     8   8   8   8   8   8   8   8
#     4   9  16  26  42  62  83 109 141 175 205 235
#     4   9  16  27  41  59  81 105 136 170 200 239
#     4   9  16  27  44  62  81 104 135 171 207 245
#     4   9  15  25  43  64  84 107 133 167 207 244
#     4  10  20  31  40  55  85 119 144 168 202 242
#     4   9  17  28  41  59  81 108 138 169 205 243
#     4   9  16  27  42  59  82 108 133 164 207 248
#     4  10  17  28  44  63  84 109 145 176 197 232
#
# _framework density 17.749317000000001
#
# number of rings (size 3 to 8) (size 9 to 14) (size 15 to 20)
#    0.000    2.750    2.500    0.375    0.000    0.750 
#    0.000    1.875    0.000    1.125    0.000    0.875 
#    0.000    3.000    0.000    0.000    0.000    0.000 
#
# Total GULP energy -356879.319523 kJ/mol
# GULP energy per Si atom -5576.239368 kJ/mol
# Density = 1.770892 g / cm^3
# Si number density = 17.749317 Si / 1000 Ang^3
#
#
#
# Elastic Constant Matrix: (Units=GPa)
#
#
# Indices 1 2 3 4 5 6 
#
# 1 113.8193 -2.3993 92.1883 0.0000 0.0000 0.0000
# 2 -2.3993 47.6411 -1.4171 0.0000 0.0000 0.0000
# 3 92.1883 -1.4171 176.1036 0.0000 0.0000 0.0000
# 4 0.0000 0.0000 0.0000 3.8970 0.0000 0.0000
# 5 0.0000 0.0000 0.0000 0.0000 18.7834 0.0000
# 6 0.0000 0.0000 0.0000 0.0000 0.0000 7.4494
#
#
#
# Elastic Compliance Matrix: (Units=1/GPa)
#
#
# Indices 1 2 3 4 5 6 
#
# 1 0.015267 0.000531 -0.007988 0.000000 0.000000 0.000000
# 2 0.000531 0.021014 -0.000109 0.000000 0.000000 0.000000
# 3 -0.007988 -0.000109 0.009859 0.000000 0.000000 0.000000
# 4 0.000000 0.000000 0.000000 0.256605 0.000000 0.000000
# 5 0.000000 0.000000 0.000000 0.000000 0.053238 0.000000
# 6 0.000000 0.000000 0.000000 0.000000 0.000000 0.134238
#
#
# Mechanical properties :
#
#
# Convention : Reuss Voigt Hill
#
# Bulk Modulus (GPa) = 32.24901 57.14531 44.69716
# Shear Modulus (GPa) = 9.69578 22.63879 16.16729
#
# Velocity S-wave (km/s) = 2.33976 3.57525 3.02133
# Velocity P-wave (km/s) = 5.05053 7.02203 6.11624
#
# Compressibility (1/GPa) = 0.03100871
#
# Stress axis : x y z
#
# Youngs Moduli (GPa) = 65.50210 47.58776 101.42962
#
# Poissons Ratio (x) = -0.02528 0.81019
# Poissons Ratio (y) = -0.03480 0.01106
# Poissons Ratio (z) = 0.52321 0.00519
#
# Static dielectric constant tensor:
#      x y z
#    x 1.589910 0.000000 0.000000 
#    y 0.000000 1.673010 0.000000 
#    z 0.000000 0.000000 1.618500 
# 
# From -- ./inp_files/31081.got.cif
#   From: 2010.05.17/outbox.cif.g08.bks.cpg/sg59_16_cif.got.tgz:31081.got - 2010.06.03 14:40:33.
