data_PCOD9446037
_publ_section_title
;
Structure prediction by ZEFSAII (Michael W. Deem and Ramdas Pophale) SiO2 
 PCOD9446037
Probable space group: P N N M
;
_chemical_formula_sum "Si O2"
_cell_formula_units_Z 64
_cell_length_a 12.000000
_cell_length_b 30.000000
_cell_length_c 9.000000
_cell_angle_alpha 90.000000
_cell_angle_beta 90.000000
_cell_angle_gamma 90.000000
_cell_volume 3240.000000
_symmetry_space_group_name_H-M "P N N M"
_symmetry_group_IT_number 58
_symmetry_cell_setting 'orthorhombic'
loop_
_space_group_symop_operation_xyz
x,y,z
-x,-y,z
1/2+x,1/2-y,1/2-z
1/2-x,1/2+y,1/2-z
-x,-y,-z
x,y,-z
1/2-x,1/2+y,1/2+z
1/2+x,1/2-y,1/2+z
loop_
_atom_site_type_symbol
_atom_site_label
_atom_site_fract_x
_atom_site_fract_y
_atom_site_fract_z
Si Si1 0.926905 0.423907 0.822605
Si Si2 0.084314 0.089120 0.171662
Si Si3 0.041650 0.833576 0.675546
Si Si4 0.803582 0.346659 0.669811
Si Si5 0.717396 0.486776 0.179455
Si Si6 0.172162 0.229223 0.676250
Si Si7 0.226824 0.326890 0.323101
Si Si8 0.678595 0.077604 0.678971
O O1 0.895697 0.376277 0.752006
O O2 0.832461 0.460169 0.783949
O O3 0.052341 0.437410 0.783451
O O4 0.921695 0.419034 0.000000
O O5 0.194568 0.120959 0.172887
O O6 0.121111 0.042031 0.241965
O O7 0.998159 0.117581 0.269582
O O8 0.048772 0.084595 0.000000
O O9 0.068206 0.835008 0.500000
O O10 0.145936 0.819525 0.773569
O O11 0.941753 0.798335 0.698403
O O12 0.836146 0.339045 0.500000
O O13 0.766948 0.300296 0.743773
O O14 0.736342 0.538199 0.224742
O O15 0.702683 0.484991 0.000000
O O16 0.195768 0.228994 0.500000
O O17 0.165347 0.280919 0.723525
O O18 0.215754 0.331736 0.500000
O O19 0.194460 0.373605 0.247490
O O20 0.686624 0.081035 0.500000
#
# Coordination Sequence:
#
# PCOD9446037 Si02
#       8
#     8   8   8   8   8   8   8   8
#     4   9  17  31  53  80 111 146 181 220 268 320
#     4   9  17  31  53  82 111 138 173 219 270 319
#     4  10  20  38  62  83 106 140 180 220 265 318
#     4   9  17  29  50  81 111 138 174 220 266 316
#     4   9  17  32  55  81 109 143 184 226 265 313
#     4   9  20  38  58  79 105 140 180 220 264 317
#     4  11  24  40  56  79 112 144 176 220 272 320
#     4  10  21  36  53  76 108 147 188 225 265 317
#
# _framework density 19.753086
#
# number of rings (size 3 to 8) (size 9 to 14) (size 15 to 20)
#    0.000    2.500    0.000    1.875    0.000    8.000 
#    0.000    3.125    0.000    7.500    0.000    0.000 
#    0.000    0.000    0.000    0.000    0.000    0.000 
#
# Total GULP energy -357141.994791 kJ/mol
# GULP energy per Si atom -5580.343669 kJ/mol
# Density = 1.970813 g / cm^3
# Si number density = 19.753086 Si / 1000 Ang^3
#
#
#
# Elastic Constant Matrix: (Units=GPa)
#
#
# Indices 1 2 3 4 5 6 
#
# 1 8.8416 0.3579 -0.4050 0.0000 0.0000 0.0000
# 2 0.3579 121.9159 26.9744 0.0000 0.0000 0.0000
# 3 -0.4050 26.9744 23.7807 0.0000 0.0000 0.0000
# 4 0.0000 0.0000 0.0000 32.2559 0.0000 0.0000
# 5 0.0000 0.0000 0.0000 0.0000 21.9913 0.0000
# 6 0.0000 0.0000 0.0000 0.0000 0.0000 22.0441
#
#
#
# Elastic Compliance Matrix: (Units=1/GPa)
#
#
# Indices 1 2 3 4 5 6 
#
# 1 0.113283 -0.001014 0.003079 0.000000 0.000000 0.000000
# 2 -0.001014 0.010960 -0.012449 0.000000 0.000000 0.000000
# 3 0.003079 -0.012449 0.056224 0.000000 0.000000 0.000000
# 4 0.000000 0.000000 0.000000 0.031002 0.000000 0.000000
# 5 0.000000 0.000000 0.000000 0.000000 0.045473 0.000000
# 6 0.000000 0.000000 0.000000 0.000000 0.000000 0.045364
#
#
# Mechanical properties :
#
#
# Convention : Reuss Voigt Hill
#
# Bulk Modulus (GPa) = 6.26174 23.15476 14.70825
# Shear Modulus (GPa) = 13.28705 23.76564 18.52635
#
# Velocity S-wave (km/s) = 2.59638 3.47239 3.06583
# Velocity P-wave (km/s) = 3.48785 5.27486 4.47154
#
# Compressibility (1/GPa) = 0.15970004
#
# Stress axis : x y z
#
# Youngs Moduli (GPa) = 8.82742 91.24315 17.78593
#
# Poissons Ratio (x) = 0.09250 -0.05476
# Poissons Ratio (y) = 0.00895 0.22142
# Poissons Ratio (z) = -0.02718 1.13588
#
# Static dielectric constant tensor:
#      x y z
#    x 1.717330 0.000000 0.000000 
#    y 0.000000 1.691960 0.000000 
#    z 0.000000 0.000000 1.664090 
# 
# From -- ./inp_files/4812.got.cif
#   From: 2010.05.17/outbox.ucp.g08.bks.cvg/sg58_3_cif.got.tgz:4812.got - 2010.06.11 16:41:41.
