data_PCOD9446637
_publ_section_title
;
Structure prediction by ZEFSAII (Michael W. Deem and Ramdas Pophale) SiO2 
 PCOD9446637
Probable space group: P M M N
;
_chemical_formula_sum "Si O2"
_cell_formula_units_Z 64
_cell_length_a 8.867162
_cell_length_b 19.331542
_cell_length_c 22.485995
_cell_angle_alpha 90.000000
_cell_angle_beta 90.000000
_cell_angle_gamma 90.000000
_cell_volume 3854.457399
_symmetry_space_group_name_H-M "P M M N"
_symmetry_group_IT_number 59
_space_group.IT_coordinate_system_code '2'
_symmetry_cell_setting 'orthorhombic'
loop_
_space_group_symop_operation_xyz
x,y,z
1/2-x,1/2-y,z
1/2+x,-y,-z
-x,1/2+y,-z
-x,-y,-z
1/2+x,1/2+y,-z
1/2-x,y,z
x,1/2-y,z
loop_
_atom_site_type_symbol
_atom_site_label
_atom_site_fract_x
_atom_site_fract_y
_atom_site_fract_z
Si Si1 0.068241 0.170213 0.362526
Si Si2 0.578560 0.608173 0.022022
Si Si3 0.569676 0.328921 0.864927
Si Si4 0.566828 0.826708 0.500436
Si Si5 0.067011 0.037381 0.802932
Si Si6 0.577340 0.043319 0.084586
Si Si7 0.432229 0.462976 0.557475
Si Si8 0.432003 0.966422 0.680217
O O1 0.250000 0.165683 0.360110
O O2 0.026959 0.250000 0.348808
O O3 0.021202 0.156532 0.431532
O O4 0.996982 0.111013 0.322088
O O5 0.750000 0.633341 0.020760
O O6 0.482057 0.653668 0.067624
O O7 0.579405 0.530994 0.050810
O O8 0.513686 0.596364 0.956234
O O9 0.750000 0.333955 0.861373
O O10 0.524557 0.250000 0.849844
O O11 0.498036 0.388730 0.823560
O O12 0.750000 0.825439 0.501756
O O13 0.512834 0.750000 0.486307
O O14 0.522374 0.883466 0.452629
O O15 0.250000 0.041811 0.806874
O O16 0.018213 0.978734 0.850739
O O17 0.024035 0.011186 0.737676
O O18 0.750000 0.067202 0.089463
O O19 0.500000 0.500000 0.500000
O O20 0.250000 0.467722 0.555182
O O21 0.482090 0.495908 0.619396
O O22 0.250000 0.962507 0.680070
#
# Coordination Sequence:
#
# PCOD9446637 Si02
#       8
#     8   8   8   8   8   8   8   8
#     4   9  17  30  49  71  93 121 157 194 239 301
#     4   9  16  26  45  72  97 121 151 192 241 285
#     4  10  20  33  50  73 100 132 172 212 248 290
#     4   8  14  26  44  65  90 120 154 191 235 292
#     4   9  19  34  49  69  99 135 173 208 248 298
#     4   8  14  26  44  65  92 123 154 192 233 279
#     4  10  18  29  47  70  96 124 157 201 252 300
#     4  10  20  32  48  74 102 127 163 210 254 301
#
# _framework density 16.604153
#
# number of rings (size 3 to 8) (size 9 to 14) (size 15 to 20)
#    0.000    2.875    1.250    2.250    0.000    4.750 
#    0.000    0.625    0.000    3.375    0.000    1.750 
#    0.000    0.000    0.000    0.000    0.000    0.000 
#
# Total GULP energy -356281.525147 kJ/mol
# GULP energy per Si atom -5566.898830 kJ/mol
# Density = 1.656636 g / cm^3
# Si number density = 16.604153 Si / 1000 Ang^3
#
#
#
# Elastic Constant Matrix: (Units=GPa)
#
#
# Indices 1 2 3 4 5 6 
#
# 1 20.7087 25.2270 27.3100 0.0000 0.0000 0.0000
# 2 25.2270 106.6066 64.0041 0.0000 0.0000 0.0000
# 3 27.3100 64.0041 120.4031 0.0000 0.0000 0.0000
# 4 0.0000 0.0000 0.0000 18.9379 0.0000 0.0000
# 5 0.0000 0.0000 0.0000 0.0000 18.3769 0.0000
# 6 0.0000 0.0000 0.0000 0.0000 0.0000 21.5710
#
#
#
# Elastic Compliance Matrix: (Units=1/GPa)
#
#
# Indices 1 2 3 4 5 6 
#
# 1 0.077315 -0.011408 -0.011473 0.000000 0.000000 0.000000
# 2 -0.011408 0.015460 -0.005631 0.000000 0.000000 0.000000
# 3 -0.011473 -0.005631 0.013901 0.000000 0.000000 0.000000
# 4 0.000000 0.000000 0.000000 0.052804 0.000000 0.000000
# 5 0.000000 0.000000 0.000000 0.000000 0.054416 0.000000
# 6 0.000000 0.000000 0.000000 0.000000 0.000000 0.046358
#
#
# Mechanical properties :
#
#
# Convention : Reuss Voigt Hill
#
# Bulk Modulus (GPa) = 20.13929 53.42227 36.78078
# Shear Modulus (GPa) = 14.97770 20.52233 17.75001
#
# Velocity S-wave (km/s) = 3.00667 3.51946 3.27312
# Velocity P-wave (km/s) = 4.92024 6.98279 6.04020
#
# Compressibility (1/GPa) = 0.04965419
#
# Stress axis : x y z
#
# Youngs Moduli (GPa) = 12.93403 64.68097 71.93720
#
# Poissons Ratio (x) = 0.73786 0.82531
# Poissons Ratio (y) = 0.14755 0.40508
# Poissons Ratio (z) = 0.14839 0.36422
#
# Static dielectric constant tensor:
#      x y z
#    x 1.564640 0.000000 0.000000 
#    y 0.000000 1.570990 0.000000 
#    z 0.000000 0.000000 1.563890 
# 
# From -- ./inp_files/31735.got.cif
#   From: 2010.05.17/outbox.cif.g08.bks.cpg/sg59_16_cif.got.tgz:31735.got - 2010.06.03 14:40:33.
