data_PCOD9446217
_publ_section_title
;
Structure prediction by ZEFSAII (Michael W. Deem and Ramdas Pophale) SiO2 
 PCOD9446217
Probable space group: P M M N
;
_chemical_formula_sum "Si O2"
_cell_formula_units_Z 48
_cell_length_a 8.576472
_cell_length_b 22.169395
_cell_length_c 15.856014
_cell_angle_alpha 90.000000
_cell_angle_beta 90.000000
_cell_angle_gamma 90.000000
_cell_volume 3014.786321
_symmetry_space_group_name_H-M "P M M N"
_symmetry_group_IT_number 59
_space_group.IT_coordinate_system_code '2'
_symmetry_cell_setting 'orthorhombic'
loop_
_space_group_symop_operation_xyz
x,y,z
1/2-x,1/2-y,z
1/2+x,-y,-z
-x,1/2+y,-z
-x,-y,-z
1/2+x,1/2+y,-z
1/2-x,y,z
x,1/2-y,z
loop_
_atom_site_type_symbol
_atom_site_label
_atom_site_fract_x
_atom_site_fract_y
_atom_site_fract_z
Si Si1 0.061531 0.084192 0.440778
Si Si2 0.561579 0.818942 0.694808
Si Si3 0.437784 0.933215 0.019980
Si Si4 0.563144 0.038486 0.800263
Si Si5 0.562675 0.095864 0.160097
Si Si6 0.063759 0.044090 0.621608
O O1 0.250000 0.079556 0.436821
O O2 0.012659 0.141997 0.386798
O O3 0.016657 0.082755 0.539316
O O4 0.992840 0.023896 0.398646
O O5 0.750000 0.818597 0.695847
O O6 0.506758 0.750000 0.692564
O O7 0.504020 0.854684 0.776848
O O8 0.250000 0.934178 0.019092
O O9 0.485339 0.922816 0.117030
O O10 0.486049 0.894811 0.938115
O O11 0.500000 0.000000 0.000000
O O12 0.750000 0.033884 0.799032
O O13 0.505707 0.063024 0.711005
O O14 0.496225 0.970677 0.812431
O O15 0.750000 0.096006 0.165030
O O16 0.250000 0.044172 0.627478
#
# Coordination Sequence:
#
# PCOD9446217 Si02
#       6
#     8   8   8   8   8   8
#     4   9  18  31  44  61  88 119 149 183 226 272
#     4  10  20  33  48  65  87 119 154 185 222 271
#     4   8  16  27  40  60  87 116 144 173 212 259
#     4  10  17  27  43  64  91 121 146 174 219 271
#     4  10  18  29  44  64  89 116 149 187 220 257
#     4  10  18  27  43  66  90 117 148 184 225 270
#
# _framework density 15.921526
#
# number of rings (size 3 to 8) (size 9 to 14) (size 15 to 20)
#    0.000    2.500    1.667    1.500    0.000    2.333 
#    0.000    0.000    0.000    0.000    0.000    1.167 
#    0.000    4.000    0.000    0.000    0.000    0.000 
#
# Total GULP energy -267277.276389 kJ/mol
# GULP energy per Si atom -5568.276591 kJ/mol
# Density = 1.588529 g / cm^3
# Si number density = 15.921526 Si / 1000 Ang^3
#
#
#
# Elastic Constant Matrix: (Units=GPa)
#
#
# Indices 1 2 3 4 5 6 
#
# 1 13.0609 14.5366 27.0342 0.0000 0.0000 0.0000
# 2 14.5366 70.8274 59.0420 0.0000 0.0000 0.0000
# 3 27.0342 59.0420 187.7990 0.0000 0.0000 0.0000
# 4 0.0000 0.0000 0.0000 14.2255 0.0000 0.0000
# 5 0.0000 0.0000 0.0000 0.0000 25.1892 0.0000
# 6 0.0000 0.0000 0.0000 0.0000 0.0000 10.5124
#
#
#
# Elastic Compliance Matrix: (Units=1/GPa)
#
#
# Indices 1 2 3 4 5 6 
#
# 1 0.118039 -0.013635 -0.012705 0.000000 0.000000 0.000000
# 2 -0.013635 0.020708 -0.004548 0.000000 0.000000 0.000000
# 3 -0.012705 -0.004548 0.008584 0.000000 0.000000 0.000000
# 4 0.000000 0.000000 0.000000 0.070296 0.000000 0.000000
# 5 0.000000 0.000000 0.000000 0.000000 0.039700 0.000000
# 6 0.000000 0.000000 0.000000 0.000000 0.000000 0.095126
#
#
# Mechanical properties :
#
#
# Convention : Reuss Voigt Hill
#
# Bulk Modulus (GPa) = 11.68847 52.54590 32.11718
# Shear Modulus (GPa) = 11.29315 21.39037 16.34176
#
# Velocity S-wave (km/s) = 2.66616 3.66934 3.20721
# Velocity P-wave (km/s) = 4.10306 7.14330 5.82503
#
# Compressibility (1/GPa) = 0.08555440
#
# Stress axis : x y z
#
# Youngs Moduli (GPa) = 8.47179 48.28999 116.50206
#
# Poissons Ratio (x) = 0.65844 1.48019
# Poissons Ratio (y) = 0.11551 0.52981
# Poissons Ratio (z) = 0.10764 0.21961
#
# Static dielectric constant tensor:
#      x y z
#    x 1.545350 0.000000 0.000000 
#    y 0.000000 1.485640 0.000000 
#    z 0.000000 0.000000 1.598060 
# 
# From -- ./inp_files/20739.got.cif
#   From: 2010.05.17/outbox.cif.g08.bks.cpg/sg59_11_cif.got.tgz:20739.got - 2010.06.03 14:40:33.
