data_PCOD9446588
_publ_section_title
;
Structure prediction by ZEFSAII (Michael W. Deem and Ramdas Pophale) SiO2 
 PCOD9446588
Probable space group: P M M N
;
_chemical_formula_sum "Si O2"
_cell_formula_units_Z 64
_cell_length_a 24.344206
_cell_length_b 7.832355
_cell_length_c 19.748019
_cell_angle_alpha 90.000000
_cell_angle_beta 90.000000
_cell_angle_gamma 90.000000
_cell_volume 3765.403434
_symmetry_space_group_name_H-M "P M M N"
_symmetry_group_IT_number 59
_space_group.IT_coordinate_system_code '2'
_symmetry_cell_setting 'orthorhombic'
loop_
_space_group_symop_operation_xyz
x,y,z
1/2-x,1/2-y,z
1/2+x,-y,-z
-x,1/2+y,-z
-x,-y,-z
1/2+x,1/2+y,-z
1/2-x,y,z
x,1/2-y,z
loop_
_atom_site_type_symbol
_atom_site_label
_atom_site_fract_x
_atom_site_fract_y
_atom_site_fract_z
Si Si1 0.976482 0.452785 0.600946
Si Si2 0.688619 0.545399 0.392553
Si Si3 0.585821 0.546567 0.474034
Si Si4 0.586659 0.045227 0.021210
Si Si5 0.633071 0.456456 0.251228
Si Si6 0.812703 0.459018 0.109142
Si Si7 0.506408 0.455608 0.251798
Si Si8 0.979607 0.955657 0.895835
O O1 0.977623 0.250000 0.594249
O O2 0.928028 0.515989 0.552337
O O3 0.033773 0.522828 0.568978
O O4 0.975468 0.496379 0.679665
O O5 0.750000 0.475400 0.400805
O O6 0.691712 0.750000 0.401441
O O7 0.642757 0.477638 0.444649
O O8 0.666100 0.512524 0.317236
O O9 0.586566 0.750000 0.463126
O O10 0.586843 0.250000 0.027549
O O11 0.644308 0.984200 0.051557
O O12 0.535655 0.981664 0.067473
O O13 0.570693 0.003258 0.944385
O O14 0.631942 0.250000 0.250408
O O15 0.662417 0.511348 0.181844
O O16 0.569837 0.516735 0.254844
O O17 0.750000 0.516403 0.100659
O O18 0.811936 0.250000 0.108872
O O19 0.508505 0.250000 0.249223
O O20 0.479632 0.516211 0.181512
O O21 0.982386 0.750000 0.894798
#
# Coordination Sequence:
#
# PCOD9446588 Si02
#       8
#     8   8   8   8   8   8   8   8
#     4  10  19  30  47  68  90 117 151 189 227 268
#     4  10  20  33  47  65  93 126 156 186 221 262
#     4   9  18  32  46  64  90 121 152 184 223 266
#     4   9  16  28  44  64  87 115 152 189 222 261
#     4  10  18  29  45  66  92 123 159 189 214 256
#     4   9  16  27  44  65  90 121 156 190 221 258
#     4  10  18  29  46  67  93 123 150 183 227 273
#     4   9  17  29  44  63  89 118 148 183 226 269
#
# _framework density 16.996850999999999
#
# number of rings (size 3 to 8) (size 9 to 14) (size 15 to 20)
#    0.000    2.500    2.500    0.750    0.000    2.250 
#    0.000    0.625    0.000    1.125    0.000    0.875 
#    0.000    1.000    0.000    0.000    0.000    0.000 
#
# Total GULP energy -356858.022263 kJ/mol
# GULP energy per Si atom -5575.906598 kJ/mol
# Density = 1.695817 g / cm^3
# Si number density = 16.996851 Si / 1000 Ang^3
#
#
#
# Elastic Constant Matrix: (Units=GPa)
#
#
# Indices 1 2 3 4 5 6 
#
# 1 120.5917 4.9468 83.9818 0.0000 0.0000 0.0000
# 2 4.9468 14.4272 -5.6505 0.0000 0.0000 0.0000
# 3 83.9818 -5.6505 135.5474 0.0000 0.0000 0.0000
# 4 0.0000 0.0000 0.0000 19.8539 0.0000 0.0000
# 5 0.0000 0.0000 0.0000 0.0000 19.0863 0.0000
# 6 0.0000 0.0000 0.0000 0.0000 0.0000 10.4719
#
#
#
# Elastic Compliance Matrix: (Units=1/GPa)
#
#
# Indices 1 2 3 4 5 6 
#
# 1 0.015741 -0.009370 -0.010143 0.000000 0.000000 0.000000
# 2 -0.009370 0.076042 0.008975 0.000000 0.000000 0.000000
# 3 -0.010143 0.008975 0.014036 0.000000 0.000000 0.000000
# 4 0.000000 0.000000 0.000000 0.050368 0.000000 0.000000
# 5 0.000000 0.000000 0.000000 0.000000 0.052394 0.000000
# 6 0.000000 0.000000 0.000000 0.000000 0.000000 0.095493
#
#
# Mechanical properties :
#
#
# Convention : Reuss Voigt Hill
#
# Bulk Modulus (GPa) = 11.80040 48.56917 30.18479
# Shear Modulus (GPa) = 14.14843 22.36830 18.25836
#
# Velocity S-wave (km/s) = 2.88829 3.63164 3.28109
# Velocity P-wave (km/s) = 4.25214 6.79872 5.67024
#
# Compressibility (1/GPa) = 0.08474290
#
# Stress axis : x y z
#
# Youngs Moduli (GPa) = 63.53009 13.15069 71.24532
#
# Poissons Ratio (x) = 0.12322 0.72264
# Poissons Ratio (y) = 0.59526 -0.63944
# Poissons Ratio (z) = 0.64439 -0.11803
#
# Static dielectric constant tensor:
#      x y z
#    x 1.577620 0.000000 0.000000 
#    y 0.000000 1.617840 0.000000 
#    z 0.000000 0.000000 1.574170 
# 
# From -- ./inp_files/26498.got.cif
#   From: 2010.05.17/outbox.cif.g08.bks.cpg/sg59_14_cif.got.tgz:26498.got - 2010.06.03 14:40:33.
