data_PCOD9446906
_publ_section_title
;
Structure prediction by ZEFSAII (Michael W. Deem and Ramdas Pophale) SiO2 
 PCOD9446906
Probable space group: P M M N
;
_chemical_formula_sum "Si O2"
_cell_formula_units_Z 48
_cell_length_a 13.465582
_cell_length_b 19.230352
_cell_length_c 10.615146
_cell_angle_alpha 90.000000
_cell_angle_beta 90.000000
_cell_angle_gamma 90.000000
_cell_volume 2748.769571
_symmetry_space_group_name_H-M "P M M N"
_symmetry_group_IT_number 59
_space_group.IT_coordinate_system_code '2'
_symmetry_cell_setting 'orthorhombic'
loop_
_space_group_symop_operation_xyz
x,y,z
1/2-x,1/2-y,z
1/2+x,-y,-z
-x,1/2+y,-z
-x,-y,-z
1/2+x,1/2+y,-z
1/2-x,y,z
x,1/2-y,z
loop_
_atom_site_type_symbol
_atom_site_label
_atom_site_fract_x
_atom_site_fract_y
_atom_site_fract_z
Si Si1 0.057079 0.887044 0.961264
Si Si2 0.631526 0.328267 0.782253
Si Si3 0.135665 0.031378 0.047092
Si Si4 0.132884 0.828288 0.704473
Si Si5 0.863576 0.472915 0.413684
Si Si6 0.438536 0.971170 0.312105
O O1 0.072312 0.850364 0.828185
O O2 0.943556 0.909433 0.987632
O O3 0.101386 0.840300 0.072367
O O4 0.114583 0.961267 0.966940
O O5 0.750000 0.338691 0.770044
O O6 0.607733 0.250000 0.742573
O O7 0.577532 0.389391 0.707885
O O8 0.250000 0.051231 0.037015
O O9 0.108349 0.008357 0.190330
O O10 0.250000 0.828708 0.738996
O O11 0.108060 0.750000 0.662638
O O12 0.120336 0.889900 0.603976
O O13 0.750000 0.488458 0.379322
O O14 0.885067 0.492335 0.558282
O O15 0.946302 0.509651 0.328458
#
# Coordination Sequence:
#
# PCOD9446906 Si02
#       6
#     8   8   8   8   8   8
#     4  10  18  31  48  75 101 132 166 206 250 305
#     4  10  20  34  54  78 104 134 167 209 260 308
#     4  10  19  31  50  74 101 133 170 211 252 296
#     4  10  19  31  49  75 105 132 161 204 256 304
#     4  10  20  33  52  78 105 135 172 211 257 300
#     4  10  19  35  53  76 104 135 172 213 252 298
#
# _framework density 17.462357999999998
#
# number of rings (size 3 to 8) (size 9 to 14) (size 15 to 20)
#    0.000    2.000    1.667    4.500    0.000    2.000 
#    0.000    1.667    0.000    3.500    0.000    0.000 
#    0.000    0.000    0.000    0.000    0.000    0.000 
#
# Total GULP energy -267831.150713 kJ/mol
# GULP energy per Si atom -5579.815640 kJ/mol
# Density = 1.742261 g / cm^3
# Si number density = 17.462358 Si / 1000 Ang^3
#
#
#
# Elastic Constant Matrix: (Units=GPa)
#
#
# Indices 1 2 3 4 5 6 
#
# 1 102.0347 41.8466 5.0714 0.0000 0.0000 0.0000
# 2 41.8466 79.6824 0.6586 0.0000 0.0000 0.0000
# 3 5.0714 0.6586 27.4067 0.0000 0.0000 0.0000
# 4 0.0000 0.0000 0.0000 10.1582 0.0000 0.0000
# 5 0.0000 0.0000 0.0000 0.0000 13.6493 0.0000
# 6 0.0000 0.0000 0.0000 0.0000 0.0000 22.7724
#
#
#
# Elastic Compliance Matrix: (Units=1/GPa)
#
#
# Indices 1 2 3 4 5 6 
#
# 1 0.012619 -0.006609 -0.002176 0.000000 0.000000 0.000000
# 2 -0.006609 0.016014 0.000838 0.000000 0.000000 0.000000
# 3 -0.002176 0.000838 0.036870 0.000000 0.000000 0.000000
# 4 0.000000 0.000000 0.000000 0.098443 0.000000 0.000000
# 5 0.000000 0.000000 0.000000 0.000000 0.073264 0.000000
# 6 0.000000 0.000000 0.000000 0.000000 0.000000 0.043913
#
#
# Mechanical properties :
#
#
# Convention : Reuss Voigt Hill
#
# Bulk Modulus (GPa) = 20.15787 33.80857 26.98322
# Shear Modulus (GPa) = 15.94623 20.08578 18.01600
#
# Velocity S-wave (km/s) = 3.02516 3.39519 3.21550
# Velocity P-wave (km/s) = 4.87553 5.89683 5.41033
#
# Compressibility (1/GPa) = 0.04960841
#
# Stress axis : x y z
#
# Youngs Moduli (GPa) = 79.24324 62.44583 27.12232
#
# Poissons Ratio (x) = 0.41272 0.05903
# Poissons Ratio (y) = 0.52374 -0.02273
# Poissons Ratio (z) = 0.17246 -0.05234
#
# Static dielectric constant tensor:
#      x y z
#    x 1.587910 0.000000 0.000000 
#    y 0.000000 1.591700 0.000000 
#    z 0.000000 0.000000 1.623060 
# 
# From -- ./inp_files/15897.got.cif
#   From: 2010.05.17/outbox.cif.g08.bks.cpg/sg59_8_cif.got.tgz:15897.got - 2010.06.03 14:40:33.
