data_PCOD9446846
_publ_section_title
;
Structure prediction by ZEFSAII (Michael W. Deem and Ramdas Pophale) SiO2 
 PCOD9446846
Probable space group: P M M N
;
_chemical_formula_sum "Si O2"
_cell_formula_units_Z 48
_cell_length_a 8.227016
_cell_length_b 16.224138
_cell_length_c 19.614234
_cell_angle_alpha 90.000000
_cell_angle_beta 90.000000
_cell_angle_gamma 90.000000
_cell_volume 2618.034262
_symmetry_space_group_name_H-M "P M M N"
_symmetry_group_IT_number 59
_space_group.IT_coordinate_system_code '2'
_symmetry_cell_setting 'orthorhombic'
loop_
_space_group_symop_operation_xyz
x,y,z
1/2-x,1/2-y,z
1/2+x,-y,-z
-x,1/2+y,-z
-x,-y,-z
1/2+x,1/2+y,-z
1/2-x,y,z
x,1/2-y,z
loop_
_atom_site_type_symbol
_atom_site_label
_atom_site_fract_x
_atom_site_fract_y
_atom_site_fract_z
Si Si1 0.948175 0.342395 0.420570
Si Si2 0.056122 0.499220 0.664291
Si Si3 0.438115 0.750000 0.806676
Si Si4 0.946108 0.342504 0.579158
Si Si5 0.943146 0.922277 0.793870
Si Si6 0.061424 0.250000 0.042819
Si Si7 0.946542 0.572129 0.950709
O O1 0.750000 0.342266 0.417988
O O2 0.000881 0.250000 0.399109
O O3 0.006295 0.420245 0.377115
O O4 0.994477 0.354026 0.499930
O O5 0.250000 0.504437 0.667085
O O6 0.008957 0.415959 0.625772
O O7 0.989051 0.507638 0.740586
O O8 0.250000 0.750000 0.827067
O O9 0.476233 0.664144 0.770283
O O10 0.548866 0.750000 0.874588
O O11 0.750000 0.344146 0.580811
O O12 0.998412 0.250000 0.599944
O O13 0.750000 0.911117 0.794696
O O14 0.998537 0.938796 0.871743
O O15 0.250000 0.250000 0.022179
O O16 0.990339 0.161450 0.023508
O O17 0.750000 0.575595 0.950032
O O18 0.000000 0.500000 0.000000
#
# Coordination Sequence:
#
# PCOD9446846 Si02
#       7
#     8   8   4   8   8   4   8
#     4   8  16  31  50  75 106 137 171 211 260 315
#     4  11  21  31  51  80 107 135 173 224 268 303
#     4  10  18  30  50  76 104 134 169 210 253 302
#     4   9  18  35  56  72  95 139 182 215 264 322
#     4  10  21  36  51  73 108 145 176 207 258 324
#     4   8  16  32  50  74 106 140 165 194 251 316
#     4   9  18  33  55  77 103 136 172 211 253 303
#
# _framework density 18.334365999999999
#
# number of rings (size 3 to 8) (size 9 to 14) (size 15 to 20)
#    0.000    2.667    0.000    4.250    1.167    3.667 
#    0.000    0.833    1.833    2.000    0.000    0.000 
#    0.000    0.000    0.000    0.000    0.000    0.000 
#
# Total GULP energy -267592.404692 kJ/mol
# GULP energy per Si atom -5574.841764 kJ/mol
# Density = 1.829264 g / cm^3
# Si number density = 18.334366 Si / 1000 Ang^3
#
#
#
# Elastic Constant Matrix: (Units=GPa)
#
#
# Indices 1 2 3 4 5 6 
#
# 1 26.1356 15.4458 15.8093 0.0000 0.0000 0.0000
# 2 15.4458 150.6082 80.3395 0.0000 0.0000 0.0000
# 3 15.8093 80.3395 85.4256 0.0000 0.0000 0.0000
# 4 0.0000 0.0000 0.0000 29.0234 0.0000 0.0000
# 5 0.0000 0.0000 0.0000 0.0000 17.0901 0.0000
# 6 0.0000 0.0000 0.0000 0.0000 0.0000 27.1413
#
#
#
# Elastic Compliance Matrix: (Units=1/GPa)
#
#
# Indices 1 2 3 4 5 6 
#
# 1 0.043093 -0.000332 -0.007663 0.000000 0.000000 0.000000
# 2 -0.000332 0.013327 -0.012472 0.000000 0.000000 0.000000
# 3 -0.007663 -0.012472 0.024854 0.000000 0.000000 0.000000
# 4 0.000000 0.000000 0.000000 0.034455 0.000000 0.000000
# 5 0.000000 0.000000 0.000000 0.000000 0.058513 0.000000
# 6 0.000000 0.000000 0.000000 0.000000 0.000000 0.036844
#
#
# Mechanical properties :
#
#
# Convention : Reuss Voigt Hill
#
# Bulk Modulus (GPa) = 24.78914 53.92871 39.35892
# Shear Modulus (GPa) = 18.83480 24.68930 21.76205
#
# Velocity S-wave (km/s) = 3.20862 3.67360 3.44896
# Velocity P-wave (km/s) = 5.22273 6.88997 6.11345
#
# Compressibility (1/GPa) = 0.04034025
#
# Stress axis : x y z
#
# Youngs Moduli (GPa) = 23.20544 75.03756 40.23570
#
# Poissons Ratio (x) = 0.02489 0.30833
# Poissons Ratio (y) = 0.00770 0.50181
# Poissons Ratio (z) = 0.17783 0.93586
#
# Static dielectric constant tensor:
#      x y z
#    x 1.647790 0.000000 0.000000 
#    y 0.000000 1.657320 0.000000 
#    z 0.000000 0.000000 1.618490 
# 
# From -- ./inp_files/25606.got.cif
#   From: 2010.05.17/outbox.cif.g08.bks.cpg/sg59_13_cif.got.tgz:25606.got - 2010.06.03 14:40:33.
