data_PCOD9446801
_publ_section_title
;
Structure prediction by ZEFSAII (Michael W. Deem and Ramdas Pophale) SiO2 
 PCOD9446801
Probable space group: P M M N
;
_chemical_formula_sum "Si O2"
_cell_formula_units_Z 64
_cell_length_a 19.285528
_cell_length_b 18.012608
_cell_length_c 11.627341
_cell_angle_alpha 90.000000
_cell_angle_beta 90.000000
_cell_angle_gamma 90.000000
_cell_volume 4039.136598
_symmetry_space_group_name_H-M "P M M N"
_symmetry_group_IT_number 59
_space_group.IT_coordinate_system_code '2'
_symmetry_cell_setting 'orthorhombic'
loop_
_space_group_symop_operation_xyz
x,y,z
1/2-x,1/2-y,z
1/2+x,-y,-z
-x,1/2+y,-z
-x,-y,-z
1/2+x,1/2+y,-z
1/2-x,y,z
x,1/2-y,z
loop_
_atom_site_type_symbol
_atom_site_label
_atom_site_fract_x
_atom_site_fract_y
_atom_site_fract_z
Si Si1 0.553666 0.896516 0.542275
Si Si2 0.829833 0.974428 0.230038
Si Si3 0.671944 0.373451 0.354928
Si Si4 0.669703 0.337359 0.625499
Si Si5 0.469880 0.514929 0.875369
Si Si6 0.530834 0.331757 0.245522
Si Si7 0.549424 0.446503 0.658936
Si Si8 0.668842 0.834362 0.387599
O O1 0.513264 0.851606 0.640574
O O2 0.502713 0.909286 0.433478
O O3 0.620621 0.855369 0.494267
O O4 0.571728 0.976750 0.596505
O O5 0.750000 0.976802 0.188932
O O6 0.843433 0.895265 0.288640
O O7 0.836315 0.038564 0.328367
O O8 0.888738 0.994005 0.138287
O O9 0.750000 0.352425 0.319318
O O10 0.664883 0.354412 0.488761
O O11 0.610984 0.335102 0.285035
O O12 0.750000 0.148842 0.659221
O O13 0.654880 0.250000 0.643745
O O14 0.613579 0.391833 0.681262
O O15 0.479192 0.601347 0.842895
O O16 0.509207 0.469303 0.774608
O O17 0.500000 0.500000 0.000000
O O18 0.513215 0.250000 0.202927
O O19 0.750000 0.839891 0.418004
O O20 0.654520 0.750000 0.350326
#
# Coordination Sequence:
#
# PCOD9446801 Si02
#       8
#     8   8   8   8   8   8   8   8
#     4  10  18  30  49  73 102 129 161 199 254 317
#     4   9  17  32  51  70  95 128 167 212 257 297
#     4   9  16  26  45  73 104 136 163 193 242 301
#     4  10  19  29  44  72 109 140 165 195 238 304
#     4  10  21  38  54  71  98 133 178 219 247 294
#     4  10  19  31  51  76 104 132 163 209 255 297
#     4  10  19  32  49  72  98 134 169 203 251 300
#     4  10  19  29  45  73 105 131 159 202 258 312
#
# _framework density 15.84497
#
# number of rings (size 3 to 8) (size 9 to 14) (size 15 to 20)
#    0.000    2.250    2.500    1.500    0.000    2.750 
#    0.000    1.875    0.000    0.750    0.000    0.000 
#    0.000    0.000    0.000    0.000    0.000    0.000 
#
# Total GULP energy -356768.608344 kJ/mol
# GULP energy per Si atom -5574.509505 kJ/mol
# Density = 1.580891 g / cm^3
# Si number density = 15.844970 Si / 1000 Ang^3
#
#
#
# Elastic Constant Matrix: (Units=GPa)
#
#
# Indices 1 2 3 4 5 6 
#
# 1 83.3092 60.3512 38.6679 0.0000 0.0000 0.0000
# 2 60.3512 114.8623 36.3475 0.0000 0.0000 0.0000
# 3 38.6679 36.3475 69.2147 0.0000 0.0000 0.0000
# 4 0.0000 0.0000 0.0000 6.5242 0.0000 0.0000
# 5 0.0000 0.0000 0.0000 0.0000 16.4806 0.0000
# 6 0.0000 0.0000 0.0000 0.0000 0.0000 23.3018
#
#
#
# Elastic Compliance Matrix: (Units=1/GPa)
#
#
# Indices 1 2 3 4 5 6 
#
# 1 0.022240 -0.009299 -0.007542 0.000000 0.000000 0.000000
# 2 -0.009299 0.014329 -0.002330 0.000000 0.000000 0.000000
# 3 -0.007542 -0.002330 0.019885 0.000000 0.000000 0.000000
# 4 0.000000 0.000000 0.000000 0.153277 0.000000 0.000000
# 5 0.000000 0.000000 0.000000 0.000000 0.060677 0.000000
# 6 0.000000 0.000000 0.000000 0.000000 0.000000 0.042915
#
#
# Mechanical properties :
#
#
# Convention : Reuss Voigt Hill
#
# Bulk Modulus (GPa) = 55.20850 59.79106 57.49978
# Shear Modulus (GPa) = 13.97810 18.06260 16.02035
#
# Velocity S-wave (km/s) = 2.97337 3.37999 3.18318
# Velocity P-wave (km/s) = 6.83421 7.28350 7.06243
#
# Compressibility (1/GPa) = 0.01811315
#
# Stress axis : x y z
#
# Youngs Moduli (GPa) = 44.96317 69.78708 50.29038
#
# Poissons Ratio (x) = 0.64896 0.37927
# Poissons Ratio (y) = 0.41812 0.11717
# Poissons Ratio (z) = 0.33910 0.16259
#
# Static dielectric constant tensor:
#      x y z
#    x 1.551420 0.000000 0.000000 
#    y 0.000000 1.556910 0.000000 
#    z 0.000000 0.000000 1.478850 
# 
# From -- ./inp_files/17944.got.cif
#   From: 2010.05.17/outbox.cif.g08.bks.cpg/sg59_9_cif.got.tgz:17944.got - 2010.06.03 14:40:33.
