data_PCOD9446811
_publ_section_title
;
Structure prediction by ZEFSAII (Michael W. Deem and Ramdas Pophale) SiO2 
 PCOD9446811
Probable space group: P M M N
;
_chemical_formula_sum "Si O2"
_cell_formula_units_Z 40
_cell_length_a 8.509179
_cell_length_b 20.611165
_cell_length_c 13.236882
_cell_angle_alpha 90.000000
_cell_angle_beta 90.000000
_cell_angle_gamma 90.000000
_cell_volume 2321.538536
_symmetry_space_group_name_H-M "P M M N"
_symmetry_group_IT_number 59
_space_group.IT_coordinate_system_code '2'
_symmetry_cell_setting 'orthorhombic'
loop_
_space_group_symop_operation_xyz
x,y,z
1/2-x,1/2-y,z
1/2+x,-y,-z
-x,1/2+y,-z
-x,-y,-z
1/2+x,1/2+y,-z
1/2-x,y,z
x,1/2-y,z
loop_
_atom_site_type_symbol
_atom_site_label
_atom_site_fract_x
_atom_site_fract_y
_atom_site_fract_z
Si Si1 0.561657 0.068300 0.043026
Si Si2 0.439877 0.676340 0.116725
Si Si3 0.061056 0.098201 0.695955
Si Si4 0.439295 0.072521 0.478828
Si Si5 0.938891 0.952375 0.738552
O O1 0.750000 0.066478 0.041262
O O2 0.504755 0.075481 0.157693
O O3 0.507024 0.126324 0.970019
O O4 0.500000 0.000000 0.000000
O O5 0.250000 0.675695 0.116666
O O6 0.492921 0.750000 0.099696
O O7 0.497146 0.649127 0.223879
O O8 0.250000 0.096614 0.700792
O O9 0.012073 0.111477 0.579213
O O10 0.998251 0.026634 0.726165
O O11 0.250000 0.071964 0.478527
O O12 0.488522 0.086100 0.363509
O O13 0.500000 0.000000 0.500000
O O14 0.750000 0.953931 0.743619
#
# Coordination Sequence:
#
# PCOD9446811 Si02
#       5
#     8   8   8   8   8
#     4  11  21  33  52  76 103 134 172 218 262 309
#     4  10  22  38  53  71 100 138 174 211 262 316
#     4  10  18  30  50  75 102 131 168 210 253 304
#     4   8  16  28  44  70 101 130 159 197 245 294
#     4  10  18  30  49  74 105 136 166 206 255 305
#
# _framework density 17.229953999999999
#
# number of rings (size 3 to 8) (size 9 to 14) (size 15 to 20)
#    0.000    2.200    2.000    1.800    0.000    2.800 
#    0.000    0.000    0.000    1.200    0.000    5.600 
#    0.000    0.000    0.000    0.000    0.000    0.000 
#
# Total GULP energy -222907.169260 kJ/mol
# GULP energy per Si atom -5572.679232 kJ/mol
# Density = 1.719074 g / cm^3
# Si number density = 17.229954 Si / 1000 Ang^3
#
#
#
# Elastic Constant Matrix: (Units=GPa)
#
#
# Indices 1 2 3 4 5 6 
#
# 1 20.2062 19.9915 25.7588 0.0000 0.0000 0.0000
# 2 19.9915 95.4303 76.0860 0.0000 0.0000 0.0000
# 3 25.7588 76.0860 199.5396 0.0000 0.0000 0.0000
# 4 0.0000 0.0000 0.0000 18.4332 0.0000 0.0000
# 5 0.0000 0.0000 0.0000 0.0000 28.3040 0.0000
# 6 0.0000 0.0000 0.0000 0.0000 0.0000 15.3221
#
#
#
# Elastic Compliance Matrix: (Units=1/GPa)
#
#
# Indices 1 2 3 4 5 6 
#
# 1 0.065257 -0.009992 -0.004614 0.000000 0.000000 0.000000
# 2 -0.009992 0.016586 -0.005035 0.000000 0.000000 0.000000
# 3 -0.004614 -0.005035 0.007527 0.000000 0.000000 0.000000
# 4 0.000000 0.000000 0.000000 0.054250 0.000000 0.000000
# 5 0.000000 0.000000 0.000000 0.000000 0.035331 0.000000
# 6 0.000000 0.000000 0.000000 0.000000 0.000000 0.065265
#
#
# Mechanical properties :
#
#
# Convention : Reuss Voigt Hill
#
# Bulk Modulus (GPa) = 19.96432 62.09429 41.02931
# Shear Modulus (GPa) = 16.65593 25.30120 20.97856
#
# Velocity S-wave (km/s) = 3.11253 3.83618 3.49315
# Velocity P-wave (km/s) = 4.95270 7.46583 6.33513
#
# Compressibility (1/GPa) = 0.05008936
#
# Stress axis : x y z
#
# Youngs Moduli (GPa) = 15.32392 60.29189 132.85687
#
# Poissons Ratio (x) = 0.60242 0.61303
# Poissons Ratio (y) = 0.15311 0.66887
# Poissons Ratio (z) = 0.07071 0.30354
#
# Static dielectric constant tensor:
#      x y z
#    x 1.590250 0.000000 0.000000 
#    y 0.000000 1.549340 0.000000 
#    z 0.000000 0.000000 1.637560 
# 
# From -- ./inp_files/14028.got.cif
#   From: 2010.05.17/outbox.cif.g08.bks.cpg/sg59_8_cif.got.tgz:14028.got - 2010.06.03 14:40:33.
