data_PCOD9446155
_publ_section_title
;
Structure prediction by ZEFSAII (Michael W. Deem and Ramdas Pophale) SiO2 
 PCOD9446155
Probable space group: P M M N
;
_chemical_formula_sum "Si O2"
_cell_formula_units_Z 56
_cell_length_a 22.113086
_cell_length_b 8.009191
_cell_length_c 15.014107
_cell_angle_alpha 90.000000
_cell_angle_beta 90.000000
_cell_angle_gamma 90.000000
_cell_volume 2659.117402
_symmetry_space_group_name_H-M "P M M N"
_symmetry_group_IT_number 59
_space_group.IT_coordinate_system_code '2'
_symmetry_cell_setting 'orthorhombic'
loop_
_space_group_symop_operation_xyz
x,y,z
1/2-x,1/2-y,z
1/2+x,-y,-z
-x,1/2+y,-z
-x,-y,-z
1/2+x,1/2+y,-z
1/2-x,y,z
x,1/2-y,z
loop_
_atom_site_type_symbol
_atom_site_label
_atom_site_fract_x
_atom_site_fract_y
_atom_site_fract_z
Si Si1 0.750000 0.057034 0.436113
Si Si2 0.818827 0.054603 0.735902
Si Si3 0.054256 0.447674 0.722534
Si Si4 0.883685 0.550059 0.455210
Si Si5 0.679226 0.550087 0.936250
Si Si6 0.369644 0.453071 0.880620
Si Si7 0.565761 0.943155 0.635019
Si Si8 0.250000 0.451296 0.767862
O O1 0.750000 0.250000 0.459265
O O2 0.687035 0.982386 0.470147
O O3 0.750000 0.031206 0.329290
O O4 0.750000 0.995983 0.719829
O O5 0.822314 0.250000 0.712308
O O6 0.830906 0.034036 0.841285
O O7 0.869486 0.958134 0.682014
O O8 0.066795 0.250000 0.725936
O O9 0.094614 0.516226 0.640601
O O10 0.075170 0.512843 0.818806
O O11 0.985426 0.471948 0.694152
O O12 0.891786 0.750000 0.454426
O O13 0.924421 0.483531 0.536186
O O14 0.750000 0.525537 0.960887
O O15 0.670847 0.750000 0.924580
O O16 0.638753 0.487515 0.018354
O O17 0.371345 0.250000 0.888028
O O18 0.309440 0.493873 0.824178
O O19 0.548212 0.750000 0.627577
O O20 0.250000 0.250000 0.754219
#
# Coordination Sequence:
#
# PCOD9446155 Si02
#       8
#     4   8   8   8   8   8   8   4
#     4  12  24  34  52  87 122 149 184 239 288 324
#     4  10  22  40  60  83 113 147 184 234 292 343
#     4  10  20  37  60  84 115 155 190 226 277 340
#     4  10  22  40  61  82 112 154 194 231 280 340
#     4   9  16  30  56  88 115 143 185 234 279 331
#     4   9  16  29  57  88 114 150 191 227 272 334
#     4  11  24  40  60  84 110 146 194 241 282 332
#     4  10  16  32  56  79 116 157 192 225 272 342
#
# _framework density 21.059619999999999
#
# number of rings (size 3 to 8) (size 9 to 14) (size 15 to 20)
#    0.000    2.000    2.143    1.929    1.000    2.571 
#    0.000    2.143    0.000    0.000    0.000    0.000 
#    0.000    0.000    0.000    0.000    0.000    0.000 
#
# Total GULP energy -312711.759467 kJ/mol
# GULP energy per Si atom -5584.138562 kJ/mol
# Density = 2.101169 g / cm^3
# Si number density = 21.059620 Si / 1000 Ang^3
#
#
#
# Elastic Constant Matrix: (Units=GPa)
#
#
# Indices 1 2 3 4 5 6 
#
# 1 59.5668 -7.4901 7.2154 0.0000 0.0000 0.0000
# 2 -7.4901 14.2738 0.8731 0.0000 0.0000 0.0000
# 3 7.2154 0.8731 33.7232 0.0000 0.0000 0.0000
# 4 0.0000 0.0000 0.0000 9.5978 0.0000 0.0000
# 5 0.0000 0.0000 0.0000 0.0000 12.4825 0.0000
# 6 0.0000 0.0000 0.0000 0.0000 0.0000 1.5712
#
#
#
# Elastic Compliance Matrix: (Units=1/GPa)
#
#
# Indices 1 2 3 4 5 6 
#
# 1 0.018557 0.009996 -0.004229 0.000000 0.000000 0.000000
# 2 0.009996 0.075554 -0.004095 0.000000 0.000000 0.000000
# 3 -0.004229 -0.004095 0.030664 0.000000 0.000000 0.000000
# 4 0.000000 0.000000 0.000000 0.104190 0.000000 0.000000
# 5 0.000000 0.000000 0.000000 0.000000 0.080112 0.000000
# 6 0.000000 0.000000 0.000000 0.000000 0.000000 0.636470
#
#
# Mechanical properties :
#
#
# Convention : Reuss Voigt Hill
#
# Bulk Modulus (GPa) = 7.80520 12.08453 9.94486
# Shear Modulus (GPa) = 5.07660 11.86132 8.46896
#
# Velocity S-wave (km/s) = 1.55429 2.37581 2.00752
# Velocity P-wave (km/s) = 2.63351 3.64372 3.17900
#
# Compressibility (1/GPa) = 0.12811977
#
# Stress axis : x y z
#
# Youngs Moduli (GPa) = 53.88757 13.23553 32.61141
#
# Poissons Ratio (x) = -0.13231 0.13792
# Poissons Ratio (y) = -0.53868 0.13354
# Poissons Ratio (z) = 0.22791 0.05420
#
# Static dielectric constant tensor:
#      x y z
#    x 1.744280 0.000000 0.000000 
#    y 0.000000 1.759340 0.000000 
#    z 0.000000 0.000000 1.784760 
# 
# From -- ./inp_files/24367.got.cif
#   From: 2010.05.17/outbox.cif.g08.bks.cpg/sg59_13_cif.got.tgz:24367.got - 2010.06.03 14:40:33.
