data_PCOD9446591
_publ_section_title
;
Structure prediction by ZEFSAII (Michael W. Deem and Ramdas Pophale) SiO2 
 PCOD9446591
Probable space group: P M M N
;
_chemical_formula_sum "Si O2"
_cell_formula_units_Z 64
_cell_length_a 8.967190
_cell_length_b 23.082118
_cell_length_c 18.588313
_cell_angle_alpha 90.000000
_cell_angle_beta 90.000000
_cell_angle_gamma 90.000000
_cell_volume 3847.441326
_symmetry_space_group_name_H-M "P M M N"
_symmetry_group_IT_number 59
_space_group.IT_coordinate_system_code '2'
_symmetry_cell_setting 'orthorhombic'
loop_
_space_group_symop_operation_xyz
x,y,z
1/2-x,1/2-y,z
1/2+x,-y,-z
-x,1/2+y,-z
-x,-y,-z
1/2+x,1/2+y,-z
1/2-x,y,z
x,1/2-y,z
loop_
_atom_site_type_symbol
_atom_site_label
_atom_site_fract_x
_atom_site_fract_y
_atom_site_fract_z
Si Si1 0.428357 0.936827 0.773154
Si Si2 0.573414 0.318645 0.494941
Si Si3 0.419913 0.512160 0.425734
Si Si4 0.078879 0.068019 0.076238
Si Si5 0.580692 0.884723 0.638712
Si Si6 0.429824 0.426909 0.779453
Si Si7 0.072937 0.122421 0.633016
Si Si8 0.921124 0.427360 0.930221
O O1 0.250000 0.936030 0.769715
O O2 0.486391 0.919131 0.851940
O O3 0.493320 0.893069 0.713458
O O4 0.475236 0.005375 0.763459
O O5 0.750000 0.330955 0.493883
O O6 0.550843 0.250000 0.488158
O O7 0.497400 0.350247 0.426598
O O8 0.506582 0.339350 0.571803
O O9 0.500000 0.500000 0.500000
O O10 0.250000 0.534909 0.433125
O O11 0.410737 0.451120 0.386986
O O12 0.527874 0.557432 0.388359
O O13 0.250000 0.086870 0.083479
O O14 0.079489 0.997796 0.070039
O O15 0.005529 0.090708 0.002819
O O16 0.750000 0.863061 0.649107
O O17 0.250000 0.427626 0.783195
O O18 0.472161 0.380659 0.717213
O O19 0.497869 0.410689 0.856352
O O20 0.250000 0.132119 0.628135
O O21 0.750000 0.408009 0.930898
#
# Coordination Sequence:
#
# PCOD9446591 Si02
#       8
#     8   8   8   8   8   8   8   8
#     4  10  18  29  45  67  98 130 163 202 242 288
#     4  11  25  42  57  72  93 126 166 208 254 301
#     4  11  21  31  48  73 100 127 159 198 246 297
#     4   9  16  26  39  58  89 128 168 202 235 281
#     4  11  22  34  51  74  99 128 163 203 248 296
#     4   9  18  29  43  66  96 128 161 198 241 287
#     4  11  21  34  52  74  99 129 164 204 250 296
#     4   9  16  25  39  59  87 127 168 200 235 280
#
# _framework density 16.634430999999999
#
# number of rings (size 3 to 8) (size 9 to 14) (size 15 to 20)
#    0.000    1.875    2.500    2.625    0.000    6.500 
#    0.000    0.000    0.000    0.000    0.000    0.000 
#    0.000    1.000    0.000    7.250    0.000    6.000 
#
# Total GULP energy -356468.971856 kJ/mol
# GULP energy per Si atom -5569.827685 kJ/mol
# Density = 1.659657 g / cm^3
# Si number density = 16.634431 Si / 1000 Ang^3
#
#
#
# Elastic Constant Matrix: (Units=GPa)
#
#
# Indices 1 2 3 4 5 6 
#
# 1 74.5727 20.4898 62.5665 0.0000 0.0000 0.0000
# 2 20.4898 41.2696 26.1192 0.0000 0.0000 0.0000
# 3 62.5665 26.1192 148.7701 0.0000 0.0000 0.0000
# 4 0.0000 0.0000 0.0000 4.2185 0.0000 0.0000
# 5 0.0000 0.0000 0.0000 0.0000 28.3653 0.0000
# 6 0.0000 0.0000 0.0000 0.0000 0.0000 14.4943
#
#
#
# Elastic Compliance Matrix: (Units=1/GPa)
#
#
# Indices 1 2 3 4 5 6 
#
# 1 0.021836 -0.005658 -0.008190 0.000000 0.000000 0.000000
# 2 -0.005658 0.028726 -0.002664 0.000000 0.000000 0.000000
# 3 -0.008190 -0.002664 0.010634 0.000000 0.000000 0.000000
# 4 0.000000 0.000000 0.000000 0.237051 0.000000 0.000000
# 5 0.000000 0.000000 0.000000 0.000000 0.035254 0.000000
# 6 0.000000 0.000000 0.000000 0.000000 0.000000 0.068993
#
#
# Mechanical properties :
#
#
# Convention : Reuss Voigt Hill
#
# Bulk Modulus (GPa) = 35.49595 53.66261 44.57928
# Shear Modulus (GPa) = 11.23830 19.77807 15.50818
#
# Velocity S-wave (km/s) = 2.60206 3.45191 3.05666
# Velocity P-wave (km/s) = 5.51478 6.94388 6.27018
#
# Compressibility (1/GPa) = 0.02817223
#
# Stress axis : x y z
#
# Youngs Moduli (GPa) = 45.79691 34.81177 94.04004
#
# Poissons Ratio (x) = 0.19696 0.77017
# Poissons Ratio (y) = 0.25911 0.25051
# Poissons Ratio (z) = 0.37507 0.09274
#
# Static dielectric constant tensor:
#      x y z
#    x 1.587100 0.000000 0.000000 
#    y 0.000000 1.387940 0.000000 
#    z 0.000000 0.000000 1.523970 
# 
# From -- ./inp_files/26524.got.cif
#   From: 2010.05.17/outbox.cif.g08.bks.cpg/sg59_14_cif.got.tgz:26524.got - 2010.06.03 14:40:33.
