data_PCOD9446512
_publ_section_title
;
Structure prediction by ZEFSAII (Michael W. Deem and Ramdas Pophale) SiO2 
 PCOD9446512
Probable space group: P M M N
;
_chemical_formula_sum "Si O2"
_cell_formula_units_Z 64
_cell_length_a 19.748044
_cell_length_b 8.629066
_cell_length_c 22.141380
_cell_angle_alpha 90.000000
_cell_angle_beta 90.000000
_cell_angle_gamma 90.000000
_cell_volume 3773.050017
_symmetry_space_group_name_H-M "P M M N"
_symmetry_group_IT_number 59
_space_group.IT_coordinate_system_code '2'
_symmetry_cell_setting 'orthorhombic'
loop_
_space_group_symop_operation_xyz
x,y,z
1/2-x,1/2-y,z
1/2+x,-y,-z
-x,1/2+y,-z
-x,-y,-z
1/2+x,1/2+y,-z
1/2-x,y,z
x,1/2-y,z
loop_
_atom_site_type_symbol
_atom_site_label
_atom_site_fract_x
_atom_site_fract_y
_atom_site_fract_z
Si Si1 0.677321 0.434893 0.602142
Si Si2 0.327448 0.438900 0.896983
Si Si3 0.054716 0.435832 0.807549
Si Si4 0.327872 0.061341 0.033886
Si Si5 0.860987 0.926884 0.725239
Si Si6 0.481707 0.573271 0.683854
Si Si7 0.970046 0.435690 0.561771
Si Si8 0.910492 0.561728 0.850424
O O1 0.750000 0.495466 0.579272
O O2 0.677027 0.250000 0.594473
O O3 0.672739 0.472710 0.673348
O O4 0.607514 0.493806 0.572557
O O5 0.250000 0.487286 0.884539
O O6 0.327688 0.250000 0.896714
O O7 0.382182 0.490168 0.848074
O O8 0.345348 0.487248 0.965561
O O9 0.052921 0.250000 0.807241
O O10 0.058289 0.494014 0.738528
O O11 0.984795 0.496095 0.837038
O O12 0.250000 0.015117 0.046087
O O13 0.328785 0.250000 0.034538
O O14 0.378539 0.010228 0.086324
O O15 0.835626 0.750000 0.722137
O O16 0.861396 0.982201 0.794297
O O17 0.940600 0.924426 0.707673
O O18 0.459461 0.750000 0.675499
O O19 0.486180 0.488470 0.619728
O O20 0.968806 0.250000 0.560112
O O21 0.000000 0.500000 0.500000
O O22 0.914611 0.750000 0.849024
#
# Coordination Sequence:
#
# PCOD9446512 Si02
#       8
#     8   8   8   8   8   8   8   8
#     4   9  18  31  46  66  93 125 158 190 225 265
#     4   8  15  28  45  65  88 116 154 199 244 289
#     4  10  18  28  46  70  93 118 150 192 240 285
#     4   8  14  26  43  61  84 118 159 198 235 281
#     4   8  15  26  40  61  88 117 148 183 222 263
#     4   9  17  31  49  69  94 120 149 186 226 270
#     4  10  19  32  52  76 102 131 161 191 225 270
#     4   9  17  28  43  65  92 120 152 191 233 277
#
# _framework density 16.962403999999999
#
# number of rings (size 3 to 8) (size 9 to 14) (size 15 to 20)
#    0.000    3.125    0.000    2.625    0.000    4.750 
#    0.000    1.250    0.000    3.375    0.000    3.500 
#    0.000    0.000    0.000    0.000    0.000    0.000 
#
# Total GULP energy -356305.163912 kJ/mol
# GULP energy per Si atom -5567.268186 kJ/mol
# Density = 1.692380 g / cm^3
# Si number density = 16.962404 Si / 1000 Ang^3
#
#
#
# Elastic Constant Matrix: (Units=GPa)
#
#
# Indices 1 2 3 4 5 6 
#
# 1 83.7982 18.8160 79.2422 0.0000 0.0000 0.0000
# 2 18.8160 25.4005 29.8174 0.0000 0.0000 0.0000
# 3 79.2422 29.8174 153.7160 0.0000 0.0000 0.0000
# 4 0.0000 0.0000 0.0000 20.7401 0.0000 0.0000
# 5 0.0000 0.0000 0.0000 0.0000 11.9566 0.0000
# 6 0.0000 0.0000 0.0000 0.0000 0.0000 8.7014
#
#
#
# Elastic Compliance Matrix: (Units=1/GPa)
#
#
# Indices 1 2 3 4 5 6 
#
# 1 0.023617 -0.004147 -0.011370 0.000000 0.000000 0.000000
# 2 -0.004147 0.051706 -0.007892 0.000000 0.000000 0.000000
# 3 -0.011370 -0.007892 0.013898 0.000000 0.000000 0.000000
# 4 0.000000 0.000000 0.000000 0.048216 0.000000 0.000000
# 5 0.000000 0.000000 0.000000 0.000000 0.083636 0.000000
# 6 0.000000 0.000000 0.000000 0.000000 0.000000 0.114923
#
#
# Mechanical properties :
#
#
# Convention : Reuss Voigt Hill
#
# Bulk Modulus (GPa) = 23.58395 57.62955 40.60675
# Shear Modulus (GPa) = 12.59613 17.28223 14.93918
#
# Velocity S-wave (km/s) = 2.72801 3.19541 2.97092
# Velocity P-wave (km/s) = 4.88432 6.90383 5.97994
#
# Compressibility (1/GPa) = 0.04240172
#
# Stress axis : x y z
#
# Youngs Moduli (GPa) = 42.34309 19.34025 71.95400
#
# Poissons Ratio (x) = 0.08021 0.81813
# Poissons Ratio (y) = 0.17560 0.56785
# Poissons Ratio (z) = 0.48145 0.15263
#
# Static dielectric constant tensor:
#      x y z
#    x 1.584240 0.000000 0.000000 
#    y 0.000000 1.582450 0.000000 
#    z 0.000000 0.000000 1.573490 
# 
# From -- ./inp_files/30993.got.cif
#   From: 2010.05.17/outbox.cif.g08.bks.cpg/sg59_16_cif.got.tgz:30993.got - 2010.06.03 14:40:33.
