data_PCOD9446883
_publ_section_title
;
Structure prediction by ZEFSAII (Michael W. Deem and Ramdas Pophale) SiO2 
 PCOD9446883
Probable space group: P M M N
;
_chemical_formula_sum "Si O2"
_cell_formula_units_Z 56
_cell_length_a 8.872894
_cell_length_b 21.417568
_cell_length_c 16.128893
_cell_angle_alpha 90.000000
_cell_angle_beta 90.000000
_cell_angle_gamma 90.000000
_cell_volume 3065.067255
_symmetry_space_group_name_H-M "P M M N"
_symmetry_group_IT_number 59
_space_group.IT_coordinate_system_code '2'
_symmetry_cell_setting 'orthorhombic'
loop_
_space_group_symop_operation_xyz
x,y,z
1/2-x,1/2-y,z
1/2+x,-y,-z
-x,1/2+y,-z
-x,-y,-z
1/2+x,1/2+y,-z
1/2-x,y,z
x,1/2-y,z
loop_
_atom_site_type_symbol
_atom_site_label
_atom_site_fract_x
_atom_site_fract_y
_atom_site_fract_z
Si Si1 0.070358 0.386034 0.184953
Si Si2 0.420070 0.750000 0.619906
Si Si3 0.572730 0.956440 0.644475
Si Si4 0.424819 0.874645 0.509289
Si Si5 0.070161 0.323076 0.655170
Si Si6 0.571149 0.499861 0.090903
Si Si7 0.070920 0.250000 0.207871
Si Si8 0.069144 0.926832 0.240696
O O1 0.250000 0.392189 0.166012
O O2 0.055093 0.405656 0.281459
O O3 0.016448 0.315513 0.172229
O O4 0.975551 0.434393 0.132309
O O5 0.250000 0.750000 0.655165
O O6 0.435717 0.811862 0.564806
O O7 0.535222 0.750000 0.694839
O O8 0.750000 0.960470 0.623887
O O9 0.483072 0.931944 0.565072
O O10 0.526577 0.021265 0.688774
O O11 0.250000 0.884290 0.486299
O O12 0.519932 0.858901 0.428080
O O13 0.250000 0.325914 0.663919
O O14 0.025468 0.250000 0.650071
O O15 0.991119 0.360390 0.729423
O O16 0.750000 0.507448 0.086845
O O17 0.500761 0.550664 0.153968
O O18 0.500000 0.500000 0.000000
O O19 0.250000 0.250000 0.197360
O O20 0.250000 0.928171 0.234879
#
# Coordination Sequence:
#
# PCOD9446883 Si02
#       8
#     8   4   8   8   8   8   4   8
#     4   9  18  32  52  82 116 151 189 226 274 333
#     4  10  20  30  44  74 111 148 197 242 278 322
#     4   9  18  33  53  79 112 148 189 234 280 333
#     4  11  21  33  51  77 111 153 199 244 284 325
#     4  11  24  40  59  82 110 149 197 242 286 339
#     4  11  22  39  65  91 116 145 181 227 278 339
#     4  10  18  30  52  78 113 156 189 226 276 330
#     4  10  22  41  63  87 115 146 184 233 288 343
#
# _framework density 18.270398
#
# number of rings (size 3 to 8) (size 9 to 14) (size 15 to 20)
#    0.000    1.857    2.143    3.429    0.000    5.429 
#    0.000    0.000    1.571    0.000    0.000    0.000 
#    0.000    0.000    0.000    0.000    0.000    0.000 
#
# Total GULP energy -312665.991573 kJ/mol
# GULP energy per Si atom -5583.321278 kJ/mol
# Density = 1.822881 g / cm^3
# Si number density = 18.270398 Si / 1000 Ang^3
#
#
#
# Elastic Constant Matrix: (Units=GPa)
#
#
# Indices 1 2 3 4 5 6 
#
# 1 74.5586 41.1794 49.0676 0.0000 0.0000 0.0000
# 2 41.1794 66.8569 51.0838 0.0000 0.0000 0.0000
# 3 49.0676 51.0838 92.6111 0.0000 0.0000 0.0000
# 4 0.0000 0.0000 0.0000 11.3599 0.0000 0.0000
# 5 0.0000 0.0000 0.0000 0.0000 27.9842 0.0000
# 6 0.0000 0.0000 0.0000 0.0000 0.0000 26.4254
#
#
#
# Elastic Compliance Matrix: (Units=1/GPa)
#
#
# Indices 1 2 3 4 5 6 
#
# 1 0.023035 -0.008406 -0.007568 0.000000 0.000000 0.000000
# 2 -0.008406 0.028921 -0.011499 0.000000 0.000000 0.000000
# 3 -0.007568 -0.011499 0.021151 0.000000 0.000000 0.000000
# 4 0.000000 0.000000 0.000000 0.088029 0.000000 0.000000
# 5 0.000000 0.000000 0.000000 0.000000 0.035734 0.000000
# 6 0.000000 0.000000 0.000000 0.000000 0.000000 0.037842
#
#
# Mechanical properties :
#
#
# Convention : Reuss Voigt Hill
#
# Bulk Modulus (GPa) = 55.06328 57.40980 56.23654
# Shear Modulus (GPa) = 16.90833 19.33362 18.12097
#
# Velocity S-wave (km/s) = 3.04542 3.25652 3.15274
# Velocity P-wave (km/s) = 6.52453 6.75503 6.64078
#
# Compressibility (1/GPa) = 0.01816092
#
# Stress axis : x y z
#
# Youngs Moduli (GPa) = 43.41132 34.57727 47.28008
#
# Poissons Ratio (x) = 0.29064 0.35783
# Poissons Ratio (y) = 0.36490 0.54368
# Poissons Ratio (z) = 0.32855 0.39761
#
# Static dielectric constant tensor:
#      x y z
#    x 1.630690 0.000000 0.000000 
#    y 0.000000 1.655580 0.000000 
#    z 0.000000 0.000000 1.607120 
# 
# From -- ./inp_files/21143.got.cif
#   From: 2010.05.17/outbox.cif.g08.bks.cpg/sg59_11_cif.got.tgz:21143.got - 2010.06.03 14:40:33.
