data_PCOD9446373
_publ_section_title
;
Structure prediction by ZEFSAII (Michael W. Deem and Ramdas Pophale) SiO2 
 PCOD9446373
Probable space group: P M M N
;
_chemical_formula_sum "Si O2"
_cell_formula_units_Z 56
_cell_length_a 21.959479
_cell_length_b 9.072666
_cell_length_c 18.269651
_cell_angle_alpha 90.000000
_cell_angle_beta 90.000000
_cell_angle_gamma 90.000000
_cell_volume 3639.881176
_symmetry_space_group_name_H-M "P M M N"
_symmetry_group_IT_number 59
_space_group.IT_coordinate_system_code '2'
_symmetry_cell_setting 'orthorhombic'
loop_
_space_group_symop_operation_xyz
x,y,z
1/2-x,1/2-y,z
1/2+x,-y,-z
-x,1/2+y,-z
-x,-y,-z
1/2+x,1/2+y,-z
1/2-x,y,z
x,1/2-y,z
loop_
_atom_site_type_symbol
_atom_site_label
_atom_site_fract_x
_atom_site_fract_y
_atom_site_fract_z
Si Si1 0.678615 0.925264 0.154163
Si Si2 0.604522 0.077101 0.281021
Si Si3 0.556966 0.424059 0.596392
Si Si4 0.963238 0.074983 0.892436
Si Si5 0.458977 0.424076 0.257091
Si Si6 0.413470 0.925067 0.950328
Si Si7 0.071322 0.925603 0.562377
O O1 0.750000 0.960298 0.157361
O O2 0.671264 0.750000 0.146879
O O3 0.644573 0.980497 0.227161
O O4 0.645396 0.005476 0.086854
O O5 0.616441 0.250000 0.266617
O O6 0.532330 0.052387 0.266164
O O7 0.613974 0.048252 0.367603
O O8 0.558169 0.250000 0.610939
O O9 0.572223 0.511271 0.670075
O O10 0.488387 0.476130 0.576396
O O11 0.593107 0.453287 0.520513
O O12 0.972213 0.250000 0.884366
O O13 0.940320 0.005481 0.817093
O O14 0.920297 0.049415 0.962812
O O15 0.027520 0.999380 0.912910
O O16 0.449124 0.250000 0.251810
O O17 0.415795 0.750000 0.936957
O O18 0.054259 0.750000 0.566028
#
# Coordination Sequence:
#
# PCOD9446373 Si02
#       7
#     8   8   8   8   8   8   8
#     4  11  23  35  47  65  89 118 155 195 230 268
#     4   9  17  29  44  61  83 114 152 188 223 264
#     4   9  15  23  37  57  83 115 146 176 213 253
#     4  10  19  30  47  68  90 116 149 186 225 275
#     4  10  18  27  41  63  91 119 149 182 218 265
#     4  10  20  33  48  67  88 115 149 186 231 277
#     4   8  15  26  38  55  81 112 146 181 213 254
#
# _framework density 15.385118
#
# number of rings (size 3 to 8) (size 9 to 14) (size 15 to 20)
#    0.000    2.429    1.429    3.000    0.000    5.714 
#    0.000    0.000    0.000    0.000    0.000    0.000 
#    0.000    1.143    0.000   10.857    0.000    6.571 
#
# Total GULP energy -311938.405356 kJ/mol
# GULP energy per Si atom -5570.328667 kJ/mol
# Density = 1.535010 g / cm^3
# Si number density = 15.385118 Si / 1000 Ang^3
#
#
#
# Elastic Constant Matrix: (Units=GPa)
#
#
# Indices 1 2 3 4 5 6 
#
# 1 34.4174 29.6708 27.4530 0.0000 0.0000 0.0000
# 2 29.6708 68.9932 64.9970 0.0000 0.0000 0.0000
# 3 27.4530 64.9970 146.6097 0.0000 0.0000 0.0000
# 4 0.0000 0.0000 0.0000 29.0530 0.0000 0.0000
# 5 0.0000 0.0000 0.0000 0.0000 8.5014 0.0000
# 6 0.0000 0.0000 0.0000 0.0000 0.0000 15.1540
#
#
#
# Elastic Compliance Matrix: (Units=1/GPa)
#
#
# Indices 1 2 3 4 5 6 
#
# 1 0.046180 -0.020114 0.000270 0.000000 0.000000 0.000000
# 2 -0.020114 0.033650 -0.011152 0.000000 0.000000 0.000000
# 3 0.000270 -0.011152 0.011714 0.000000 0.000000 0.000000
# 4 0.000000 0.000000 0.000000 0.034420 0.000000 0.000000
# 5 0.000000 0.000000 0.000000 0.000000 0.117628 0.000000
# 6 0.000000 0.000000 0.000000 0.000000 0.000000 0.065989
#
#
# Mechanical properties :
#
#
# Convention : Reuss Voigt Hill
#
# Bulk Modulus (GPa) = 33.83827 54.91797 44.37812
# Shear Modulus (GPa) = 13.10876 19.06831 16.08853
#
# Velocity S-wave (km/s) = 2.92214 3.52433 3.23727
# Velocity P-wave (km/s) = 5.78162 7.23424 6.54833
#
# Compressibility (1/GPa) = 0.02955234
#
# Stress axis : x y z
#
# Youngs Moduli (GPa) = 21.65440 29.71737 85.36597
#
# Poissons Ratio (x) = 0.59774 -0.02305
# Poissons Ratio (y) = 0.43556 0.95199
# Poissons Ratio (z) = -0.00585 0.33140
#
# Static dielectric constant tensor:
#      x y z
#    x 1.469200 0.000000 0.000000 
#    y 0.000000 1.511920 0.000000 
#    z 0.000000 0.000000 1.567960 
# 
# From -- ./inp_files/26416.got.cif
#   From: 2010.05.17/outbox.cif.g08.bks.cpg/sg59_14_cif.got.tgz:26416.got - 2010.06.03 14:40:33.
