data_PCOD9446134
_publ_section_title
;
Structure prediction by ZEFSAII (Michael W. Deem and Ramdas Pophale) SiO2 
 PCOD9446134
Probable space group: P M M N
;
_chemical_formula_sum "Si O2"
_cell_formula_units_Z 40
_cell_length_a 22.522952
_cell_length_b 11.448645
_cell_length_c 7.326538
_cell_angle_alpha 90.000000
_cell_angle_beta 90.000000
_cell_angle_gamma 90.000000
_cell_volume 1889.201174
_symmetry_space_group_name_H-M "P M M N"
_symmetry_group_IT_number 59
_space_group.IT_coordinate_system_code '2'
_symmetry_cell_setting 'orthorhombic'
loop_
_space_group_symop_operation_xyz
x,y,z
1/2-x,1/2-y,z
1/2+x,-y,-z
-x,1/2+y,-z
-x,-y,-z
1/2+x,1/2+y,-z
1/2-x,y,z
x,1/2-y,z
loop_
_atom_site_type_symbol
_atom_site_label
_atom_site_fract_x
_atom_site_fract_y
_atom_site_fract_z
Si Si1 0.319132 0.885659 0.607314
Si Si2 0.018908 0.374220 0.781836
Si Si3 0.010507 0.875604 0.785327
Si Si4 0.319200 0.613691 0.041745
Si Si5 0.094857 0.513303 0.327178
O O1 0.250000 0.907562 0.565543
O O2 0.330980 0.750000 0.558243
O O3 0.325975 0.896656 0.824621
O O4 0.360016 0.969245 0.489636
O O5 0.048133 0.250000 0.738996
O O6 0.045379 0.503555 0.748748
O O7 0.956301 0.386935 0.676021
O O8 0.002752 0.373176 0.997570
O O9 0.036511 0.750000 0.736487
O O10 0.946834 0.899228 0.688257
O O11 0.250000 0.589683 0.086767
O O12 0.330836 0.750000 0.089472
O O13 0.365347 0.533068 0.147290
#
# Coordination Sequence:
#
# PCOD9446134 Si02
#       5
#     8   8   8   8   8
#     4   9  17  27  40  64  94 116 142 186 228 257
#     4   8  14  25  44  68  89 114 149 184 217 256
#     4   8  16  27  41  66  96 118 142 182 223 258
#     4   9  17  27  40  64  94 116 142 186 228 257
#     4  10  16  25  47  66  86 116 150 176 214 270
#
# _framework density 21.172969999999999
#
# number of rings (size 3 to 8) (size 9 to 14) (size 15 to 20)
#    1.200    2.000    0.000    3.600    0.000    1.600 
#    0.000    0.000    0.000    8.400    0.000    8.400 
#    0.000    0.000    0.000    0.000    0.000    0.000 
#
# Total GULP energy -222933.464961 kJ/mol
# GULP energy per Si atom -5573.336624 kJ/mol
# Density = 2.112478 g / cm^3
# Si number density = 21.172970 Si / 1000 Ang^3
#
#
#
# Elastic Constant Matrix: (Units=GPa)
#
#
# Indices 1 2 3 4 5 6 
#
# 1 78.8721 21.0446 28.5498 0.0000 0.0000 0.0000
# 2 21.0446 148.7415 14.4199 0.0000 0.0000 0.0000
# 3 28.5498 14.4199 73.9354 0.0000 0.0000 0.0000
# 4 0.0000 0.0000 0.0000 33.8592 0.0000 0.0000
# 5 0.0000 0.0000 0.0000 0.0000 44.3455 0.0000
# 6 0.0000 0.0000 0.0000 0.0000 0.0000 14.1907
#
#
#
# Elastic Compliance Matrix: (Units=1/GPa)
#
#
# Indices 1 2 3 4 5 6 
#
# 1 0.015104 -0.001602 -0.005520 0.000000 0.000000 0.000000
# 2 -0.001602 0.007023 -0.000751 0.000000 0.000000 0.000000
# 3 -0.005520 -0.000751 0.015803 0.000000 0.000000 0.000000
# 4 0.000000 0.000000 0.000000 0.029534 0.000000 0.000000
# 5 0.000000 0.000000 0.000000 0.000000 0.022550 0.000000
# 6 0.000000 0.000000 0.000000 0.000000 0.000000 0.070469
#
#
# Mechanical properties :
#
#
# Convention : Reuss Voigt Hill
#
# Bulk Modulus (GPa) = 45.07714 47.73084 46.40399
# Shear Modulus (GPa) = 27.22961 34.31473 30.77217
#
# Velocity S-wave (km/s) = 3.59005 4.03014 3.81645
# Velocity P-wave (km/s) = 6.20651 6.65194 6.43308
#
# Compressibility (1/GPa) = 0.02218419
#
# Stress axis : x y z
#
# Youngs Moduli (GPa) = 66.20637 142.39889 63.27777
#
# Poissons Ratio (x) = 0.22811 0.34930
# Poissons Ratio (y) = 0.10605 0.04753
# Poissons Ratio (z) = 0.36546 0.10695
#
# Static dielectric constant tensor:
#      x y z
#    x 1.734780 0.000000 0.000000 
#    y 0.000000 1.806760 0.000000 
#    z 0.000000 0.000000 1.834860 
# 
# From -- ./inp_files/12497.got.cif
#   From: 2010.05.17/outbox.cif.g08.bks.cpg/sg59_7_cif.got.tgz:12497.got - 2010.06.03 14:40:33.
