data_PCOD9446232
_publ_section_title
;
Structure prediction by ZEFSAII (Michael W. Deem and Ramdas Pophale) SiO2 
 PCOD9446232
Probable space group: P M M N
;
_chemical_formula_sum "Si O2"
_cell_formula_units_Z 56
_cell_length_a 8.720794
_cell_length_b 29.268365
_cell_length_c 13.924181
_cell_angle_alpha 90.000000
_cell_angle_beta 90.000000
_cell_angle_gamma 90.000000
_cell_volume 3554.055048
_symmetry_space_group_name_H-M "P M M N"
_symmetry_group_IT_number 59
_space_group.IT_coordinate_system_code '2'
_symmetry_cell_setting 'orthorhombic'
loop_
_space_group_symop_operation_xyz
x,y,z
1/2-x,1/2-y,z
1/2+x,-y,-z
-x,1/2+y,-z
-x,-y,-z
1/2+x,1/2+y,-z
1/2-x,y,z
x,1/2-y,z
loop_
_atom_site_type_symbol
_atom_site_label
_atom_site_fract_x
_atom_site_fract_y
_atom_site_fract_z
Si Si1 0.566519 0.464782 0.791423
Si Si2 0.432531 0.390849 0.917643
Si Si3 0.933715 0.518303 0.599189
Si Si4 0.566932 0.104137 0.301036
Si Si5 0.934817 0.557716 0.887372
Si Si6 0.063251 0.801235 0.770272
Si Si7 0.065290 0.697885 0.992907
O O1 0.750000 0.459755 0.790165
O O2 0.493421 0.417636 0.825082
O O3 0.518509 0.485558 0.688498
O O4 0.527952 0.504700 0.868449
O O5 0.250000 0.388736 0.914376
O O6 0.477699 0.421533 0.010450
O O7 0.497893 0.340774 0.938843
O O8 0.750000 0.518389 0.596674
O O9 0.000000 0.500000 0.500000
O O10 0.991002 0.569265 0.624484
O O11 0.750000 0.102429 0.312810
O O12 0.520437 0.084934 0.196479
O O13 0.515181 0.157020 0.297508
O O14 0.750000 0.562605 0.874423
O O15 0.250000 0.801245 0.770906
O O16 0.013369 0.750000 0.743340
O O17 0.016376 0.809701 0.881456
O O18 0.250000 0.694937 0.994596
O O19 0.022367 0.750000 0.018156
#
# Coordination Sequence:
#
# PCOD9446232 Si02
#       7
#     8   8   8   8   8   8   8
#     4   9  19  33  47  64  90 122 156 190 227 280
#     4  11  20  28  43  67  96 126 159 198 237 273
#     4  10  21  37  54  72  95 120 152 196 242 293
#     4  10  17  27  48  72  94 126 161 195 236 280
#     4   9  18  30  41  61  95 129 159 193 229 268
#     4   8  14  25  42  66  94 125 163 198 225 265
#     4   9  17  30  46  63  89 129 171 202 230 271
#
# _framework density 15.75665
#
# number of rings (size 3 to 8) (size 9 to 14) (size 15 to 20)
#    0.000    2.571    1.429    3.429    0.000    3.714 
#    0.000    0.000    0.000    1.714    0.000    1.000 
#    0.000    3.429    0.000    0.000    0.000    0.000 
#
# Total GULP energy -312046.764819 kJ/mol
# GULP energy per Si atom -5572.263657 kJ/mol
# Density = 1.572079 g / cm^3
# Si number density = 15.756650 Si / 1000 Ang^3
#
#
#
# Elastic Constant Matrix: (Units=GPa)
#
#
# Indices 1 2 3 4 5 6 
#
# 1 15.8616 34.3572 21.2605 0.0000 0.0000 0.0000
# 2 34.3572 151.2823 63.2246 0.0000 0.0000 0.0000
# 3 21.2605 63.2246 61.5864 0.0000 0.0000 0.0000
# 4 0.0000 0.0000 0.0000 21.1565 0.0000 0.0000
# 5 0.0000 0.0000 0.0000 0.0000 19.9902 0.0000
# 6 0.0000 0.0000 0.0000 0.0000 0.0000 22.4698
#
#
#
# Elastic Compliance Matrix: (Units=1/GPa)
#
#
# Indices 1 2 3 4 5 6 
#
# 1 0.149160 -0.021640 -0.029277 0.000000 0.000000 0.000000
# 2 -0.021640 0.014717 -0.007638 0.000000 0.000000 0.000000
# 3 -0.029277 -0.007638 0.034185 0.000000 0.000000 0.000000
# 4 0.000000 0.000000 0.000000 0.047267 0.000000 0.000000
# 5 0.000000 0.000000 0.000000 0.000000 0.050025 0.000000
# 6 0.000000 0.000000 0.000000 0.000000 0.000000 0.044504
#
#
# Mechanical properties :
#
#
# Convention : Reuss Voigt Hill
#
# Bulk Modulus (GPa) = 12.35283 51.82388 32.08836
# Shear Modulus (GPa) = 10.33162 20.04915 15.19038
#
# Velocity S-wave (km/s) = 2.56344 3.57098 3.10830
# Velocity P-wave (km/s) = 4.07657 7.06853 5.76986
#
# Compressibility (1/GPa) = 0.08095309
#
# Stress axis : x y z
#
# Youngs Moduli (GPa) = 6.70420 67.94998 29.25238
#
# Poissons Ratio (x) = 1.47041 0.85642
# Poissons Ratio (y) = 0.14508 0.22343
# Poissons Ratio (z) = 0.19628 0.51899
#
# Static dielectric constant tensor:
#      x y z
#    x 1.525640 0.000000 0.000000 
#    y 0.000000 1.551940 0.000000 
#    z 0.000000 0.000000 1.501640 
# 
# From -- ./inp_files/21741.got.cif
#   From: 2010.05.17/outbox.cif.g08.bks.cpg/sg59_11_cif.got.tgz:21741.got - 2010.06.03 14:40:33.
