data_PCOD9446707
_publ_section_title
;
Structure prediction by ZEFSAII (Michael W. Deem and Ramdas Pophale) SiO2 
 PCOD9446707
Probable space group: P M M N
;
_chemical_formula_sum "Si O2"
_cell_formula_units_Z 64
_cell_length_a 15.175460
_cell_length_b 7.725054
_cell_length_c 25.186680
_cell_angle_alpha 90.000000
_cell_angle_beta 90.000000
_cell_angle_gamma 90.000000
_cell_volume 2952.665929
_symmetry_space_group_name_H-M "P M M N"
_symmetry_group_IT_number 59
_space_group.IT_coordinate_system_code '2'
_symmetry_cell_setting 'orthorhombic'
loop_
_space_group_symop_operation_xyz
x,y,z
1/2-x,1/2-y,z
1/2+x,-y,-z
-x,1/2+y,-z
-x,-y,-z
1/2+x,1/2+y,-z
1/2-x,y,z
x,1/2-y,z
loop_
_atom_site_type_symbol
_atom_site_label
_atom_site_fract_x
_atom_site_fract_y
_atom_site_fract_z
Si Si1 0.850310 0.960742 0.475402
Si Si2 0.347530 0.957738 0.131662
Si Si3 0.520259 0.551328 0.182672
Si Si4 0.398767 0.454561 0.011514
Si Si5 0.651788 0.958224 0.596880
Si Si6 0.460832 0.042906 0.622954
Si Si7 0.844440 0.451000 0.101127
Si Si8 0.648530 0.962577 0.274654
O O1 0.750000 0.005361 0.458954
O O2 0.854285 0.750000 0.476684
O O3 0.862683 0.020369 0.535988
O O4 0.921439 0.024226 0.432916
O O5 0.250000 0.025699 0.143160
O O6 0.346503 0.750000 0.138647
O O7 0.425959 0.029003 0.168543
O O8 0.370003 0.988309 0.069864
O O9 0.504626 0.750000 0.198994
O O10 0.575187 0.548456 0.127965
O O11 0.585993 0.476485 0.226594
O O12 0.386496 0.250000 0.008545
O O13 0.347911 0.536381 0.962179
O O14 0.500000 0.500000 0.000000
O O15 0.750000 0.018162 0.613996
O O16 0.655246 0.750000 0.595502
O O17 0.564349 0.005415 0.628998
O O18 0.452016 0.250000 0.621672
O O19 0.399300 0.982536 0.671060
O O20 0.750000 0.518936 0.120358
O O21 0.852438 0.250000 0.115809
O O22 0.750000 0.019684 0.270769
O O23 0.650667 0.750000 0.273539
#
# Coordination Sequence:
#
# PCOD9446707 Si02
#       8
#     8   8   8   8   8   8   8   8
#     4   8  14  26  46  72 102 138 177 214 261 323
#     4  10  21  37  56  79 108 141 178 221 265 309
#     4  10  20  36  58  79 103 140 180 217 259 312
#     4  12  23  36  56  82 112 145 178 215 262 316
#     4   9  18  32  48  68 100 142 181 215 259 319
#     4  10  18  29  50  78 104 133 173 224 272 311
#     4  11  23  37  55  81 112 143 175 216 264 311
#     4   9  18  33  54  81 109 135 170 217 267 319
#
# _framework density 21.675328
#
# number of rings (size 3 to 8) (size 9 to 14) (size 15 to 20)
#    0.000    2.125    1.250    3.750    0.000    5.000 
#    0.000    1.250    0.000    5.250    0.000    0.000 
#    0.000    0.000    0.000    0.000    0.000    0.000 
#
# Total GULP energy -357310.210845 kJ/mol
# GULP energy per Si atom -5582.972044 kJ/mol
# Density = 2.162599 g / cm^3
# Si number density = 21.675328 Si / 1000 Ang^3
#
#
#
# Elastic Constant Matrix: (Units=GPa)
#
#
# Indices 1 2 3 4 5 6 
#
# 1 198.5754 3.0324 59.7199 0.0000 0.0000 0.0000
# 2 3.0324 40.8164 0.7348 0.0000 0.0000 0.0000
# 3 59.7199 0.7348 64.9268 0.0000 0.0000 0.0000
# 4 0.0000 0.0000 0.0000 6.1989 0.0000 0.0000
# 5 0.0000 0.0000 0.0000 0.0000 -8.9293 0.0000
# 6 0.0000 0.0000 0.0000 0.0000 0.0000 12.3101
#
#
#
# Elastic Compliance Matrix: (Units=1/GPa)
#
#
# Indices 1 2 3 4 5 6 
#
# 1 0.006968 -0.000402 -0.006405 0.000000 0.000000 0.000000
# 2 -0.000402 0.024528 0.000093 0.000000 0.000000 0.000000
# 3 -0.006405 0.000093 0.021292 0.000000 0.000000 0.000000
# 4 0.000000 0.000000 0.000000 0.161318 0.000000 0.000000
# 5 0.000000 0.000000 0.000000 0.000000 -0.111990 0.000000
# 6 0.000000 0.000000 0.000000 0.000000 0.000000 0.081234
#
#
# Mechanical properties :
#
#
# Convention : Reuss Voigt Hill
#
# Bulk Modulus (GPa) = 25.40712 47.92144 36.66428
# Shear Modulus (GPa) = 23.82095 17.97136 20.89616
#
# Velocity S-wave (km/s) = 3.31870 2.88256 3.10829
# Velocity P-wave (km/s) = 5.14122 5.76503 5.46204
#
# Compressibility (1/GPa) = 0.03935905
#
# Stress axis : x y z
#
# Youngs Moduli (GPa) = 143.50874 40.76947 46.96579
#
# Poissons Ratio (x) = 0.01641 0.30081
# Poissons Ratio (y) = 0.05775 -0.00435
# Poissons Ratio (z) = 0.91915 -0.00377
#
# Static dielectric constant tensor:
#      x y z
#    x 1.821190 0.000000 0.000000 
#    y 0.000000 1.727460 0.000000 
#    z 0.000000 0.000000 1.779860 
# 
# From -- ./inp_files/32203.got.cif
#   From: 2010.05.17/outbox.cif.g08.bks.cpg/sg59_17_cif.got.tgz:32203.got - 2010.06.03 14:40:33.
