data_PCOD9446367
_publ_section_title
;
Structure prediction by ZEFSAII (Michael W. Deem and Ramdas Pophale) SiO2 
 PCOD9446367
Probable space group: P M M N
;
_chemical_formula_sum "Si O2"
_cell_formula_units_Z 64
_cell_length_a 9.414286
_cell_length_b 24.929833
_cell_length_c 18.799903
_cell_angle_alpha 90.000000
_cell_angle_beta 90.000000
_cell_angle_gamma 90.000000
_cell_volume 4412.272897
_symmetry_space_group_name_H-M "P M M N"
_symmetry_group_IT_number 59
_space_group.IT_coordinate_system_code '2'
_symmetry_cell_setting 'orthorhombic'
loop_
_space_group_symop_operation_xyz
x,y,z
1/2-x,1/2-y,z
1/2+x,-y,-z
-x,1/2+y,-z
-x,-y,-z
1/2+x,1/2+y,-z
1/2-x,y,z
x,1/2-y,z
loop_
_atom_site_type_symbol
_atom_site_label
_atom_site_fract_x
_atom_site_fract_y
_atom_site_fract_z
Si Si1 0.413667 0.578523 0.963140
Si Si2 0.084480 0.387619 0.169898
Si Si3 0.413131 0.686701 0.725954
Si Si4 0.584105 0.009345 0.773161
Si Si5 0.413486 0.455442 0.904819
Si Si6 0.419359 0.987593 0.392932
Si Si7 0.581085 0.312088 0.442856
Si Si8 0.080743 0.414355 0.495605
O O1 0.250000 0.594891 0.970676
O O2 0.496384 0.611654 0.903178
O O3 0.414007 0.516857 0.934446
O O4 0.496074 0.577629 0.037759
O O5 0.250000 0.377301 0.156260
O O6 0.072748 0.447055 0.203960
O O7 0.018847 0.346450 0.225633
O O8 0.250000 0.669362 0.739309
O O9 0.422614 0.750000 0.741172
O O10 0.441191 0.680270 0.641898
O O11 0.750000 0.024512 0.781739
O O12 0.487552 0.042159 0.828039
O O13 0.545397 0.014174 0.690401
O O14 0.250000 0.438065 0.901393
O O15 0.250000 0.977294 0.400923
O O16 0.508624 0.945131 0.438455
O O17 0.445680 0.046154 0.427854
O O18 0.750000 0.319039 0.456047
O O19 0.545059 0.250000 0.459866
O O20 0.491036 0.357015 0.482670
O O21 0.250000 0.409819 0.504724
#
# Coordination Sequence:
#
# PCOD9446367 Si02
#       8
#     8   8   8   8   8   8   8   8
#     4   9  16  26  39  55  78 109 140 166 198 240
#     4  10  18  27  41  61  84 109 140 177 212 247
#     4   9  18  31  44  59  81 109 141 175 210 250
#     4   9  17  28  41  58  82 112 143 173 208 252
#     4   9  16  25  38  57  80 105 135 171 205 236
#     4   9  18  31  44  60  86 119 149 177 215 264
#     4   9  18  32  48  64  84 113 146 179 218 263
#     4  10  19  30  45  65  87 112 145 184 222 258
#
# _framework density 14.504996
#
# number of rings (size 3 to 8) (size 9 to 14) (size 15 to 20)
#    0.000    2.750    0.000    3.000    0.000    6.500 
#    0.000    1.250    0.000    0.000    0.000    0.000 
#    0.000    1.000    0.000    8.750    0.000    5.125 
#
# Total GULP energy -356637.343327 kJ/mol
# GULP energy per Si atom -5572.458489 kJ/mol
# Density = 1.447198 g / cm^3
# Si number density = 14.504996 Si / 1000 Ang^3
#
#
#
# Elastic Constant Matrix: (Units=GPa)
#
#
# Indices 1 2 3 4 5 6 
#
# 1 100.5363 46.2840 68.1503 0.0000 0.0000 0.0000
# 2 46.2840 54.9699 32.6396 0.0000 0.0000 0.0000
# 3 68.1503 32.6396 104.0455 0.0000 0.0000 0.0000
# 4 0.0000 0.0000 0.0000 18.0782 0.0000 0.0000
# 5 0.0000 0.0000 0.0000 0.0000 25.3833 0.0000
# 6 0.0000 0.0000 0.0000 0.0000 0.0000 21.3449
#
#
#
# Elastic Compliance Matrix: (Units=1/GPa)
#
#
# Indices 1 2 3 4 5 6 
#
# 1 0.023792 -0.013247 -0.011428 0.000000 0.000000 0.000000
# 2 -0.013247 0.029731 -0.000650 0.000000 0.000000 0.000000
# 3 -0.011428 -0.000650 0.017301 0.000000 0.000000 0.000000
# 4 0.000000 0.000000 0.000000 0.055315 0.000000 0.000000
# 5 0.000000 0.000000 0.000000 0.000000 0.039396 0.000000
# 6 0.000000 0.000000 0.000000 0.000000 0.000000 0.046850
#
#
# Mechanical properties :
#
#
# Convention : Reuss Voigt Hill
#
# Bulk Modulus (GPa) = 49.56958 61.52216 55.54587
# Shear Modulus (GPa) = 18.53500 20.45980 19.49740
#
# Velocity S-wave (km/s) = 3.57856 3.75978 3.67029
# Velocity P-wave (km/s) = 7.16402 7.83291 7.50592
#
# Compressibility (1/GPa) = 0.02017366
#
# Stress axis : x y z
#
# Youngs Moduli (GPa) = 42.03113 33.63441 57.80104
#
# Poissons Ratio (x) = 0.44555 0.66056
# Poissons Ratio (y) = 0.55677 0.03758
# Poissons Ratio (z) = 0.48034 0.02187
#
# Static dielectric constant tensor:
#      x y z
#    x 1.484660 0.000000 0.000000 
#    y 0.000000 1.452840 0.000000 
#    z 0.000000 0.000000 1.465310 
# 
# From -- ./inp_files/26550.got.cif
#   From: 2010.05.17/outbox.cif.g08.bks.cpg/sg59_14_cif.got.tgz:26550.got - 2010.06.03 14:40:33.
