data_PCOD9446786
_publ_section_title
;
Structure prediction by ZEFSAII (Michael W. Deem and Ramdas Pophale) SiO2 
 PCOD9446786
Probable space group: P M M N
;
_chemical_formula_sum "Si O2"
_cell_formula_units_Z 48
_cell_length_a 21.119090
_cell_length_b 8.753703
_cell_length_c 14.620915
_cell_angle_alpha 90.000000
_cell_angle_beta 90.000000
_cell_angle_gamma 90.000000
_cell_volume 2702.972087
_symmetry_space_group_name_H-M "P M M N"
_symmetry_group_IT_number 59
_space_group.IT_coordinate_system_code '2'
_symmetry_cell_setting 'orthorhombic'
loop_
_space_group_symop_operation_xyz
x,y,z
1/2-x,1/2-y,z
1/2+x,-y,-z
-x,1/2+y,-z
-x,-y,-z
1/2+x,1/2+y,-z
1/2-x,y,z
x,1/2-y,z
loop_
_atom_site_type_symbol
_atom_site_label
_atom_site_fract_x
_atom_site_fract_y
_atom_site_fract_z
Si Si1 0.393685 0.571265 0.631254
Si Si2 0.478738 0.566928 0.282733
Si Si3 0.175940 0.065062 0.990142
Si Si4 0.449174 0.933203 0.072486
Si Si5 0.934480 0.567998 0.542130
Si Si6 0.324841 0.078743 0.785659
O O1 0.401619 0.750000 0.614897
O O2 0.455410 0.505072 0.683214
O O3 0.385192 0.486612 0.534537
O O4 0.339783 0.532669 0.703433
O O5 0.481027 0.750000 0.291593
O O6 0.466897 0.527089 0.177296
O O7 0.428703 0.501147 0.356617
O O8 0.250000 0.018879 0.005202
O O9 0.174561 0.250000 0.996036
O O10 0.121721 0.993931 0.052870
O O11 0.154678 0.025475 0.886141
O O12 0.450329 0.750000 0.064336
O O13 0.500000 0.000000 0.000000
O O14 0.938131 0.750000 0.545877
O O15 0.000000 0.500000 0.500000
O O16 0.250000 0.093854 0.794420
O O17 0.351532 0.250000 0.767883
#
# Coordination Sequence:
#
# PCOD9446786 Si02
#       6
#     8   8   8   8   8   8
#     4  11  20  30  48  74 102 130 161 200 248 299
#     4  10  20  34  49  70 101 133 166 205 251 297
#     4   9  19  36  56  76 102 138 176 214 258 310
#     4  11  23  35  52  78 108 140 173 217 264 305
#     4  10  18  30  49  71  95 126 161 197 242 297
#     4   9  18  33  51  71  97 130 166 203 246 296
#
# _framework density 17.758230000000001
#
# number of rings (size 3 to 8) (size 9 to 14) (size 15 to 20)
#    0.000    2.000    0.000    8.000    0.000    8.000 
#    0.000    1.667    0.000    1.000    0.000    4.667 
#    0.000    0.000    0.000    0.000    0.000    0.000 
#
# Total GULP energy -267584.292599 kJ/mol
# GULP energy per Si atom -5574.672762 kJ/mol
# Density = 1.771781 g / cm^3
# Si number density = 17.758230 Si / 1000 Ang^3
#
#
#
# Elastic Constant Matrix: (Units=GPa)
#
#
# Indices 1 2 3 4 5 6 
#
# 1 37.2212 13.0240 31.3532 0.0000 0.0000 0.0000
# 2 13.0240 84.4477 54.1947 0.0000 0.0000 0.0000
# 3 31.3532 54.1947 141.7652 0.0000 0.0000 0.0000
# 4 0.0000 0.0000 0.0000 30.0740 0.0000 0.0000
# 5 0.0000 0.0000 0.0000 0.0000 20.0911 0.0000
# 6 0.0000 0.0000 0.0000 0.0000 0.0000 24.5631
#
#
#
# Elastic Compliance Matrix: (Units=1/GPa)
#
#
# Indices 1 2 3 4 5 6 
#
# 1 0.033036 -0.000538 -0.007101 0.000000 0.000000 0.000000
# 2 -0.000538 0.015700 -0.005883 0.000000 0.000000 0.000000
# 3 -0.007101 -0.005883 0.010873 0.000000 0.000000 0.000000
# 4 0.000000 0.000000 0.000000 0.033251 0.000000 0.000000
# 5 0.000000 0.000000 0.000000 0.000000 0.049773 0.000000
# 6 0.000000 0.000000 0.000000 0.000000 0.000000 0.040711
#
#
# Mechanical properties :
#
#
# Convention : Reuss Voigt Hill
#
# Bulk Modulus (GPa) = 30.70694 51.17533 40.94114
# Shear Modulus (GPa) = 22.59952 25.93646 24.26799
#
# Velocity S-wave (km/s) = 3.57125 3.82584 3.70073
# Velocity P-wave (km/s) = 5.85955 6.95675 6.43159
#
# Compressibility (1/GPa) = 0.03256592
#
# Stress axis : x y z
#
# Youngs Moduli (GPa) = 30.27013 63.69430 91.96906
#
# Poissons Ratio (x) = 0.03428 0.65303
# Poissons Ratio (y) = 0.01629 0.54104
# Poissons Ratio (z) = 0.21494 0.37470
#
# Static dielectric constant tensor:
#      x y z
#    x 1.657930 0.000000 0.000000 
#    y 0.000000 1.664950 0.000000 
#    z 0.000000 0.000000 1.680440 
# 
# From -- ./inp_files/24104.got.cif
#   From: 2010.05.17/outbox.cif.g08.bks.cpg/sg59_13_cif.got.tgz:24104.got - 2010.06.03 14:40:33.
