data_PCOD9446270
_publ_section_title
;
Structure prediction by ZEFSAII (Michael W. Deem and Ramdas Pophale) SiO2 
 PCOD9446270
Probable space group: P M M N
;
_chemical_formula_sum "Si O2"
_cell_formula_units_Z 64
_cell_length_a 23.999622
_cell_length_b 8.592076
_cell_length_c 19.717307
_cell_angle_alpha 90.000000
_cell_angle_beta 90.000000
_cell_angle_gamma 90.000000
_cell_volume 4065.838368
_symmetry_space_group_name_H-M "P M M N"
_symmetry_group_IT_number 59
_space_group.IT_coordinate_system_code '2'
_symmetry_cell_setting 'orthorhombic'
loop_
_space_group_symop_operation_xyz
x,y,z
1/2-x,1/2-y,z
1/2+x,-y,-z
-x,1/2+y,-z
-x,-y,-z
1/2+x,1/2+y,-z
1/2-x,y,z
x,1/2-y,z
loop_
_atom_site_type_symbol
_atom_site_label
_atom_site_fract_x
_atom_site_fract_y
_atom_site_fract_z
Si Si1 0.313910 0.938099 0.891555
Si Si2 0.912390 0.563863 0.023948
Si Si3 0.975478 0.064045 0.602391
Si Si4 0.500573 0.437891 0.254250
Si Si5 0.313771 0.561816 0.609383
Si Si6 0.587049 0.936070 0.477423
Si Si7 0.981385 0.937983 0.896076
Si Si8 0.369708 0.939422 0.750333
O O1 0.250000 0.989306 0.898033
O O2 0.314599 0.750000 0.891218
O O3 0.339983 0.990908 0.819529
O O4 0.354290 0.996051 0.950737
O O5 0.910376 0.750000 0.026411
O O6 0.960966 0.504796 0.074397
O O7 0.933068 0.516099 0.948787
O O8 0.973315 0.250000 0.599581
O O9 0.035635 0.012939 0.571502
O O10 0.929381 0.995579 0.551840
O O11 0.972336 0.006950 0.679231
O O12 0.499338 0.250000 0.259015
O O13 0.474455 0.484381 0.182011
O O14 0.565703 0.487008 0.252711
O O15 0.250000 0.511163 0.600205
O O16 0.314726 0.750000 0.608943
O O17 0.356034 0.501804 0.552646
O O18 0.337225 0.510422 0.682856
O O19 0.588675 0.750000 0.477268
O O20 0.986186 0.750000 0.897747
O O21 0.369175 0.750000 0.751119
#
# Coordination Sequence:
#
# PCOD9446270 Si02
#       8
#     8   8   8   8   8   8   8   8
#     4  10  19  32  49  67  92 130 171 202 233 280
#     4  10  19  30  46  68  95 124 159 203 243 278
#     4  10  20  32  48  70  96 122 155 197 242 284
#     4  10  17  29  50  70  93 126 160 193 234 286
#     4  10  19  31  48  69  94 126 163 198 232 271
#     4  10  20  33  48  67  93 126 160 194 233 280
#     4   9  18  32  48  67  93 127 161 194 238 291
#     4   9  16  28  46  67  93 127 165 197 224 270
#
# _framework density 15.740912
#
# number of rings (size 3 to 8) (size 9 to 14) (size 15 to 20)
#    0.000    2.250    2.500    1.500    0.000    4.000 
#    0.000    0.625    0.000    1.500    0.000    0.875 
#    0.000    5.000    0.000    0.000    0.000    0.000 
#
# Total GULP energy -356970.643250 kJ/mol
# GULP energy per Si atom -5577.666301 kJ/mol
# Density = 1.570508 g / cm^3
# Si number density = 15.740912 Si / 1000 Ang^3
#
#
#
# Elastic Constant Matrix: (Units=GPa)
#
#
# Indices 1 2 3 4 5 6 
#
# 1 98.0553 18.6442 71.4370 0.0000 0.0000 0.0000
# 2 18.6442 11.5200 25.7883 0.0000 0.0000 0.0000
# 3 71.4370 25.7883 143.8126 0.0000 0.0000 0.0000
# 4 0.0000 0.0000 0.0000 22.7597 0.0000 0.0000
# 5 0.0000 0.0000 0.0000 0.0000 21.2052 0.0000
# 6 0.0000 0.0000 0.0000 0.0000 0.0000 20.7096
#
#
#
# Elastic Compliance Matrix: (Units=1/GPa)
#
#
# Indices 1 2 3 4 5 6 
#
# 1 0.017351 -0.014680 -0.005986 0.000000 0.000000 0.000000
# 2 -0.014680 0.157440 -0.020940 0.000000 0.000000 0.000000
# 3 -0.005986 -0.020940 0.013682 0.000000 0.000000 0.000000
# 4 0.000000 0.000000 0.000000 0.043937 0.000000 0.000000
# 5 0.000000 0.000000 0.000000 0.000000 0.047158 0.000000
# 6 0.000000 0.000000 0.000000 0.000000 0.000000 0.048287
#
#
# Mechanical properties :
#
#
# Convention : Reuss Voigt Hill
#
# Bulk Modulus (GPa) = 9.50028 53.90300 31.70164
# Shear Modulus (GPa) = 11.20689 22.10280 16.65484
#
# Velocity S-wave (km/s) = 2.67115 3.75128 3.25631
# Velocity P-wave (km/s) = 3.94486 7.28567 5.85845
#
# Compressibility (1/GPa) = 0.10526001
#
# Stress axis : x y z
#
# Youngs Moduli (GPa) = 57.63383 6.35164 73.08842
#
# Poissons Ratio (x) = 0.09324 0.43754
# Poissons Ratio (y) = 0.84607 1.53045
# Poissons Ratio (z) = 0.34502 0.13300
#
# Static dielectric constant tensor:
#      x y z
#    x 1.504470 0.000000 0.000000 
#    y 0.000000 1.537640 0.000000 
#    z 0.000000 0.000000 1.527780 
# 
# From -- ./inp_files/31090.got.cif
#   From: 2010.05.17/outbox.cif.g08.bks.cpg/sg59_16_cif.got.tgz:31090.got - 2010.06.03 14:40:33.
