data_PCOD9446763
_publ_section_title
;
Structure prediction by ZEFSAII (Michael W. Deem and Ramdas Pophale) SiO2 
 PCOD9446763
Probable space group: P M M N
;
_chemical_formula_sum "Si O2"
_cell_formula_units_Z 48
_cell_length_a 8.541733
_cell_length_b 21.615829
_cell_length_c 14.628556
_cell_angle_alpha 90.000000
_cell_angle_beta 90.000000
_cell_angle_gamma 90.000000
_cell_volume 2700.967426
_symmetry_space_group_name_H-M "P M M N"
_symmetry_group_IT_number 59
_space_group.IT_coordinate_system_code '2'
_symmetry_cell_setting 'orthorhombic'
loop_
_space_group_symop_operation_xyz
x,y,z
1/2-x,1/2-y,z
1/2+x,-y,-z
-x,1/2+y,-z
-x,-y,-z
1/2+x,1/2+y,-z
1/2-x,y,z
x,1/2-y,z
loop_
_atom_site_type_symbol
_atom_site_label
_atom_site_fract_x
_atom_site_fract_y
_atom_site_fract_z
Si Si1 0.436803 0.480086 0.778409
Si Si2 0.563055 0.606175 0.867953
Si Si3 0.939317 0.048658 0.576450
Si Si4 0.935700 0.063871 0.954991
Si Si5 0.564260 0.320903 0.498851
Si Si6 0.926469 0.676684 0.693517
O O1 0.250000 0.485984 0.777318
O O2 0.513143 0.542558 0.818371
O O3 0.500393 0.468497 0.677243
O O4 0.487051 0.429957 0.855467
O O5 0.750000 0.606760 0.881479
O O6 0.516469 0.656002 0.792263
O O7 0.482577 0.612092 0.966355
O O8 0.750000 0.047157 0.574667
O O9 0.993152 0.119520 0.555322
O O10 0.000000 0.000000 0.500000
O O11 0.750000 0.059728 0.945418
O O12 0.000000 0.000000 0.000000
O O13 0.750000 0.317227 0.512747
O O14 0.501960 0.250000 0.514819
O O15 0.530209 0.339179 0.393643
O O16 0.750000 0.650644 0.680398
O O17 0.915856 0.750000 0.693401
#
# Coordination Sequence:
#
# PCOD9446763 Si02
#       6
#     8   8   8   8   8   8
#     4  11  21  33  49  71 100 130 163 201 245 294
#     4  10  18  30  49  72 100 130 161 198 243 292
#     4  11  22  35  52  76 105 133 166 209 255 299
#     4  10  18  30  48  70  96 125 159 195 238 292
#     4   9  19  35  53  72  97 132 170 206 246 295
#     4   9  18  31  48  71  98 128 161 198 240 288
#
# _framework density 17.771409999999999
#
# number of rings (size 3 to 8) (size 9 to 14) (size 15 to 20)
#    0.000    2.000    0.000    7.000    0.000    5.333 
#    0.000    0.000    0.000    1.000    0.000    0.000 
#    0.000    0.000    0.000    0.000    0.000    0.000 
#
# Total GULP energy -267408.519792 kJ/mol
# GULP energy per Si atom -5571.010829 kJ/mol
# Density = 1.773096 g / cm^3
# Si number density = 17.771410 Si / 1000 Ang^3
#
#
#
# Elastic Constant Matrix: (Units=GPa)
#
#
# Indices 1 2 3 4 5 6 
#
# 1 41.3644 6.6037 19.7204 0.0000 0.0000 0.0000
# 2 6.6037 33.9847 28.3790 0.0000 0.0000 0.0000
# 3 19.7204 28.3790 138.0175 0.0000 0.0000 0.0000
# 4 0.0000 0.0000 0.0000 27.6806 0.0000 0.0000
# 5 0.0000 0.0000 0.0000 0.0000 31.6936 0.0000
# 6 0.0000 0.0000 0.0000 0.0000 0.0000 15.1378
#
#
#
# Elastic Compliance Matrix: (Units=1/GPa)
#
#
# Indices 1 2 3 4 5 6 
#
# 1 0.026099 -0.002363 -0.003243 0.000000 0.000000 0.000000
# 2 -0.002363 0.035739 -0.007011 0.000000 0.000000 0.000000
# 3 -0.003243 -0.007011 0.009150 0.000000 0.000000 0.000000
# 4 0.000000 0.000000 0.000000 0.036126 0.000000 0.000000
# 5 0.000000 0.000000 0.000000 0.000000 0.031552 0.000000
# 6 0.000000 0.000000 0.000000 0.000000 0.000000 0.066060
#
#
# Mechanical properties :
#
#
# Convention : Reuss Voigt Hill
#
# Bulk Modulus (GPa) = 21.85623 35.86363 28.85993
# Shear Modulus (GPa) = 20.39054 25.47997 22.93526
#
# Velocity S-wave (km/s) = 3.39097 3.79061 3.59635
# Velocity P-wave (km/s) = 5.25898 6.27556 5.78962
#
# Compressibility (1/GPa) = 0.04575354
#
# Stress axis : x y z
#
# Youngs Moduli (GPa) = 38.31588 27.98089 109.28448
#
# Poissons Ratio (x) = 0.06612 0.35443
# Poissons Ratio (y) = 0.09054 0.76618
# Poissons Ratio (z) = 0.12427 0.19617
#
# Static dielectric constant tensor:
#      x y z
#    x 1.607480 0.000000 0.000000 
#    y 0.000000 1.672510 0.000000 
#    z 0.000000 0.000000 1.653140 
# 
# From -- ./inp_files/20691.got.cif
#   From: 2010.05.17/outbox.cif.g08.bks.cpg/sg59_11_cif.got.tgz:20691.got - 2010.06.03 14:40:33.
