data_PCOD9446341
_publ_section_title
;
Structure prediction by ZEFSAII (Michael W. Deem and Ramdas Pophale) SiO2 
 PCOD9446341
Probable space group: P M M N
;
_chemical_formula_sum "Si O2"
_cell_formula_units_Z 48
_cell_length_a 7.423383
_cell_length_b 23.182259
_cell_length_c 14.556171
_cell_angle_alpha 90.000000
_cell_angle_beta 90.000000
_cell_angle_gamma 90.000000
_cell_volume 2504.982928
_symmetry_space_group_name_H-M "P M M N"
_symmetry_group_IT_number 59
_space_group.IT_coordinate_system_code '2'
_symmetry_cell_setting 'orthorhombic'
loop_
_space_group_symop_operation_xyz
x,y,z
1/2-x,1/2-y,z
1/2+x,-y,-z
-x,1/2+y,-z
-x,-y,-z
1/2+x,1/2+y,-z
1/2-x,y,z
x,1/2-y,z
loop_
_atom_site_type_symbol
_atom_site_label
_atom_site_fract_x
_atom_site_fract_y
_atom_site_fract_z
Si Si1 0.033659 0.983379 0.106863
Si Si2 0.966737 0.750000 0.477264
Si Si3 0.456087 0.642755 0.155659
Si Si4 0.959339 0.250000 0.734696
Si Si5 0.032245 0.314247 0.044122
Si Si6 0.530068 0.597803 0.797465
Si Si7 0.968373 0.813323 0.649732
O O1 0.250000 0.981069 0.113178
O O2 0.969620 0.034006 0.174893
O O3 0.963054 0.920681 0.137484
O O4 0.000000 0.000000 0.000000
O O5 0.750000 0.750000 0.471259
O O6 0.019916 0.804109 0.542921
O O7 0.035875 0.750000 0.374937
O O8 0.250000 0.633016 0.186907
O O9 0.457700 0.671875 0.055670
O O10 0.538165 0.690731 0.223593
O O11 0.750000 0.250000 0.765183
O O12 0.250000 0.316540 0.037685
O O13 0.981500 0.250000 0.072668
O O14 0.976984 0.361311 0.117934
O O15 0.750000 0.596364 0.794326
O O16 0.467930 0.631556 0.706193
O O17 0.750000 0.815274 0.652466
O O18 0.017784 0.750000 0.691578
#
# Coordination Sequence:
#
# PCOD9446341 Si02
#       7
#     8   4   8   4   8   8   8
#     4  10  19  30  45  65  92 127 163 187 213 260
#     4   8  16  30  51  74  88 104 141 194 243 280
#     4  10  20  32  44  62  90 127 162 184 215 269
#     4  10  20  34  49  62  86 124 155 188 231 270
#     4  10  18  26  42  69  94 118 151 189 224 260
#     4   9  15  25  43  67  95 122 145 180 227 267
#     4   7  12  24  44  71  94 108 133 181 234 279
#
# _framework density 19.161805999999999
#
# number of rings (size 3 to 8) (size 9 to 14) (size 15 to 20)
#    0.500    2.333    2.500    0.500    0.000    2.667 
#    0.000    0.000    0.000    3.000    0.000    0.000 
#    0.000    0.000    0.000    0.000    0.000    0.000 
#
# Total GULP energy -267243.787026 kJ/mol
# GULP energy per Si atom -5567.578896 kJ/mol
# Density = 1.911819 g / cm^3
# Si number density = 19.161806 Si / 1000 Ang^3
#
#
#
# Elastic Constant Matrix: (Units=GPa)
#
#
# Indices 1 2 3 4 5 6 
#
# 1 59.7665 10.9254 -0.2079 0.0000 0.0000 0.0000
# 2 10.9254 172.9725 76.9353 0.0000 0.0000 0.0000
# 3 -0.2079 76.9353 122.2099 0.0000 0.0000 0.0000
# 4 0.0000 0.0000 0.0000 5.4477 0.0000 0.0000
# 5 0.0000 0.0000 0.0000 0.0000 25.0084 0.0000
# 6 0.0000 0.0000 0.0000 0.0000 0.0000 -4.6898
#
#
#
# Elastic Compliance Matrix: (Units=1/GPa)
#
#
# Indices 1 2 3 4 5 6 
#
# 1 0.017011 -0.001510 0.000980 0.000000 0.000000 0.000000
# 2 -0.001510 0.008164 -0.005142 0.000000 0.000000 0.000000
# 3 0.000980 -0.005142 0.011421 0.000000 0.000000 0.000000
# 4 0.000000 0.000000 0.000000 0.183563 0.000000 0.000000
# 5 0.000000 0.000000 0.000000 0.000000 0.039987 0.000000
# 6 0.000000 0.000000 0.000000 0.000000 0.000000 -0.213229
#
#
# Mechanical properties :
#
#
# Convention : Reuss Voigt Hill
#
# Bulk Modulus (GPa) = 39.60179 58.91717 49.25948
# Shear Modulus (GPa) = 74.98701 22.97301 48.98001
#
# Velocity S-wave (km/s) = 6.26247 3.46626 5.06130
# Velocity P-wave (km/s) = 8.54420 6.84353 7.74071
#
# Compressibility (1/GPa) = 0.02525139
#
# Stress axis : x y z
#
# Youngs Moduli (GPa) = 58.78461 122.49378 87.55571
#
# Poissons Ratio (x) = 0.18499 -0.08578
# Poissons Ratio (y) = 0.08878 0.45020
# Poissons Ratio (z) = -0.05759 0.62985
#
# Static dielectric constant tensor:
#      x y z
#    x 1.740500 0.000000 0.000000 
#    y 0.000000 1.700470 0.000000 
#    z 0.000000 0.000000 1.636230 
# 
# From -- ./inp_files/15974.got.cif
#   From: 2010.05.17/outbox.cif.g08.bks.cpg/sg59_8_cif.got.tgz:15974.got - 2010.06.03 14:40:33.
