data_PCOD9446543
_publ_section_title
;
Structure prediction by ZEFSAII (Michael W. Deem and Ramdas Pophale) SiO2 
 PCOD9446543
Probable space group: P M M N
;
_chemical_formula_sum "Si O2"
_cell_formula_units_Z 40
_cell_length_a 27.061578
_cell_length_b 7.647604
_cell_length_c 9.445040
_cell_angle_alpha 90.000000
_cell_angle_beta 90.000000
_cell_angle_gamma 90.000000
_cell_volume 1954.709891
_symmetry_space_group_name_H-M "P M M N"
_symmetry_group_IT_number 59
_space_group.IT_coordinate_system_code '2'
_symmetry_cell_setting 'orthorhombic'
loop_
_space_group_symop_operation_xyz
x,y,z
1/2-x,1/2-y,z
1/2+x,-y,-z
-x,1/2+y,-z
-x,-y,-z
1/2+x,1/2+y,-z
1/2-x,y,z
x,1/2-y,z
loop_
_atom_site_type_symbol
_atom_site_label
_atom_site_fract_x
_atom_site_fract_y
_atom_site_fract_z
Si Si1 0.357042 0.039551 0.413176
Si Si2 0.250000 0.548242 0.384110
Si Si3 0.643062 0.535083 0.914336
Si Si4 0.250000 0.447968 0.064046
Si Si5 0.548945 0.539548 0.410957
Si Si6 0.951458 0.539926 0.090050
O O1 0.359338 0.250000 0.411810
O O2 0.362939 0.980663 0.249663
O O3 0.401856 0.974216 0.509445
O O4 0.301643 0.990162 0.460570
O O5 0.250000 0.750000 0.342280
O O6 0.250000 0.442163 0.236570
O O7 0.644338 0.750000 0.914232
O O8 0.696609 0.473399 0.970087
O O9 0.597294 0.476506 0.008464
O O10 0.250000 0.250000 0.008002
O O11 0.500000 0.500000 0.500000
O O12 0.553005 0.750000 0.404260
O O13 0.544908 0.473008 0.250435
O O14 0.947279 0.750000 0.097076
O O15 0.000000 0.500000 0.000000
#
# Coordination Sequence:
#
# PCOD9446543 Si02
#       6
#     8   4   8   4   8   8
#     4   9  17  32  51  71  98 135 170 202 245 301
#     4  10  18  28  47  76 102 126 162 210 251 290
#     4   8  14  27  49  71  94 124 161 199 238 287
#     4   8  14  28  49  70  94 130 164 194 241 300
#     4  10  21  35  53  76 103 135 173 213 256 304
#     4  10  20  34  51  75 102 130 166 208 253 303
#
# _framework density 20.463395999999999
#
# number of rings (size 3 to 8) (size 9 to 14) (size 15 to 20)
#    0.000    2.800    0.000    3.300    0.000    3.200 
#    0.000    7.000    0.000    4.800    0.000    5.600 
#    0.000    0.000    0.000    0.000    0.000    0.000 
#
# Total GULP energy -223109.566615 kJ/mol
# GULP energy per Si atom -5577.739165 kJ/mol
# Density = 2.041682 g / cm^3
# Si number density = 20.463396 Si / 1000 Ang^3
#
#
#
# Elastic Constant Matrix: (Units=GPa)
#
#
# Indices 1 2 3 4 5 6 
#
# 1 254.1270 1.2952 117.4637 0.0000 0.0000 0.0000
# 2 1.2952 45.6097 7.1073 0.0000 0.0000 0.0000
# 3 117.4637 7.1073 130.8837 0.0000 0.0000 0.0000
# 4 0.0000 0.0000 0.0000 8.0957 0.0000 0.0000
# 5 0.0000 0.0000 0.0000 0.0000 36.6193 0.0000
# 6 0.0000 0.0000 0.0000 0.0000 0.0000 21.6233
#
#
#
# Elastic Compliance Matrix: (Units=1/GPa)
#
#
# Indices 1 2 3 4 5 6 
#
# 1 0.006751 0.000759 -0.006100 0.000000 0.000000 0.000000
# 2 0.000759 0.022198 -0.001886 0.000000 0.000000 0.000000
# 3 -0.006100 -0.001886 0.013217 0.000000 0.000000 0.000000
# 4 0.000000 0.000000 0.000000 0.123522 0.000000 0.000000
# 5 0.000000 0.000000 0.000000 0.000000 0.027308 0.000000
# 6 0.000000 0.000000 0.000000 0.000000 0.000000 0.046246
#
#
# Mechanical properties :
#
#
# Convention : Reuss Voigt Hill
#
# Bulk Modulus (GPa) = 36.08707 75.81698 55.95203
# Shear Modulus (GPa) = 19.01629 33.58461 26.30045
#
# Velocity S-wave (km/s) = 3.05172 4.05557 3.58892
# Velocity P-wave (km/s) = 5.48549 7.68510 6.67650
#
# Compressibility (1/GPa) = 0.02771076
#
# Stress axis : x y z
#
# Youngs Moduli (GPa) = 148.13586 45.04999 75.66014
#
# Poissons Ratio (x) = -0.03418 0.46150
# Poissons Ratio (y) = -0.11240 0.14272
# Poissons Ratio (z) = 0.90357 0.08498
#
# Static dielectric constant tensor:
#      x y z
#    x 1.738060 0.000000 0.000000 
#    y 0.000000 1.795030 0.000000 
#    z 0.000000 0.000000 1.704010 
# 
# From -- ./inp_files/12422.got.cif
#   From: 2010.05.17/outbox.cif.g08.bks.cpg/sg59_7_cif.got.tgz:12422.got - 2010.06.03 14:40:33.
