data_PCOD9446514
_publ_section_title
;
Structure prediction by ZEFSAII (Michael W. Deem and Ramdas Pophale) SiO2 
 PCOD9446514
Probable space group: P M M N
;
_chemical_formula_sum "Si O2"
_cell_formula_units_Z 64
_cell_length_a 17.353430
_cell_length_b 7.381352
_cell_length_c 22.299494
_cell_angle_alpha 90.000000
_cell_angle_beta 90.000000
_cell_angle_gamma 90.000000
_cell_volume 2856.381773
_symmetry_space_group_name_H-M "P M M N"
_symmetry_group_IT_number 59
_space_group.IT_coordinate_system_code '2'
_symmetry_cell_setting 'orthorhombic'
loop_
_space_group_symop_operation_xyz
x,y,z
1/2-x,1/2-y,z
1/2+x,-y,-z
-x,1/2+y,-z
-x,-y,-z
1/2+x,1/2+y,-z
1/2-x,y,z
x,1/2-y,z
loop_
_atom_site_type_symbol
_atom_site_label
_atom_site_fract_x
_atom_site_fract_y
_atom_site_fract_z
Si Si1 0.008211 0.966437 0.429918
Si Si2 0.587183 0.547820 0.321782
Si Si3 0.835890 0.030869 0.632050
Si Si4 0.559685 0.970205 0.088492
Si Si5 0.434217 0.459296 0.257399
Si Si6 0.831914 0.527693 0.843284
Si Si7 0.110151 0.459534 0.037330
Si Si8 0.161796 0.471254 0.798277
O O1 0.007153 0.750000 0.420642
O O2 0.092418 0.032141 0.408651
O O3 0.940255 0.036515 0.385387
O O4 0.000000 0.000000 0.500000
O O5 0.617860 0.750000 0.334261
O O6 0.505008 0.558373 0.287603
O O7 0.640406 0.466084 0.269376
O O8 0.750000 0.968854 0.616233
O O9 0.835305 0.250000 0.630561
O O10 0.861534 0.971363 0.698140
O O11 0.557321 0.750000 0.089056
O O12 0.600009 0.028371 0.150631
O O13 0.474266 0.032367 0.069151
O O14 0.607828 0.032572 0.029786
O O15 0.457324 0.250000 0.251386
O O16 0.404560 0.534557 0.194954
O O17 0.750000 0.474964 0.816494
O O18 0.835391 0.750000 0.842446
O O19 0.836746 0.462827 0.911147
O O20 0.131864 0.250000 0.030334
O O21 0.250000 0.520569 0.813350
O O22 0.158038 0.250000 0.796859
#
# Coordination Sequence:
#
# PCOD9446514 Si02
#       8
#     8   8   8   8   8   8   8   8
#     4   9  18  32  50  72  96 124 156 187 225 276
#     4   9  18  33  51  70  94 124 156 190 233 284
#     4   9  18  33  51  71  97 127 158 193 235 281
#     4   9  17  29  47  69  89 113 152 199 238 275
#     4  10  18  28  46  70  94 122 157 194 230 272
#     4   9  17  27  39  60  91 121 147 180 223 268
#     4   9  17  29  45  64  88 121 156 189 232 285
#     4   9  17  30  50  74  96 120 157 206 250 284
#
# _framework density 22.405968000000001
#
# number of rings (size 3 to 8) (size 9 to 14) (size 15 to 20)
#    0.000    2.875    0.000    2.250    0.000    3.250 
#    0.000    3.750    0.000    4.125    0.000    3.500 
#    0.000    0.000    0.000    0.000    0.000    0.000 
#
# Total GULP energy -356732.594932 kJ/mol
# GULP energy per Si atom -5573.946796 kJ/mol
# Density = 2.235497 g / cm^3
# Si number density = 22.405968 Si / 1000 Ang^3
#
#
#
# Elastic Constant Matrix: (Units=GPa)
#
#
# Indices 1 2 3 4 5 6 
#
# 1 51.5574 -7.8389 20.5678 0.0000 0.0000 0.0000
# 2 -7.8389 85.4505 -5.7758 0.0000 0.0000 0.0000
# 3 20.5678 -5.7758 134.0608 0.0000 0.0000 0.0000
# 4 0.0000 0.0000 0.0000 -11.7741 0.0000 0.0000
# 5 0.0000 0.0000 0.0000 0.0000 26.7998 0.0000
# 6 0.0000 0.0000 0.0000 0.0000 0.0000 3.2582
#
#
#
# Elastic Compliance Matrix: (Units=1/GPa)
#
#
# Indices 1 2 3 4 5 6 
#
# 1 0.020905 0.001706 -0.003134 0.000000 0.000000 0.000000
# 2 0.001706 0.011876 0.000250 0.000000 0.000000 0.000000
# 3 -0.003134 0.000250 0.007951 0.000000 0.000000 0.000000
# 4 0.000000 0.000000 0.000000 -0.084932 0.000000 0.000000
# 5 0.000000 0.000000 0.000000 0.000000 0.037314 0.000000
# 6 0.000000 0.000000 0.000000 0.000000 0.000000 0.306916
#
#
# Mechanical properties :
#
#
# Convention : Reuss Voigt Hill
#
# Bulk Modulus (GPa) = 26.05763 31.66386 28.86075
# Shear Modulus (GPa) = 15.86403 21.26449 18.56426
#
# Velocity S-wave (km/s) = 2.66376 3.08402 2.88156
# Velocity P-wave (km/s) = 4.59520 5.18113 4.89694
#
# Compressibility (1/GPa) = 0.03837647
#
# Stress axis : x y z
#
# Youngs Moduli (GPa) = 47.83449 84.20289 125.77237
#
# Poissons Ratio (x) = -0.14365 0.39415
# Poissons Ratio (y) = -0.08160 -0.03143
# Poissons Ratio (z) = 0.14991 -0.02105
#
# Static dielectric constant tensor:
#      x y z
#    x 1.841610 0.000000 0.000000 
#    y 0.000000 1.866920 0.000000 
#    z 0.000000 0.000000 1.859050 
# 
# From -- ./inp_files/30649.got.cif
#   From: 2010.05.17/outbox.cif.g08.bks.cpg/sg59_16_cif.got.tgz:30649.got - 2010.06.03 14:40:33.
