data_PCOD9446516
_publ_section_title
;
Structure prediction by ZEFSAII (Michael W. Deem and Ramdas Pophale) SiO2 
 PCOD9446516
Probable space group: P M M N
;
_chemical_formula_sum "Si O2"
_cell_formula_units_Z 64
_cell_length_a 13.912996
_cell_length_b 13.873808
_cell_length_c 18.711981
_cell_angle_alpha 90.000000
_cell_angle_beta 90.000000
_cell_angle_gamma 90.000000
_cell_volume 3611.903246
_symmetry_space_group_name_H-M "P M M N"
_symmetry_group_IT_number 59
_space_group.IT_coordinate_system_code '2'
_symmetry_cell_setting 'orthorhombic'
loop_
_space_group_symop_operation_xyz
x,y,z
1/2-x,1/2-y,z
1/2+x,-y,-z
-x,1/2+y,-z
-x,-y,-z
1/2+x,1/2+y,-z
1/2-x,y,z
x,1/2-y,z
loop_
_atom_site_type_symbol
_atom_site_label
_atom_site_fract_x
_atom_site_fract_y
_atom_site_fract_z
Si Si1 0.977234 0.865988 0.066061
Si Si2 0.955465 0.864634 0.510993
Si Si3 0.864972 0.956443 0.651017
Si Si4 0.865212 0.524370 0.942737
Si Si5 0.861118 0.867159 0.208339
Si Si6 0.359589 0.638694 0.429205
Si Si7 0.866654 0.639203 0.798556
Si Si8 0.634680 0.862528 0.364501
O O1 0.986221 0.750000 0.060103
O O2 0.930931 0.890490 0.143240
O O3 0.904733 0.908757 0.006701
O O4 0.076854 0.923719 0.056156
O O5 0.937510 0.750000 0.515837
O O6 0.916316 0.909597 0.582985
O O7 0.904712 0.903055 0.438649
O O8 0.067145 0.880462 0.493380
O O9 0.750000 0.937735 0.645702
O O10 0.898595 0.913312 0.725888
O O11 0.879479 0.070123 0.638102
O O12 0.750000 0.512721 0.946843
O O13 0.890929 0.579186 0.869034
O O14 0.750000 0.897275 0.194916
O O15 0.858692 0.750000 0.212930
O O16 0.892655 0.903686 0.286880
O O17 0.250000 0.621536 0.451620
O O18 0.370609 0.750000 0.408908
O O19 0.750000 0.641931 0.796339
O O20 0.900373 0.750000 0.801585
O O21 0.750000 0.864576 0.366668
O O22 0.604112 0.750000 0.364660
#
# Coordination Sequence:
#
# PCOD9446516 Si02
#       8
#     8   8   8   8   8   8   8   8
#     4  10  20  34  55  81 105 135 178 221 259 308
#     4  10  18  28  46  70  95 126 164 209 262 311
#     4  10  19  31  49  73  98 125 165 212 252 298
#     4  10  21  36  54  79 110 142 175 212 260 315
#     4   8  14  26  45  69  97 129 165 207 257 312
#     4   9  19  34  47  61  88 128 171 211 253 307
#     4   9  18  33  52  74 102 134 166 204 250 299
#     4   8  14  24  39  64  97 125 150 192 255 315
#
# _framework density 17.719190000000001
#
# number of rings (size 3 to 8) (size 9 to 14) (size 15 to 20)
#    0.000    2.750    0.000    2.625    0.000    3.750 
#    0.000    1.875    0.000    2.250    0.000    3.500 
#    0.000    8.000    0.000    0.000    0.000    0.000 
#
# Total GULP energy -356628.770203 kJ/mol
# GULP energy per Si atom -5572.324534 kJ/mol
# Density = 1.767886 g / cm^3
# Si number density = 17.719190 Si / 1000 Ang^3
#
#
#
# Elastic Constant Matrix: (Units=GPa)
#
#
# Indices 1 2 3 4 5 6 
#
# 1 66.2199 28.7407 46.3094 0.0000 0.0000 0.0000
# 2 28.7407 72.5759 43.5587 0.0000 0.0000 0.0000
# 3 46.3094 43.5587 139.5236 0.0000 0.0000 0.0000
# 4 0.0000 0.0000 0.0000 21.8603 0.0000 0.0000
# 5 0.0000 0.0000 0.0000 0.0000 9.5771 0.0000
# 6 0.0000 0.0000 0.0000 0.0000 0.0000 8.9440
#
#
#
# Elastic Compliance Matrix: (Units=1/GPa)
#
#
# Indices 1 2 3 4 5 6 
#
# 1 0.021101 -0.005110 -0.005408 0.000000 0.000000 0.000000
# 2 -0.005110 0.018193 -0.003984 0.000000 0.000000 0.000000
# 3 -0.005408 -0.003984 0.010206 0.000000 0.000000 0.000000
# 4 0.000000 0.000000 0.000000 0.045745 0.000000 0.000000
# 5 0.000000 0.000000 0.000000 0.000000 0.104416 0.000000
# 6 0.000000 0.000000 0.000000 0.000000 0.000000 0.111807
#
#
# Mechanical properties :
#
#
# Convention : Reuss Voigt Hill
#
# Bulk Modulus (GPa) = 48.79009 57.28191 53.03600
# Shear Modulus (GPa) = 14.39656 18.72365 16.56010
#
# Velocity S-wave (km/s) = 2.85350 3.25420 3.06042
# Velocity P-wave (km/s) = 6.20093 6.82038 6.51802
#
# Compressibility (1/GPa) = 0.02049597
#
# Stress axis : x y z
#
# Youngs Moduli (GPa) = 47.39022 54.96504 97.98121
#
# Poissons Ratio (x) = 0.28089 0.52992
# Poissons Ratio (y) = 0.24218 0.39033
# Poissons Ratio (z) = 0.25630 0.21897
#
# Static dielectric constant tensor:
#      x y z
#    x 1.618950 0.000000 0.000000 
#    y 0.000000 1.625820 0.000000 
#    z 0.000000 0.000000 1.602840 
# 
# From -- ./inp_files/27747.got.cif
#   From: 2010.05.17/outbox.cif.g08.bks.cpg/sg59_14_cif.got.tgz:27747.got - 2010.06.03 14:40:33.
