data_PCOD9446082
_publ_section_title
;
Structure prediction by ZEFSAII (Michael W. Deem and Ramdas Pophale) SiO2 
 PCOD9446082
Probable space group: P N N M
;
_chemical_formula_sum "Si O2"
_cell_formula_units_Z 48
_cell_length_a 15.000000
_cell_length_b 9.000000
_cell_length_c 18.000000
_cell_angle_alpha 90.000000
_cell_angle_beta 90.000000
_cell_angle_gamma 90.000000
_cell_volume 2430.000000
_symmetry_space_group_name_H-M "P N N M"
_symmetry_group_IT_number 58
_symmetry_cell_setting 'orthorhombic'
loop_
_space_group_symop_operation_xyz
x,y,z
-x,-y,z
1/2+x,1/2-y,1/2-z
1/2-x,1/2+y,1/2-z
-x,-y,-z
x,y,-z
1/2-x,1/2+y,1/2+z
1/2+x,1/2-y,1/2+z
loop_
_atom_site_type_symbol
_atom_site_label
_atom_site_fract_x
_atom_site_fract_y
_atom_site_fract_z
Si Si1 0.798571 0.354138 0.638338
Si Si2 0.864320 0.644321 0.911827
Si Si3 0.761069 0.171886 0.913890
Si Si4 0.746049 0.931969 0.691879
Si Si5 0.466149 0.332343 0.641732
Si Si6 0.574568 0.622790 0.188425
O O1 0.715537 0.262419 0.603486
O O2 0.788042 0.515741 0.601570
O O3 0.783423 0.380053 0.726705
O O4 0.890379 0.257297 0.635240
O O5 0.832691 0.512748 0.855715
O O6 0.959711 0.717871 0.890039
O O7 0.865127 0.604089 0.000000
O O8 0.722855 0.293882 0.857798
O O9 0.867089 0.170936 0.893450
O O10 0.751637 0.212445 0.000000
O O11 0.831727 0.037190 0.702169
O O12 0.500000 0.500000 0.627812
O O13 0.458290 0.316453 0.731369
O O14 0.500000 0.500000 0.163676
#
# Coordination Sequence:
#
# PCOD9446082 Si02
#       6
#     8   8   8   8   8   8
#     4  11  20  39  64  88 124 171 223 261 313 384
#     4  11  23  38  62  94 134 172 207 261 332 398
#     4  12  23  37  62  95 131 168 207 268 330 385
#     4  11  22  42  60  90 131 176 217 259 318 393
#     4  11  20  36  61  96 133 164 206 253 320 400
#     4  10  21  40  66  91 119 165 222 271 313 373
#
# _framework density 19.753086
#
# number of rings (size 3 to 8) (size 9 to 14) (size 15 to 20)
#    0.000    1.000    5.000    3.500    0.000    1.333 
#    0.000    4.167    0.000   19.000    0.000    0.000 
#    0.000    0.000    0.000    0.000    0.000    0.000 
#
# Total GULP energy -268091.683406 kJ/mol
# GULP energy per Si atom -5585.243404 kJ/mol
# Density = 1.970813 g / cm^3
# Si number density = 19.753086 Si / 1000 Ang^3
#
#
#
# Elastic Constant Matrix: (Units=GPa)
#
#
# Indices 1 2 3 4 5 6 
#
# 1 86.9574 14.7458 17.4056 0.0000 0.0000 0.0000
# 2 14.7458 53.3784 -5.9564 0.0000 0.0000 0.0000
# 3 17.4056 -5.9564 82.5152 0.0000 0.0000 0.0000
# 4 0.0000 0.0000 0.0000 30.0050 0.0000 0.0000
# 5 0.0000 0.0000 0.0000 0.0000 25.3704 0.0000
# 6 0.0000 0.0000 0.0000 0.0000 0.0000 46.1331
#
#
#
# Elastic Compliance Matrix: (Units=1/GPa)
#
#
# Indices 1 2 3 4 5 6 
#
# 1 0.012747 -0.003852 -0.002967 0.000000 0.000000 0.000000
# 2 -0.003852 0.020051 0.002260 0.000000 0.000000 0.000000
# 3 -0.002967 0.002260 0.012908 0.000000 0.000000 0.000000
# 4 0.000000 0.000000 0.000000 0.033328 0.000000 0.000000
# 5 0.000000 0.000000 0.000000 0.000000 0.039416 0.000000
# 6 0.000000 0.000000 0.000000 0.000000 0.000000 0.021676
#
#
# Mechanical properties :
#
#
# Convention : Reuss Voigt Hill
#
# Bulk Modulus (GPa) = 27.33225 30.58234 28.95730
# Shear Modulus (GPa) = 30.97124 33.41211 32.19167
#
# Velocity S-wave (km/s) = 3.96399 4.11723 4.04134
# Velocity P-wave (km/s) = 5.90067 6.17398 6.03887
#
# Compressibility (1/GPa) = 0.03658681
#
# Stress axis : x y z
#
# Youngs Moduli (GPa) = 78.44967 49.87383 77.47159
#
# Poissons Ratio (x) = 0.19214 0.22985
# Poissons Ratio (y) = 0.30222 -0.17508
# Poissons Ratio (z) = 0.23275 -0.11271
#
# Static dielectric constant tensor:
#      x y z
#    x 1.675890 0.000000 0.000000 
#    y 0.000000 1.778220 0.000000 
#    z 0.000000 0.000000 1.663090 
# 
# From -- ./inp_files/25260.got.cif
#   From: 2010.05.17/outbox.ucp.g08.bks.cvg/sg58_13_cif.got.tgz:25260.got - 2010.06.11 16:41:41.
