data_PCOD9446508
_publ_section_title
;
Structure prediction by ZEFSAII (Michael W. Deem and Ramdas Pophale) SiO2 
 PCOD9446508
Probable space group: P M M N
;
_chemical_formula_sum "Si O2"
_cell_formula_units_Z 56
_cell_length_a 14.637513
_cell_length_b 7.350676
_cell_length_c 23.748265
_cell_angle_alpha 90.000000
_cell_angle_beta 90.000000
_cell_angle_gamma 90.000000
_cell_volume 2555.209190
_symmetry_space_group_name_H-M "P M M N"
_symmetry_group_IT_number 59
_space_group.IT_coordinate_system_code '2'
_symmetry_cell_setting 'orthorhombic'
loop_
_space_group_symop_operation_xyz
x,y,z
1/2-x,1/2-y,z
1/2+x,-y,-z
-x,1/2+y,-z
-x,-y,-z
1/2+x,1/2+y,-z
1/2-x,y,z
x,1/2-y,z
loop_
_atom_site_type_symbol
_atom_site_label
_atom_site_fract_x
_atom_site_fract_y
_atom_site_fract_z
Si Si1 0.021937 0.957897 0.350375
Si Si2 0.893647 0.035652 0.987625
Si Si3 0.151927 0.041857 0.889196
Si Si4 0.645282 0.527669 0.416415
Si Si5 0.643703 0.969382 0.543061
Si Si6 0.854767 0.472402 0.751132
Si Si7 0.945727 0.472527 0.868647
O O1 0.002651 0.750000 0.333320
O O2 0.081747 0.037357 0.300072
O O3 0.925734 0.038817 0.370018
O O4 0.082510 0.957263 0.406940
O O5 0.872946 0.250000 0.988575
O O6 0.886457 0.969972 0.923325
O O7 0.847149 0.955383 0.042600
O O8 0.000000 0.000000 0.000000
O O9 0.250000 0.960731 0.871054
O O10 0.151014 0.250000 0.868846
O O11 0.051970 0.964802 0.872862
O O12 0.750000 0.473851 0.407233
O O13 0.643254 0.750000 0.416486
O O14 0.617327 0.472180 0.479850
O O15 0.750000 0.019098 0.551306
O O16 0.638184 0.750000 0.544989
O O17 0.750000 0.531747 0.745310
O O18 0.853155 0.250000 0.749647
O O19 0.898494 0.524754 0.810694
O O20 0.948724 0.250000 0.871725
#
# Coordination Sequence:
#
# PCOD9446508 Si02
#       7
#     8   8   8   8   8   8   8
#     4  10  18  28  46  69  90 114 148 190 227 258
#     4   9  16  27  45  67  90 117 150 185 221 264
#     4   9  17  29  45  66  92 118 145 184 230 270
#     4   8  15  28  44  64  91 119 145 177 222 272
#     4   9  17  29  45  64  89 121 149 175 218 274
#     4   9  17  28  42  63  90 115 142 182 226 261
#     4   8  15  28  43  60  86 119 148 174 214 268
#
# _framework density 21.916013
#
# number of rings (size 3 to 8) (size 9 to 14) (size 15 to 20)
#    0.000    3.143    0.000    3.000    0.000    1.714 
#    0.000    2.143    0.000    9.857    0.000    2.000 
#    0.000    0.000    0.000    0.000    0.000    0.000 
#
# Total GULP energy -312280.744664 kJ/mol
# GULP energy per Si atom -5576.441869 kJ/mol
# Density = 2.186613 g / cm^3
# Si number density = 21.916013 Si / 1000 Ang^3
#
#
#
# Elastic Constant Matrix: (Units=GPa)
#
#
# Indices 1 2 3 4 5 6 
#
# 1 95.6820 -5.8678 71.4083 0.0000 0.0000 0.0000
# 2 -5.8678 81.6041 -2.8220 0.0000 0.0000 0.0000
# 3 71.4083 -2.8220 138.6893 0.0000 0.0000 0.0000
# 4 0.0000 0.0000 0.0000 2.6347 0.0000 0.0000
# 5 0.0000 0.0000 0.0000 0.0000 23.2166 0.0000
# 6 0.0000 0.0000 0.0000 0.0000 0.0000 -2.8885
#
#
#
# Elastic Compliance Matrix: (Units=1/GPa)
#
#
# Indices 1 2 3 4 5 6 
#
# 1 0.017043 0.000923 -0.008756 0.000000 0.000000 0.000000
# 2 0.000923 0.012313 -0.000225 0.000000 0.000000 0.000000
# 3 -0.008756 -0.000225 0.011714 0.000000 0.000000 0.000000
# 4 0.000000 0.000000 0.000000 0.379543 0.000000 0.000000
# 5 0.000000 0.000000 0.000000 0.000000 0.043073 0.000000
# 6 0.000000 0.000000 0.000000 0.000000 0.000000 -0.346195
#
#
# Mechanical properties :
#
#
# Convention : Reuss Voigt Hill
#
# Bulk Modulus (GPa) = 40.07429 49.04583 44.56006
# Shear Modulus (GPa) = 35.22994 21.47635 28.35314
#
# Velocity S-wave (km/s) = 4.01371 3.13379 3.60073
# Velocity P-wave (km/s) = 6.30911 5.96002 6.13705
#
# Compressibility (1/GPa) = 0.02495366
#
# Stress axis : x y z
#
# Youngs Moduli (GPa) = 58.67636 81.21585 85.36684
#
# Poissons Ratio (x) = -0.07493 0.74748
# Poissons Ratio (y) = -0.05414 0.01917
# Poissons Ratio (z) = 0.51378 0.01823
#
# Static dielectric constant tensor:
#      x y z
#    x 1.812130 0.000000 0.000000 
#    y 0.000000 1.883260 0.000000 
#    z 0.000000 0.000000 1.765250 
# 
# From -- ./inp_files/30404.got.cif
#   From: 2010.05.17/outbox.cif.g08.bks.cpg/sg59_16_cif.got.tgz:30404.got - 2010.06.03 14:40:33.
