data_PCOD9446436
_publ_section_title
;
Structure prediction by ZEFSAII (Michael W. Deem and Ramdas Pophale) SiO2 
 PCOD9446436
Probable space group: P M M N
;
_chemical_formula_sum "Si O2"
_cell_formula_units_Z 64
_cell_length_a 7.714893
_cell_length_b 26.324705
_cell_length_c 17.907545
_cell_angle_alpha 90.000000
_cell_angle_beta 90.000000
_cell_angle_gamma 90.000000
_cell_volume 3636.884185
_symmetry_space_group_name_H-M "P M M N"
_symmetry_group_IT_number 59
_space_group.IT_coordinate_system_code '2'
_symmetry_cell_setting 'orthorhombic'
loop_
_space_group_symop_operation_xyz
x,y,z
1/2-x,1/2-y,z
1/2+x,-y,-z
-x,1/2+y,-z
-x,-y,-z
1/2+x,1/2+y,-z
1/2-x,y,z
x,1/2-y,z
loop_
_atom_site_type_symbol
_atom_site_label
_atom_site_fract_x
_atom_site_fract_y
_atom_site_fract_z
Si Si1 0.542104 0.559942 0.500647
Si Si2 0.541026 0.807439 0.091457
Si Si3 0.963049 0.901593 0.822013
Si Si4 0.046703 0.051373 0.659664
Si Si5 0.045248 0.595029 0.185018
Si Si6 0.041849 0.999032 0.087150
Si Si7 0.453142 0.434410 0.337459
Si Si8 0.538515 0.692203 0.921431
O O1 0.500000 0.500000 0.500000
O O2 0.750000 0.566967 0.503666
O O3 0.481437 0.576311 0.418085
O O4 0.472133 0.578973 0.580596
O O5 0.750000 0.806621 0.090374
O O6 0.481832 0.750000 0.108833
O O7 0.487000 0.850330 0.149171
O O8 0.484038 0.819983 0.006581
O O9 0.750000 0.901884 0.821176
O O10 0.025335 0.908774 0.737116
O O11 0.019024 0.850312 0.863296
O O12 0.018917 0.950434 0.870270
O O13 0.250000 0.040841 0.649226
O O14 0.025385 0.085618 0.732313
O O15 0.964071 0.995732 0.671979
O O16 0.250000 0.587480 0.191072
O O17 0.975239 0.551232 0.129358
O O18 0.250000 0.998678 0.092907
O O19 0.000000 0.000000 0.000000
O O20 0.250000 0.421236 0.339404
O O21 0.750000 0.691829 0.921299
O O22 0.484601 0.750000 0.904440
#
# Coordination Sequence:
#
# PCOD9446436 Si02
#       8
#     8   8   8   8   8   8   8   8
#     4   8  15  25  40  60  83 115 150 180 219 266
#     4   9  18  33  51  68  87 115 151 190 229 264
#     4   9  15  25  41  60  87 118 146 177 218 264
#     4  10  18  28  42  63  89 118 151 186 221 267
#     4  11  21  32  46  66  91 119 150 185 228 273
#     4  10  20  31  42  60  86 119 151 178 219 272
#     4   9  15  27  43  61  89 120 147 182 226 271
#     4   8  14  25  43  66  88 112 146 185 221 258
#
# _framework density 17.597480000000001
#
# number of rings (size 3 to 8) (size 9 to 14) (size 15 to 20)
#    0.000    2.750    1.250    2.250    0.000    2.750 
#    0.000    0.000    0.000    0.000    0.000    0.875 
#    0.000    5.000    0.000    0.000    0.000    0.000 
#
# Total GULP energy -356596.170844 kJ/mol
# GULP energy per Si atom -5571.815169 kJ/mol
# Density = 1.755743 g / cm^3
# Si number density = 17.597480 Si / 1000 Ang^3
#
#
#
# Elastic Constant Matrix: (Units=GPa)
#
#
# Indices 1 2 3 4 5 6 
#
# 1 27.8127 -1.7460 1.1503 0.0000 0.0000 0.0000
# 2 -1.7460 79.2491 76.9654 0.0000 0.0000 0.0000
# 3 1.1503 76.9654 193.0431 0.0000 0.0000 0.0000
# 4 0.0000 0.0000 0.0000 19.7547 0.0000 0.0000
# 5 0.0000 0.0000 0.0000 0.0000 11.9062 0.0000
# 6 0.0000 0.0000 0.0000 0.0000 0.0000 10.0830
#
#
#
# Elastic Compliance Matrix: (Units=1/GPa)
#
#
# Indices 1 2 3 4 5 6 
#
# 1 0.036094 0.001639 -0.000868 0.000000 0.000000 0.000000
# 2 0.001639 0.020666 -0.008249 0.000000 0.000000 0.000000
# 3 -0.000868 -0.008249 0.008474 0.000000 0.000000 0.000000
# 4 0.000000 0.000000 0.000000 0.050621 0.000000 0.000000
# 5 0.000000 0.000000 0.000000 0.000000 0.083990 0.000000
# 6 0.000000 0.000000 0.000000 0.000000 0.000000 0.099177
#
#
# Mechanical properties :
#
#
# Convention : Reuss Voigt Hill
#
# Bulk Modulus (GPa) = 19.89031 50.31605 35.10318
# Shear Modulus (GPa) = 15.11772 23.26446 19.19109
#
# Velocity S-wave (km/s) = 2.93419 3.63992 3.30594
# Velocity P-wave (km/s) = 4.77565 6.80590 5.87907
#
# Compressibility (1/GPa) = 0.05027574
#
# Stress axis : x y z
#
# Youngs Moduli (GPa) = 27.70581 48.38860 118.00400
#
# Poissons Ratio (x) = -0.07929 0.10247
# Poissons Ratio (y) = -0.04540 0.97344
# Poissons Ratio (z) = 0.02406 0.39917
#
# Static dielectric constant tensor:
#      x y z
#    x 1.667440 0.000000 0.000000 
#    y 0.000000 1.567280 0.000000 
#    z 0.000000 0.000000 1.645060 
# 
# From -- ./inp_files/26492.got.cif
#   From: 2010.05.17/outbox.cif.g08.bks.cpg/sg59_14_cif.got.tgz:26492.got - 2010.06.03 14:40:33.
