data_PCOD9446473
_publ_section_title
;
Structure prediction by ZEFSAII (Michael W. Deem and Ramdas Pophale) SiO2 
 PCOD9446473
Probable space group: P M M N
;
_chemical_formula_sum "Si O2"
_cell_formula_units_Z 64
_cell_length_a 7.732117
_cell_length_b 19.780101
_cell_length_c 22.410727
_cell_angle_alpha 90.000000
_cell_angle_beta 90.000000
_cell_angle_gamma 90.000000
_cell_volume 3427.542646
_symmetry_space_group_name_H-M "P M M N"
_symmetry_group_IT_number 59
_space_group.IT_coordinate_system_code '2'
_symmetry_cell_setting 'orthorhombic'
loop_
_space_group_symop_operation_xyz
x,y,z
1/2-x,1/2-y,z
1/2+x,-y,-z
-x,1/2+y,-z
-x,-y,-z
1/2+x,1/2+y,-z
1/2-x,y,z
x,1/2-y,z
loop_
_atom_site_type_symbol
_atom_site_label
_atom_site_fract_x
_atom_site_fract_y
_atom_site_fract_z
Si Si1 0.962663 0.440902 0.310887
Si Si2 0.053449 0.973206 0.815336
Si Si3 0.961141 0.327509 0.403311
Si Si4 0.045416 0.091063 0.653995
Si Si5 0.541911 0.173205 0.537802
Si Si6 0.956032 0.677493 0.100508
Si Si7 0.958772 0.970566 0.064322
Si Si8 0.950649 0.119806 0.778715
O O1 0.750000 0.440964 0.309439
O O2 0.023369 0.435072 0.242003
O O3 0.019291 0.380857 0.354032
O O4 0.018315 0.513949 0.336856
O O5 0.250000 0.948351 0.822692
O O6 0.974569 0.982180 0.881169
O O7 0.054597 0.050925 0.792064
O O8 0.750000 0.328491 0.402859
O O9 0.013443 0.250000 0.391590
O O10 0.016321 0.345596 0.470854
O O11 0.250000 0.089536 0.661524
O O12 0.007163 0.122519 0.590051
O O13 0.973387 0.135180 0.709114
O O14 0.750000 0.175326 0.536053
O O15 0.480872 0.250000 0.550294
O O16 0.750000 0.677768 0.090397
O O17 0.025796 0.750000 0.078987
O O18 0.023007 0.606712 0.073300
O O19 0.988420 0.671826 0.171504
O O20 0.750000 0.968479 0.071216
O O21 0.000000 0.000000 0.000000
O O22 0.750000 0.105261 0.789640
#
# Coordination Sequence:
#
# PCOD9446473 Si02
#       8
#     8   8   8   8   8   8   8   8
#     4   8  14  26  45  66  87 113 146 185 225 267
#     4   8  15  29  46  65  92 120 146 179 219 263
#     4   8  14  26  45  67  88 111 142 183 232 279
#     4  10  19  30  44  63  89 121 154 185 221 268
#     4   9  18  31  44  60  85 114 145 185 229 272
#     4   9  18  33  50  67  91 124 160 193 225 267
#     4   9  17  29  47  70  94 124 157 186 221 265
#     4  10  18  28  44  66  91 116 145 183 225 267
#
# _framework density 18.672269
#
# number of rings (size 3 to 8) (size 9 to 14) (size 15 to 20)
#    0.000    3.125    0.000    3.750    0.000    3.500 
#    0.000    0.000    0.000    3.750    0.000    1.750 
#    0.000    0.000    0.000    0.000    0.000    2.000 
#
# Total GULP energy -356319.735244 kJ/mol
# GULP energy per Si atom -5567.495863 kJ/mol
# Density = 1.862977 g / cm^3
# Si number density = 18.672269 Si / 1000 Ang^3
#
#
#
# Elastic Constant Matrix: (Units=GPa)
#
#
# Indices 1 2 3 4 5 6 
#
# 1 32.8307 -0.6613 -2.9023 0.0000 0.0000 0.0000
# 2 -0.6613 85.4006 83.3155 0.0000 0.0000 0.0000
# 3 -2.9023 83.3155 172.6574 0.0000 0.0000 0.0000
# 4 0.0000 0.0000 0.0000 -2.7267 0.0000 0.0000
# 5 0.0000 0.0000 0.0000 0.0000 15.4404 0.0000
# 6 0.0000 0.0000 0.0000 0.0000 0.0000 4.4517
#
#
#
# Elastic Compliance Matrix: (Units=1/GPa)
#
#
# Indices 1 2 3 4 5 6 
#
# 1 0.030516 -0.000499 0.000754 0.000000 0.000000 0.000000
# 2 -0.000499 0.022134 -0.010689 0.000000 0.000000 0.000000
# 3 0.000754 -0.010689 0.010962 0.000000 0.000000 0.000000
# 4 0.000000 0.000000 0.000000 -0.366739 0.000000 0.000000
# 5 0.000000 0.000000 0.000000 0.000000 0.064765 0.000000
# 6 0.000000 0.000000 0.000000 0.000000 0.000000 0.224634
#
#
# Mechanical properties :
#
#
# Convention : Reuss Voigt Hill
#
# Bulk Modulus (GPa) = 23.39541 50.04360 36.71951
# Shear Modulus (GPa) = 233.77320 17.50886 125.64103
#
# Velocity S-wave (km/s) = 11.20133 3.06550 8.21179
# Velocity P-wave (km/s) = 13.41081 6.27606 10.46993
#
# Compressibility (1/GPa) = 0.04274342
#
# Stress axis : x y z
#
# Youngs Moduli (GPa) = 32.76987 45.18025 91.22098
#
# Poissons Ratio (x) = 0.02255 -0.06876
# Poissons Ratio (y) = 0.01636 0.97505
# Poissons Ratio (z) = -0.02470 0.48293
#
# Static dielectric constant tensor:
#      x y z
#    x 1.687720 0.000000 0.000000 
#    y 0.000000 1.641560 0.000000 
#    z 0.000000 0.000000 1.672370 
# 
# From -- ./inp_files/29649.got.cif
#   From: 2010.05.17/outbox.cif.g08.bks.cpg/sg59_15_cif.got.tgz:29649.got - 2010.06.03 14:40:33.
