data_PCOD9446428
_publ_section_title
;
Structure prediction by ZEFSAII (Michael W. Deem and Ramdas Pophale) SiO2 
 PCOD9446428
Probable space group: P M M N
;
_chemical_formula_sum "Si O2"
_cell_formula_units_Z 48
_cell_length_a 13.615846
_cell_length_b 33.103419
_cell_length_c 7.718512
_cell_angle_alpha 90.000000
_cell_angle_beta 90.000000
_cell_angle_gamma 90.000000
_cell_volume 3478.973058
_symmetry_space_group_name_H-M "P M M N"
_symmetry_group_IT_number 59
_space_group.IT_coordinate_system_code '2'
_symmetry_cell_setting 'orthorhombic'
loop_
_space_group_symop_operation_xyz
x,y,z
1/2-x,1/2-y,z
1/2+x,-y,-z
-x,1/2+y,-z
-x,-y,-z
1/2+x,1/2+y,-z
1/2-x,y,z
x,1/2-y,z
loop_
_atom_site_type_symbol
_atom_site_label
_atom_site_fract_x
_atom_site_fract_y
_atom_site_fract_z
Si Si1 0.131341 0.858323 0.336748
Si Si2 0.131302 0.854012 0.939430
Si Si3 0.864166 0.505013 0.369892
Si Si4 0.132176 0.945549 0.950361
Si Si5 0.369699 0.796227 0.635620
Si Si6 0.554697 0.052374 0.664145
O O1 0.250000 0.863777 0.344599
O O2 0.103731 0.823412 0.470336
O O3 0.083529 0.901569 0.377267
O O4 0.105133 0.847002 0.139505
O O5 0.250000 0.853096 0.930179
O O6 0.102314 0.900055 0.894689
O O7 0.095803 0.820478 0.805540
O O8 0.750000 0.516511 0.364112
O O9 0.887098 0.477146 0.201971
O O10 0.885343 0.477637 0.538721
O O11 0.941045 0.541579 0.366846
O O12 0.250000 0.944735 0.979683
O O13 0.082611 0.954630 0.134628
O O14 0.250000 0.795108 0.639679
O O15 0.403601 0.750000 0.628152
#
# Coordination Sequence:
#
# PCOD9446428 Si02
#       6
#     8   8   8   8   8   8
#     4   9  16  26  39  54  74 102 132 157 185 227
#     4   8  14  23  35  50  69  96 126 153 182 221
#     4  10  19  28  40  59  81 105 135 171 203 229
#     4   9  16  27  42  58  77 102 134 168 198 231
#     4   9  16  24  35  53  76 100 125 154 189 228
#     4  10  18  28  42  58  79 108 138 165 196 234
#
# _framework density 13.797174999999999
#
# number of rings (size 3 to 8) (size 9 to 14) (size 15 to 20)
#    0.000    2.833    0.000    4.000    0.000    3.333 
#    0.000    3.333    0.000    0.000    0.000    0.000 
#    0.000    0.667    0.000    1.333    0.000    0.000 
#
# Total GULP energy -267272.649402 kJ/mol
# GULP energy per Si atom -5568.180196 kJ/mol
# Density = 1.376577 g / cm^3
# Si number density = 13.797175 Si / 1000 Ang^3
#
#
#
# Elastic Constant Matrix: (Units=GPa)
#
#
# Indices 1 2 3 4 5 6 
#
# 1 37.9226 32.1283 20.2092 0.0000 0.0000 0.0000
# 2 32.1283 86.4013 49.0732 0.0000 0.0000 0.0000
# 3 20.2092 49.0732 62.2477 0.0000 0.0000 0.0000
# 4 0.0000 0.0000 0.0000 9.8043 0.0000 0.0000
# 5 0.0000 0.0000 0.0000 0.0000 7.1805 0.0000
# 6 0.0000 0.0000 0.0000 0.0000 0.0000 14.8252
#
#
#
# Elastic Compliance Matrix: (Units=1/GPa)
#
#
# Indices 1 2 3 4 5 6 
#
# 1 0.038664 -0.013124 -0.002206 0.000000 0.000000 0.000000
# 2 -0.013124 0.025413 -0.015774 0.000000 0.000000 0.000000
# 3 -0.002206 -0.015774 0.029216 0.000000 0.000000 0.000000
# 4 0.000000 0.000000 0.000000 0.101996 0.000000 0.000000
# 5 0.000000 0.000000 0.000000 0.000000 0.139265 0.000000
# 6 0.000000 0.000000 0.000000 0.000000 0.000000 0.067453
#
#
# Mechanical properties :
#
#
# Convention : Reuss Voigt Hill
#
# Bulk Modulus (GPa) = 32.16923 43.26589 37.71756
# Shear Modulus (GPa) = 10.53569 12.03939 11.28754
#
# Velocity S-wave (km/s) = 2.76635 2.95718 2.86336
# Velocity P-wave (km/s) = 5.79396 6.56403 6.19098
#
# Compressibility (1/GPa) = 0.03108560
#
# Stress axis : x y z
#
# Youngs Moduli (GPa) = 25.86374 39.34981 34.22755
#
# Poissons Ratio (x) = 0.51644 0.07551
# Poissons Ratio (y) = 0.33944 0.53989
# Poissons Ratio (z) = 0.05706 0.62069
#
# Static dielectric constant tensor:
#      x y z
#    x 1.426330 0.000000 0.000000 
#    y 0.000000 1.451470 0.000000 
#    z 0.000000 0.000000 1.472950 
# 
# From -- ./inp_files/7691.got.cif
#   From: 2010.05.17/outbox.cif.g08.bks.cpg/sg59_4_cif.got.tgz:7691.got - 2010.06.03 14:40:33.
