data_PCOD9446736
_publ_section_title
;
Structure prediction by ZEFSAII (Michael W. Deem and Ramdas Pophale) SiO2 
 PCOD9446736
Probable space group: P M M N
;
_chemical_formula_sum "Si O2"
_cell_formula_units_Z 64
_cell_length_a 7.664314
_cell_length_b 26.720399
_cell_length_c 17.683866
_cell_angle_alpha 90.000000
_cell_angle_beta 90.000000
_cell_angle_gamma 90.000000
_cell_volume 3621.541309
_symmetry_space_group_name_H-M "P M M N"
_symmetry_group_IT_number 59
_space_group.IT_coordinate_system_code '2'
_symmetry_cell_setting 'orthorhombic'
loop_
_space_group_symop_operation_xyz
x,y,z
1/2-x,1/2-y,z
1/2+x,-y,-z
-x,1/2+y,-z
-x,-y,-z
1/2+x,1/2+y,-z
1/2-x,y,z
x,1/2-y,z
loop_
_atom_site_type_symbol
_atom_site_label
_atom_site_fract_x
_atom_site_fract_y
_atom_site_fract_z
Si Si1 0.957062 0.440799 0.504000
Si Si2 0.044962 0.101699 0.820213
Si Si3 0.460808 0.559568 0.659664
Si Si4 0.536803 0.693739 0.082926
Si Si5 0.458269 0.403971 0.177307
Si Si6 0.036861 0.193843 0.091708
Si Si7 0.456118 0.445255 0.669403
Si Si8 0.041458 0.997407 0.088764
O O1 0.750000 0.434745 0.506631
O O2 0.021589 0.420916 0.422670
O O3 0.000000 0.500000 0.500000
O O4 0.024783 0.423310 0.585225
O O5 0.250000 0.112657 0.809258
O O6 0.970870 0.149876 0.863051
O O7 0.969678 0.086861 0.738393
O O8 0.030491 0.052805 0.873014
O O9 0.250000 0.557435 0.655855
O O10 0.508855 0.590034 0.733817
O O11 0.526812 0.502251 0.669983
O O12 0.750000 0.692708 0.083086
O O13 0.484085 0.750000 0.104820
O O14 0.485783 0.685213 0.995643
O O15 0.250000 0.403879 0.165530
O O16 0.525570 0.352074 0.142670
O O17 0.525245 0.453199 0.132931
O O18 0.250000 0.194104 0.093595
O O19 0.980707 0.250000 0.113830
O O20 0.250000 0.450496 0.683726
O O21 0.250000 0.995643 0.097440
O O22 0.000000 0.000000 0.000000
#
# Coordination Sequence:
#
# PCOD9446736 Si02
#       8
#     8   8   8   8   8   8   8   8
#     4   9  17  28  43  62  86 117 151 182 216 261
#     4  10  18  30  47  67  94 121 150 188 227 271
#     4   9  17  29  42  61  89 119 145 176 221 264
#     4   8  14  26  46  68  88 115 152 193 231 265
#     4  10  19  29  44  66  87 113 149 184 218 265
#     4   8  14  26  43  63  86 110 143 188 230 261
#     4   9  17  28  42  63  91 122 149 177 219 266
#     4  11  22  32  43  63  91 123 156 184 222 274
#
# _framework density 17.672032999999999
#
# number of rings (size 3 to 8) (size 9 to 14) (size 15 to 20)
#    0.000    2.750    1.250    3.000    0.000    5.500 
#    0.000    0.000    0.000    0.750    0.000    2.625 
#    0.000    5.000    0.000    0.000    0.000    0.000 
#
# Total GULP energy -356647.437532 kJ/mol
# GULP energy per Si atom -5572.616211 kJ/mol
# Density = 1.763181 g / cm^3
# Si number density = 17.672033 Si / 1000 Ang^3
#
#
#
# Elastic Constant Matrix: (Units=GPa)
#
#
# Indices 1 2 3 4 5 6 
#
# 1 25.6408 -1.1413 -10.1513 0.0000 0.0000 0.0000
# 2 -1.1413 118.0955 86.3595 0.0000 0.0000 0.0000
# 3 -10.1513 86.3595 159.0471 0.0000 0.0000 0.0000
# 4 0.0000 0.0000 0.0000 20.2852 0.0000 0.0000
# 5 0.0000 0.0000 0.0000 0.0000 17.4431 0.0000
# 6 0.0000 0.0000 0.0000 0.0000 0.0000 8.3036
#
#
#
# Elastic Compliance Matrix: (Units=1/GPa)
#
#
# Indices 1 2 3 4 5 6 
#
# 1 0.040446 -0.002483 0.003929 0.000000 0.000000 0.000000
# 2 -0.002483 0.014197 -0.007867 0.000000 0.000000 0.000000
# 3 0.003929 -0.007867 0.010810 0.000000 0.000000 0.000000
# 4 0.000000 0.000000 0.000000 0.049297 0.000000 0.000000
# 5 0.000000 0.000000 0.000000 0.000000 0.057329 0.000000
# 6 0.000000 0.000000 0.000000 0.000000 0.000000 0.120430
#
#
# Mechanical properties :
#
#
# Convention : Reuss Voigt Hill
#
# Bulk Modulus (GPa) = 19.00711 50.32411 34.66561
# Shear Modulus (GPa) = 15.48535 24.38747 19.93641
#
# Velocity S-wave (km/s) = 2.96339 3.71887 3.36241
# Velocity P-wave (km/s) = 4.74212 6.85409 5.89348
#
# Compressibility (1/GPa) = 0.05261190
#
# Stress axis : x y z
#
# Youngs Moduli (GPa) = 24.72456 70.43961 92.50840
#
# Poissons Ratio (x) = 0.17487 -0.36351
# Poissons Ratio (y) = 0.06138 0.72776
# Poissons Ratio (z) = -0.09715 0.55414
#
# Static dielectric constant tensor:
#      x y z
#    x 1.670930 0.000000 0.000000 
#    y 0.000000 1.590040 0.000000 
#    z 0.000000 0.000000 1.627170 
# 
# From -- ./inp_files/26688.got.cif
#   From: 2010.05.17/outbox.cif.g08.bks.cpg/sg59_14_cif.got.tgz:26688.got - 2010.06.03 14:40:33.
