data_PCOD9446603
_publ_section_title
;
Structure prediction by ZEFSAII (Michael W. Deem and Ramdas Pophale) SiO2 
 PCOD9446603
Probable space group: P M M N
;
_chemical_formula_sum "Si O2"
_cell_formula_units_Z 64
_cell_length_a 23.674166
_cell_length_b 7.564520
_cell_length_c 18.291796
_cell_angle_alpha 90.000000
_cell_angle_beta 90.000000
_cell_angle_gamma 90.000000
_cell_volume 3275.762547
_symmetry_space_group_name_H-M "P M M N"
_symmetry_group_IT_number 59
_space_group.IT_coordinate_system_code '2'
_symmetry_cell_setting 'orthorhombic'
loop_
_space_group_symop_operation_xyz
x,y,z
1/2-x,1/2-y,z
1/2+x,-y,-z
-x,1/2+y,-z
-x,-y,-z
1/2+x,1/2+y,-z
1/2-x,y,z
x,1/2-y,z
loop_
_atom_site_type_symbol
_atom_site_label
_atom_site_fract_x
_atom_site_fract_y
_atom_site_fract_z
Si Si1 0.066112 0.958874 0.487979
Si Si2 0.415677 0.532910 0.646998
Si Si3 0.515238 0.038484 0.083456
Si Si4 0.544829 0.541802 0.671515
Si Si5 0.589500 0.536793 0.822079
Si Si6 0.142472 0.966469 0.907376
Si Si7 0.812892 0.465771 0.248645
Si Si8 0.187198 0.961100 0.064861
O O1 0.074129 0.750000 0.486286
O O2 0.095006 0.024057 0.562707
O O3 0.076293 0.023358 0.406009
O O4 0.000000 0.000000 0.500000
O O5 0.416633 0.750000 0.647889
O O6 0.479732 0.473016 0.667663
O O7 0.365702 0.476739 0.701226
O O8 0.516769 0.250000 0.092888
O O9 0.465349 0.969964 0.134086
O O10 0.577770 0.973867 0.101102
O O11 0.500000 0.000000 0.000000
O O12 0.537291 0.750000 0.683837
O O13 0.581268 0.472241 0.739265
O O14 0.588114 0.750000 0.821492
O O15 0.644332 0.492184 0.869067
O O16 0.142892 0.750000 0.908681
O O17 0.176884 0.019206 0.835602
O O18 0.164893 0.027740 0.986194
O O19 0.750000 0.521228 0.272595
O O20 0.813722 0.250000 0.250063
O O21 0.250000 0.029748 0.079355
O O22 0.190538 0.750000 0.056590
#
# Coordination Sequence:
#
# PCOD9446603 Si02
#       8
#     8   8   8   8   8   8   8   8
#     4   9  16  27  45  69  96 124 152 184 228 282
#     4   8  14  25  41  63  93 123 148 180 226 275
#     4  10  18  29  46  68  94 123 154 190 237 285
#     4   9  17  30  47  69  96 122 152 193 240 286
#     4  10  20  32  48  70  94 123 159 197 240 286
#     4   9  16  27  43  64  92 122 152 190 230 271
#     4   9  15  23  39  64  92 122 155 187 222 269
#     4  10  20  33  48  66  90 122 159 198 239 279
#
# _framework density 19.537434999999999
#
# number of rings (size 3 to 8) (size 9 to 14) (size 15 to 20)
#    0.000    2.750    1.250    2.250    0.000    5.250 
#    0.000    0.000    0.000    0.750    0.000    2.625 
#    0.000   19.250    0.000    0.000    0.000    0.000 
#
# Total GULP energy -356755.142371 kJ/mol
# GULP energy per Si atom -5574.299100 kJ/mol
# Density = 1.949297 g / cm^3
# Si number density = 19.537435 Si / 1000 Ang^3
#
#
#
# Elastic Constant Matrix: (Units=GPa)
#
#
# Indices 1 2 3 4 5 6 
#
# 1 129.6251 8.6847 83.0113 0.0000 0.0000 0.0000
# 2 8.6847 39.6769 -1.0990 0.0000 0.0000 0.0000
# 3 83.0113 -1.0990 173.6388 0.0000 0.0000 0.0000
# 4 0.0000 0.0000 0.0000 2.1263 0.0000 0.0000
# 5 0.0000 0.0000 0.0000 0.0000 18.8247 0.0000
# 6 0.0000 0.0000 0.0000 0.0000 0.0000 8.6060
#
#
#
# Elastic Compliance Matrix: (Units=1/GPa)
#
#
# Indices 1 2 3 4 5 6 
#
# 1 0.011389 -0.002644 -0.005462 0.000000 0.000000 0.000000
# 2 -0.002644 0.025822 0.001428 0.000000 0.000000 0.000000
# 3 -0.005462 0.001428 0.008379 0.000000 0.000000 0.000000
# 4 0.000000 0.000000 0.000000 0.470302 0.000000 0.000000
# 5 0.000000 0.000000 0.000000 0.000000 0.053122 0.000000
# 6 0.000000 0.000000 0.000000 0.000000 0.000000 0.116198
#
#
# Mechanical properties :
#
#
# Convention : Reuss Voigt Hill
#
# Bulk Modulus (GPa) = 31.02337 58.23720 44.63028
# Shear Modulus (GPa) = 7.04908 22.73433 14.89171
#
# Velocity S-wave (km/s) = 1.90153 3.41490 2.76382
# Velocity P-wave (km/s) = 4.55351 6.73954 5.75135
#
# Compressibility (1/GPa) = 0.03223377
#
# Stress axis : x y z
#
# Youngs Moduli (GPa) = 87.80175 38.72686 119.34401
#
# Poissons Ratio (x) = 0.10240 0.65181
# Poissons Ratio (y) = 0.23217 -0.17037
# Poissons Ratio (z) = 0.47954 -0.05528
#
# Static dielectric constant tensor:
#      x y z
#    x 1.858590 0.000000 0.000000 
#    y 0.000000 1.760160 0.000000 
#    z 0.000000 0.000000 1.706470 
# 
# From -- ./inp_files/28415.got.cif
#   From: 2010.05.17/outbox.cif.g08.bks.cpg/sg59_15_cif.got.tgz:28415.got - 2010.06.03 14:40:33.
