data_PCOD9446956
_publ_section_title
;
Structure prediction by ZEFSAII (Michael W. Deem and Ramdas Pophale) SiO2 
 PCOD9446956
Probable space group: P M M N
;
_chemical_formula_sum "Si O2"
_cell_formula_units_Z 48
_cell_length_a 15.346798
_cell_length_b 7.446185
_cell_length_c 19.767202
_cell_angle_alpha 90.000000
_cell_angle_beta 90.000000
_cell_angle_gamma 90.000000
_cell_volume 2258.898927
_symmetry_space_group_name_H-M "P M M N"
_symmetry_group_IT_number 59
_space_group.IT_coordinate_system_code '2'
_symmetry_cell_setting 'orthorhombic'
loop_
_space_group_symop_operation_xyz
x,y,z
1/2-x,1/2-y,z
1/2+x,-y,-z
-x,1/2+y,-z
-x,-y,-z
1/2+x,1/2+y,-z
1/2-x,y,z
x,1/2-y,z
loop_
_atom_site_type_symbol
_atom_site_label
_atom_site_fract_x
_atom_site_fract_y
_atom_site_fract_z
Si Si1 0.846933 0.967444 0.656235
Si Si2 0.487826 0.459056 0.744197
Si Si3 0.995271 0.533742 0.103906
Si Si4 0.897793 0.535994 0.507063
Si Si5 0.350662 0.964310 0.006332
Si Si6 0.154358 0.469069 0.639723
O O1 0.750000 0.021504 0.675953
O O2 0.851088 0.750000 0.655142
O O3 0.866004 0.032228 0.579644
O O4 0.919010 0.031099 0.708343
O O5 0.463374 0.250000 0.752093
O O6 0.489535 0.535509 0.819568
O O7 0.419623 0.536524 0.690146
O O8 0.003569 0.750000 0.105877
O O9 0.907303 0.494724 0.061758
O O10 0.081893 0.467073 0.064194
O O11 0.881831 0.750000 0.508532
O O12 0.856440 0.467233 0.437514
O O13 0.000000 0.500000 0.500000
O O14 0.250000 0.032081 0.005983
O O15 0.344268 0.750000 0.015176
O O16 0.250000 0.514578 0.665135
O O17 0.147572 0.250000 0.636490
#
# Coordination Sequence:
#
# PCOD9446956 Si02
#       6
#     8   8   8   8   8   8
#     4  10  21  35  51  73 102 138 176 213 257 306
#     4  10  20  34  53  78 105 134 169 210 255 301
#     4   9  19  34  53  79 108 135 168 211 254 300
#     4  10  18  31  52  72  95 130 173 218 259 300
#     4   9  18  34  55  77 103 137 173 207 250 304
#     4   9  17  30  49  72  98 130 168 208 253 303
#
# _framework density 21.249292000000001
#
# number of rings (size 3 to 8) (size 9 to 14) (size 15 to 20)
#    0.000    2.500    1.667    0.500    0.000    4.667 
#    0.000    3.333    0.000    3.000    0.000    0.000 
#    0.000    0.000    0.000    0.000    0.000    0.000 
#
# Total GULP energy -267860.251964 kJ/mol
# GULP energy per Si atom -5580.421916 kJ/mol
# Density = 2.120093 g / cm^3
# Si number density = 21.249292 Si / 1000 Ang^3
#
#
#
# Elastic Constant Matrix: (Units=GPa)
#
#
# Indices 1 2 3 4 5 6 
#
# 1 141.1347 -10.5647 52.2209 0.0000 0.0000 0.0000
# 2 -10.5647 64.9251 0.8687 0.0000 0.0000 0.0000
# 3 52.2209 0.8687 142.2698 0.0000 0.0000 0.0000
# 4 0.0000 0.0000 0.0000 -33.1185 0.0000 0.0000
# 5 0.0000 0.0000 0.0000 0.0000 -19.6537 0.0000
# 6 0.0000 0.0000 0.0000 0.0000 0.0000 19.2897
#
#
#
# Elastic Compliance Matrix: (Units=1/GPa)
#
#
# Indices 1 2 3 4 5 6 
#
# 1 0.008323 0.001395 -0.003064 0.000000 0.000000 0.000000
# 2 0.001395 0.015638 -0.000608 0.000000 0.000000 0.000000
# 3 -0.003064 -0.000608 0.008157 0.000000 0.000000 0.000000
# 4 0.000000 0.000000 0.000000 -0.030195 0.000000 0.000000
# 5 0.000000 0.000000 0.000000 0.000000 -0.050881 0.000000
# 6 0.000000 0.000000 0.000000 0.000000 0.000000 0.051841
#
#
# Mechanical properties :
#
#
# Convention : Reuss Voigt Hill
#
# Bulk Modulus (GPa) = 36.27623 48.15325 42.21474
# Shear Modulus (GPa) = 300.76543 13.69050 157.22797
#
# Velocity S-wave (km/s) = 11.91002 2.54102 8.61120
# Velocity P-wave (km/s) = 14.36107 5.59637 10.89862
#
# Compressibility (1/GPa) = 0.02756626
#
# Stress axis : x y z
#
# Youngs Moduli (GPa) = 120.14218 63.94861 122.59183
#
# Poissons Ratio (x) = -0.08923 0.37558
# Poissons Ratio (y) = -0.16765 0.07449
# Poissons Ratio (z) = 0.36808 0.03886
#
# Static dielectric constant tensor:
#      x y z
#    x 1.740700 0.000000 0.000000 
#    y 0.000000 2.969340 0.000000 
#    z 0.000000 0.000000 1.757090 
# 
# From -- ./inp_files/25456.got.cif
#   From: 2010.05.17/outbox.cif.g08.bks.cpg/sg59_13_cif.got.tgz:25456.got - 2010.06.03 14:40:33.
