data_PCOD9446150
_publ_section_title
;
Structure prediction by ZEFSAII (Michael W. Deem and Ramdas Pophale) SiO2 
 PCOD9446150
Probable space group: P M M N
;
_chemical_formula_sum "Si O2"
_cell_formula_units_Z 40
_cell_length_a 7.842430
_cell_length_b 16.989884
_cell_length_c 12.234967
_cell_angle_alpha 90.000000
_cell_angle_beta 90.000000
_cell_angle_gamma 90.000000
_cell_volume 1630.211179
_symmetry_space_group_name_H-M "P M M N"
_symmetry_group_IT_number 59
_space_group.IT_coordinate_system_code '2'
_symmetry_cell_setting 'orthorhombic'
loop_
_space_group_symop_operation_xyz
x,y,z
1/2-x,1/2-y,z
1/2+x,-y,-z
-x,1/2+y,-z
-x,-y,-z
1/2+x,1/2+y,-z
1/2-x,y,z
x,1/2-y,z
loop_
_atom_site_type_symbol
_atom_site_label
_atom_site_fract_x
_atom_site_fract_y
_atom_site_fract_z
Si Si1 0.946496 0.750000 0.041715
Si Si2 0.452878 0.996106 0.270616
Si Si3 0.049257 0.417820 0.946572
Si Si4 0.954908 0.162697 0.307422
Si Si5 0.047434 0.750000 0.288717
Si Si6 0.955681 0.392276 0.544907
O O1 0.750000 0.750000 0.002934
O O2 0.027678 0.834679 0.012670
O O3 0.949411 0.750000 0.174532
O O4 0.250000 0.993333 0.275384
O O5 0.502274 0.084890 0.239074
O O6 0.509459 0.934100 0.180081
O O7 0.521794 0.969382 0.389889
O O8 0.250000 0.409715 0.959915
O O9 0.000000 0.500000 0.000000
O O10 0.750000 0.167379 0.312178
O O11 0.017427 0.250000 0.275405
O O12 0.021791 0.138661 0.428665
O O13 0.250000 0.750000 0.261445
O O14 0.013639 0.823881 0.366709
O O15 0.750000 0.399577 0.532466
#
# Coordination Sequence:
#
# PCOD9446150 Si02
#       6
#     4   8   8   8   4   8
#     4  10  22  40  64  93 122 149 186 245 310 354
#     4  11  22  37  59  88 120 155 197 248 301 353
#     4  11  24  44  67  93 122 154 194 246 305 365
#     4  10  20  36  56  80 117 165 209 246 291 350
#     4  10  16  30  58  87 116 153 196 237 282 344
#     4   9  17  31  56  86 116 155 200 243 288 341
#
# _framework density 24.536697
#
# number of rings (size 3 to 8) (size 9 to 14) (size 15 to 20)
#    0.000    1.800    3.000    1.800    0.000    1.200 
#    1.800    2.000    0.000    0.000    0.000    0.000 
#    0.000    0.000    0.000    0.000    0.000    0.000 
#
# Total GULP energy -223398.748837 kJ/mol
# GULP energy per Si atom -5584.968721 kJ/mol
# Density = 2.448085 g / cm^3
# Si number density = 24.536697 Si / 1000 Ang^3
#
#
#
# Elastic Constant Matrix: (Units=GPa)
#
#
# Indices 1 2 3 4 5 6 
#
# 1 41.7053 19.6885 -5.9542 0.0000 0.0000 0.0000
# 2 19.6885 228.9797 14.3432 0.0000 0.0000 0.0000
# 3 -5.9542 14.3432 32.6613 0.0000 0.0000 0.0000
# 4 0.0000 0.0000 0.0000 35.1452 0.0000 0.0000
# 5 0.0000 0.0000 0.0000 0.0000 20.4043 0.0000
# 6 0.0000 0.0000 0.0000 0.0000 0.0000 15.3172
#
#
#
# Elastic Compliance Matrix: (Units=1/GPa)
#
#
# Indices 1 2 3 4 5 6 
#
# 1 0.026051 -0.002609 0.005895 0.000000 0.000000 0.000000
# 2 -0.002609 0.004752 -0.002563 0.000000 0.000000 0.000000
# 3 0.005895 -0.002563 0.032817 0.000000 0.000000 0.000000
# 4 0.000000 0.000000 0.000000 0.028453 0.000000 0.000000
# 5 0.000000 0.000000 0.000000 0.000000 0.049009 0.000000
# 6 0.000000 0.000000 0.000000 0.000000 0.000000 0.065286
#
#
# Mechanical properties :
#
#
# Convention : Reuss Voigt Hill
#
# Bulk Modulus (GPa) = 15.36877 39.94460 27.65668
# Shear Modulus (GPa) = 22.06418 32.52460 27.29439
#
# Velocity S-wave (km/s) = 3.00197 3.64476 3.33887
# Velocity P-wave (km/s) = 4.27703 5.83329 5.11469
#
# Compressibility (1/GPa) = 0.06506701
#
# Stress axis : x y z
#
# Youngs Moduli (GPa) = 38.38600 210.43477 30.47173
#
# Poissons Ratio (x) = 0.54907 -0.17963
# Poissons Ratio (y) = 0.10016 0.07808
# Poissons Ratio (z) = -0.22629 0.53925
#
# Static dielectric constant tensor:
#      x y z
#    x 1.877710 0.000000 0.000000 
#    y 0.000000 2.109330 0.000000 
#    z 0.000000 0.000000 1.980930 
# 
# From -- ./inp_files/19922.got.cif
#   From: 2010.05.17/outbox.cif.g08.bks.cpg/sg59_10_cif.got.tgz:19922.got - 2010.06.03 14:40:33.
