data_PCOD9446347
_publ_section_title
;
Structure prediction by ZEFSAII (Michael W. Deem and Ramdas Pophale) SiO2 
 PCOD9446347
Probable space group: P M M N
;
_chemical_formula_sum "Si O2"
_cell_formula_units_Z 56
_cell_length_a 16.665308
_cell_length_b 18.494272
_cell_length_c 10.690419
_cell_angle_alpha 90.000000
_cell_angle_beta 90.000000
_cell_angle_gamma 90.000000
_cell_volume 3294.923322
_symmetry_space_group_name_H-M "P M M N"
_symmetry_group_IT_number 59
_space_group.IT_coordinate_system_code '2'
_symmetry_cell_setting 'orthorhombic'
loop_
_space_group_symop_operation_xyz
x,y,z
1/2-x,1/2-y,z
1/2+x,-y,-z
-x,1/2+y,-z
-x,-y,-z
1/2+x,1/2+y,-z
1/2-x,y,z
x,1/2-y,z
loop_
_atom_site_type_symbol
_atom_site_label
_atom_site_fract_x
_atom_site_fract_y
_atom_site_fract_z
Si Si1 0.939877 0.920619 0.340930
Si Si2 0.660887 0.454963 0.444110
Si Si3 0.157389 0.042075 0.296402
Si Si4 0.040048 0.543271 0.111796
Si Si5 0.407746 0.666161 0.426975
Si Si6 0.343459 0.833268 0.142952
Si Si7 0.653973 0.831487 0.523783
O O1 0.870611 0.868269 0.392710
O O2 0.970330 0.923191 0.199723
O O3 0.015492 0.886636 0.415111
O O4 0.908405 0.000508 0.374495
O O5 0.750000 0.468202 0.391238
O O6 0.660537 0.488325 0.584466
O O7 0.644495 0.370610 0.464917
O O8 0.250000 0.048635 0.250222
O O9 0.129000 0.116810 0.361115
O O10 0.095872 0.009516 0.196813
O O11 0.098692 0.609507 0.076652
O O12 0.000000 0.500000 0.000000
O O13 0.427829 0.750000 0.448671
O O14 0.363733 0.662882 0.291823
O O15 0.250000 0.851055 0.125993
O O16 0.357145 0.750000 0.105145
O O17 0.750000 0.830601 0.529494
O O18 0.623374 0.750000 0.532862
#
# Coordination Sequence:
#
# PCOD9446347 Si02
#       7
#     8   8   8   8   8   8   8
#     4  10  19  32  48  73 105 134 169 211 262 309
#     4  10  18  30  50  73 101 136 164 204 263 321
#     4   9  17  32  53  74  99 131 171 215 257 309
#     4  11  22  34  50  75 106 140 182 220 259 299
#     4  10  18  26  46  79 106 125 153 203 266 316
#     4   9  17  32  54  76  98 128 171 220 263 304
#     4   9  18  32  53  80 106 135 168 209 269 329
#
# _framework density 16.995843000000001
#
# number of rings (size 3 to 8) (size 9 to 14) (size 15 to 20)
#    0.000    2.286    2.857    3.000    2.000    1.429 
#    0.000    3.571    0.000    0.857    0.000    2.000 
#    0.000    0.000    0.000    0.000    0.000    0.000 
#
# Total GULP energy -311755.796695 kJ/mol
# GULP energy per Si atom -5567.067798 kJ/mol
# Density = 1.695716 g / cm^3
# Si number density = 16.995843 Si / 1000 Ang^3
#
#
#
# Elastic Constant Matrix: (Units=GPa)
#
#
# Indices 1 2 3 4 5 6 
#
# 1 70.5594 38.7019 27.4634 0.0000 0.0000 0.0000
# 2 38.7019 103.1818 19.8327 0.0000 0.0000 0.0000
# 3 27.4634 19.8327 29.2123 0.0000 0.0000 0.0000
# 4 0.0000 0.0000 0.0000 21.2196 0.0000 0.0000
# 5 0.0000 0.0000 0.0000 0.0000 20.1265 0.0000
# 6 0.0000 0.0000 0.0000 0.0000 0.0000 25.0253
#
#
#
# Elastic Compliance Matrix: (Units=1/GPa)
#
#
# Indices 1 2 3 4 5 6 
#
# 1 0.024841 -0.005553 -0.019583 0.000000 0.000000 0.000000
# 2 -0.005553 0.012388 -0.003189 0.000000 0.000000 0.000000
# 3 -0.019583 -0.003189 0.054808 0.000000 0.000000 0.000000
# 4 0.000000 0.000000 0.000000 0.047126 0.000000 0.000000
# 5 0.000000 0.000000 0.000000 0.000000 0.049686 0.000000
# 6 0.000000 0.000000 0.000000 0.000000 0.000000 0.039960
#
#
# Mechanical properties :
#
#
# Convention : Reuss Voigt Hill
#
# Bulk Modulus (GPa) = 28.26076 41.66106 34.96091
# Shear Modulus (GPa) = 16.82058 21.07130 18.94594
#
# Velocity S-wave (km/s) = 3.14934 3.52489 3.34239
# Velocity P-wave (km/s) = 5.46705 6.41343 5.95906
#
# Compressibility (1/GPa) = 0.03538475
#
# Stress axis : x y z
#
# Youngs Moduli (GPa) = 40.25654 80.72584 18.24543
#
# Poissons Ratio (x) = 0.44829 0.35731
# Poissons Ratio (y) = 0.22355 0.05819
# Poissons Ratio (z) = 0.78835 0.25747
#
# Static dielectric constant tensor:
#      x y z
#    x 1.634920 0.000000 0.000000 
#    y 0.000000 1.630060 0.000000 
#    z 0.000000 0.000000 1.539370 
# 
# From -- ./inp_files/17900.got.cif
#   From: 2010.05.17/outbox.cif.g08.bks.cpg/sg59_9_cif.got.tgz:17900.got - 2010.06.03 14:40:33.
