data_PCOD9446070
_publ_section_title
;
Structure prediction by ZEFSAII (Michael W. Deem and Ramdas Pophale) SiO2 
 PCOD9446070
Probable space group: P N N M
;
_chemical_formula_sum "Si O2"
_cell_formula_units_Z 56
_cell_length_a 6.000000
_cell_length_b 30.000000
_cell_length_c 15.000000
_cell_angle_alpha 90.000000
_cell_angle_beta 90.000000
_cell_angle_gamma 90.000000
_cell_volume 2700.000000
_symmetry_space_group_name_H-M "P N N M"
_symmetry_group_IT_number 58
_symmetry_cell_setting 'orthorhombic'
loop_
_space_group_symop_operation_xyz
x,y,z
-x,-y,z
1/2+x,1/2-y,1/2-z
1/2-x,1/2+y,1/2-z
-x,-y,-z
x,y,-z
1/2-x,1/2+y,1/2+z
1/2+x,1/2-y,1/2+z
loop_
_atom_site_type_symbol
_atom_site_label
_atom_site_fract_x
_atom_site_fract_y
_atom_site_fract_z
Si Si1 0.534854 0.298307 0.755861
Si Si2 0.228568 0.106812 0.743153
Si Si3 0.660173 0.757924 0.397011
Si Si4 0.124103 0.453626 0.259211
Si Si5 0.973597 0.053575 0.897557
Si Si6 0.389439 0.426148 0.100547
Si Si7 0.297373 0.830129 0.402750
O O1 0.691527 0.341161 0.742612
O O2 0.491222 0.276039 0.660383
O O3 0.636690 0.264539 0.828741
O O4 0.322299 0.316128 0.811116
O O5 0.472235 0.088007 0.736272
O O6 0.128444 0.079775 0.827966
O O7 0.104764 0.093080 0.651545
O O8 0.704469 0.744730 0.500000
O O9 0.534397 0.805737 0.401383
O O10 0.234778 0.440367 0.352425
O O11 0.288387 0.459282 0.174491
O O12 0.000000 0.500000 0.270280
O O13 0.996522 0.067581 0.000000
O O14 0.000000 0.000000 0.893391
O O15 0.228286 0.383085 0.092603
O O16 0.427515 0.442944 0.000000
O O17 0.194112 0.814757 0.500000
#
# Coordination Sequence:
#
# PCOD9446070 Si02
#       7
#     8   8   8   8   8   8   8
#     4  11  21  38  60  83 120 155 188 243 295 340
#     4  10  22  38  60  85 118 152 195 242 293 343
#     4  11  22  36  59  87 114 152 197 235 289 356
#     4  11  21  36  58  86 116 150 194 244 290 351
#     4  10  21  39  62  85 113 153 197 242 294 356
#     4   9  20  36  56  83 116 153 193 238 287 342
#     4   9  18  36  58  82 111 149 197 236 279 347
#
# _framework density 20.740741
#
# number of rings (size 3 to 8) (size 9 to 14) (size 15 to 20)
#    0.000    1.857    2.857    1.286    0.000    2.857 
#    0.000    0.714    0.000    0.000    0.000    0.000 
#    0.000    0.000    0.000    0.000    0.000    0.000 
#
# Total GULP energy -311803.731517 kJ/mol
# GULP energy per Si atom -5567.923777 kJ/mol
# Density = 2.069353 g / cm^3
# Si number density = 20.740741 Si / 1000 Ang^3
#
#
#
# Elastic Constant Matrix: (Units=GPa)
#
#
# Indices 1 2 3 4 5 6 
#
# 1 25.4579 15.8650 25.1444 0.0000 0.0000 0.0000
# 2 15.8650 31.1732 35.1983 0.0000 0.0000 0.0000
# 3 25.1444 35.1983 177.6018 0.0000 0.0000 0.0000
# 4 0.0000 0.0000 0.0000 22.1439 0.0000 0.0000
# 5 0.0000 0.0000 0.0000 0.0000 3.2907 0.0000
# 6 0.0000 0.0000 0.0000 0.0000 0.0000 25.2092
#
#
#
# Elastic Compliance Matrix: (Units=1/GPa)
#
#
# Indices 1 2 3 4 5 6 
#
# 1 0.058808 -0.026446 -0.003085 0.000000 0.000000 0.000000
# 2 -0.026446 0.053220 -0.006803 0.000000 0.000000 0.000000
# 3 -0.003085 -0.006803 0.007416 0.000000 0.000000 0.000000
# 4 0.000000 0.000000 0.000000 0.045159 0.000000 0.000000
# 5 0.000000 0.000000 0.000000 0.000000 0.303886 0.000000
# 6 0.000000 0.000000 0.000000 0.000000 0.000000 0.039668
#
#
# Mechanical properties :
#
#
# Convention : Reuss Voigt Hill
#
# Bulk Modulus (GPa) = 21.37888 42.96092 32.16990
# Shear Modulus (GPa) = 8.38341 20.66377 14.52359
#
# Velocity S-wave (km/s) = 2.01265 3.15983 2.64908
# Velocity P-wave (km/s) = 3.96624 5.83703 4.99009
#
# Compressibility (1/GPa) = 0.04677513
#
# Stress axis : x y z
#
# Youngs Moduli (GPa) = 17.00450 18.79000 134.85094
#
# Poissons Ratio (x) = 0.49693 0.41596
# Poissons Ratio (y) = 0.44971 0.91743
# Poissons Ratio (z) = 0.05245 0.12783
#
# Static dielectric constant tensor:
#      x y z
#    x 1.849800 0.000000 0.000000 
#    y 0.000000 1.800520 0.000000 
#    z 0.000000 0.000000 1.730810 
# 
# From -- ./inp_files/18719.got.cif
#   From: 2010.05.17/outbox.ucp.g08.bks.cvg/sg58_10_cif.got.tgz:18719.got - 2010.06.11 16:41:41.
