data_PCOD9446759
_publ_section_title
;
Structure prediction by ZEFSAII (Michael W. Deem and Ramdas Pophale) SiO2 
 PCOD9446759
Probable space group: P M M N
;
_chemical_formula_sum "Si O2"
_cell_formula_units_Z 48
_cell_length_a 8.897667
_cell_length_b 26.624334
_cell_length_c 12.249878
_cell_angle_alpha 90.000000
_cell_angle_beta 90.000000
_cell_angle_gamma 90.000000
_cell_volume 2901.928210
_symmetry_space_group_name_H-M "P M M N"
_symmetry_group_IT_number 59
_space_group.IT_coordinate_system_code '2'
_symmetry_cell_setting 'orthorhombic'
loop_
_space_group_symop_operation_xyz
x,y,z
1/2-x,1/2-y,z
1/2+x,-y,-z
-x,1/2+y,-z
-x,-y,-z
1/2+x,1/2+y,-z
1/2-x,y,z
x,1/2-y,z
loop_
_atom_site_type_symbol
_atom_site_label
_atom_site_fract_x
_atom_site_fract_y
_atom_site_fract_z
Si Si1 0.576376 0.381003 0.173092
Si Si2 0.430934 0.307408 0.339545
Si Si3 0.569976 0.612614 0.478747
Si Si4 0.929648 0.431547 0.720368
Si Si5 0.431802 0.945539 0.028406
Si Si6 0.575885 0.034480 0.360459
O O1 0.750000 0.365683 0.158631
O O2 0.488533 0.336500 0.232580
O O3 0.573720 0.427446 0.258053
O O4 0.518006 0.403999 0.059812
O O5 0.250000 0.307531 0.337702
O O6 0.483646 0.250000 0.344462
O O7 0.476482 0.340158 0.445751
O O8 0.750000 0.610839 0.473577
O O9 0.500880 0.610362 0.358269
O O10 0.508210 0.563864 0.543311
O O11 0.750000 0.430683 0.710238
O O12 0.969259 0.429480 0.848299
O O13 0.993851 0.484274 0.676423
O O14 0.250000 0.949666 0.019725
O O15 0.500000 0.000000 0.000000
O O16 0.750000 0.024709 0.389688
#
# Coordination Sequence:
#
# PCOD9446759 Si02
#       6
#     8   8   8   8   8   8
#     4   9  18  32  50  75 102 130 166 206 247 293
#     4   9  19  36  57  78  97 121 159 210 262 305
#     4  10  20  33  49  70  98 129 164 204 251 300
#     4  11  21  31  46  69 101 137 170 201 239 287
#     4  10  20  33  49  71 102 138 173 206 239 287
#     4  10  18  30  48  69  99 133 168 205 240 288
#
# _framework density 16.540724999999998
#
# number of rings (size 3 to 8) (size 9 to 14) (size 15 to 20)
#    0.000    2.167    1.667    2.000    0.000    3.000 
#    0.000    0.000    0.000    1.000    0.000    4.667 
#    0.000    0.000    0.000    0.000    0.000    0.000 
#
# Total GULP energy -267751.728835 kJ/mol
# GULP energy per Si atom -5578.161017 kJ/mol
# Density = 1.650308 g / cm^3
# Si number density = 16.540725 Si / 1000 Ang^3
#
#
#
# Elastic Constant Matrix: (Units=GPa)
#
#
# Indices 1 2 3 4 5 6 
#
# 1 43.3490 27.0415 44.0574 0.0000 0.0000 0.0000
# 2 27.0415 95.1947 65.5896 0.0000 0.0000 0.0000
# 3 44.0574 65.5896 148.8941 0.0000 0.0000 0.0000
# 4 0.0000 0.0000 0.0000 9.8322 0.0000 0.0000
# 5 0.0000 0.0000 0.0000 0.0000 22.8209 0.0000
# 6 0.0000 0.0000 0.0000 0.0000 0.0000 20.5837
#
#
#
# Elastic Compliance Matrix: (Units=1/GPa)
#
#
# Indices 1 2 3 4 5 6 
#
# 1 0.033975 -0.003912 -0.008330 0.000000 0.000000 0.000000
# 2 -0.003912 0.015533 -0.005685 0.000000 0.000000 0.000000
# 3 -0.008330 -0.005685 0.011685 0.000000 0.000000 0.000000
# 4 0.000000 0.000000 0.000000 0.101706 0.000000 0.000000
# 5 0.000000 0.000000 0.000000 0.000000 0.043820 0.000000
# 6 0.000000 0.000000 0.000000 0.000000 0.000000 0.048582
#
#
# Mechanical properties :
#
#
# Convention : Reuss Voigt Hill
#
# Bulk Modulus (GPa) = 39.46355 62.31274 50.88815
# Shear Modulus (GPa) = 16.68889 20.69733 18.69311
#
# Velocity S-wave (km/s) = 3.17986 3.54120 3.36538
# Velocity P-wave (km/s) = 6.11491 7.38067 6.77741
#
# Compressibility (1/GPa) = 0.02533984
#
# Stress axis : x y z
#
# Youngs Moduli (GPa) = 29.43361 64.37934 85.57779
#
# Poissons Ratio (x) = 0.25183 0.71285
# Poissons Ratio (y) = 0.11514 0.48651
# Poissons Ratio (z) = 0.24518 0.36600
#
# Static dielectric constant tensor:
#      x y z
#    x 1.561140 0.000000 0.000000 
#    y 0.000000 1.538020 0.000000 
#    z 0.000000 0.000000 1.584350 
# 
# From -- ./inp_files/14387.got.cif
#   From: 2010.05.17/outbox.cif.g08.bks.cpg/sg59_8_cif.got.tgz:14387.got - 2010.06.03 14:40:33.
