data_PCOD9446237
_publ_section_title
;
Structure prediction by ZEFSAII (Michael W. Deem and Ramdas Pophale) SiO2 
 PCOD9446237
Probable space group: P M M N
;
_chemical_formula_sum "Si O2"
_cell_formula_units_Z 64
_cell_length_a 14.729675
_cell_length_b 25.916656
_cell_length_c 10.297364
_cell_angle_alpha 90.000000
_cell_angle_beta 90.000000
_cell_angle_gamma 90.000000
_cell_volume 3930.956099
_symmetry_space_group_name_H-M "P M M N"
_symmetry_group_IT_number 59
_space_group.IT_coordinate_system_code '2'
_symmetry_cell_setting 'orthorhombic'
loop_
_space_group_symop_operation_xyz
x,y,z
1/2-x,1/2-y,z
1/2+x,-y,-z
-x,1/2+y,-z
-x,-y,-z
1/2+x,1/2+y,-z
1/2-x,y,z
x,1/2-y,z
loop_
_atom_site_type_symbol
_atom_site_label
_atom_site_fract_x
_atom_site_fract_y
_atom_site_fract_z
Si Si1 0.413972 0.005940 0.664886
Si Si2 0.638770 0.899846 0.990292
Si Si3 0.044437 0.123315 0.747946
Si Si4 0.121397 0.488161 0.381421
Si Si5 0.147985 0.126631 0.289492
Si Si6 0.646022 0.416141 0.810284
Si Si7 0.857793 0.688605 0.465105
Si Si8 0.141647 0.983448 0.951185
O O1 0.424893 0.067110 0.692414
O O2 0.357749 0.000090 0.532121
O O3 0.512960 0.984246 0.633532
O O4 0.381871 0.980697 0.799369
O O5 0.750000 0.898170 0.998004
O O6 0.607218 0.876256 0.853899
O O7 0.593208 0.872812 0.112863
O O8 0.611020 0.960381 0.997134
O O9 0.083910 0.165992 0.652480
O O10 0.935165 0.120483 0.761361
O O11 0.154862 0.432298 0.338471
O O12 0.149392 0.534304 0.286151
O O13 0.250000 0.147349 0.271554
O O14 0.107315 0.161023 0.403442
O O15 0.750000 0.396145 0.819476
O O16 0.612680 0.439019 0.949358
O O17 0.750000 0.674952 0.447759
O O18 0.863876 0.750000 0.474382
O O19 0.250000 0.983693 0.961443
#
# Coordination Sequence:
#
# PCOD9446237 Si02
#       8
#     8   8   8   8   8   8   8   8
#     4   9  19  27  42  69  96 129 169 200 233 278
#     4   9  17  28  45  72  98 128 166 194 231 284
#     4  10  19  32  50  70  97 131 160 203 242 286
#     4  10  17  28  43  66  97 130 166 201 231 277
#     4  10  18  29  47  68  95 126 157 194 237 287
#     4  10  20  31  45  69 102 136 167 200 237 278
#     4  10  21  37  55  74  95 120 154 199 251 299
#     4   9  17  28  40  62  98 134 165 197 229 269
#
# _framework density 16.281025
#
# number of rings (size 3 to 8) (size 9 to 14) (size 15 to 20)
#    0.000    2.375    2.500    0.750    1.750    3.000 
#    0.000    0.625    0.000    2.625    0.000    0.000 
#    0.000    0.000    0.000    0.000    0.000    0.000 
#
# Total GULP energy -356544.952850 kJ/mol
# GULP energy per Si atom -5571.014888 kJ/mol
# Density = 1.624397 g / cm^3
# Si number density = 16.281025 Si / 1000 Ang^3
#
#
#
# Elastic Constant Matrix: (Units=GPa)
#
#
# Indices 1 2 3 4 5 6 
#
# 1 56.8386 21.5351 26.5875 0.0000 0.0000 0.0000
# 2 21.5351 41.2598 34.4246 0.0000 0.0000 0.0000
# 3 26.5875 34.4246 136.2416 0.0000 0.0000 0.0000
# 4 0.0000 0.0000 0.0000 9.7833 0.0000 0.0000
# 5 0.0000 0.0000 0.0000 0.0000 20.0516 0.0000
# 6 0.0000 0.0000 0.0000 0.0000 0.0000 16.2797
#
#
#
# Elastic Compliance Matrix: (Units=1/GPa)
#
#
# Indices 1 2 3 4 5 6 
#
# 1 0.022268 -0.010133 -0.001785 0.000000 0.000000 0.000000
# 2 -0.010133 0.035322 -0.006947 0.000000 0.000000 0.000000
# 3 -0.001785 -0.006947 0.009444 0.000000 0.000000 0.000000
# 4 0.000000 0.000000 0.000000 0.102215 0.000000 0.000000
# 5 0.000000 0.000000 0.000000 0.000000 0.049871 0.000000
# 6 0.000000 0.000000 0.000000 0.000000 0.000000 0.061426
#
#
# Mechanical properties :
#
#
# Convention : Reuss Voigt Hill
#
# Bulk Modulus (GPa) = 34.12711 44.38160 39.25435
# Shear Modulus (GPa) = 15.24178 19.34243 17.29211
#
# Velocity S-wave (km/s) = 3.06301 3.45053 3.26253
# Velocity P-wave (km/s) = 5.78931 6.57219 6.19314
#
# Compressibility (1/GPa) = 0.02930222
#
# Stress axis : x y z
#
# Youngs Moduli (GPa) = 44.90747 28.31097 105.89041
#
# Poissons Ratio (x) = 0.28688 0.18904
# Poissons Ratio (y) = 0.45505 0.73567
# Poissons Ratio (z) = 0.08017 0.19669
#
# Static dielectric constant tensor:
#      x y z
#    x 1.586490 0.000000 0.000000 
#    y 0.000000 1.511670 0.000000 
#    z 0.000000 0.000000 1.600450 
# 
# From -- ./inp_files/10815.got.cif
#   From: 2010.05.17/outbox.cif.g08.bks.cpg/sg59_6_cif.got.tgz:10815.got - 2010.06.03 14:40:33.
