data_PCOD9446459
_publ_section_title
;
Structure prediction by ZEFSAII (Michael W. Deem and Ramdas Pophale) SiO2 
 PCOD9446459
Probable space group: P M M N
;
_chemical_formula_sum "Si O2"
_cell_formula_units_Z 56
_cell_length_a 19.681624
_cell_length_b 7.556567
_cell_length_c 18.097885
_cell_angle_alpha 90.000000
_cell_angle_beta 90.000000
_cell_angle_gamma 90.000000
_cell_volume 2691.617184
_symmetry_space_group_name_H-M "P M M N"
_symmetry_group_IT_number 59
_space_group.IT_coordinate_system_code '2'
_symmetry_cell_setting 'orthorhombic'
loop_
_space_group_symop_operation_xyz
x,y,z
1/2-x,1/2-y,z
1/2+x,-y,-z
-x,1/2+y,-z
-x,-y,-z
1/2+x,1/2+y,-z
1/2-x,y,z
x,1/2-y,z
loop_
_atom_site_type_symbol
_atom_site_label
_atom_site_fract_x
_atom_site_fract_y
_atom_site_fract_z
Si Si1 0.548215 0.458515 0.819360
Si Si2 0.323483 0.460480 0.721630
Si Si3 0.572985 0.962188 0.398454
Si Si4 0.928055 0.467300 0.653408
Si Si5 0.577825 0.037911 0.976510
Si Si6 0.105305 0.538396 0.867105
Si Si7 0.826421 0.038045 0.533366
O O1 0.563934 0.250000 0.816425
O O2 0.565552 0.529062 0.738208
O O3 0.584963 0.532730 0.893082
O O4 0.467597 0.473707 0.836097
O O5 0.250000 0.533800 0.700408
O O6 0.321860 0.250000 0.708858
O O7 0.384505 0.531292 0.671886
O O8 0.338987 0.488844 0.807274
O O9 0.568405 0.750000 0.393423
O O10 0.495527 0.025395 0.391768
O O11 0.619052 0.001716 0.469097
O O12 0.928146 0.250000 0.654415
O O13 0.861237 0.524671 0.609353
O O14 0.586893 0.250000 0.972047
O O15 0.617633 0.973088 0.049089
O O16 0.500000 0.000000 0.000000
O O17 0.100555 0.750000 0.870213
O O18 0.750000 0.968921 0.519529
O O19 0.821252 0.250000 0.537804
#
# Coordination Sequence:
#
# PCOD9446459 Si02
#       7
#     8   8   8   8   8   8   8
#     4   9  15  29  50  69  93 126 163 198 234 276
#     4  10  20  33  49  68  92 128 170 203 238 293
#     4  10  19  34  54  73  92 121 165 207 241 284
#     4   9  17  31  53  75  96 125 162 202 240 282
#     4   8  15  25  42  67  93 122 153 189 231 279
#     4  10  18  28  43  69 102 127 155 197 246 289
#     4  10  21  35  50  72 101 128 155 193 246 300
#
# _framework density 20.805336
#
# number of rings (size 3 to 8) (size 9 to 14) (size 15 to 20)
#    0.000    2.571    1.429    1.286    0.000    2.286 
#    0.000    0.714    0.000    0.857    0.000    4.000 
#    0.000    0.000    0.000    0.000    0.000    0.000 
#
# Total GULP energy -312149.480332 kJ/mol
# GULP energy per Si atom -5574.097863 kJ/mol
# Density = 2.075798 g / cm^3
# Si number density = 20.805336 Si / 1000 Ang^3
#
#
#
# Elastic Constant Matrix: (Units=GPa)
#
#
# Indices 1 2 3 4 5 6 
#
# 1 52.6447 2.5102 31.9135 0.0000 0.0000 0.0000
# 2 2.5102 48.7438 0.3881 0.0000 0.0000 0.0000
# 3 31.9135 0.3881 107.9548 0.0000 0.0000 0.0000
# 4 0.0000 0.0000 0.0000 15.1532 0.0000 0.0000
# 5 0.0000 0.0000 0.0000 0.0000 53.3963 0.0000
# 6 0.0000 0.0000 0.0000 0.0000 0.0000 7.1590
#
#
#
# Elastic Compliance Matrix: (Units=1/GPa)
#
#
# Indices 1 2 3 4 5 6 
#
# 1 0.023206 -0.001140 -0.006856 0.000000 0.000000 0.000000
# 2 -0.001140 0.020572 0.000263 0.000000 0.000000 0.000000
# 3 -0.006856 0.000263 0.011289 0.000000 0.000000 0.000000
# 4 0.000000 0.000000 0.000000 0.065992 0.000000 0.000000
# 5 0.000000 0.000000 0.000000 0.000000 0.018728 0.000000
# 6 0.000000 0.000000 0.000000 0.000000 0.000000 0.139685
#
#
# Mechanical properties :
#
#
# Convention : Reuss Voigt Hill
#
# Bulk Modulus (GPa) = 25.25233 30.99632 28.12433
# Shear Modulus (GPa) = 16.22647 26.77713 21.50180
#
# Velocity S-wave (km/s) = 2.79573 3.59141 3.21826
# Velocity P-wave (km/s) = 4.75240 5.66818 5.23037
#
# Compressibility (1/GPa) = 0.03960030
#
# Stress axis : x y z
#
# Youngs Moduli (GPa) = 43.09275 48.60957 88.58232
#
# Poissons Ratio (x) = 0.05544 0.60732
# Poissons Ratio (y) = 0.04915 -0.02331
# Poissons Ratio (z) = 0.29544 -0.01279
#
# Static dielectric constant tensor:
#      x y z
#    x 1.739040 0.000000 0.000000 
#    y 0.000000 1.690080 0.000000 
#    z 0.000000 0.000000 1.808810 
# 
# From -- ./inp_files/28082.got.cif
#   From: 2010.05.17/outbox.cif.g08.bks.cpg/sg59_15_cif.got.tgz:28082.got - 2010.06.03 14:40:33.
