data_PCOD9446293
_publ_section_title
;
Structure prediction by ZEFSAII (Michael W. Deem and Ramdas Pophale) SiO2 
 PCOD9446293
Probable space group: P M M N
;
_chemical_formula_sum "Si O2"
_cell_formula_units_Z 32
_cell_length_a 5.390292
_cell_length_b 15.935149
_cell_length_c 17.083762
_cell_angle_alpha 90.000000
_cell_angle_beta 90.000000
_cell_angle_gamma 90.000000
_cell_volume 1467.411551
_symmetry_space_group_name_H-M "P M M N"
_symmetry_group_IT_number 59
_space_group.IT_coordinate_system_code '2'
_symmetry_cell_setting 'orthorhombic'
loop_
_space_group_symop_operation_xyz
x,y,z
1/2-x,1/2-y,z
1/2+x,-y,-z
-x,1/2+y,-z
-x,-y,-z
1/2+x,1/2+y,-z
1/2-x,y,z
x,1/2-y,z
loop_
_atom_site_type_symbol
_atom_site_label
_atom_site_fract_x
_atom_site_fract_y
_atom_site_fract_z
Si Si1 0.250000 0.846171 0.758737
Si Si2 0.750000 0.387834 0.542881
Si Si3 0.250000 0.106894 0.146671
Si Si4 0.250000 0.152487 0.965914
Si Si5 0.250000 0.077990 0.497894
Si Si6 0.750000 0.102213 0.716550
Si Si7 0.750000 0.511070 0.324367
Si Si8 0.750000 0.407939 0.884207
O O1 0.250000 0.750000 0.734280
O O2 0.499705 0.864632 0.808770
O O3 0.250000 0.912318 0.687997
O O4 0.501915 0.370476 0.494731
O O5 0.750000 0.491859 0.551613
O O6 0.750000 0.352545 0.631139
O O7 0.250000 0.006316 0.137198
O O8 0.250000 0.143676 0.059387
O O9 0.250000 0.250000 0.944101
O O10 0.500477 0.111777 0.931750
O O11 0.250000 0.042652 0.586934
O O12 0.496684 0.048915 0.713974
O O13 0.750000 0.143230 0.801925
#
# Coordination Sequence:
#
# PCOD9446293 Si02
#       8
#     4   4   4   4   4   4   4   4
#     4  12  22  35  55  80 112 148 186 225 276 332
#     4   8  14  24  40  70  97 133 166 209 261 304
#     4  12  24  42  60  82 106 144 184 229 273 329
#     4  12  26  42  59  83 111 140 178 227 280 330
#     4   8  14  23  41  63 101 136 167 206 260 306
#     4  10  18  31  53  75 108 133 176 222 267 310
#     4  10  17  31  46  73 108 143 174 222 262 313
#     4  12  22  40  63  84 108 143 182 226 274 332
#
# _framework density 21.807107999999999
#
# number of rings (size 3 to 8) (size 9 to 14) (size 15 to 20)
#    0.000    1.500    2.500    4.500    0.000    0.000 
#    0.000    0.000    0.000    0.000    0.000    1.750 
#    0.000    0.000    0.000    0.000    0.000    0.250 
#
# Total GULP energy -178669.426402 kJ/mol
# GULP energy per Si atom -5583.419575 kJ/mol
# Density = 2.175747 g / cm^3
# Si number density = 21.807108 Si / 1000 Ang^3
#
#
#
# Elastic Constant Matrix: (Units=GPa)
#
#
# Indices 1 2 3 4 5 6 
#
# 1 212.5927 22.4794 20.9742 0.0000 0.0000 0.0000
# 2 22.4794 74.8418 -11.5805 0.0000 0.0000 0.0000
# 3 20.9742 -11.5805 68.9038 0.0000 0.0000 0.0000
# 4 0.0000 0.0000 0.0000 -16.7932 0.0000 0.0000
# 5 0.0000 0.0000 0.0000 0.0000 0.9666 0.0000
# 6 0.0000 0.0000 0.0000 0.0000 0.0000 10.0654
#
#
#
# Elastic Compliance Matrix: (Units=1/GPa)
#
#
# Indices 1 2 3 4 5 6 
#
# 1 0.005078 -0.001811 -0.001850 0.000000 0.000000 0.000000
# 2 -0.001811 0.014364 0.002966 0.000000 0.000000 0.000000
# 3 -0.001850 0.002966 0.015575 0.000000 0.000000 0.000000
# 4 0.000000 0.000000 0.000000 -0.059548 0.000000 0.000000
# 5 0.000000 0.000000 0.000000 0.000000 1.034606 0.000000
# 6 0.000000 0.000000 0.000000 0.000000 0.000000 0.099350
#
#
# Mechanical properties :
#
#
# Convention : Reuss Voigt Hill
#
# Bulk Modulus (GPa) = 29.73981 46.67606 38.20793
# Shear Modulus (GPa) = 4.45623 20.47878 12.46750
#
# Velocity S-wave (km/s) = 1.43105 3.06778 2.39366
# Velocity P-wave (km/s) = 4.04942 5.83085 5.01980
#
# Compressibility (1/GPa) = 0.03362496
#
# Stress axis : x y z
#
# Youngs Moduli (GPa) = 196.93143 69.61616 64.20712
#
# Poissons Ratio (x) = 0.12611 0.11879
# Poissons Ratio (y) = 0.35674 -0.19041
# Poissons Ratio (z) = 0.36435 -0.20646
#
# Static dielectric constant tensor:
#      x y z
#    x 1.876920 0.000000 0.000000 
#    y 0.000000 1.776790 0.000000 
#    z 0.000000 0.000000 1.830080 
# 
# From -- ./inp_files/25150.got.cif
#   From: 2010.05.17/outbox.cif.g08.bks.cpg/sg59_13_cif.got.tgz:25150.got - 2010.06.03 14:40:33.
