data_PCOD9446629
_publ_section_title
;
Structure prediction by ZEFSAII (Michael W. Deem and Ramdas Pophale) SiO2 
 PCOD9446629
Probable space group: P M M N
;
_chemical_formula_sum "Si O2"
_cell_formula_units_Z 64
_cell_length_a 8.245123
_cell_length_b 24.131288
_cell_length_c 19.799404
_cell_angle_alpha 90.000000
_cell_angle_beta 90.000000
_cell_angle_gamma 90.000000
_cell_volume 3939.397083
_symmetry_space_group_name_H-M "P M M N"
_symmetry_group_IT_number 59
_space_group.IT_coordinate_system_code '2'
_symmetry_cell_setting 'orthorhombic'
loop_
_space_group_symop_operation_xyz
x,y,z
1/2-x,1/2-y,z
1/2+x,-y,-z
-x,1/2+y,-z
-x,-y,-z
1/2+x,1/2+y,-z
1/2-x,y,z
x,1/2-y,z
loop_
_atom_site_type_symbol
_atom_site_label
_atom_site_fract_x
_atom_site_fract_y
_atom_site_fract_z
Si Si1 0.056922 0.587045 0.523153
Si Si2 0.946300 0.630740 0.748828
Si Si3 0.054090 0.497928 0.252013
Si Si4 0.943503 0.977562 0.397989
Si Si5 0.053840 0.913737 0.975971
Si Si6 0.554119 0.187143 0.112353
Si Si7 0.054044 0.522210 0.104518
Si Si8 0.054817 0.312755 0.390514
O O1 0.250000 0.588082 0.528111
O O2 0.995212 0.536446 0.571022
O O3 0.008269 0.569848 0.447652
O O4 0.991464 0.644790 0.550701
O O5 0.750000 0.631037 0.749506
O O6 0.999439 0.566577 0.748396
O O7 0.002579 0.661409 0.680765
O O8 0.005412 0.661936 0.815454
O O9 0.250000 0.498016 0.252764
O O10 0.998418 0.525468 0.181837
O O11 0.995016 0.525891 0.320580
O O12 0.750000 0.977724 0.402389
O O13 0.250000 0.913238 0.976392
O O14 0.996678 0.855649 0.945267
O O15 0.998254 0.931368 0.050991
O O16 0.998865 0.963262 0.926569
O O17 0.750000 0.188412 0.109489
O O18 0.494103 0.250000 0.105026
O O19 0.250000 0.523031 0.105075
O O20 0.250000 0.310847 0.387116
O O21 0.994860 0.250000 0.399537
#
# Coordination Sequence:
#
# PCOD9446629 Si02
#       8
#     8   8   8   8   8   8   8   8
#     4  10  20  33  49  69  93 122 155 194 234 273
#     4  10  19  31  46  65  93 127 162 194 223 267
#     4  10  18  29  47  69  93 121 153 190 233 281
#     4  10  20  32  49  70  94 122 154 191 235 284
#     4   9  17  29  44  62  87 118 152 190 231 274
#     4  10  20  31  43  62  90 124 159 193 228 269
#     4   9  17  29  45  65  88 116 150 190 234 277
#     4  10  20  33  48  66  92 127 162 192 226 271
#
# _framework density 16.24614
#
# number of rings (size 3 to 8) (size 9 to 14) (size 15 to 20)
#    0.000    2.250    2.500    1.125    0.000    3.500 
#    0.000    0.000    0.000    0.000    0.000    0.875 
#    0.000    3.000    0.000    0.000    0.000    0.000 
#
# Total GULP energy -356939.920710 kJ/mol
# GULP energy per Si atom -5577.186261 kJ/mol
# Density = 1.620916 g / cm^3
# Si number density = 16.246140 Si / 1000 Ang^3
#
#
#
# Elastic Constant Matrix: (Units=GPa)
#
#
# Indices 1 2 3 4 5 6 
#
# 1 5.0647 9.3064 9.2289 0.0000 0.0000 0.0000
# 2 9.3064 103.3310 74.9104 0.0000 0.0000 0.0000
# 3 9.2289 74.9104 140.7419 0.0000 0.0000 0.0000
# 4 0.0000 0.0000 0.0000 18.9306 0.0000 0.0000
# 5 0.0000 0.0000 0.0000 0.0000 19.7507 0.0000
# 6 0.0000 0.0000 0.0000 0.0000 0.0000 14.0878
#
#
#
# Elastic Compliance Matrix: (Units=1/GPa)
#
#
# Indices 1 2 3 4 5 6 
#
# 1 0.240661 -0.016665 -0.006911 0.000000 0.000000 0.000000
# 2 -0.016665 0.016912 -0.007909 0.000000 0.000000 0.000000
# 3 -0.006911 -0.007909 0.011768 0.000000 0.000000 0.000000
# 4 0.000000 0.000000 0.000000 0.052825 0.000000 0.000000
# 5 0.000000 0.000000 0.000000 0.000000 0.050631 0.000000
# 6 0.000000 0.000000 0.000000 0.000000 0.000000 0.070983
#
#
# Mechanical properties :
#
#
# Convention : Reuss Voigt Hill
#
# Bulk Modulus (GPa) = 4.84562 48.44765 26.64663
# Shear Modulus (GPa) = 8.68750 20.93329 14.81040
#
# Velocity S-wave (km/s) = 2.31496 3.59347 3.02259
# Velocity P-wave (km/s) = 3.18347 6.86318 5.34966
#
# Compressibility (1/GPa) = 0.20637214
#
# Stress axis : x y z
#
# Youngs Moduli (GPa) = 4.15522 59.12965 84.97748
#
# Poissons Ratio (x) = 0.98537 0.58728
# Poissons Ratio (y) = 0.06925 0.67206
# Poissons Ratio (z) = 0.02872 0.46764
#
# Static dielectric constant tensor:
#      x y z
#    x 1.565360 0.000000 0.000000 
#    y 0.000000 1.537190 0.000000 
#    z 0.000000 0.000000 1.547800 
# 
# From -- ./inp_files/26547.got.cif
#   From: 2010.05.17/outbox.cif.g08.bks.cpg/sg59_14_cif.got.tgz:26547.got - 2010.06.03 14:40:33.
