data_PCOD9446635
_publ_section_title
;
Structure prediction by ZEFSAII (Michael W. Deem and Ramdas Pophale) SiO2 
 PCOD9446635
Probable space group: P M M N
;
_chemical_formula_sum "Si O2"
_cell_formula_units_Z 48
_cell_length_a 7.547743
_cell_length_b 18.754560
_cell_length_c 17.147029
_cell_angle_alpha 90.000000
_cell_angle_beta 90.000000
_cell_angle_gamma 90.000000
_cell_volume 2427.240813
_symmetry_space_group_name_H-M "P M M N"
_symmetry_group_IT_number 59
_space_group.IT_coordinate_system_code '2'
_symmetry_cell_setting 'orthorhombic'
loop_
_space_group_symop_operation_xyz
x,y,z
1/2-x,1/2-y,z
1/2+x,-y,-z
-x,1/2+y,-z
-x,-y,-z
1/2+x,1/2+y,-z
1/2-x,y,z
x,1/2-y,z
loop_
_atom_site_type_symbol
_atom_site_label
_atom_site_fract_x
_atom_site_fract_y
_atom_site_fract_z
Si Si1 0.962727 0.415871 0.005102
Si Si2 0.037892 0.526038 0.586516
Si Si3 0.537081 0.952445 0.258821
Si Si4 0.466439 0.670621 0.664644
Si Si5 0.960932 0.169856 0.855371
Si Si6 0.034052 0.597397 0.823156
O O1 0.750000 0.408334 0.005107
O O2 0.032869 0.373467 0.930198
O O3 0.027343 0.388096 0.089250
O O4 0.000000 0.500000 0.000000
O O5 0.250000 0.671050 0.663261
O O6 0.973469 0.472366 0.654427
O O7 0.974338 0.605592 0.609283
O O8 0.000000 0.500000 0.500000
O O9 0.750000 0.954608 0.259776
O O10 0.486807 0.877882 0.221220
O O11 0.478532 0.017780 0.203093
O O12 0.250000 0.528626 0.593950
O O13 0.526268 0.750000 0.643867
O O14 0.519036 0.649623 0.753085
O O15 0.750000 0.175127 0.866500
O O16 0.031961 0.250000 0.849625
O O17 0.250000 0.598079 0.824034
#
# Coordination Sequence:
#
# PCOD9446635 Si02
#       6
#     8   8   8   8   8   8
#     4  10  18  29  47  69  96 129 164 200 239 286
#     4   9  18  32  52  77 100 123 157 196 235 289
#     4   9  17  32  51  69  92 125 165 198 230 288
#     4   8  14  26  46  72  98 121 150 193 240 281
#     4  10  21  33  45  69 102 130 162 207 251 283
#     4   8  14  25  44  68  91 119 157 195 230 277
#
# _framework density 19.775539999999999
#
# number of rings (size 3 to 8) (size 9 to 14) (size 15 to 20)
#    0.000    3.000    1.667    2.000    0.000    1.667 
#    0.000    4.167    0.000    3.500    0.000    0.000 
#    0.000    0.000    0.000    0.000    0.000    0.000 
#
# Total GULP energy -267626.187046 kJ/mol
# GULP energy per Si atom -5575.545563 kJ/mol
# Density = 1.973053 g / cm^3
# Si number density = 19.775540 Si / 1000 Ang^3
#
#
#
# Elastic Constant Matrix: (Units=GPa)
#
#
# Indices 1 2 3 4 5 6 
#
# 1 46.2477 5.4708 3.9275 0.0000 0.0000 0.0000
# 2 5.4708 175.1522 104.3142 0.0000 0.0000 0.0000
# 3 3.9275 104.3142 171.1068 0.0000 0.0000 0.0000
# 4 0.0000 0.0000 0.0000 20.9633 0.0000 0.0000
# 5 0.0000 0.0000 0.0000 0.0000 12.3483 0.0000
# 6 0.0000 0.0000 0.0000 0.0000 0.0000 12.2797
#
#
#
# Elastic Compliance Matrix: (Units=1/GPa)
#
#
# Indices 1 2 3 4 5 6 
#
# 1 0.021705 -0.000599 -0.000133 0.000000 0.000000 0.000000
# 2 -0.000599 0.008980 -0.005461 0.000000 0.000000 0.000000
# 3 -0.000133 -0.005461 0.009177 0.000000 0.000000 0.000000
# 4 0.000000 0.000000 0.000000 0.047702 0.000000 0.000000
# 5 0.000000 0.000000 0.000000 0.000000 0.080983 0.000000
# 6 0.000000 0.000000 0.000000 0.000000 0.000000 0.081435
#
#
# Mechanical properties :
#
#
# Convention : Reuss Voigt Hill
#
# Bulk Modulus (GPa) = 36.39536 68.88129 52.63832
# Shear Modulus (GPa) = 18.41439 27.70455 23.05947
#
# Velocity S-wave (km/s) = 3.05482 3.74699 3.41847
# Velocity P-wave (km/s) = 5.55758 7.32305 6.50053
#
# Compressibility (1/GPa) = 0.02747603
#
# Stress axis : x y z
#
# Youngs Moduli (GPa) = 46.07267 111.35265 108.97141
#
# Poissons Ratio (x) = 0.06665 0.01453
# Poissons Ratio (y) = 0.02758 0.59511
# Poissons Ratio (z) = 0.00614 0.60811
#
# Static dielectric constant tensor:
#      x y z
#    x 1.770440 0.000000 0.000000 
#    y 0.000000 1.687710 0.000000 
#    z 0.000000 0.000000 1.702210 
# 
# From -- ./inp_files/25745.got.cif
#   From: 2010.05.17/outbox.cif.g08.bks.cpg/sg59_13_cif.got.tgz:25745.got - 2010.06.03 14:40:33.
