data_PCOD9446322
_publ_section_title
;
Structure prediction by ZEFSAII (Michael W. Deem and Ramdas Pophale) SiO2 
 PCOD9446322
Probable space group: P M M N
;
_chemical_formula_sum "Si O2"
_cell_formula_units_Z 64
_cell_length_a 7.622202
_cell_length_b 28.091198
_cell_length_c 17.816156
_cell_angle_alpha 90.000000
_cell_angle_beta 90.000000
_cell_angle_gamma 90.000000
_cell_volume 3814.738054
_symmetry_space_group_name_H-M "P M M N"
_symmetry_group_IT_number 59
_space_group.IT_coordinate_system_code '2'
_symmetry_cell_setting 'orthorhombic'
loop_
_space_group_symop_operation_xyz
x,y,z
1/2-x,1/2-y,z
1/2+x,-y,-z
-x,1/2+y,-z
-x,-y,-z
1/2+x,1/2+y,-z
1/2-x,y,z
x,1/2-y,z
loop_
_atom_site_type_symbol
_atom_site_label
_atom_site_fract_x
_atom_site_fract_y
_atom_site_fract_z
Si Si1 0.453593 0.618479 0.469042
Si Si2 0.961491 0.445480 0.655539
Si Si3 0.039693 0.445175 0.979861
Si Si4 0.956632 0.917520 0.863088
Si Si5 0.537181 0.546406 0.595496
Si Si6 0.039025 0.125855 0.285193
Si Si7 0.958999 0.973984 0.176594
Si Si8 0.039687 0.696299 0.585324
O O1 0.250000 0.630956 0.456693
O O2 0.528591 0.600648 0.389689
O O3 0.463349 0.571767 0.522016
O O4 0.531045 0.660871 0.520151
O O5 0.750000 0.445270 0.649021
O O6 0.024307 0.493575 0.614155
O O7 0.001876 0.451430 0.743011
O O8 0.250000 0.438242 0.979046
O O9 0.976470 0.442055 0.893968
O O10 0.968905 0.416689 0.052178
O O11 0.000000 0.500000 0.000000
O O12 0.750000 0.906956 0.869749
O O13 0.029923 0.882919 0.798719
O O14 0.969692 0.972100 0.832612
O O15 0.750000 0.546654 0.590156
O O16 0.484491 0.580731 0.664210
O O17 0.250000 0.124564 0.281563
O O18 0.991862 0.171834 0.334019
O O19 0.750000 0.978776 0.169363
O O20 0.250000 0.697900 0.576431
O O21 0.971661 0.750000 0.580949
#
# Coordination Sequence:
#
# PCOD9446322 Si02
#       8
#     8   8   8   8   8   8   8   8
#     4   9  18  29  42  58  74 100 136 166 198 243
#     4  10  18  28  39  53  78 109 138 166 199 237
#     4   8  15  25  37  53  75 106 139 166 192 224
#     4   9  15  27  42  55  79 110 137 167 201 232
#     4   9  16  26  38  54  78 104 130 162 200 234
#     4   9  16  26  42  62  80 103 135 165 195 237
#     4  10  18  25  36  57  81 108 142 171 195 228
#     4   9  18  32  46  60  81 104 126 162 210 248
#
# _framework density 16.777037
#
# number of rings (size 3 to 8) (size 9 to 14) (size 15 to 20)
#    0.000    2.875    1.250    0.750    0.000    2.250 
#    0.000    0.000    0.000    0.000    0.000    0.000 
#    0.000    1.000    0.000    7.000    0.000    1.250 
#
# Total GULP energy -356271.186326 kJ/mol
# GULP energy per Si atom -5566.737286 kJ/mol
# Density = 1.673885 g / cm^3
# Si number density = 16.777037 Si / 1000 Ang^3
#
#
#
# Elastic Constant Matrix: (Units=GPa)
#
#
# Indices 1 2 3 4 5 6 
#
# 1 30.4566 1.1137 -10.2689 0.0000 0.0000 0.0000
# 2 1.1137 77.3176 65.5545 0.0000 0.0000 0.0000
# 3 -10.2689 65.5545 113.9013 0.0000 0.0000 0.0000
# 4 0.0000 0.0000 0.0000 11.0510 0.0000 0.0000
# 5 0.0000 0.0000 0.0000 0.0000 10.9129 0.0000
# 6 0.0000 0.0000 0.0000 0.0000 0.0000 8.0062
#
#
#
# Elastic Compliance Matrix: (Units=1/GPa)
#
#
# Indices 1 2 3 4 5 6 
#
# 1 0.035355 -0.006273 0.006798 0.000000 0.000000 0.000000
# 2 -0.006273 0.026373 -0.015744 0.000000 0.000000 0.000000
# 3 0.006798 -0.015744 0.018454 0.000000 0.000000 0.000000
# 4 0.000000 0.000000 0.000000 0.090489 0.000000 0.000000
# 5 0.000000 0.000000 0.000000 0.000000 0.091635 0.000000
# 6 0.000000 0.000000 0.000000 0.000000 0.000000 0.124903
#
#
# Mechanical properties :
#
#
# Convention : Reuss Voigt Hill
#
# Bulk Modulus (GPa) = 20.10329 37.16378 28.63354
# Shear Modulus (GPa) = 11.51471 17.01245 14.26358
#
# Velocity S-wave (km/s) = 2.62265 3.18784 2.91896
# Velocity P-wave (km/s) = 4.60214 5.97908 5.33522
#
# Compressibility (1/GPa) = 0.04974311
#
# Stress axis : x y z
#
# Youngs Moduli (GPa) = 28.28465 37.91793 54.18981
#
# Poissons Ratio (x) = 0.23785 -0.36836
# Poissons Ratio (y) = 0.17742 0.85317
# Poissons Ratio (z) = -0.19227 0.59698
#
# Static dielectric constant tensor:
#      x y z
#    x 1.182130 0.000000 0.000000 
#    y 0.000000 1.543490 0.000000 
#    z 0.000000 0.000000 1.641810 
# 
# From -- ./inp_files/26614.got.cif
#   From: 2010.05.17/outbox.cif.g08.bks.cpg/sg59_14_cif.got.tgz:26614.got - 2010.06.03 14:40:33.
