data_PCOD9446475
_publ_section_title
;
Structure prediction by ZEFSAII (Michael W. Deem and Ramdas Pophale) SiO2 
 PCOD9446475
Probable space group: P M M N
;
_chemical_formula_sum "Si O2"
_cell_formula_units_Z 64
_cell_length_a 9.091377
_cell_length_b 23.603767
_cell_length_c 17.122023
_cell_angle_alpha 90.000000
_cell_angle_beta 90.000000
_cell_angle_gamma 90.000000
_cell_volume 3674.227661
_symmetry_space_group_name_H-M "P M M N"
_symmetry_group_IT_number 59
_space_group.IT_coordinate_system_code '2'
_symmetry_cell_setting 'orthorhombic'
loop_
_space_group_symop_operation_xyz
x,y,z
1/2-x,1/2-y,z
1/2+x,-y,-z
-x,1/2+y,-z
-x,-y,-z
1/2+x,1/2+y,-z
1/2-x,y,z
x,1/2-y,z
loop_
_atom_site_type_symbol
_atom_site_label
_atom_site_fract_x
_atom_site_fract_y
_atom_site_fract_z
Si Si1 0.577328 0.094178 0.808183
Si Si2 0.425320 0.814296 0.569613
Si Si3 0.422460 0.816661 0.311123
Si Si4 0.924584 0.985505 0.081312
Si Si5 0.926151 0.519886 0.325736
Si Si6 0.075434 0.187043 0.261083
Si Si7 0.424068 0.110530 0.556965
Si Si8 0.423717 0.922201 0.782938
O O1 0.750000 0.084754 0.821188
O O2 0.554683 0.157190 0.775007
O O3 0.520135 0.056200 0.735746
O O4 0.487992 0.072372 0.882164
O O5 0.250000 0.819746 0.575188
O O6 0.456419 0.750000 0.537764
O O7 0.497065 0.816660 0.654803
O O8 0.489669 0.863924 0.516041
O O9 0.250000 0.828612 0.332009
O O10 0.444566 0.750000 0.313380
O O11 0.527436 0.848372 0.371875
O O12 0.750000 0.981825 0.072468
O O13 0.954804 0.034251 0.146425
O O14 0.000000 0.000000 0.000000
O O15 0.750000 0.529020 0.311735
O O16 0.957889 0.547081 0.410344
O O17 0.955054 0.455570 0.298921
O O18 0.250000 0.182243 0.271471
O O19 0.043269 0.250000 0.228981
O O20 0.014864 0.134919 0.211685
O O21 0.250000 0.114037 0.542839
O O22 0.250000 0.909572 0.783928
#
# Coordination Sequence:
#
# PCOD9446475 Si02
#       8
#     8   8   8   8   8   8   8   8
#     4   9  16  27  45  68  95 127 162 197 232 274
#     4  10  20  33  48  66  92 128 169 213 258 301
#     4   9  17  28  42  63  93 130 169 203 236 280
#     4  10  20  34  54  80 106 128 153 189 232 280
#     4   8  16  30  46  67  97 130 162 199 243 289
#     4  10  21  36  54  76  99 124 160 206 251 294
#     4  10  18  28  44  67  96 128 165 211 256 293
#     4   9  18  34  55  77 101 129 161 196 237 290
#
# _framework density 17.418627000000001
#
# number of rings (size 3 to 8) (size 9 to 14) (size 15 to 20)
#    0.000    2.625    0.000    3.000    0.000    6.750 
#    0.000    0.625    0.000    0.750    0.000    1.750 
#    0.000    0.000    0.000    0.000    0.000    0.000 
#
# Total GULP energy -356554.338902 kJ/mol
# GULP energy per Si atom -5571.161545 kJ/mol
# Density = 1.737898 g / cm^3
# Si number density = 17.418627 Si / 1000 Ang^3
#
#
#
# Elastic Constant Matrix: (Units=GPa)
#
#
# Indices 1 2 3 4 5 6 
#
# 1 44.0941 29.8459 16.6267 0.0000 0.0000 0.0000
# 2 29.8459 59.4112 5.8030 0.0000 0.0000 0.0000
# 3 16.6267 5.8030 31.2611 0.0000 0.0000 0.0000
# 4 0.0000 0.0000 0.0000 17.8666 0.0000 0.0000
# 5 0.0000 0.0000 0.0000 0.0000 28.9663 0.0000
# 6 0.0000 0.0000 0.0000 0.0000 0.0000 25.6022
#
#
#
# Elastic Compliance Matrix: (Units=1/GPa)
#
#
# Indices 1 2 3 4 5 6 
#
# 1 0.043525 -0.019966 -0.019443 0.000000 0.000000 0.000000
# 2 -0.019966 0.026302 0.005737 0.000000 0.000000 0.000000
# 3 -0.019443 0.005737 0.041265 0.000000 0.000000 0.000000
# 4 0.000000 0.000000 0.000000 0.055970 0.000000 0.000000
# 5 0.000000 0.000000 0.000000 0.000000 0.034523 0.000000
# 6 0.000000 0.000000 0.000000 0.000000 0.000000 0.039059
#
#
# Mechanical properties :
#
#
# Convention : Reuss Voigt Hill
#
# Bulk Modulus (GPa) = 22.85883 26.59085 24.72484
# Shear Modulus (GPa) = 15.50053 19.98641 17.74347
#
# Velocity S-wave (km/s) = 2.98633 3.39103 3.19509
# Velocity P-wave (km/s) = 5.00425 5.53453 5.27606
#
# Compressibility (1/GPa) = 0.04374678
#
# Stress axis : x y z
#
# Youngs Moduli (GPa) = 22.97555 38.02048 24.23378
#
# Poissons Ratio (x) = 0.75912 0.47118
# Poissons Ratio (y) = 0.45873 -0.13903
# Poissons Ratio (z) = 0.44671 -0.21812
#
# Static dielectric constant tensor:
#      x y z
#    x 1.579750 0.000000 0.000000 
#    y 0.000000 1.630790 0.000000 
#    z 0.000000 0.000000 1.593090 
# 
# From -- ./inp_files/26161.got.cif
#   From: 2010.05.17/outbox.cif.g08.bks.cpg/sg59_14_cif.got.tgz:26161.got - 2010.06.03 14:40:33.
