data_PCOD9446331
_publ_section_title
;
Structure prediction by ZEFSAII (Michael W. Deem and Ramdas Pophale) SiO2 
 PCOD9446331
Probable space group: P M M N
;
_chemical_formula_sum "Si O2"
_cell_formula_units_Z 56
_cell_length_a 28.011833
_cell_length_b 7.661127
_cell_length_c 14.859940
_cell_angle_alpha 90.000000
_cell_angle_beta 90.000000
_cell_angle_gamma 90.000000
_cell_volume 3188.975966
_symmetry_space_group_name_H-M "P M M N"
_symmetry_group_IT_number 59
_space_group.IT_coordinate_system_code '2'
_symmetry_cell_setting 'orthorhombic'
loop_
_space_group_symop_operation_xyz
x,y,z
1/2-x,1/2-y,z
1/2+x,-y,-z
-x,1/2+y,-z
-x,-y,-z
1/2+x,1/2+y,-z
1/2-x,y,z
x,1/2-y,z
loop_
_atom_site_type_symbol
_atom_site_label
_atom_site_fract_x
_atom_site_fract_y
_atom_site_fract_z
Si Si1 0.382273 0.461237 0.267762
Si Si2 0.941708 0.543013 0.169519
Si Si3 0.036215 0.545975 0.629974
Si Si4 0.695230 0.535868 0.873863
Si Si5 0.124219 0.449654 0.975591
Si Si6 0.955301 0.044301 0.885998
Si Si7 0.433155 0.038761 0.439520
O O1 0.382363 0.250000 0.266543
O O2 0.335171 0.518663 0.213941
O O3 0.427024 0.521059 0.207546
O O4 0.392184 0.517045 0.369900
O O5 0.942109 0.750000 0.150984
O O6 0.943895 0.524499 0.276596
O O7 0.991436 0.473691 0.127966
O O8 0.895638 0.470595 0.116972
O O9 0.029214 0.750000 0.645475
O O10 0.069112 0.519661 0.542538
O O11 0.984091 0.474041 0.600869
O O12 0.750000 0.480795 0.872581
O O13 0.694313 0.750000 0.875110
O O14 0.665968 0.473364 0.961965
O O15 0.139015 0.250000 0.957878
O O16 0.077499 0.452434 0.040072
O O17 0.956867 0.250000 0.907740
O O18 0.434445 0.250000 0.440771
#
# Coordination Sequence:
#
# PCOD9446331 Si02
#       7
#     8   8   8   8   8   8   8
#     4   9  16  28  45  63  86 115 143 172 213 258
#     4  10  19  29  40  58  85 118 148 177 209 248
#     4  10  19  28  42  61  84 115 147 179 208 242
#     4   8  14  26  46  69  87 105 136 177 216 257
#     4   9  18  30  43  59  84 115 144 174 215 257
#     4  10  18  26  39  60  85 113 146 178 206 242
#     4   9  17  29  42  59  84 115 145 173 209 250
#
# _framework density 17.560497999999999
#
# number of rings (size 3 to 8) (size 9 to 14) (size 15 to 20)
#    0.000    2.714    1.429    2.143    0.000    2.286 
#    0.000    0.000    0.000    6.857    0.000    1.000 
#    0.000    8.000    0.000    0.000    0.000    0.000 
#
# Total GULP energy -312024.107303 kJ/mol
# GULP energy per Si atom -5571.859059 kJ/mol
# Density = 1.752053 g / cm^3
# Si number density = 17.560498 Si / 1000 Ang^3
#
#
#
# Elastic Constant Matrix: (Units=GPa)
#
#
# Indices 1 2 3 4 5 6 
#
# 1 100.6769 2.6806 45.0229 0.0000 0.0000 0.0000
# 2 2.6806 33.9273 -5.4029 0.0000 0.0000 0.0000
# 3 45.0229 -5.4029 82.7292 0.0000 0.0000 0.0000
# 4 0.0000 0.0000 0.0000 15.8615 0.0000 0.0000
# 5 0.0000 0.0000 0.0000 0.0000 13.0596 0.0000
# 6 0.0000 0.0000 0.0000 0.0000 0.0000 8.6668
#
#
#
# Elastic Compliance Matrix: (Units=1/GPa)
#
#
# Indices 1 2 3 4 5 6 
#
# 1 0.013292 -0.002225 -0.007379 0.000000 0.000000 0.000000
# 2 -0.002225 0.030157 0.003181 0.000000 0.000000 0.000000
# 3 -0.007379 0.003181 0.016311 0.000000 0.000000 0.000000
# 4 0.000000 0.000000 0.000000 0.063046 0.000000 0.000000
# 5 0.000000 0.000000 0.000000 0.000000 0.076572 0.000000
# 6 0.000000 0.000000 0.000000 0.000000 0.000000 0.115383
#
#
# Mechanical properties :
#
#
# Convention : Reuss Voigt Hill
#
# Bulk Modulus (GPa) = 21.31623 33.54829 27.43226
# Shear Modulus (GPa) = 14.56680 19.18643 16.87661
#
# Velocity S-wave (km/s) = 2.88326 3.30902 3.10345
# Velocity P-wave (km/s) = 4.82176 5.80908 5.33829
#
# Compressibility (1/GPa) = 0.04691262
#
# Stress axis : x y z
#
# Youngs Moduli (GPa) = 75.23347 33.15966 61.30757
#
# Poissons Ratio (x) = 0.07379 0.45239
# Poissons Ratio (y) = 0.16742 -0.19499
# Poissons Ratio (z) = 0.55515 -0.10547
#
# Static dielectric constant tensor:
#      x y z
#    x 1.590020 0.000000 0.000000 
#    y 0.000000 1.643650 0.000000 
#    z 0.000000 0.000000 1.635640 
# 
# From -- ./inp_files/24971.got.cif
#   From: 2010.05.17/outbox.cif.g08.bks.cpg/sg59_13_cif.got.tgz:24971.got - 2010.06.03 14:40:33.
