data_PCOD9446882
_publ_section_title
;
Structure prediction by ZEFSAII (Michael W. Deem and Ramdas Pophale) SiO2 
 PCOD9446882
Probable space group: P M M N
;
_chemical_formula_sum "Si O2"
_cell_formula_units_Z 64
_cell_length_a 16.672431
_cell_length_b 8.099909
_cell_length_c 23.450603
_cell_angle_alpha 90.000000
_cell_angle_beta 90.000000
_cell_angle_gamma 90.000000
_cell_volume 3166.890760
_symmetry_space_group_name_H-M "P M M N"
_symmetry_group_IT_number 59
_space_group.IT_coordinate_system_code '2'
_symmetry_cell_setting 'orthorhombic'
loop_
_space_group_symop_operation_xyz
x,y,z
1/2-x,1/2-y,z
1/2+x,-y,-z
-x,1/2+y,-z
-x,-y,-z
1/2+x,1/2+y,-z
1/2-x,y,z
x,1/2-y,z
loop_
_atom_site_type_symbol
_atom_site_label
_atom_site_fract_x
_atom_site_fract_y
_atom_site_fract_z
Si Si1 0.960519 0.559070 0.623738
Si Si2 0.339811 0.451195 0.046206
Si Si3 0.370927 0.438098 0.593595
Si Si4 0.160252 0.050903 0.912859
Si Si5 0.984020 0.550870 0.873008
Si Si6 0.657296 0.436694 0.533352
Si Si7 0.989950 0.951031 0.747807
Si Si8 0.665461 0.444044 0.283693
O O1 0.987972 0.750000 0.625752
O O2 0.889661 0.543375 0.579187
O O3 0.033635 0.452919 0.600031
O O4 0.944376 0.506624 0.689148
O O5 0.250000 0.502096 0.066366
O O6 0.340590 0.250000 0.048002
O O7 0.417173 0.510088 0.081880
O O8 0.346305 0.497646 0.979676
O O9 0.344891 0.250000 0.599321
O O10 0.349304 0.503395 0.531543
O O11 0.338135 0.536972 0.647855
O O12 0.250000 0.994573 0.892655
O O13 0.160918 0.250000 0.909926
O O14 0.077348 0.993362 0.884107
O O15 0.980468 0.750000 0.874676
O O16 0.960585 0.493049 0.809311
O O17 0.750000 0.436172 0.548804
O O18 0.625458 0.250000 0.535834
O O19 0.991202 0.750000 0.749875
O O20 0.081755 0.012103 0.739464
O O21 0.750000 0.517483 0.263307
O O22 0.665652 0.250000 0.269816
#
# Coordination Sequence:
#
# PCOD9446882 Si02
#       8
#     8   8   8   8   8   8   8   8
#     4  10  20  37  56  71  95 130 165 199 240 292
#     4   8  15  29  49  73 102 135 169 207 255 307
#     4  11  21  33  52  77 102 126 158 200 245 294
#     4   9  18  32  48  70 105 143 170 198 249 311
#     4  10  18  30  52  78 100 128 172 219 255 292
#     4  11  23  37  53  75 102 128 156 195 245 297
#     4   8  17  32  49  72  99 127 162 205 250 292
#     4   9  17  31  49  67  94 133 167 197 243 300
#
# _framework density 20.209098000000001
#
# number of rings (size 3 to 8) (size 9 to 14) (size 15 to 20)
#    0.000    2.500    0.000    4.500    0.000    3.500 
#    0.000    5.000    0.000    3.375    0.000    0.000 
#    0.000    0.000    0.000    0.000    0.000    0.000 
#
# Total GULP energy -356730.845240 kJ/mol
# GULP energy per Si atom -5573.919457 kJ/mol
# Density = 2.016310 g / cm^3
# Si number density = 20.209098 Si / 1000 Ang^3
#
#
#
# Elastic Constant Matrix: (Units=GPa)
#
#
# Indices 1 2 3 4 5 6 
#
# 1 63.1227 0.8432 27.7737 0.0000 0.0000 0.0000
# 2 0.8432 27.7370 -2.6253 0.0000 0.0000 0.0000
# 3 27.7737 -2.6253 61.2926 0.0000 0.0000 0.0000
# 4 0.0000 0.0000 0.0000 6.0442 0.0000 0.0000
# 5 0.0000 0.0000 0.0000 0.0000 14.1387 0.0000
# 6 0.0000 0.0000 0.0000 0.0000 0.0000 18.6843
#
#
#
# Elastic Compliance Matrix: (Units=1/GPa)
#
#
# Indices 1 2 3 4 5 6 
#
# 1 0.019846 -0.001460 -0.009055 0.000000 0.000000 0.000000
# 2 -0.001460 0.036307 0.002217 0.000000 0.000000 0.000000
# 3 -0.009055 0.002217 0.020513 0.000000 0.000000 0.000000
# 4 0.000000 0.000000 0.000000 0.165448 0.000000 0.000000
# 5 0.000000 0.000000 0.000000 0.000000 0.070728 0.000000
# 6 0.000000 0.000000 0.000000 0.000000 0.000000 0.053521
#
#
# Mechanical properties :
#
#
# Convention : Reuss Voigt Hill
#
# Bulk Modulus (GPa) = 16.64760 22.68171 19.66466
# Shear Modulus (GPa) = 12.40743 16.18414 14.29578
#
# Velocity S-wave (km/s) = 2.48049 2.83297 2.66257
# Velocity P-wave (km/s) = 4.05701 4.68496 4.38225
#
# Compressibility (1/GPa) = 0.06006871
#
# Stress axis : x y z
#
# Youngs Moduli (GPa) = 50.38785 27.54279 48.74840
#
# Poissons Ratio (x) = 0.04022 0.44144
# Poissons Ratio (y) = 0.07359 -0.10807
# Poissons Ratio (z) = 0.45629 -0.06106
#
# Static dielectric constant tensor:
#      x y z
#    x 1.702020 0.000000 0.000000 
#    y 0.000000 1.716170 0.000000 
#    z 0.000000 0.000000 1.721970 
# 
# From -- ./inp_files/30817.got.cif
#   From: 2010.05.17/outbox.cif.g08.bks.cpg/sg59_16_cif.got.tgz:30817.got - 2010.06.03 14:40:33.
