data_PCOD9446356
_publ_section_title
;
Structure prediction by ZEFSAII (Michael W. Deem and Ramdas Pophale) SiO2 
 PCOD9446356
Probable space group: P M M N
;
_chemical_formula_sum "Si O2"
_cell_formula_units_Z 56
_cell_length_a 8.437405
_cell_length_b 25.539716
_cell_length_c 16.725077
_cell_angle_alpha 90.000000
_cell_angle_beta 90.000000
_cell_angle_gamma 90.000000
_cell_volume 3604.068905
_symmetry_space_group_name_H-M "P M M N"
_symmetry_group_IT_number 59
_space_group.IT_coordinate_system_code '2'
_symmetry_cell_setting 'orthorhombic'
loop_
_space_group_symop_operation_xyz
x,y,z
1/2-x,1/2-y,z
1/2+x,-y,-z
-x,1/2+y,-z
-x,-y,-z
1/2+x,1/2+y,-z
1/2-x,y,z
x,1/2-y,z
loop_
_atom_site_type_symbol
_atom_site_label
_atom_site_fract_x
_atom_site_fract_y
_atom_site_fract_z
Si Si1 0.941231 0.690852 0.920958
Si Si2 0.939470 0.009732 0.875118
Si Si3 0.560021 0.513255 0.302005
Si Si4 0.439345 0.582684 0.979103
Si Si5 0.943173 0.691335 0.736217
Si Si6 0.558933 0.555062 0.464113
Si Si7 0.442407 0.403250 0.373824
O O1 0.750000 0.690179 0.922837
O O2 0.991811 0.750000 0.944246
O O3 0.990711 0.682303 0.828322
O O4 0.002628 0.641998 0.971317
O O5 0.750000 0.008016 0.876662
O O6 0.994601 0.052564 0.940572
O O7 0.994862 0.022509 0.786162
O O8 0.000810 0.953397 0.905831
O O9 0.750000 0.513606 0.298675
O O10 0.506834 0.554061 0.371630
O O11 0.503808 0.456154 0.332192
O O12 0.250000 0.582178 0.978327
O O13 0.750000 0.690546 0.735733
O O14 0.992710 0.750000 0.713291
O O15 0.998383 0.646588 0.676300
O O16 0.500000 0.500000 0.500000
O O17 0.750000 0.555091 0.463050
O O18 0.509157 0.596134 0.532474
O O19 0.250000 0.404596 0.370891
#
# Coordination Sequence:
#
# PCOD9446356 Si02
#       7
#     8   8   8   8   8   8   8
#     4   9  17  29  45  65  90 119 147 174 208 254
#     4  10  20  32  45  62  86 115 145 177 218 269
#     4  10  18  27  40  60  85 110 139 174 210 249
#     4  10  20  32  46  65  87 111 143 182 221 260
#     4   8  14  24  39  60  82 105 136 167 193 232
#     4   8  15  25  37  57  82 106 134 166 200 239
#     4   9  15  25  42  60  82 113 141 167 204 246
#
# _framework density 15.537993999999999
#
# number of rings (size 3 to 8) (size 9 to 14) (size 15 to 20)
#    0.000    2.857    0.000    3.000    0.000    3.714 
#    0.000    0.000    0.000    1.286    0.000    1.000 
#    0.000    3.429    0.000    0.000    0.000    0.000 
#
# Total GULP energy -311774.841003 kJ/mol
# GULP energy per Si atom -5567.407875 kJ/mol
# Density = 1.550263 g / cm^3
# Si number density = 15.537994 Si / 1000 Ang^3
#
#
#
# Elastic Constant Matrix: (Units=GPa)
#
#
# Indices 1 2 3 4 5 6 
#
# 1 14.3331 14.7291 14.8902 0.0000 0.0000 0.0000
# 2 14.7291 90.1607 42.9810 0.0000 0.0000 0.0000
# 3 14.8902 42.9810 98.2584 0.0000 0.0000 0.0000
# 4 0.0000 0.0000 0.0000 24.5204 0.0000 0.0000
# 5 0.0000 0.0000 0.0000 0.0000 15.7703 0.0000
# 6 0.0000 0.0000 0.0000 0.0000 0.0000 18.0868
#
#
#
# Elastic Compliance Matrix: (Units=1/GPa)
#
#
# Indices 1 2 3 4 5 6 
#
# 1 0.089841 -0.010343 -0.009090 0.000000 0.000000 0.000000
# 2 -0.010343 0.015204 -0.005083 0.000000 0.000000 0.000000
# 3 -0.009090 -0.005083 0.013778 0.000000 0.000000 0.000000
# 4 0.000000 0.000000 0.000000 0.040782 0.000000 0.000000
# 5 0.000000 0.000000 0.000000 0.000000 0.063410 0.000000
# 6 0.000000 0.000000 0.000000 0.000000 0.000000 0.055289
#
#
# Mechanical properties :
#
#
# Convention : Reuss Voigt Hill
#
# Bulk Modulus (GPa) = 14.32873 38.66142 26.49508
# Shear Modulus (GPa) = 14.26116 20.35230 17.30673
#
# Velocity S-wave (km/s) = 3.03285 3.62310 3.34103
# Velocity P-wave (km/s) = 4.63746 6.51447 5.65439
#
# Compressibility (1/GPa) = 0.06978985
#
# Stress axis : x y z
#
# Youngs Moduli (GPa) = 11.13078 65.77052 72.57747
#
# Poissons Ratio (x) = 0.68029 0.65974
# Poissons Ratio (y) = 0.11513 0.36894
# Poissons Ratio (z) = 0.10118 0.33434
#
# Static dielectric constant tensor:
#      x y z
#    x 1.532720 0.000000 0.000000 
#    y 0.000000 1.507210 0.000000 
#    z 0.000000 0.000000 1.545600 
# 
# From -- ./inp_files/26411.got.cif
#   From: 2010.05.17/outbox.cif.g08.bks.cpg/sg59_14_cif.got.tgz:26411.got - 2010.06.03 14:40:33.
