data_PCOD9446102
_publ_section_title
;
Structure prediction by ZEFSAII (Michael W. Deem and Ramdas Pophale) SiO2 
 PCOD9446102
Probable space group: P N N M
;
_chemical_formula_sum "Si O2"
_cell_formula_units_Z 34
_cell_length_a 9.000000
_cell_length_b 9.000000
_cell_length_c 21.000000
_cell_angle_alpha 90.000000
_cell_angle_beta 90.000000
_cell_angle_gamma 90.000000
_cell_volume 1701.000000
_symmetry_space_group_name_H-M "P N N M"
_symmetry_group_IT_number 58
_symmetry_cell_setting 'orthorhombic'
loop_
_space_group_symop_operation_xyz
x,y,z
-x,-y,z
1/2+x,1/2-y,1/2-z
1/2-x,1/2+y,1/2-z
-x,-y,-z
x,y,-z
1/2-x,1/2+y,1/2+z
1/2+x,1/2-y,1/2+z
loop_
_atom_site_type_symbol
_atom_site_label
_atom_site_fract_x
_atom_site_fract_y
_atom_site_fract_z
Si Si1 0.837975 0.842960 0.327045
Si Si2 0.500000 0.000000 0.500000
Si Si3 0.212503 0.366437 0.113338
Si Si4 0.014214 0.673089 0.226511
Si Si5 0.986170 0.323979 0.427677
O O1 0.961912 0.795729 0.276316
O O2 0.681853 0.801871 0.294958
O O3 0.881534 0.745439 0.387350
O O4 0.814804 0.007962 0.353340
O O5 0.382928 0.937821 0.444045
O O6 0.093193 0.317138 0.165798
O O7 0.325440 0.236322 0.094095
O O8 0.000000 0.500000 0.250521
O O9 0.004166 0.274908 0.500000
O O10 0.000000 0.500000 0.423465
#
# Coordination Sequence:
#
# PCOD9446102 Si02
#       5
#     8   2   8   8   8
#     4  11  22  39  66  96 125 174 222 275 336 410
#     4  12  20  44  76 102 138 176 240 292 348 420
#     4  11  23  43  73  99 133 179 227 288 344 418
#     4  10  22  41  63  95 134 169 217 273 346 405
#     4  11  25  42  62  93 133 174 218 276 344 405
#
# _framework density 19.988242
#
# number of rings (size 3 to 8) (size 9 to 14) (size 15 to 20)
#    0.000    1.176    4.706    2.824    1.647    4.706 
#    0.000    5.882    0.000    4.235    0.000    0.000 
#    0.000    0.000    0.000    0.000    0.000    0.000 
#
# Total GULP energy -189388.775544 kJ/mol
# GULP energy per Si atom -5570.258104 kJ/mol
# Density = 1.994275 g / cm^3
# Si number density = 19.988242 Si / 1000 Ang^3
#
#
#
# Elastic Constant Matrix: (Units=GPa)
#
#
# Indices 1 2 3 4 5 6 
#
# 1 65.3017 27.3276 22.2603 0.0000 0.0000 0.0000
# 2 27.3276 22.5038 42.9464 0.0000 0.0000 0.0000
# 3 22.2603 42.9464 115.0099 0.0000 0.0000 0.0000
# 4 0.0000 0.0000 0.0000 17.5910 0.0000 0.0000
# 5 0.0000 0.0000 0.0000 0.0000 109.4876 0.0000
# 6 0.0000 0.0000 0.0000 0.0000 0.0000 35.1315
#
#
#
# Elastic Compliance Matrix: (Units=1/GPa)
#
#
# Indices 1 2 3 4 5 6 
#
# 1 0.196805 -0.578679 0.177995 0.000000 0.000000 0.000000
# 2 -0.578679 1.856161 -0.581113 0.000000 0.000000 0.000000
# 3 0.177995 -0.581113 0.191240 0.000000 0.000000 0.000000
# 4 0.000000 0.000000 0.000000 0.056847 0.000000 0.000000
# 5 0.000000 0.000000 0.000000 0.000000 0.009133 0.000000
# 6 0.000000 0.000000 0.000000 0.000000 0.000000 0.028464
#
#
# Mechanical properties :
#
#
# Convention : Reuss Voigt Hill
#
# Bulk Modulus (GPa) = 3.56364 43.09823 23.33093
# Shear Modulus (GPa) = 1.13745 39.79409 20.46577
#
# Velocity S-wave (km/s) = 0.75518 4.46676 3.20330
# Velocity P-wave (km/s) = 1.59597 6.94343 5.03778
#
# Compressibility (1/GPa) = 0.28061217
#
# Stress axis : x y z
#
# Youngs Moduli (GPa) = 5.08118 0.53875 5.22904
#
# Poissons Ratio (x) = 0.31176 -0.93074
# Poissons Ratio (y) = 2.94037 3.03866
# Poissons Ratio (z) = -0.90443 0.31307
#
# Static dielectric constant tensor:
#      x y z
#    x 1.694220 0.000000 0.000000 
#    y 0.000000 1.707300 0.000000 
#    z 0.000000 0.000000 1.733450 
# 
# From -- ./inp_files/28522.got.cif
#   From: 2010.05.17/outbox.ucp.g08.bks.cvg/sg58_15_cif.got.tgz:28522.got - 2010.06.11 16:41:41.
