data_PCOD9446461
_publ_section_title
;
Structure prediction by ZEFSAII (Michael W. Deem and Ramdas Pophale) SiO2 
 PCOD9446461
Probable space group: P M M N
;
_chemical_formula_sum "Si O2"
_cell_formula_units_Z 40
_cell_length_a 7.408809
_cell_length_b 20.523554
_cell_length_c 13.446756
_cell_angle_alpha 90.000000
_cell_angle_beta 90.000000
_cell_angle_gamma 90.000000
_cell_volume 2044.647715
_symmetry_space_group_name_H-M "P M M N"
_symmetry_group_IT_number 59
_space_group.IT_coordinate_system_code '2'
_symmetry_cell_setting 'orthorhombic'
loop_
_space_group_symop_operation_xyz
x,y,z
1/2-x,1/2-y,z
1/2+x,-y,-z
-x,1/2+y,-z
-x,-y,-z
1/2+x,1/2+y,-z
1/2-x,y,z
x,1/2-y,z
loop_
_atom_site_type_symbol
_atom_site_label
_atom_site_fract_x
_atom_site_fract_y
_atom_site_fract_z
Si Si1 0.467319 0.549109 0.233942
Si Si2 0.965671 0.423609 0.978180
Si Si3 0.534093 0.071079 0.546270
Si Si4 0.028907 0.675676 0.614687
Si Si5 0.534995 0.103224 0.190006
O O1 0.250000 0.554942 0.234248
O O2 0.535633 0.572700 0.340698
O O3 0.506829 0.472105 0.221700
O O4 0.534280 0.585610 0.134234
O O5 0.750000 0.413340 0.975565
O O6 0.036331 0.388183 0.077361
O O7 0.000000 0.500000 0.000000
O O8 0.750000 0.078812 0.551849
O O9 0.467236 0.126573 0.471542
O O10 0.500000 0.000000 0.500000
O O11 0.250000 0.673841 0.615407
O O12 0.974917 0.750000 0.598431
O O13 0.966884 0.648711 0.721726
O O14 0.750000 0.113351 0.184666
#
# Coordination Sequence:
#
# PCOD9446461 Si02
#       5
#     8   8   8   8   8
#     4   9  16  25  39  61  86 107 129 168 215 248
#     4   8  14  23  36  57  82 104 127 159 201 244
#     4  10  18  28  44  63  84 111 142 177 212 250
#     4   9  17  28  42  61  84 112 145 176 209 252
#     4   9  15  25  42  60  80 107 138 169 201 245
#
# _framework density 19.563272999999999
#
# number of rings (size 3 to 8) (size 9 to 14) (size 15 to 20)
#    0.000    3.000    2.000    0.000    0.000    0.000 
#    0.000    0.000    0.000    3.600    0.000    8.400 
#    0.000    0.000    0.000   17.800    0.000   17.600 
#
# Total GULP energy -222855.069908 kJ/mol
# GULP energy per Si atom -5571.376748 kJ/mol
# Density = 1.951875 g / cm^3
# Si number density = 19.563273 Si / 1000 Ang^3
#
#
#
# Elastic Constant Matrix: (Units=GPa)
#
#
# Indices 1 2 3 4 5 6 
#
# 1 66.5156 -2.2615 6.5800 0.0000 0.0000 0.0000
# 2 -2.2615 100.9874 89.3362 0.0000 0.0000 0.0000
# 3 6.5800 89.3362 248.8254 0.0000 0.0000 0.0000
# 4 0.0000 0.0000 0.0000 19.5187 0.0000 0.0000
# 5 0.0000 0.0000 0.0000 0.0000 3.0352 0.0000
# 6 0.0000 0.0000 0.0000 0.0000 0.0000 9.7601
#
#
#
# Elastic Compliance Matrix: (Units=1/GPa)
#
#
# Indices 1 2 3 4 5 6 
#
# 1 0.015144 0.001016 -0.000765 0.000000 0.000000 0.000000
# 2 0.001016 0.014579 -0.005261 0.000000 0.000000 0.000000
# 3 -0.000765 -0.005261 0.005928 0.000000 0.000000 0.000000
# 4 0.000000 0.000000 0.000000 0.051233 0.000000 0.000000
# 5 0.000000 0.000000 0.000000 0.000000 0.329470 0.000000
# 6 0.000000 0.000000 0.000000 0.000000 0.000000 0.102458
#
#
# Mechanical properties :
#
#
# Convention : Reuss Voigt Hill
#
# Bulk Modulus (GPa) = 39.01557 67.07086 53.04321
# Shear Modulus (GPa) = 9.30444 27.97437 18.63941
#
# Velocity S-wave (km/s) = 2.18321 3.78556 3.09005
# Velocity P-wave (km/s) = 5.13242 7.31203 6.31694
#
# Compressibility (1/GPa) = 0.02563080
#
# Stress axis : x y z
#
# Youngs Moduli (GPa) = 66.03135 68.59053 168.68830
#
# Poissons Ratio (x) = -0.06970 0.12910
# Poissons Ratio (y) = -0.06710 0.88752
# Poissons Ratio (z) = 0.05053 0.36087
#
# Static dielectric constant tensor:
#      x y z
#    x 1.729480 0.000000 0.000000 
#    y 0.000000 1.619310 0.000000 
#    z 0.000000 0.000000 1.759640 
# 
# From -- ./inp_files/7101.got.cif
#   From: 2010.05.17/outbox.cif.g08.bks.cpg/sg59_4_cif.got.tgz:7101.got - 2010.06.03 14:40:33.
