data_PCOD9446019
_publ_section_title
;
Structure prediction by ZEFSAII (Michael W. Deem and Ramdas Pophale) SiO2 
 PCOD9446019
Probable space group: P N N M
;
_chemical_formula_sum "Si O2"
_cell_formula_units_Z 64
_cell_length_a 15.000000
_cell_length_b 24.000000
_cell_length_c 9.000000
_cell_angle_alpha 90.000000
_cell_angle_beta 90.000000
_cell_angle_gamma 90.000000
_cell_volume 3240.000000
_symmetry_space_group_name_H-M "P N N M"
_symmetry_group_IT_number 58
_symmetry_cell_setting 'orthorhombic'
loop_
_space_group_symop_operation_xyz
x,y,z
-x,-y,z
1/2+x,1/2-y,1/2-z
1/2-x,1/2+y,1/2-z
-x,-y,-z
x,y,-z
1/2-x,1/2+y,1/2+z
1/2+x,1/2-y,1/2+z
loop_
_atom_site_type_symbol
_atom_site_label
_atom_site_fract_x
_atom_site_fract_y
_atom_site_fract_z
Si Si1 0.655536 0.747635 0.322662
Si Si2 0.819219 0.820778 0.674439
Si Si3 0.596087 0.523484 0.820616
Si Si4 0.953891 0.748116 0.178141
Si Si5 0.607541 0.137302 0.820427
Si Si6 0.244857 0.555616 0.826259
Si Si7 0.551555 0.943402 0.178321
Si Si8 0.196277 0.882116 0.175479
O O1 0.652110 0.758834 0.500000
O O2 0.734047 0.786607 0.264072
O O3 0.555641 0.757449 0.266542
O O4 0.681117 0.683508 0.303575
O O5 0.832807 0.806073 0.500000
O O6 0.906789 0.803752 0.763454
O O7 0.792447 0.884699 0.682558
O O8 0.500000 0.500000 0.770768
O O9 0.681176 0.487315 0.767505
O O10 0.621685 0.584357 0.763723
O O11 0.595313 0.521931 0.000000
O O12 0.897690 0.697366 0.245758
O O13 0.953018 0.746654 0.000000
O O14 0.517593 0.104979 0.776449
O O15 0.700421 0.106867 0.779235
O O16 0.609398 0.142848 0.000000
O O17 0.149531 0.557767 0.747118
O O18 0.228352 0.542994 0.000000
O O19 0.500000 0.000000 0.217274
O O20 0.560459 0.941233 0.000000
O O21 0.188065 0.894626 0.000000
#
# Coordination Sequence:
#
# PCOD9446019 Si02
#       8
#     8   8   8   8   8   8   8   8
#     4   9  19  36  57  82 114 148 188 236 282 338
#     4  10  20  39  61  81 113 157 193 229 286 349
#     4  10  23  41  58  84 119 152 194 245 290 339
#     4  11  22  35  56  87 116 146 189 240 288 338
#     4  10  20  37  60  85 117 154 189 231 287 349
#     4  10  22  39  60  84 115 157 195 235 295 351
#     4  10  21  37  60  89 117 149 192 240 287 340
#     4  10  20  38  62  84 110 152 198 235 283 344
#
# _framework density 19.753086
#
# number of rings (size 3 to 8) (size 9 to 14) (size 15 to 20)
#    0.000    2.000    1.250    1.875    1.750    4.500 
#    0.000    1.875    0.000    0.000    0.000    0.000 
#    0.000    0.000    0.000    0.000    0.000    0.000 
#
# Total GULP energy -357170.139014 kJ/mol
# GULP energy per Si atom -5580.783422 kJ/mol
# Density = 1.970813 g / cm^3
# Si number density = 19.753086 Si / 1000 Ang^3
#
#
#
# Elastic Constant Matrix: (Units=GPa)
#
#
# Indices 1 2 3 4 5 6 
#
# 1 63.9496 0.4473 8.7663 0.0000 0.0000 0.0000
# 2 0.4473 -2.5042 7.6009 0.0000 0.0000 0.0000
# 3 8.7663 7.6009 8.9939 0.0000 0.0000 0.0000
# 4 0.0000 0.0000 0.0000 11.0084 0.0000 0.0000
# 5 0.0000 0.0000 0.0000 0.0000 28.1127 0.0000
# 6 0.0000 0.0000 0.0000 0.0000 0.0000 26.9317
#
#
#
# Elastic Compliance Matrix: (Units=1/GPa)
#
#
# Indices 1 2 3 4 5 6 
#
# 1 0.016438 -0.012817 -0.005190 0.000000 0.000000 0.000000
# 2 -0.012817 -0.102015 0.098708 0.000000 0.000000 0.000000
# 3 -0.005190 0.098708 0.032826 0.000000 0.000000 0.000000
# 4 0.000000 0.000000 0.000000 0.090840 0.000000 0.000000
# 5 0.000000 0.000000 0.000000 0.000000 0.035571 0.000000
# 6 0.000000 0.000000 0.000000 0.000000 0.000000 0.037131
#
#
# Mechanical properties :
#
#
# Convention : Reuss Voigt Hill
#
# Bulk Modulus (GPa) = 9.20389 11.56315 10.38352
# Shear Modulus (GPa) = -347.40515 16.78554 -165.30981
#
# Velocity S-wave (km/s) = -13.27613 2.91824 -9.15804
# Velocity P-wave (km/s) = 15.17689 4.14987 10.32271
#
# Compressibility (1/GPa) = 0.10864974
#
# Stress axis : x y z
#
# Youngs Moduli (GPa) = 60.83292 -9.80251 30.46400
#
# Poissons Ratio (x) = -0.12564 0.15812
# Poissons Ratio (y) = 0.77973 -3.00704
# Poissons Ratio (z) = 0.31574 0.96758
#
# Static dielectric constant tensor:
#      x y z
#    x 1.697850 0.000000 0.000000 
#    y 0.000000 1.726670 0.000000 
#    z 0.000000 0.000000 1.673750 
# 
# From -- ./inp_files/6857.got.cif
#   From: 2010.05.17/outbox.ucp.g08.bks.cvg/sg58_4_cif.got.tgz:6857.got - 2010.06.11 16:41:41.
