data_PCOD9446056
_publ_section_title
;
Structure prediction by ZEFSAII (Michael W. Deem and Ramdas Pophale) SiO2 
 PCOD9446056
Probable space group: P N N M
;
_chemical_formula_sum "Si O2"
_cell_formula_units_Z 56
_cell_length_a 15.000000
_cell_length_b 21.000000
_cell_length_c 9.000000
_cell_angle_alpha 90.000000
_cell_angle_beta 90.000000
_cell_angle_gamma 90.000000
_cell_volume 2835.000000
_symmetry_space_group_name_H-M "P N N M"
_symmetry_group_IT_number 58
_symmetry_cell_setting 'orthorhombic'
loop_
_space_group_symop_operation_xyz
x,y,z
-x,-y,z
1/2+x,1/2-y,1/2-z
1/2-x,1/2+y,1/2-z
-x,-y,-z
x,y,-z
1/2-x,1/2+y,1/2+z
1/2+x,1/2-y,1/2+z
loop_
_atom_site_type_symbol
_atom_site_label
_atom_site_fract_x
_atom_site_fract_y
_atom_site_fract_z
Si Si1 0.837809 0.594122 0.322649
Si Si2 0.805299 0.182055 0.675622
Si Si3 0.170609 0.676793 0.679360
Si Si4 0.581859 0.456038 0.821382
Si Si5 0.976989 0.686910 0.176350
Si Si6 0.980850 0.816850 0.323953
Si Si7 0.264914 0.037432 0.821897
O O1 0.847510 0.598933 0.500000
O O2 0.748898 0.631369 0.270741
O O3 0.916295 0.631636 0.242491
O O4 0.832416 0.519393 0.281819
O O5 0.785982 0.172235 0.500000
O O6 0.782198 0.255784 0.714545
O O7 0.912025 0.176232 0.695628
O O8 0.158722 0.676764 0.500000
O O9 0.213483 0.609739 0.724240
O O10 0.075350 0.679176 0.757525
O O11 0.500000 0.500000 0.775712
O O12 0.563805 0.382969 0.778859
O O13 0.671437 0.480407 0.749250
O O14 0.588418 0.458491 0.000000
O O15 0.946815 0.756395 0.233481
O O16 0.976796 0.685256 0.000000
O O17 0.966213 0.805983 0.500000
O O18 0.258320 0.037566 0.000000
#
# Coordination Sequence:
#
# PCOD9446056 Si02
#       7
#     8   8   8   8   8   8   8
#     4  11  23  38  57  83 118 154 194 238 290 349
#     4   9  18  35  60  85 114 150 191 239 286 341
#     4   9  20  41  62  82 114 151 191 239 295 349
#     4  10  21  37  59  87 121 157 192 235 288 346
#     4  11  23  38  59  86 113 147 195 244 292 343
#     4   9  19  37  59  85 116 152 190 233 289 345
#     4  10  23  40  59  85 116 156 197 238 289 347
#
# _framework density 19.753086
#
# number of rings (size 3 to 8) (size 9 to 14) (size 15 to 20)
#    0.000    2.143    0.000    3.429    2.000    6.571 
#    0.000    2.857    0.000    0.000    0.000    0.000 
#    0.000    0.000    0.000    0.000    0.000    0.000 
#
# Total GULP energy -312671.555810 kJ/mol
# GULP energy per Si atom -5583.420639 kJ/mol
# Density = 1.970813 g / cm^3
# Si number density = 19.753086 Si / 1000 Ang^3
#
#
#
# Elastic Constant Matrix: (Units=GPa)
#
#
# Indices 1 2 3 4 5 6 
#
# 1 37.5893 8.8423 6.3315 0.0000 0.0000 0.0000
# 2 8.8423 87.6125 16.0025 0.0000 0.0000 0.0000
# 3 6.3315 16.0025 -6.8631 0.0000 0.0000 0.0000
# 4 0.0000 0.0000 0.0000 24.5021 0.0000 0.0000
# 5 0.0000 0.0000 0.0000 0.0000 24.2532 0.0000
# 6 0.0000 0.0000 0.0000 0.0000 0.0000 30.5835
#
#
#
# Elastic Compliance Matrix: (Units=1/GPa)
#
#
# Indices 1 2 3 4 5 6 
#
# 1 0.025661 -0.004849 0.012368 0.000000 0.000000 0.000000
# 2 -0.004849 0.008921 0.016328 0.000000 0.000000 0.000000
# 3 0.012368 0.016328 -0.096227 0.000000 0.000000 0.000000
# 4 0.000000 0.000000 0.000000 0.040813 0.000000 0.000000
# 5 0.000000 0.000000 0.000000 0.000000 0.041232 0.000000
# 6 0.000000 0.000000 0.000000 0.000000 0.000000 0.032697
#
#
# Mechanical properties :
#
#
# Convention : Reuss Voigt Hill
#
# Bulk Modulus (GPa) = -71.67473 20.07681 -25.79896
# Shear Modulus (GPa) = 6636.26219 21.67859 3328.97039
#
# Velocity S-wave (km/s) = 58.02500 3.31642 41.09684
# Velocity P-wave (km/s) = 66.72958 4.98505 47.31643
#
# Compressibility (1/GPa) = -0.01395192
#
# Stress axis : x y z
#
# Youngs Moduli (GPa) = 38.97007 112.09497 -10.39214
#
# Poissons Ratio (x) = 0.54352 0.12853
# Poissons Ratio (y) = 0.18896 0.16968
# Poissons Ratio (z) = -0.48197 -1.83024
#
# Static dielectric constant tensor:
#      x y z
#    x 1.703490 0.000000 0.000000 
#    y 0.000000 1.716890 0.000000 
#    z 0.000000 0.000000 1.648330 
# 
# From -- ./inp_files/6452.got.cif
#   From: 2010.05.17/outbox.ucp.g08.bks.cvg/sg58_4_cif.got.tgz:6452.got - 2010.06.11 16:41:41.
