data_PCOD9446391
_publ_section_title
;
Structure prediction by ZEFSAII (Michael W. Deem and Ramdas Pophale) SiO2 
 PCOD9446391
Probable space group: P M M N
;
_chemical_formula_sum "Si O2"
_cell_formula_units_Z 64
_cell_length_a 9.840805
_cell_length_b 23.354503
_cell_length_c 16.434140
_cell_angle_alpha 90.000000
_cell_angle_beta 90.000000
_cell_angle_gamma 90.000000
_cell_volume 3777.010900
_symmetry_space_group_name_H-M "P M M N"
_symmetry_group_IT_number 59
_space_group.IT_coordinate_system_code '2'
_symmetry_cell_setting 'orthorhombic'
loop_
_space_group_symop_operation_xyz
x,y,z
1/2-x,1/2-y,z
1/2+x,-y,-z
-x,1/2+y,-z
-x,-y,-z
1/2+x,1/2+y,-z
1/2-x,y,z
x,1/2-y,z
loop_
_atom_site_type_symbol
_atom_site_label
_atom_site_fract_x
_atom_site_fract_y
_atom_site_fract_z
Si Si1 0.408630 0.898631 0.948423
Si Si2 0.095591 0.392685 0.299929
Si Si3 0.406808 0.018805 0.146894
Si Si4 0.906963 0.684283 0.050091
Si Si5 0.412160 0.490835 0.420153
Si Si6 0.594144 0.314563 0.207217
Si Si7 0.088124 0.577662 0.271452
Si Si8 0.593293 0.814732 0.246253
O O1 0.250000 0.909282 0.968723
O O2 0.489977 0.955093 0.918894
O O3 0.412280 0.855258 0.871408
O O4 0.491889 0.863518 0.015966
O O5 0.250000 0.373198 0.310236
O O6 0.094583 0.436526 0.222903
O O7 0.054941 0.430289 0.377347
O O8 0.998901 0.341335 0.276341
O O9 0.250000 0.015089 0.117494
O O10 0.447479 0.959232 0.190162
O O11 0.750000 0.673480 0.023906
O O12 0.942322 0.750000 0.024856
O O13 0.909814 0.683697 0.147825
O O14 0.500000 0.500000 0.500000
O O15 0.250000 0.491810 0.436702
O O16 0.438567 0.538435 0.350550
O O17 0.750000 0.314423 0.234343
O O18 0.553686 0.250000 0.185931
O O19 0.250000 0.587484 0.267408
O O20 0.005062 0.635828 0.276346
O O21 0.750000 0.824830 0.270738
O O22 0.555143 0.750000 0.270969
#
# Coordination Sequence:
#
# PCOD9446391 Si02
#       8
#     8   8   8   8   8   8   8   8
#     4  10  18  27  42  66  94 122 158 204 246 282
#     4   8  15  28  44  63  89 119 151 185 217 258
#     4   8  15  29  46  64  91 125 156 189 233 281
#     4   9  18  32  47  63  88 124 163 203 248 293
#     4   9  18  32  51  77 103 122 145 181 225 272
#     4   9  17  27  39  60  91 123 154 190 230 269
#     4   9  18  33  53  76 100 125 156 195 235 281
#     4   9  19  35  53  73  96 123 159 202 244 287
#
# _framework density 16.944617000000001
#
# number of rings (size 3 to 8) (size 9 to 14) (size 15 to 20)
#    0.000    3.125    0.000    3.000    0.000    3.750 
#    0.000    4.375    0.000    0.750    0.000    0.000 
#    0.000    0.000    0.000    0.000    0.000    0.000 
#
# Total GULP energy -356571.853589 kJ/mol
# GULP energy per Si atom -5571.435212 kJ/mol
# Density = 1.690605 g / cm^3
# Si number density = 16.944617 Si / 1000 Ang^3
#
#
#
# Elastic Constant Matrix: (Units=GPa)
#
#
# Indices 1 2 3 4 5 6 
#
# 1 55.5699 47.9722 27.2052 0.0000 0.0000 0.0000
# 2 47.9722 88.7515 18.9834 0.0000 0.0000 0.0000
# 3 27.2052 18.9834 35.3111 0.0000 0.0000 0.0000
# 4 0.0000 0.0000 0.0000 17.3555 0.0000 0.0000
# 5 0.0000 0.0000 0.0000 0.0000 25.2704 0.0000
# 6 0.0000 0.0000 0.0000 0.0000 0.0000 30.3360
#
#
#
# Elastic Compliance Matrix: (Units=1/GPa)
#
#
# Indices 1 2 3 4 5 6 
#
# 1 0.048894 -0.020758 -0.026510 0.000000 0.000000 0.000000
# 2 -0.020758 0.021544 0.004411 0.000000 0.000000 0.000000
# 3 -0.026510 0.004411 0.046374 0.000000 0.000000 0.000000
# 4 0.000000 0.000000 0.000000 0.057619 0.000000 0.000000
# 5 0.000000 0.000000 0.000000 0.000000 0.039572 0.000000
# 6 0.000000 0.000000 0.000000 0.000000 0.000000 0.032964
#
#
# Mechanical properties :
#
#
# Convention : Reuss Voigt Hill
#
# Bulk Modulus (GPa) = 32.15859 40.88378 36.52119
# Shear Modulus (GPa) = 14.57527 20.29049 17.43288
#
# Velocity S-wave (km/s) = 2.93605 3.46419 3.21099
# Velocity P-wave (km/s) = 5.52392 6.33885 5.94537
#
# Compressibility (1/GPa) = 0.03109589
#
# Stress axis : x y z
#
# Youngs Moduli (GPa) = 20.45253 46.41647 21.56404
#
# Poissons Ratio (x) = 0.96350 0.57167
# Poissons Ratio (y) = 0.42455 -0.09511
# Poissons Ratio (z) = 0.54221 -0.20472
#
# Static dielectric constant tensor:
#      x y z
#    x 1.568510 0.000000 0.000000 
#    y 0.000000 1.583590 0.000000 
#    z 0.000000 0.000000 1.560450 
# 
# From -- ./inp_files/26534.got.cif
#   From: 2010.05.17/outbox.cif.g08.bks.cpg/sg59_14_cif.got.tgz:26534.got - 2010.06.03 14:40:33.
