data_PCOD9446643
_publ_section_title
;
Structure prediction by ZEFSAII (Michael W. Deem and Ramdas Pophale) SiO2 
 PCOD9446643
Probable space group: P M M N
;
_chemical_formula_sum "Si O2"
_cell_formula_units_Z 56
_cell_length_a 18.948259
_cell_length_b 8.481198
_cell_length_c 19.713315
_cell_angle_alpha 90.000000
_cell_angle_beta 90.000000
_cell_angle_gamma 90.000000
_cell_volume 3168.007319
_symmetry_space_group_name_H-M "P M M N"
_symmetry_group_IT_number 59
_space_group.IT_coordinate_system_code '2'
_symmetry_cell_setting 'orthorhombic'
loop_
_space_group_symop_operation_xyz
x,y,z
1/2-x,1/2-y,z
1/2+x,-y,-z
-x,1/2+y,-z
-x,-y,-z
1/2+x,1/2+y,-z
1/2-x,y,z
x,1/2-y,z
loop_
_atom_site_type_symbol
_atom_site_label
_atom_site_fract_x
_atom_site_fract_y
_atom_site_fract_z
Si Si1 0.174077 0.562096 0.374372
Si Si2 0.026548 0.063240 0.428413
Si Si3 0.408163 0.939066 0.103830
Si Si4 0.066197 0.441967 0.850987
Si Si5 0.880652 0.564399 0.758191
Si Si6 0.527869 0.565114 0.292293
Si Si7 0.168291 0.441020 0.969874
O O1 0.250000 0.527823 0.407648
O O2 0.168606 0.750000 0.365061
O O3 0.172712 0.478997 0.301037
O O4 0.104420 0.504798 0.412850
O O5 0.031433 0.250000 0.429787
O O6 0.975431 0.015444 0.365621
O O7 0.000000 0.000000 0.500000
O O8 0.405569 0.750000 0.107536
O O9 0.489984 0.989275 0.117164
O O10 0.363542 0.013356 0.165724
O O11 0.376706 0.996114 0.033116
O O12 0.065080 0.250000 0.848761
O O13 0.072948 0.494555 0.772362
O O14 0.128612 0.491054 0.900903
O O15 0.897159 0.750000 0.755743
O O16 0.949170 0.462495 0.737119
O O17 0.541131 0.750000 0.302425
O O18 0.250000 0.491671 0.972814
O O19 0.167076 0.250000 0.972113
#
# Coordination Sequence:
#
# PCOD9446643 Si02
#       7
#     8   8   8   8   8   8   8
#     4  10  20  34  52  75 105 139 171 204 248 303
#     4  11  21  34  54  80 109 138 171 210 251 296
#     4  10  19  32  49  68  94 127 165 207 248 296
#     4   8  16  31  51  72  93 123 162 203 247 295
#     4  10  18  29  47  71  98 126 160 200 242 293
#     4   9  16  30  51  74  99 125 158 199 244 294
#     4  10  20  33  48  68  95 125 160 205 255 302
#
# _framework density 17.676727
#
# number of rings (size 3 to 8) (size 9 to 14) (size 15 to 20)
#    0.000    2.286    0.000    6.857    0.000    2.000 
#    0.000    3.571    0.000    0.857    0.000    2.000 
#    0.000    0.000    0.000    0.000    0.000    0.000 
#
# Total GULP energy -312050.119889 kJ/mol
# GULP energy per Si atom -5572.323569 kJ/mol
# Density = 1.763649 g / cm^3
# Si number density = 17.676727 Si / 1000 Ang^3
#
#
#
# Elastic Constant Matrix: (Units=GPa)
#
#
# Indices 1 2 3 4 5 6 
#
# 1 57.0740 16.9784 44.1693 0.0000 0.0000 0.0000
# 2 16.9784 50.4846 23.1790 0.0000 0.0000 0.0000
# 3 44.1693 23.1790 144.1219 0.0000 0.0000 0.0000
# 4 0.0000 0.0000 0.0000 25.3595 0.0000 0.0000
# 5 0.0000 0.0000 0.0000 0.0000 12.8089 0.0000
# 6 0.0000 0.0000 0.0000 0.0000 0.0000 10.2810
#
#
#
# Elastic Compliance Matrix: (Units=1/GPa)
#
#
# Indices 1 2 3 4 5 6 
#
# 1 0.024124 -0.005095 -0.006574 0.000000 0.000000 0.000000
# 2 -0.005095 0.022463 -0.002051 0.000000 0.000000 0.000000
# 3 -0.006574 -0.002051 0.009283 0.000000 0.000000 0.000000
# 4 0.000000 0.000000 0.000000 0.039433 0.000000 0.000000
# 5 0.000000 0.000000 0.000000 0.000000 0.078071 0.000000
# 6 0.000000 0.000000 0.000000 0.000000 0.000000 0.097267
#
#
# Mechanical properties :
#
#
# Convention : Reuss Voigt Hill
#
# Bulk Modulus (GPa) = 35.17362 46.70378 40.93870
# Shear Modulus (GPa) = 16.25704 20.84678 18.55191
#
# Velocity S-wave (km/s) = 3.03592 3.43787 3.24313
# Velocity P-wave (km/s) = 5.67720 6.49900 6.10195
#
# Compressibility (1/GPa) = 0.02843040
#
# Stress axis : x y z
#
# Youngs Moduli (GPa) = 41.45189 44.51705 107.72104
#
# Poissons Ratio (x) = 0.22681 0.70816
# Poissons Ratio (y) = 0.21119 0.22097
# Poissons Ratio (z) = 0.27251 0.09132
#
# Static dielectric constant tensor:
#      x y z
#    x 1.616110 0.000000 0.000000 
#    y 0.000000 1.597130 0.000000 
#    z 0.000000 0.000000 1.624670 
# 
# From -- ./inp_files/30590.got.cif
#   From: 2010.05.17/outbox.cif.g08.bks.cpg/sg59_16_cif.got.tgz:30590.got - 2010.06.03 14:40:33.
