data_PCOD9446875
_publ_section_title
;
Structure prediction by ZEFSAII (Michael W. Deem and Ramdas Pophale) SiO2 
 PCOD9446875
Probable space group: P M M N
;
_chemical_formula_sum "Si O2"
_cell_formula_units_Z 64
_cell_length_a 22.350311
_cell_length_b 15.854568
_cell_length_c 9.525718
_cell_angle_alpha 90.000000
_cell_angle_beta 90.000000
_cell_angle_gamma 90.000000
_cell_volume 3375.481283
_symmetry_space_group_name_H-M "P M M N"
_symmetry_group_IT_number 59
_space_group.IT_coordinate_system_code '2'
_symmetry_cell_setting 'orthorhombic'
loop_
_space_group_symop_operation_xyz
x,y,z
1/2-x,1/2-y,z
1/2+x,-y,-z
-x,1/2+y,-z
-x,-y,-z
1/2+x,1/2+y,-z
1/2-x,y,z
x,1/2-y,z
loop_
_atom_site_type_symbol
_atom_site_label
_atom_site_fract_x
_atom_site_fract_y
_atom_site_fract_z
Si Si1 0.321703 0.843851 0.035096
Si Si2 0.609365 0.656948 0.234737
Si Si3 0.085105 0.612310 0.240354
Si Si4 0.682184 0.846807 0.835738
Si Si5 0.819240 0.520683 0.094276
Si Si6 0.009295 0.344907 0.001407
Si Si7 0.508403 0.656370 0.471956
Si Si8 0.564683 0.920175 0.730914
O O1 0.250000 0.849705 0.045987
O O2 0.336441 0.750000 0.977547
O O3 0.352362 0.850894 0.187885
O O4 0.342073 0.927115 0.947489
O O5 0.639431 0.750000 0.243388
O O6 0.563658 0.650106 0.363554
O O7 0.648968 0.574032 0.216024
O O8 0.567884 0.657517 0.096330
O O9 0.089742 0.513643 0.264465
O O10 0.050627 0.646893 0.376473
O O11 0.042562 0.628868 0.105257
O O12 0.750000 0.856115 0.774778
O O13 0.678887 0.750000 0.889528
O O14 0.677536 0.916883 0.958556
O O15 0.623893 0.861110 0.738631
O O16 0.750000 0.510840 0.130786
O O17 0.997469 0.250000 0.052689
O O18 0.024352 0.403479 0.131803
O O19 0.508321 0.750000 0.534783
O O20 0.522723 0.593249 0.596905
#
# Coordination Sequence:
#
# PCOD9446875 Si02
#       8
#     8   8   8   8   8   8   8   8
#     4  10  20  35  56  82 111 141 178 230 284 327
#     4   9  17  32  51  76 110 146 177 214 267 327
#     4  11  21  36  54  79 111 144 184 228 279 336
#     4  10  19  31  51  80 112 143 177 222 272 321
#     4  10  18  30  51  81 110 138 181 230 270 319
#     4  10  19  32  53  78 106 140 178 220 272 325
#     4  10  22  37  53  76 112 151 185 224 276 333
#     4  12  21  34  55  82 113 148 188 231 277 329
#
# _framework density 18.960259000000001
#
# number of rings (size 3 to 8) (size 9 to 14) (size 15 to 20)
#    0.000    1.750    2.500    4.125    0.000    1.750 
#    0.000    0.625    0.000    0.750    0.000    2.625 
#    0.000   10.000    0.000    0.000    0.000    0.000 
#
# Total GULP energy -356694.666801 kJ/mol
# GULP energy per Si atom -5573.354169 kJ/mol
# Density = 1.891710 g / cm^3
# Si number density = 18.960259 Si / 1000 Ang^3
#
#
#
# Elastic Constant Matrix: (Units=GPa)
#
#
# Indices 1 2 3 4 5 6 
#
# 1 25.8215 -4.5416 -11.4896 0.0000 0.0000 0.0000
# 2 -4.5416 114.2802 -1.9278 0.0000 0.0000 0.0000
# 3 -11.4896 -1.9278 41.6258 0.0000 0.0000 0.0000
# 4 0.0000 0.0000 0.0000 20.7490 0.0000 0.0000
# 5 0.0000 0.0000 0.0000 0.0000 5.6464 0.0000
# 6 0.0000 0.0000 0.0000 0.0000 0.0000 27.6850
#
#
#
# Elastic Compliance Matrix: (Units=1/GPa)
#
#
# Indices 1 2 3 4 5 6 
#
# 1 0.044594 0.001981 0.012400 0.000000 0.000000 0.000000
# 2 0.001981 0.008845 0.000957 0.000000 0.000000 0.000000
# 3 0.012400 0.000957 0.027491 0.000000 0.000000 0.000000
# 4 0.000000 0.000000 0.000000 0.048195 0.000000 0.000000
# 5 0.000000 0.000000 0.000000 0.000000 0.177106 0.000000
# 6 0.000000 0.000000 0.000000 0.000000 0.000000 0.036121
#
#
# Mechanical properties :
#
#
# Convention : Reuss Voigt Hill
#
# Bulk Modulus (GPa) = 8.96006 16.20107 12.58056
# Shear Modulus (GPa) = 14.33173 24.12849 19.23011
#
# Velocity S-wave (km/s) = 2.75231 3.57120 3.18816
# Velocity P-wave (km/s) = 3.85179 5.05647 4.49467
#
# Compressibility (1/GPa) = 0.11160642
#
# Stress axis : x y z
#
# Youngs Moduli (GPa) = 22.42472 113.05434 36.37604
#
# Poissons Ratio (x) = -0.22400 -0.45108
# Poissons Ratio (y) = -0.04443 -0.03480
# Poissons Ratio (z) = -0.27808 -0.10814
#
# Static dielectric constant tensor:
#      x y z
#    x 1.705730 0.000000 0.000000 
#    y 0.000000 1.716820 0.000000 
#    z 0.000000 0.000000 1.633100 
# 
# From -- ./inp_files/12215.got.cif
#   From: 2010.05.17/outbox.cif.g08.bks.cpg/sg59_7_cif.got.tgz:12215.got - 2010.06.03 14:40:33.
