data_PCOD9446404
_publ_section_title
;
Structure prediction by ZEFSAII (Michael W. Deem and Ramdas Pophale) SiO2 
 PCOD9446404
Probable space group: P M M N
;
_chemical_formula_sum "Si O2"
_cell_formula_units_Z 64
_cell_length_a 35.166306
_cell_length_b 7.560063
_cell_length_c 11.610080
_cell_angle_alpha 90.000000
_cell_angle_beta 90.000000
_cell_angle_gamma 90.000000
_cell_volume 3086.649934
_symmetry_space_group_name_H-M "P M M N"
_symmetry_group_IT_number 59
_space_group.IT_coordinate_system_code '2'
_symmetry_cell_setting 'orthorhombic'
loop_
_space_group_symop_operation_xyz
x,y,z
1/2-x,1/2-y,z
1/2+x,-y,-z
-x,1/2+y,-z
-x,-y,-z
1/2+x,1/2+y,-z
1/2-x,y,z
x,1/2-y,z
loop_
_atom_site_type_symbol
_atom_site_label
_atom_site_fract_x
_atom_site_fract_y
_atom_site_fract_z
Si Si1 0.870443 0.032383 0.639598
Si Si2 0.977404 0.037462 0.276253
Si Si3 0.292786 0.955788 0.254070
Si Si4 0.599191 0.033829 0.391607
Si Si5 0.707640 0.958746 0.006316
Si Si6 0.940681 0.465701 0.039046
Si Si7 0.942164 0.459947 0.783277
Si Si8 0.863667 0.038230 0.155943
O O1 0.869921 0.250000 0.641923
O O2 0.828569 0.969612 0.676290
O O3 0.883816 0.977159 0.512816
O O4 0.903210 0.973007 0.728093
O O5 0.975650 0.250000 0.274953
O O6 0.944124 0.977512 0.362671
O O7 0.965641 0.973165 0.147653
O O8 0.020921 0.987490 0.295976
O O9 0.250000 0.032340 0.267879
O O10 0.290118 0.750000 0.287015
O O11 0.302506 0.961887 0.118052
O O12 0.598958 0.250000 0.392763
O O13 0.624979 0.975639 0.283312
O O14 0.750000 0.022619 0.037695
O O15 0.709336 0.750000 0.987131
O O16 0.676719 0.991202 0.103790
O O17 0.943063 0.250000 0.039426
O O18 0.897494 0.517159 0.070171
O O19 0.950163 0.531457 0.911679
O O20 0.937217 0.250000 0.795840
O O21 0.865503 0.250000 0.160559
#
# Coordination Sequence:
#
# PCOD9446404 Si02
#       8
#     8   8   8   8   8   8   8   8
#     4   9  17  30  48  71  98 125 155 195 241 280
#     4   9  17  30  46  63  89 124 158 193 234 279
#     4   9  17  31  53  76  95 120 156 193 228 275
#     4   8  16  31  49  68  93 126 159 195 241 281
#     4  10  20  32  47  71 103 129 147 180 236 292
#     4   8  15  28  45  65  89 119 153 192 242 287
#     4  10  18  27  43  66  92 122 155 192 234 280
#     4   9  16  30  52  71  89 120 162 198 229 277
#
# _framework density 20.734452999999998
#
# number of rings (size 3 to 8) (size 9 to 14) (size 15 to 20)
#    0.000    3.000    0.000    3.000    0.000    3.250 
#    0.000    5.625    0.000    4.500    0.000    1.750 
#    0.000    0.000    0.000    0.000    0.000    0.000 
#
# Total GULP energy -356959.689785 kJ/mol
# GULP energy per Si atom -5577.495153 kJ/mol
# Density = 2.068726 g / cm^3
# Si number density = 20.734453 Si / 1000 Ang^3
#
#
#
# Elastic Constant Matrix: (Units=GPa)
#
#
# Indices 1 2 3 4 5 6 
#
# 1 134.1155 1.2252 40.1040 0.0000 0.0000 0.0000
# 2 1.2252 45.1325 1.3600 0.0000 0.0000 0.0000
# 3 40.1040 1.3600 32.9544 0.0000 0.0000 0.0000
# 4 0.0000 0.0000 0.0000 -14.9010 0.0000 0.0000
# 5 0.0000 0.0000 0.0000 0.0000 20.7358 0.0000
# 6 0.0000 0.0000 0.0000 0.0000 0.0000 5.9613
#
#
#
# Elastic Compliance Matrix: (Units=1/GPa)
#
#
# Indices 1 2 3 4 5 6 
#
# 1 0.011722 0.000112 -0.014270 0.000000 0.000000 0.000000
# 2 0.000112 0.022186 -0.001052 0.000000 0.000000 0.000000
# 3 -0.014270 -0.001052 0.047755 0.000000 0.000000 0.000000
# 4 0.000000 0.000000 0.000000 -0.067110 0.000000 0.000000
# 5 0.000000 0.000000 0.000000 0.000000 0.048226 0.000000
# 6 0.000000 0.000000 0.000000 0.000000 0.000000 0.167748
#
#
# Mechanical properties :
#
#
# Convention : Reuss Voigt Hill
#
# Bulk Modulus (GPa) = 19.51505 33.06452 26.28979
# Shear Modulus (GPa) = 17.98382 13.66010 15.82196
#
# Velocity S-wave (km/s) = 2.94826 2.56952 2.76538
# Velocity P-wave (km/s) = 4.58497 4.97840 4.78573
#
# Compressibility (1/GPa) = 0.05124251
#
# Stress axis : x y z
#
# Youngs Moduli (GPa) = 85.30666 45.07425 20.94038
#
# Poissons Ratio (x) = -0.00504 0.29882
# Poissons Ratio (y) = -0.00954 0.02202
# Poissons Ratio (z) = 1.21735 0.04740
#
# Static dielectric constant tensor:
#      x y z
#    x 1.760160 0.000000 0.000000 
#    y 0.000000 1.829550 0.000000 
#    z 0.000000 0.000000 1.722430 
# 
# From -- ./inp_files/19352.got.cif
#   From: 2010.05.17/outbox.cif.g08.bks.cpg/sg59_10_cif.got.tgz:19352.got - 2010.06.03 14:40:33.
