data_PCOD9446837
_publ_section_title
;
Structure prediction by ZEFSAII (Michael W. Deem and Ramdas Pophale) SiO2 
 PCOD9446837
Probable space group: P M M N
;
_chemical_formula_sum "Si O2"
_cell_formula_units_Z 64
_cell_length_a 8.341260
_cell_length_b 17.735641
_cell_length_c 24.028300
_cell_angle_alpha 90.000000
_cell_angle_beta 90.000000
_cell_angle_gamma 90.000000
_cell_volume 3554.688862
_symmetry_space_group_name_H-M "P M M N"
_symmetry_group_IT_number 59
_space_group.IT_coordinate_system_code '2'
_symmetry_cell_setting 'orthorhombic'
loop_
_space_group_symop_operation_xyz
x,y,z
1/2-x,1/2-y,z
1/2+x,-y,-z
-x,1/2+y,-z
-x,-y,-z
1/2+x,1/2+y,-z
1/2-x,y,z
x,1/2-y,z
loop_
_atom_site_type_symbol
_atom_site_label
_atom_site_fract_x
_atom_site_fract_y
_atom_site_fract_z
Si Si1 0.442973 0.583941 0.429170
Si Si2 0.946154 0.164369 0.459586
Si Si3 0.944151 0.332180 0.681345
Si Si4 0.560537 0.061312 0.364085
Si Si5 0.557196 0.018153 0.742218
Si Si6 0.059669 0.925103 0.968115
Si Si7 0.941427 0.835431 0.067432
Si Si8 0.442316 0.514468 0.131356
O O1 0.250000 0.571840 0.430056
O O2 0.497825 0.610840 0.489587
O O3 0.475084 0.648405 0.383119
O O4 0.523457 0.509682 0.404344
O O5 0.750000 0.163237 0.460515
O O6 0.997205 0.250000 0.468840
O O7 0.998124 0.132334 0.399930
O O8 0.750000 0.331054 0.687079
O O9 0.006349 0.250000 0.696811
O O10 0.003899 0.401799 0.718062
O O11 0.750000 0.067687 0.356453
O O12 0.486226 0.043482 0.304199
O O13 0.750000 0.022226 0.744093
O O14 0.500776 0.007261 0.805083
O O15 0.750000 0.837218 0.072877
O O16 0.007905 0.945407 0.905734
O O17 0.985899 0.856977 0.003653
O O18 0.000000 0.000000 0.000000
O O19 0.250000 0.919874 0.971656
O O20 0.997585 0.750000 0.080810
O O21 0.008613 0.903987 0.105322
O O22 0.250000 0.511547 0.129300
#
# Coordination Sequence:
#
# PCOD9446837 Si02
#       8
#     8   8   8   8   8   8   8   8
#     4   9  16  28  47  67  90 121 154 189 232 288
#     4   9  17  29  47  71  93 116 152 195 239 288
#     4   8  13  23  41  64  87 114 152 192 225 263
#     4  10  19  30  47  69  94 123 154 196 243 284
#     4   9  19  33  49  68  91 125 165 200 232 275
#     4  10  18  30  50  73  99 130 164 199 234 276
#     4  10  20  33  50  75 108 138 159 188 237 290
#     4  10  19  32  51  73  97 128 169 210 242 279
#
# _framework density 18.004390000000001
#
# number of rings (size 3 to 8) (size 9 to 14) (size 15 to 20)
#    0.000    2.625    0.000    5.250    0.000    4.000 
#    0.000    1.875    0.000   13.125    0.000    3.500 
#    0.000    0.000    0.000    0.000    0.000    0.000 
#
# Total GULP energy -356591.902074 kJ/mol
# GULP energy per Si atom -5571.748470 kJ/mol
# Density = 1.796341 g / cm^3
# Si number density = 18.004390 Si / 1000 Ang^3
#
#
#
# Elastic Constant Matrix: (Units=GPa)
#
#
# Indices 1 2 3 4 5 6 
#
# 1 19.6638 -2.5009 4.1659 0.0000 0.0000 0.0000
# 2 -2.5009 22.9159 17.5112 0.0000 0.0000 0.0000
# 3 4.1659 17.5112 127.0665 0.0000 0.0000 0.0000
# 4 0.0000 0.0000 0.0000 11.9942 0.0000 0.0000
# 5 0.0000 0.0000 0.0000 0.0000 21.0987 0.0000
# 6 0.0000 0.0000 0.0000 0.0000 0.0000 15.6412
#
#
#
# Elastic Compliance Matrix: (Units=1/GPa)
#
#
# Indices 1 2 3 4 5 6 
#
# 1 0.052449 0.007866 -0.002804 0.000000 0.000000 0.000000
# 2 0.007866 0.049954 -0.007142 0.000000 0.000000 0.000000
# 3 -0.002804 -0.007142 0.008946 0.000000 0.000000 0.000000
# 4 0.000000 0.000000 0.000000 0.083374 0.000000 0.000000
# 5 0.000000 0.000000 0.000000 0.000000 0.047396 0.000000
# 6 0.000000 0.000000 0.000000 0.000000 0.000000 0.063934
#
#
# Mechanical properties :
#
#
# Convention : Reuss Voigt Hill
#
# Bulk Modulus (GPa) = 9.32919 23.11097 16.22008
# Shear Modulus (GPa) = 14.45328 19.77814 17.11571
#
# Velocity S-wave (km/s) = 2.83638 3.31798 3.08659
# Velocity P-wave (km/s) = 3.98994 5.24813 4.66168
#
# Compressibility (1/GPa) = 0.10719045
#
# Stress axis : x y z
#
# Youngs Moduli (GPa) = 19.06600 20.01846 111.78082
#
# Poissons Ratio (x) = -0.15747 0.31339
# Poissons Ratio (y) = -0.14998 0.79835
# Poissons Ratio (z) = 0.05345 0.14297
#
# Static dielectric constant tensor:
#      x y z
#    x 1.621310 0.000000 0.000000 
#    y 0.000000 1.619150 0.000000 
#    z 0.000000 0.000000 1.642220 
# 
# From -- ./inp_files/31775.got.cif
#   From: 2010.05.17/outbox.cif.g08.bks.cpg/sg59_16_cif.got.tgz:31775.got - 2010.06.03 14:40:33.
