data_PCOD9446961
_publ_section_title
;
Structure prediction by ZEFSAII (Michael W. Deem and Ramdas Pophale) SiO2 
 PCOD9446961
Probable space group: P M M N
;
_chemical_formula_sum "Si O2"
_cell_formula_units_Z 56
_cell_length_a 15.791655
_cell_length_b 7.461703
_cell_length_c 21.593307
_cell_angle_alpha 90.000000
_cell_angle_beta 90.000000
_cell_angle_gamma 90.000000
_cell_volume 2544.396359
_symmetry_space_group_name_H-M "P M M N"
_symmetry_group_IT_number 59
_space_group.IT_coordinate_system_code '2'
_symmetry_cell_setting 'orthorhombic'
loop_
_space_group_symop_operation_xyz
x,y,z
1/2-x,1/2-y,z
1/2+x,-y,-z
-x,1/2+y,-z
-x,-y,-z
1/2+x,1/2+y,-z
1/2-x,y,z
x,1/2-y,z
loop_
_atom_site_type_symbol
_atom_site_label
_atom_site_fract_x
_atom_site_fract_y
_atom_site_fract_z
Si Si1 0.595154 0.537825 0.476035
Si Si2 0.840299 0.456738 0.604680
Si Si3 0.401701 0.035924 0.013921
Si Si4 0.155105 0.465900 0.149323
Si Si5 0.157327 0.031002 0.882387
Si Si6 0.981524 0.962665 0.213749
Si Si7 0.023843 0.029630 0.648270
O O1 0.500000 0.500000 0.500000
O O2 0.611090 0.750000 0.475960
O O3 0.652776 0.459047 0.529886
O O4 0.590125 0.473930 0.405023
O O5 0.750000 0.538371 0.623231
O O6 0.839465 0.250000 0.624886
O O7 0.928686 0.532359 0.629981
O O8 0.389569 0.250000 0.016440
O O9 0.353121 0.969804 0.953184
O O10 0.371712 0.967187 0.080634
O O11 0.500000 0.000000 0.000000
O O12 0.250000 0.528553 0.165110
O O13 0.157814 0.250000 0.146815
O O14 0.079461 0.511239 0.195951
O O15 0.250000 0.981114 0.858295
O O16 0.153586 0.250000 0.883835
O O17 0.080092 0.966493 0.839951
O O18 0.967422 0.750000 0.215775
O O19 0.959639 0.030269 0.282087
O O20 0.023061 0.250000 0.646145
#
# Coordination Sequence:
#
# PCOD9446961 Si02
#       7
#     8   8   8   8   8   8   8
#     4   9  16  29  48  69  93 121 155 195 239 285
#     4   9  17  30  48  70  97 128 161 197 241 293
#     4  10  18  31  52  74  97 126 163 206 253 299
#     4  10  21  35  50  71 103 138 166 200 254 309
#     4   9  17  30  50  74  97 124 161 204 249 296
#     4  10  19  33  53  75  98 130 173 213 243 287
#     4   8  16  30  48  70  97 128 160 196 243 290
#
# _framework density 22.009150000000002
#
# number of rings (size 3 to 8) (size 9 to 14) (size 15 to 20)
#    0.000    2.714    1.429    1.714    0.000    2.857 
#    0.000    5.714    0.000    5.143    0.000    0.000 
#    0.000    0.000    0.000    0.000    0.000    0.000 
#
# Total GULP energy -312336.829994 kJ/mol
# GULP energy per Si atom -5577.443393 kJ/mol
# Density = 2.195906 g / cm^3
# Si number density = 22.009150 Si / 1000 Ang^3
#
#
#
# Elastic Constant Matrix: (Units=GPa)
#
#
# Indices 1 2 3 4 5 6 
#
# 1 56.8720 -12.3210 -13.4933 0.0000 0.0000 0.0000
# 2 -12.3210 65.4631 -4.1059 0.0000 0.0000 0.0000
# 3 -13.4933 -4.1059 85.2596 0.0000 0.0000 0.0000
# 4 0.0000 0.0000 0.0000 5.7728 0.0000 0.0000
# 5 0.0000 0.0000 0.0000 0.0000 9.2450 0.0000
# 6 0.0000 0.0000 0.0000 0.0000 0.0000 11.2764
#
#
#
# Elastic Compliance Matrix: (Units=1/GPa)
#
#
# Indices 1 2 3 4 5 6 
#
# 1 0.019172 0.003810 0.003218 0.000000 0.000000 0.000000
# 2 0.003810 0.016079 0.001377 0.000000 0.000000 0.000000
# 3 0.003218 0.001377 0.012304 0.000000 0.000000 0.000000
# 4 0.000000 0.000000 0.000000 0.173226 0.000000 0.000000
# 5 0.000000 0.000000 0.000000 0.000000 0.108167 0.000000
# 6 0.000000 0.000000 0.000000 0.000000 0.000000 0.088681
#
#
# Mechanical properties :
#
#
# Convention : Reuss Voigt Hill
#
# Bulk Modulus (GPa) = 15.53597 16.41714 15.97655
# Shear Modulus (GPa) = 11.84063 21.09316 16.46690
#
# Velocity S-wave (km/s) = 2.32197 3.09913 2.73826
# Velocity P-wave (km/s) = 3.77663 4.50351 4.15599
#
# Compressibility (1/GPa) = 0.06436678
#
# Stress axis : x y z
#
# Youngs Moduli (GPa) = 52.15873 62.19171 81.27134
#
# Poissons Ratio (x) = -0.23697 -0.26151
# Poissons Ratio (y) = -0.19874 -0.11194
# Poissons Ratio (z) = -0.16783 -0.08566
#
# Static dielectric constant tensor:
#      x y z
#    x 1.794920 0.000000 0.000000 
#    y 0.000000 1.868730 0.000000 
#    z 0.000000 0.000000 1.814880 
# 
# From -- ./inp_files/30587.got.cif
#   From: 2010.05.17/outbox.cif.g08.bks.cpg/sg59_16_cif.got.tgz:30587.got - 2010.06.03 14:40:33.
