data_PCOD9446029
_publ_section_title
;
Structure prediction by ZEFSAII (Michael W. Deem and Ramdas Pophale) SiO2 
 PCOD9446029
Probable space group: P N N M
;
_chemical_formula_sum "Si O2"
_cell_formula_units_Z 56
_cell_length_a 15.000000
_cell_length_b 12.000000
_cell_length_c 15.000000
_cell_angle_alpha 90.000000
_cell_angle_beta 90.000000
_cell_angle_gamma 90.000000
_cell_volume 2700.000000
_symmetry_space_group_name_H-M "P N N M"
_symmetry_group_IT_number 58
_symmetry_cell_setting 'orthorhombic'
loop_
_space_group_symop_operation_xyz
x,y,z
-x,-y,z
1/2+x,1/2-y,1/2-z
1/2-x,1/2+y,1/2-z
-x,-y,-z
x,y,-z
1/2-x,1/2+y,1/2+z
1/2+x,1/2-y,1/2+z
loop_
_atom_site_type_symbol
_atom_site_label
_atom_site_fract_x
_atom_site_fract_y
_atom_site_fract_z
Si Si1 0.869701 0.754222 0.890937
Si Si2 0.971587 0.260072 0.605719
Si Si3 0.526493 0.872479 0.290976
Si Si4 0.297040 0.390832 0.894357
Si Si5 0.175999 0.755437 0.892044
Si Si6 0.851929 0.868558 0.607361
Si Si7 0.603274 0.503831 0.391640
O O1 0.789066 0.674847 0.861157
O O2 0.854130 0.884418 0.868150
O O3 0.955761 0.708346 0.840254
O O4 0.881258 0.748414 0.000000
O O5 0.982500 0.294408 0.500000
O O6 0.971003 0.351188 0.684315
O O7 0.880764 0.190845 0.612094
O O8 0.051301 0.175807 0.631468
O O9 0.618037 0.834448 0.338051
O O10 0.500000 0.000000 0.309031
O O11 0.321858 0.511600 0.855482
O O12 0.279249 0.408053 0.000000
O O13 0.278348 0.725165 0.874330
O O14 0.149390 0.880769 0.863402
O O15 0.160519 0.744933 0.000000
O O16 0.855833 0.881773 0.500000
O O17 0.500000 0.500000 0.362397
O O18 0.603013 0.508122 0.500000
#
# Coordination Sequence:
#
# PCOD9446029 Si02
#       7
#     8   8   8   8   8   8   8
#     4  10  20  37  63  96 129 157 190 242 308 371
#     4  10  23  44  63  83 116 163 214 257 296 344
#     4  12  25  39  59  90 125 159 201 250 305 368
#     4   9  18  37  65  93 120 154 200 253 307 359
#     4  10  20  37  63  96 129 157 190 242 308 371
#     4   9  18  37  65  93 120 154 200 253 307 359
#     4   9  16  32  56  87 131 167 193 224 275 370
#
# _framework density 20.740741
#
# number of rings (size 3 to 8) (size 9 to 14) (size 15 to 20)
#    0.000    2.143    1.429    1.714    0.000    5.429 
#    7.714    0.000    0.000    0.000    0.000    0.000 
#    0.000    0.000    0.000    0.000    0.000    0.000 
#
# Total GULP energy -312728.864836 kJ/mol
# GULP energy per Si atom -5584.444015 kJ/mol
# Density = 2.069353 g / cm^3
# Si number density = 20.740741 Si / 1000 Ang^3
#
#
#
# Elastic Constant Matrix: (Units=GPa)
#
#
# Indices 1 2 3 4 5 6 
#
# 1 38.7964 -42.3048 -0.5205 0.0000 0.0000 0.0000
# 2 -42.3048 52.5720 10.5286 0.0000 0.0000 0.0000
# 3 -0.5205 10.5286 53.8940 0.0000 0.0000 0.0000
# 4 0.0000 0.0000 0.0000 26.4087 0.0000 0.0000
# 5 0.0000 0.0000 0.0000 0.0000 3.0713 0.0000
# 6 0.0000 0.0000 0.0000 0.0000 0.0000 15.2892
#
#
#
# Elastic Compliance Matrix: (Units=1/GPa)
#
#
# Indices 1 2 3 4 5 6 
#
# 1 0.283075 0.236496 -0.043467 0.000000 0.000000 0.000000
# 2 0.236496 0.217377 -0.040182 0.000000 0.000000 0.000000
# 3 -0.043467 -0.040182 0.025985 0.000000 0.000000 0.000000
# 4 0.000000 0.000000 0.000000 0.037866 0.000000 0.000000
# 5 0.000000 0.000000 0.000000 0.000000 0.325592 0.000000
# 6 0.000000 0.000000 0.000000 0.000000 0.000000 0.065406
#
#
# Mechanical properties :
#
#
# Convention : Reuss Voigt Hill
#
# Bulk Modulus (GPa) = 1.20174 8.96323 5.08248
# Shear Modulus (GPa) = 5.39383 20.79110 13.09247
#
# Velocity S-wave (km/s) = 1.61439 3.16955 2.51518
# Velocity P-wave (km/s) = 2.01387 4.21019 3.30010
#
# Compressibility (1/GPa) = 0.83212943
#
# Stress axis : x y z
#
# Youngs Moduli (GPa) = 3.53264 4.60030 38.48365
#
# Poissons Ratio (x) = -1.08795 1.67278
# Poissons Ratio (y) = -0.83545 1.54636
# Poissons Ratio (z) = 0.15355 0.18485
#
# Static dielectric constant tensor:
#      x y z
#    x 1.724010 0.000000 0.000000 
#    y 0.000000 1.724810 0.000000 
#    z 0.000000 0.000000 1.775750 
# 
# From -- ./inp_files/22183.got.cif
#   From: 2010.05.17/outbox.ucp.g08.bks.cvg/sg58_12_cif.got.tgz:22183.got - 2010.06.11 16:41:41.
