data_PCOD9446032
_publ_section_title
;
Structure prediction by ZEFSAII (Michael W. Deem and Ramdas Pophale) SiO2 
 PCOD9446032
Probable space group: P N N M
;
_chemical_formula_sum "Si O2"
_cell_formula_units_Z 64
_cell_length_a 12.000000
_cell_length_b 30.000000
_cell_length_c 9.000000
_cell_angle_alpha 90.000000
_cell_angle_beta 90.000000
_cell_angle_gamma 90.000000
_cell_volume 3240.000000
_symmetry_space_group_name_H-M "P N N M"
_symmetry_group_IT_number 58
_symmetry_cell_setting 'orthorhombic'
loop_
_space_group_symop_operation_xyz
x,y,z
-x,-y,z
1/2+x,1/2-y,1/2-z
1/2-x,1/2+y,1/2-z
-x,-y,-z
x,y,-z
1/2-x,1/2+y,1/2+z
1/2+x,1/2-y,1/2+z
loop_
_atom_site_type_symbol
_atom_site_label
_atom_site_fract_x
_atom_site_fract_y
_atom_site_fract_z
Si Si1 0.565052 0.217341 0.823689
Si Si2 0.628473 0.826366 0.664265
Si Si3 0.180224 0.373863 0.321976
Si Si4 0.765039 0.469773 0.178370
Si Si5 0.107390 0.182615 0.674402
Si Si6 0.925056 0.911022 0.822684
Si Si7 0.019874 0.577172 0.170556
Si Si8 0.851944 0.063632 0.677313
O O1 0.442532 0.199743 0.784959
O O2 0.644810 0.176326 0.771784
O O3 0.578316 0.267852 0.767408
O O4 0.582539 0.220039 0.000000
O O5 0.593907 0.809888 0.500000
O O6 0.758915 0.820330 0.679645
O O7 0.596570 0.878309 0.668975
O O8 0.192781 0.373879 0.500000
O O9 0.288116 0.393451 0.241949
O O10 0.081577 0.407883 0.273610
O O11 0.686760 0.434239 0.260969
O O12 0.894967 0.461689 0.216170
O O13 0.719534 0.519133 0.210140
O O14 0.756071 0.462323 0.000000
O O15 0.073278 0.178634 0.500000
O O16 0.064896 0.139778 0.763771
O O17 0.028330 0.938232 0.754466
O O18 0.926319 0.911848 0.000000
O O19 0.980038 0.569229 0.000000
O O20 0.864467 0.066909 0.500000
#
# Coordination Sequence:
#
# PCOD9446032 Si02
#       8
#     8   8   8   8   8   8   8   8
#     4   9  20  36  57  84 116 152 191 238 295 351
#     4   9  17  32  56  80 109 147 190 239 287 337
#     4  10  21  38  57  85 125 158 192 245 302 349
#     4  10  21  40  64  88 115 154 203 246 287 348
#     4  10  20  38  60  83 112 152 198 240 286 349
#     4  12  25  39  59  88 121 152 191 247 304 355
#     4   9  17  34  60  85 110 148 198 243 284 341
#     4  11  24  41  62  85 117 162 203 240 289 354
#
# _framework density 19.753086
#
# number of rings (size 3 to 8) (size 9 to 14) (size 15 to 20)
#    0.000    2.000    1.250    2.250    0.000    6.000 
#    0.000    3.750    0.000    0.000    0.000    0.000 
#    0.000    0.000    0.000    0.000    0.000    0.000 
#
# Total GULP energy -357274.843055 kJ/mol
# GULP energy per Si atom -5582.419423 kJ/mol
# Density = 1.970813 g / cm^3
# Si number density = 19.753086 Si / 1000 Ang^3
#
#
#
# Elastic Constant Matrix: (Units=GPa)
#
#
# Indices 1 2 3 4 5 6 
#
# 1 40.5114 12.3667 13.5421 0.0000 0.0000 0.0000
# 2 12.3667 81.0575 33.5252 0.0000 0.0000 0.0000
# 3 13.5421 33.5252 49.3211 0.0000 0.0000 0.0000
# 4 0.0000 0.0000 0.0000-1094.7640 0.0000 0.0000
# 5 0.0000 0.0000 0.0000 0.0000 22.9721 0.0000
# 6 0.0000 0.0000 0.0000 0.0000 0.0000 24.8134
#
#
#
# Elastic Compliance Matrix: (Units=1/GPa)
#
#
# Indices 1 2 3 4 5 6 
#
# 1 0.027306 -0.001482 -0.006490 0.000000 0.000000 0.000000
# 2 -0.001482 0.017242 -0.011313 0.000000 0.000000 0.000000
# 3 -0.006490 -0.011313 0.029747 0.000000 0.000000 0.000000
# 4 0.000000 0.000000 0.000000 -0.000913 0.000000 0.000000
# 5 0.000000 0.000000 0.000000 0.000000 0.043531 0.000000
# 6 0.000000 0.000000 0.000000 0.000000 0.000000 0.040301
#
#
# Mechanical properties :
#
#
# Convention : Reuss Voigt Hill
#
# Bulk Modulus (GPa) = 27.99139 32.19533 30.09336
# Shear Modulus (GPa) = 24.07398 -201.96531 -88.94566
#
# Velocity S-wave (km/s) = 3.49484 -10.12259 -6.71763
# Velocity P-wave (km/s) = 5.52147 10.96760 6.70081
#
# Compressibility (1/GPa) = 0.03572527
#
# Stress axis : x y z
#
# Youngs Moduli (GPa) = 36.62165 57.99755 33.61642
#
# Poissons Ratio (x) = 0.08593 0.21818
# Poissons Ratio (y) = 0.05426 0.38031
# Poissons Ratio (z) = 0.23769 0.65614
#
# Static dielectric constant tensor:
#      x y z
#    x 1.701380 0.000000 0.000000 
#    y 0.000000 1.708790 0.000000 
#    z 0.000000 0.000000 1.672480 
# 
# From -- ./inp_files/4801.got.cif
#   From: 2010.05.17/outbox.ucp.g08.bks.cvg/sg58_3_cif.got.tgz:4801.got - 2010.06.11 16:41:41.
