data_PCOD9446524
_publ_section_title
;
Structure prediction by ZEFSAII (Michael W. Deem and Ramdas Pophale) SiO2 
 PCOD9446524
Probable space group: P M M N
;
_chemical_formula_sum "Si O2"
_cell_formula_units_Z 64
_cell_length_a 7.743027
_cell_length_b 22.723812
_cell_length_c 17.213194
_cell_angle_alpha 90.000000
_cell_angle_beta 90.000000
_cell_angle_gamma 90.000000
_cell_volume 3028.680244
_symmetry_space_group_name_H-M "P M M N"
_symmetry_group_IT_number 59
_space_group.IT_coordinate_system_code '2'
_symmetry_cell_setting 'orthorhombic'
loop_
_space_group_symop_operation_xyz
x,y,z
1/2-x,1/2-y,z
1/2+x,-y,-z
-x,1/2+y,-z
-x,-y,-z
1/2+x,1/2+y,-z
1/2-x,y,z
x,1/2-y,z
loop_
_atom_site_type_symbol
_atom_site_label
_atom_site_fract_x
_atom_site_fract_y
_atom_site_fract_z
Si Si1 0.542204 0.315739 0.360209
Si Si2 0.959322 0.392372 0.733675
Si Si3 0.554721 0.910919 0.520292
Si Si4 0.951277 0.439960 0.895903
Si Si5 0.041512 0.014284 0.342825
Si Si6 0.045603 0.183644 0.598088
Si Si7 0.546622 0.115435 0.218126
Si Si8 0.949380 0.931278 0.939062
O O1 0.750000 0.325647 0.369190
O O2 0.502171 0.250000 0.383479
O O3 0.442197 0.361378 0.412522
O O4 0.499930 0.328875 0.270844
O O5 0.750000 0.389580 0.732544
O O6 0.019735 0.404104 0.822166
O O7 0.015726 0.450401 0.685391
O O8 0.024022 0.335663 0.687388
O O9 0.750000 0.926895 0.497137
O O10 0.476128 0.964215 0.572300
O O11 0.469614 0.871591 0.451907
O O12 0.750000 0.449755 0.876879
O O13 0.025407 0.505777 0.909658
O O14 0.965120 0.411133 0.980800
O O15 0.250000 0.013765 0.348316
O O16 0.993585 0.060070 0.274734
O O17 0.250000 0.185069 0.579670
O O18 0.977170 0.250000 0.583423
O O19 0.750000 0.115947 0.204041
O O20 0.459849 0.110045 0.135211
O O21 0.750000 0.940971 0.959231
#
# Coordination Sequence:
#
# PCOD9446524 Si02
#       8
#     8   8   8   8   8   8   8   8
#     4   9  18  31  47  70 100 133 170 211 251 292
#     4  10  20  35  54  76 104 134 167 210 257 307
#     4   9  18  33  54  75 100 133 168 208 257 307
#     4   9  18  32  49  73 103 131 161 201 248 301
#     4   9  17  32  51  75 105 134 163 204 257 308
#     4  10  22  38  53  73 101 134 176 221 258 296
#     4  10  18  28  46  72 103 137 169 204 246 299
#     4  10  18  30  49  74 104 135 165 200 245 299
#
# _framework density 21.131315000000001
#
# number of rings (size 3 to 8) (size 9 to 14) (size 15 to 20)
#    0.000    2.500    1.250    1.125    0.000    4.000 
#    0.000    0.000    0.000    0.750    0.000    1.750 
#    0.000    0.000    0.000    0.000    0.000    0.000 
#
# Total GULP energy -356755.933264 kJ/mol
# GULP energy per Si atom -5574.311457 kJ/mol
# Density = 2.108322 g / cm^3
# Si number density = 21.131315 Si / 1000 Ang^3
#
#
#
# Elastic Constant Matrix: (Units=GPa)
#
#
# Indices 1 2 3 4 5 6 
#
# 1 34.8371 3.5761 3.7702 0.0000 0.0000 0.0000
# 2 3.5761 18.7386 25.8486 0.0000 0.0000 0.0000
# 3 3.7702 25.8486 142.0531 0.0000 0.0000 0.0000
# 4 0.0000 0.0000 0.0000 18.4304 0.0000 0.0000
# 5 0.0000 0.0000 0.0000 0.0000 21.6740 0.0000
# 6 0.0000 0.0000 0.0000 0.0000 0.0000 6.8826
#
#
#
# Elastic Compliance Matrix: (Units=1/GPa)
#
#
# Indices 1 2 3 4 5 6 
#
# 1 0.029289 -0.006031 0.000320 0.000000 0.000000 0.000000
# 2 -0.006031 0.072492 -0.013031 0.000000 0.000000 0.000000
# 3 0.000320 -0.013031 0.009402 0.000000 0.000000 0.000000
# 4 0.000000 0.000000 0.000000 0.054258 0.000000 0.000000
# 5 0.000000 0.000000 0.000000 0.000000 0.046138 0.000000
# 6 0.000000 0.000000 0.000000 0.000000 0.000000 0.145294
#
#
# Mechanical properties :
#
#
# Convention : Reuss Voigt Hill
#
# Bulk Modulus (GPa) = 13.56856 29.11320 21.34088
# Shear Modulus (GPa) = 11.93531 20.22633 16.08082
#
# Velocity S-wave (km/s) = 2.37917 3.09718 2.76161
# Velocity P-wave (km/s) = 3.73928 5.15725 4.50441
#
# Compressibility (1/GPa) = 0.07369977
#
# Stress axis : x y z
#
# Youngs Moduli (GPa) = 34.14197 13.79461 106.35702
#
# Poissons Ratio (x) = 0.08320 -0.03404
# Poissons Ratio (y) = 0.20592 1.38593
# Poissons Ratio (z) = -0.01093 0.17976
#
# Static dielectric constant tensor:
#      x y z
#    x 1.906530 0.000000 0.000000 
#    y 0.000000 1.775970 0.000000 
#    z 0.000000 0.000000 1.809840 
# 
# From -- ./inp_files/21633.got.cif
#   From: 2010.05.17/outbox.cif.g08.bks.cpg/sg59_11_cif.got.tgz:21633.got - 2010.06.03 14:40:33.
