data_PCOD9446314
_publ_section_title
;
Structure prediction by ZEFSAII (Michael W. Deem and Ramdas Pophale) SiO2 
 PCOD9446314
Probable space group: P M M N
;
_chemical_formula_sum "Si O2"
_cell_formula_units_Z 56
_cell_length_a 14.880312
_cell_length_b 21.082483
_cell_length_c 7.134899
_cell_angle_alpha 90.000000
_cell_angle_beta 90.000000
_cell_angle_gamma 90.000000
_cell_volume 2238.317168
_symmetry_space_group_name_H-M "P M M N"
_symmetry_group_IT_number 59
_space_group.IT_coordinate_system_code '2'
_symmetry_cell_setting 'orthorhombic'
loop_
_space_group_symop_operation_xyz
x,y,z
1/2-x,1/2-y,z
1/2+x,-y,-z
-x,1/2+y,-z
-x,-y,-z
1/2+x,1/2+y,-z
1/2-x,y,z
x,1/2-y,z
loop_
_atom_site_type_symbol
_atom_site_label
_atom_site_fract_x
_atom_site_fract_y
_atom_site_fract_z
Si Si1 0.650706 0.179469 0.698816
Si Si2 0.046923 0.181432 0.702610
Si Si3 0.492391 0.178379 0.264114
Si Si4 0.587066 0.548529 0.225275
Si Si5 0.849201 0.084028 0.146424
Si Si6 0.882173 0.047124 0.707115
Si Si7 0.351806 0.419351 0.161738
O O1 0.750000 0.180880 0.794116
O O2 0.648268 0.250000 0.604559
O O3 0.552365 0.176640 0.801353
O O4 0.650476 0.110195 0.599451
O O5 0.086626 0.250000 0.749033
O O6 0.111683 0.121334 0.727608
O O7 0.015048 0.180877 0.488168
O O8 0.502971 0.250000 0.194145
O O9 0.572251 0.131946 0.202397
O O10 0.397532 0.146409 0.210374
O O11 0.639415 0.483498 0.254425
O O12 0.488858 0.543026 0.311717
O O13 0.583417 0.553485 0.999653
O O14 0.750000 0.109864 0.181366
O O15 0.855376 0.066011 0.923145
O O16 0.850669 0.974731 0.681106
O O17 0.250000 0.413562 0.092540
#
# Coordination Sequence:
#
# PCOD9446314 Si02
#       7
#     8   8   8   8   8   8   8
#     4   9  17  30  51  82 116 150 194 238 277 340
#     4   9  21  38  59  81 114 158 192 235 294 342
#     4  11  24  42  58  83 121 158 195 240 293 350
#     4  10  18  37  64  87 115 151 195 241 290 338
#     4  11  21  36  59  89 122 155 191 239 294 350
#     4  10  17  34  58  86 120 153 186 238 296 336
#     4  11  21  38  63  88 115 150 191 241 294 346
#
# _framework density 25.018795000000001
#
# number of rings (size 3 to 8) (size 9 to 14) (size 15 to 20)
#    0.000    1.857    2.857    3.429    0.000    2.857 
#    0.000    2.857    0.000    3.000    0.000    0.000 
#    0.000    0.000    0.000    0.000    0.000    0.000 
#
# Total GULP energy -312042.633532 kJ/mol
# GULP energy per Si atom -5572.189885 kJ/mol
# Density = 2.496185 g / cm^3
# Si number density = 25.018795 Si / 1000 Ang^3
#
#
#
# Elastic Constant Matrix: (Units=GPa)
#
#
# Indices 1 2 3 4 5 6 
#
# 1 85.6792 40.7684 -6.3522 0.0000 0.0000 0.0000
# 2 40.7684 227.8586 17.9469 0.0000 0.0000 0.0000
# 3 -6.3522 17.9469 54.4206 0.0000 0.0000 0.0000
# 4 0.0000 0.0000 0.0000 30.7770 0.0000 0.0000
# 5 0.0000 0.0000 0.0000 0.0000 8.8292 0.0000
# 6 0.0000 0.0000 0.0000 0.0000 0.0000 22.2717
#
#
#
# Elastic Compliance Matrix: (Units=1/GPa)
#
#
# Indices 1 2 3 4 5 6 
#
# 1 0.013045 -0.002519 0.002353 0.000000 0.000000 0.000000
# 2 -0.002519 0.004992 -0.001940 0.000000 0.000000 0.000000
# 3 0.002353 -0.001940 0.019290 0.000000 0.000000 0.000000
# 4 0.000000 0.000000 0.000000 0.032492 0.000000 0.000000
# 5 0.000000 0.000000 0.000000 0.000000 0.113260 0.000000
# 6 0.000000 0.000000 0.000000 0.000000 0.000000 0.044900
#
#
# Mechanical properties :
#
#
# Convention : Reuss Voigt Hill
#
# Bulk Modulus (GPa) = 30.19836 52.52051 41.35944
# Shear Modulus (GPa) = 20.55673 33.41528 26.98600
#
# Velocity S-wave (km/s) = 2.86956 3.65856 3.28781
# Velocity P-wave (km/s) = 4.80371 6.23576 5.56598
#
# Compressibility (1/GPa) = 0.03311438
#
# Stress axis : x y z
#
# Youngs Moduli (GPa) = 76.65963 200.30944 51.84031
#
# Poissons Ratio (x) = 0.50464 -0.12200
# Poissons Ratio (y) = 0.19313 0.10059
# Poissons Ratio (z) = -0.18041 0.38868
#
# Static dielectric constant tensor:
#      x y z
#    x 1.940310 0.000000 0.000000 
#    y 0.000000 2.071730 0.000000 
#    z 0.000000 0.000000 2.133750 
# 
# From -- ./inp_files/9360.got.cif
#   From: 2010.05.17/outbox.cif.g08.bks.cpg/sg59_5_cif.got.tgz:9360.got - 2010.06.03 14:40:33.
