data_PCOD9446443
_publ_section_title
;
Structure prediction by ZEFSAII (Michael W. Deem and Ramdas Pophale) SiO2 
 PCOD9446443
Probable space group: P M M N
;
_chemical_formula_sum "Si O2"
_cell_formula_units_Z 56
_cell_length_a 29.173252
_cell_length_b 7.325549
_cell_length_c 12.344516
_cell_angle_alpha 90.000000
_cell_angle_beta 90.000000
_cell_angle_gamma 90.000000
_cell_volume 2638.147589
_symmetry_space_group_name_H-M "P M M N"
_symmetry_group_IT_number 59
_space_group.IT_coordinate_system_code '2'
_symmetry_cell_setting 'orthorhombic'
loop_
_space_group_symop_operation_xyz
x,y,z
1/2-x,1/2-y,z
1/2+x,-y,-z
-x,1/2+y,-z
-x,-y,-z
1/2+x,1/2+y,-z
1/2-x,y,z
x,1/2-y,z
loop_
_atom_site_type_symbol
_atom_site_label
_atom_site_fract_x
_atom_site_fract_y
_atom_site_fract_z
Si Si1 0.883872 0.973159 0.094455
Si Si2 0.614154 0.526658 0.555532
Si Si3 0.023264 0.029983 0.317131
Si Si4 0.916759 0.964418 0.327980
Si Si5 0.956901 0.533398 0.923764
Si Si6 0.303262 0.472170 0.288354
Si Si7 0.697975 0.528055 0.956655
O O1 0.886454 0.750000 0.096551
O O2 0.902797 0.038493 0.209900
O O3 0.833462 0.027511 0.056678
O O4 0.914794 0.036124 0.993830
O O5 0.614664 0.750000 0.556628
O O6 0.565831 0.470353 0.609548
O O7 0.611232 0.464497 0.431118
O O8 0.658340 0.468483 0.625397
O O9 0.023844 0.250000 0.317292
O O10 0.033263 0.961919 0.195486
O O11 0.971370 0.980175 0.348049
O O12 0.906604 0.750000 0.323099
O O13 0.949835 0.750000 0.910328
O O14 0.000000 0.500000 0.000000
O O15 0.250000 0.527578 0.307962
O O16 0.303122 0.250000 0.290294
O O17 0.316709 0.526602 0.165329
O O18 0.750000 0.469164 0.970182
O O19 0.697164 0.750000 0.955007
#
# Coordination Sequence:
#
# PCOD9446443 Si02
#       7
#     8   8   8   8   8   8   8
#     4   9  16  26  39  57  84 115 141 171 216 261
#     4   9  17  28  41  60  85 115 150 180 215 258
#     4  10  19  30  45  63  85 116 152 186 212 248
#     4  10  19  30  43  60  89 123 146 175 218 259
#     4  10  18  28  43  62  85 112 142 177 215 255
#     4   8  13  23  40  60  82 109 142 179 216 257
#     4   8  13  22  38  59  82 110 143 176 213 260
#
# _framework density 21.227015000000002
#
# number of rings (size 3 to 8) (size 9 to 14) (size 15 to 20)
#    0.000    2.857    1.429    2.143    0.000    3.429 
#    0.000    0.714    0.000    4.286    0.000    0.000 
#    0.000    5.714    0.000   15.714    0.000   14.286 
#
# Total GULP energy -312448.385604 kJ/mol
# GULP energy per Si atom -5579.435457 kJ/mol
# Density = 2.117870 g / cm^3
# Si number density = 21.227015 Si / 1000 Ang^3
#
#
#
# Elastic Constant Matrix: (Units=GPa)
#
#
# Indices 1 2 3 4 5 6 
#
# 1 118.5277 -7.2560 65.6007 0.0000 0.0000 0.0000
# 2 -7.2560 80.7954 -0.0207 0.0000 0.0000 0.0000
# 3 65.6007 -0.0207 95.7147 0.0000 0.0000 0.0000
# 4 0.0000 0.0000 0.0000 -5.4473 0.0000 0.0000
# 5 0.0000 0.0000 0.0000 0.0000 31.8868 0.0000
# 6 0.0000 0.0000 0.0000 0.0000 0.0000 4.7677
#
#
#
# Elastic Compliance Matrix: (Units=1/GPa)
#
#
# Indices 1 2 3 4 5 6 
#
# 1 0.013714 0.001229 -0.009399 0.000000 0.000000 0.000000
# 2 0.001229 0.012487 -0.000840 0.000000 0.000000 0.000000
# 3 -0.009399 -0.000840 0.016889 0.000000 0.000000 0.000000
# 4 0.000000 0.000000 0.000000 -0.183578 0.000000 0.000000
# 5 0.000000 0.000000 0.000000 0.000000 0.031361 0.000000
# 6 0.000000 0.000000 0.000000 0.000000 0.000000 0.209743
#
#
# Mechanical properties :
#
#
# Convention : Reuss Voigt Hill
#
# Bulk Modulus (GPa) = 39.88607 45.74288 42.81448
# Shear Modulus (GPa) = 39.37211 22.02237 30.69724
#
# Velocity S-wave (km/s) = 4.31142 3.22447 3.80694
# Velocity P-wave (km/s) = 6.60421 5.95475 6.28787
#
# Compressibility (1/GPa) = 0.02507141
#
# Stress axis : x y z
#
# Youngs Moduli (GPa) = 72.91731 80.08252 59.20848
#
# Poissons Ratio (x) = -0.09844 0.55651
# Poissons Ratio (y) = -0.08963 0.04972
# Poissons Ratio (z) = 0.68536 0.06725
#
# Static dielectric constant tensor:
#      x y z
#    x 1.769840 0.000000 0.000000 
#    y 0.000000 1.866530 0.000000 
#    z 0.000000 0.000000 1.754070 
# 
# From -- ./inp_files/16276.got.cif
#   From: 2010.05.17/outbox.cif.g08.bks.cpg/sg59_9_cif.got.tgz:16276.got - 2010.06.03 14:40:33.
