data_PCOD9446427
_publ_section_title
;
Structure prediction by ZEFSAII (Michael W. Deem and Ramdas Pophale) SiO2 
 PCOD9446427
Probable space group: P M M N
;
_chemical_formula_sum "Si O2"
_cell_formula_units_Z 64
_cell_length_a 9.159318
_cell_length_b 25.782704
_cell_length_c 19.001778
_cell_angle_alpha 90.000000
_cell_angle_beta 90.000000
_cell_angle_gamma 90.000000
_cell_volume 4487.307590
_symmetry_space_group_name_H-M "P M M N"
_symmetry_group_IT_number 59
_space_group.IT_coordinate_system_code '2'
_symmetry_cell_setting 'orthorhombic'
loop_
_space_group_symop_operation_xyz
x,y,z
1/2-x,1/2-y,z
1/2+x,-y,-z
-x,1/2+y,-z
-x,-y,-z
1/2+x,1/2+y,-z
1/2-x,y,z
x,1/2-y,z
loop_
_atom_site_type_symbol
_atom_site_label
_atom_site_fract_x
_atom_site_fract_y
_atom_site_fract_z
Si Si1 0.424808 0.010014 0.108087
Si Si2 0.925847 0.417534 0.996142
Si Si3 0.081102 0.811255 0.224640
Si Si4 0.081829 0.960689 0.599282
Si Si5 0.925134 0.003398 0.729357
Si Si6 0.427464 0.691660 0.061014
Si Si7 0.918271 0.923537 0.469487
Si Si8 0.075225 0.109100 0.678973
O O1 0.250000 0.016380 0.102251
O O2 0.463057 0.010379 0.190281
O O3 0.460709 0.954831 0.070728
O O4 0.503253 0.054372 0.062930
O O5 0.750000 0.417353 0.003321
O O6 0.975862 0.358501 0.982829
O O7 0.250000 0.829233 0.231501
O O8 0.078066 0.750000 0.238718
O O9 0.036775 0.817975 0.143060
O O10 0.978819 0.842345 0.276808
O O11 0.250000 0.948740 0.614184
O O12 0.989237 0.964563 0.670641
O O13 0.015260 0.924138 0.539047
O O14 0.076878 0.018538 0.564701
O O15 0.750000 0.006340 0.723128
O O16 0.995862 0.058927 0.711373
O O17 0.250000 0.692723 0.057913
O O18 0.477707 0.750000 0.041255
O O19 0.750000 0.913214 0.488160
O O20 0.964091 0.887880 0.403924
O O21 0.250000 0.102018 0.682479
#
# Coordination Sequence:
#
# PCOD9446427 Si02
#       8
#     8   8   8   8   8   8   8   8
#     4   9  18  29  40  57  81 110 140 168 203 247
#     4   9  16  27  43  60  79 105 137 172 206 241
#     4   9  17  29  44  60  80 108 139 169 202 242
#     4   9  16  25  38  57  79 101 129 165 197 226
#     4  10  18  28  42  57  78 109 140 167 199 245
#     4   8  14  26  44  63  81 104 137 173 206 244
#     4   8  15  26  37  52  76 106 134 157 190 232
#     4  10  19  28  40  59  82 107 137 173 205 236
#
# _framework density 14.262449
#
# number of rings (size 3 to 8) (size 9 to 14) (size 15 to 20)
#    0.000    3.000    0.000    3.375    0.000    6.750 
#    0.000    3.125    0.000    1.125    0.000    0.000 
#    0.000    1.000    0.000    7.500    0.000    4.250 
#
# Total GULP energy -356278.009170 kJ/mol
# GULP energy per Si atom -5566.843893 kJ/mol
# Density = 1.422999 g / cm^3
# Si number density = 14.262449 Si / 1000 Ang^3
#
#
#
# Elastic Constant Matrix: (Units=GPa)
#
#
# Indices 1 2 3 4 5 6 
#
# 1 44.4501 23.3707 48.5409 0.0000 0.0000 0.0000
# 2 23.3707 65.0423 43.5359 0.0000 0.0000 0.0000
# 3 48.5409 43.5359 109.4985 0.0000 0.0000 0.0000
# 4 0.0000 0.0000 0.0000 19.2101 0.0000 0.0000
# 5 0.0000 0.0000 0.0000 0.0000 23.8750 0.0000
# 6 0.0000 0.0000 0.0000 0.0000 0.0000 16.7235
#
#
#
# Elastic Compliance Matrix: (Units=1/GPa)
#
#
# Indices 1 2 3 4 5 6 
#
# 1 0.044278 -0.003777 -0.018127 0.000000 0.000000 0.000000
# 2 -0.003777 0.021272 -0.006783 0.000000 0.000000 0.000000
# 3 -0.018127 -0.006783 0.019865 0.000000 0.000000 0.000000
# 4 0.000000 0.000000 0.000000 0.052056 0.000000 0.000000
# 5 0.000000 0.000000 0.000000 0.000000 0.041885 0.000000
# 6 0.000000 0.000000 0.000000 0.000000 0.000000 0.059796
#
#
# Mechanical properties :
#
#
# Convention : Reuss Voigt Hill
#
# Bulk Modulus (GPa) = 35.66156 49.98733 42.82445
# Shear Modulus (GPa) = 16.34662 18.86462 17.60562
#
# Velocity S-wave (km/s) = 3.38913 3.64081 3.51722
# Velocity P-wave (km/s) = 6.35398 7.26624 6.82537
#
# Compressibility (1/GPa) = 0.02804140
#
# Stress axis : x y z
#
# Youngs Moduli (GPa) = 22.58455 47.00996 50.33886
#
# Poissons Ratio (x) = 0.17753 0.91249
# Poissons Ratio (y) = 0.08529 0.34147
# Poissons Ratio (z) = 0.40939 0.31889
#
# Static dielectric constant tensor:
#      x y z
#    x 1.477310 0.000000 0.000000 
#    y 0.000000 1.466230 0.000000 
#    z 0.000000 0.000000 1.469810 
# 
# From -- ./inp_files/26652.got.cif
#   From: 2010.05.17/outbox.cif.g08.bks.cpg/sg59_14_cif.got.tgz:26652.got - 2010.06.03 14:40:33.
