data_PCOD9446099
_publ_section_title
;
Structure prediction by ZEFSAII (Michael W. Deem and Ramdas Pophale) SiO2 
 PCOD9446099
Probable space group: P N N M
;
_chemical_formula_sum "Si O2"
_cell_formula_units_Z 48
_cell_length_a 9.000000
_cell_length_b 9.000000
_cell_length_c 30.000000
_cell_angle_alpha 90.000000
_cell_angle_beta 90.000000
_cell_angle_gamma 90.000000
_cell_volume 2430.000000
_symmetry_space_group_name_H-M "P N N M"
_symmetry_group_IT_number 58
_symmetry_cell_setting 'orthorhombic'
loop_
_space_group_symop_operation_xyz
x,y,z
-x,-y,z
1/2+x,1/2-y,1/2-z
1/2-x,1/2+y,1/2-z
-x,-y,-z
x,y,-z
1/2-x,1/2+y,1/2+z
1/2+x,1/2-y,1/2+z
loop_
_atom_site_type_symbol
_atom_site_label
_atom_site_fract_x
_atom_site_fract_y
_atom_site_fract_z
Si Si1 0.901799 0.355238 0.328356
Si Si2 0.292125 0.638111 0.915103
Si Si3 0.359029 0.294270 0.081468
Si Si4 0.637749 0.712293 0.500000
Si Si5 0.826228 0.025863 0.766076
Si Si6 0.792509 0.866979 0.000000
Si Si7 0.304520 0.683424 0.189343
O O1 0.829200 0.281579 0.371244
O O2 0.778061 0.415949 0.295037
O O3 0.000000 0.500000 0.341654
O O4 0.023261 0.238898 0.309472
O O5 0.462391 0.690931 0.922602
O O6 0.293651 0.460069 0.919758
O O7 0.258487 0.676446 0.862909
O O8 0.193431 0.707876 0.954545
O O9 0.292250 0.194976 0.042809
O O10 0.460059 0.696304 0.500000
O O11 0.700691 0.544707 0.500000
O O12 0.793238 0.973300 0.715213
O O13 0.782631 0.189985 0.782931
O O14 0.000000 0.000000 0.774454
#
# Coordination Sequence:
#
# PCOD9446099 Si02
#       7
#     8   8   8   4   8   4   8
#     4   9  21  40  61  93 128 165 213 262 311 370
#     4  10  23  42  67  94 126 164 216 258 312 370
#     4  10  22  40  68  94 119 167 216 257 306 377
#     4  11  26  45  62  94 137 160 200 263 318 390
#     4  11  23  38  63  90 128 167 211 263 313 367
#     4  11  26  41  66  94 128 165 200 259 332 372
#     4  10  23  40  65  93 126 171 209 263 312 366
#
# _framework density 19.753086
#
# number of rings (size 3 to 8) (size 9 to 14) (size 15 to 20)
#    0.000    1.833    0.000    2.000   14.000    4.667 
#    0.000    0.000    3.667    0.000    0.000    0.000 
#    0.000    0.000    0.000    0.000    0.000    0.000 
#
# Total GULP energy -268208.037880 kJ/mol
# GULP energy per Si atom -5587.667456 kJ/mol
# Density = 1.970813 g / cm^3
# Si number density = 19.753086 Si / 1000 Ang^3
#
#
#
# Elastic Constant Matrix: (Units=GPa)
#
#
# Indices 1 2 3 4 5 6 
#
# 1 47.1099 32.0130 56.1358 0.0000 0.0000 0.0000
# 2 32.0130 72.3170 73.7315 0.0000 0.0000 0.0000
# 3 56.1358 73.7315 142.1014 0.0000 0.0000 0.0000
# 4 0.0000 0.0000 0.0000 30.7936 0.0000 0.0000
# 5 0.0000 0.0000 0.0000 0.0000 22.1384 0.0000
# 6 0.0000 0.0000 0.0000 0.0000 0.0000 26.3984
#
#
#
# Elastic Compliance Matrix: (Units=1/GPa)
#
#
# Indices 1 2 3 4 5 6 
#
# 1 0.040503 -0.003432 -0.014220 0.000000 0.000000 0.000000
# 2 -0.003432 0.029651 -0.014029 0.000000 0.000000 0.000000
# 3 -0.014220 -0.014029 0.019934 0.000000 0.000000 0.000000
# 4 0.000000 0.000000 0.000000 0.032474 0.000000 0.000000
# 5 0.000000 0.000000 0.000000 0.000000 0.045170 0.000000
# 6 0.000000 0.000000 0.000000 0.000000 0.000000 0.037881
#
#
# Mechanical properties :
#
#
# Convention : Reuss Voigt Hill
#
# Bulk Modulus (GPa) = 37.41628 65.03212 51.22420
# Shear Modulus (GPa) = 17.99319 22.50927 20.25123
#
# Velocity S-wave (km/s) = 3.02139 3.37936 3.20538
# Velocity P-wave (km/s) = 5.58166 6.94411 6.29983
#
# Compressibility (1/GPa) = 0.02672634
#
# Stress axis : x y z
#
# Youngs Moduli (GPa) = 24.68945 33.72620 50.16637
#
# Poissons Ratio (x) = 0.11575 0.71335
# Poissons Ratio (y) = 0.08473 0.70378
# Poissons Ratio (z) = 0.35108 0.47314
#
# Static dielectric constant tensor:
#      x y z
#    x 1.673490 0.000000 0.000000 
#    y 0.000000 1.707060 0.000000 
#    z 0.000000 0.000000 1.688710 
# 
# From -- ./inp_files/34617.got.cif
#   From: 2010.05.17/outbox.ucp.g08.bks.cvg/sg58_18_cif.got.tgz:34617.got - 2010.06.11 16:41:41.
