data_PCOD9446236
_publ_section_title
;
Structure prediction by ZEFSAII (Michael W. Deem and Ramdas Pophale) SiO2 
 PCOD9446236
Probable space group: P M M N
;
_chemical_formula_sum "Si O2"
_cell_formula_units_Z 64
_cell_length_a 24.208943
_cell_length_b 7.610307
_cell_length_c 19.784986
_cell_angle_alpha 90.000000
_cell_angle_beta 90.000000
_cell_angle_gamma 90.000000
_cell_volume 3645.136128
_symmetry_space_group_name_H-M "P M M N"
_symmetry_group_IT_number 59
_space_group.IT_coordinate_system_code '2'
_symmetry_cell_setting 'orthorhombic'
loop_
_space_group_symop_operation_xyz
x,y,z
1/2-x,1/2-y,z
1/2+x,-y,-z
-x,1/2+y,-z
-x,-y,-z
1/2+x,1/2+y,-z
1/2-x,y,z
x,1/2-y,z
loop_
_atom_site_type_symbol
_atom_site_label
_atom_site_fract_x
_atom_site_fract_y
_atom_site_fract_z
Si Si1 0.187077 0.965186 0.610227
Si Si2 0.142917 0.545766 0.754344
Si Si3 0.187234 0.534662 0.898163
Si Si4 0.085291 0.962138 0.985132
Si Si5 0.484189 0.456381 0.108527
Si Si6 0.016073 0.453996 0.746521
Si Si7 0.084440 0.536106 0.522503
Si Si8 0.975124 0.043865 0.607287
O O1 0.250000 0.019308 0.597822
O O2 0.186010 0.750000 0.610777
O O3 0.166636 0.027154 0.684199
O O4 0.142394 0.020417 0.554322
O O5 0.159622 0.750000 0.754418
O O6 0.166465 0.472373 0.824456
O O7 0.076576 0.537398 0.754452
O O8 0.250000 0.480476 0.910184
O O9 0.185987 0.750000 0.897513
O O10 0.143396 0.478660 0.954804
O O11 0.084032 0.750000 0.983743
O O12 0.068318 0.016356 0.060385
O O13 0.036595 0.026132 0.934681
O O14 0.493144 0.250000 0.117827
O O15 0.484002 0.534390 0.182977
O O16 0.027319 0.250000 0.731529
O O17 0.982818 0.529683 0.682536
O O18 0.083036 0.750000 0.522380
O O19 0.068647 0.472295 0.447281
O O20 0.034689 0.476347 0.571258
O O21 0.961831 0.250000 0.614242
#
# Coordination Sequence:
#
# PCOD9446236 Si02
#       8
#     8   8   8   8   8   8   8   8
#     4   9  16  25  42  67  90 115 150 188 221 256
#     4  10  17  28  43  64  91 120 155 183 209 253
#     4   9  16  27  45  67  91 119 150 182 215 256
#     4   9  17  30  46  67  90 114 145 183 223 262
#     4  10  19  31  47  66  88 116 150 185 224 269
#     4  11  20  29  43  64  91 121 150 183 227 269
#     4   9  16  28  45  63  85 114 148 184 221 263
#     4   9  18  29  42  62  88 116 146 183 227 267
#
# _framework density 17.557642999999999
#
# number of rings (size 3 to 8) (size 9 to 14) (size 15 to 20)
#    0.000    2.500    2.500    1.125    0.000    2.500 
#    0.000    0.000    0.000    3.750    0.000    0.875 
#    0.000    5.000    0.000    0.000    0.000    0.000 
#
# Total GULP energy -356861.808232 kJ/mol
# GULP energy per Si atom -5575.965754 kJ/mol
# Density = 1.751768 g / cm^3
# Si number density = 17.557643 Si / 1000 Ang^3
#
#
#
# Elastic Constant Matrix: (Units=GPa)
#
#
# Indices 1 2 3 4 5 6 
#
# 1 115.1648 -6.4627 75.7796 0.0000 0.0000 0.0000
# 2 -6.4627 32.6029 -8.8396 0.0000 0.0000 0.0000
# 3 75.7796 -8.8396 136.3812 0.0000 0.0000 0.0000
# 4 0.0000 0.0000 0.0000 2.4540 0.0000 0.0000
# 5 0.0000 0.0000 0.0000 0.0000 19.6447 0.0000
# 6 0.0000 0.0000 0.0000 0.0000 0.0000 10.4577
#
#
#
# Elastic Compliance Matrix: (Units=1/GPa)
#
#
# Indices 1 2 3 4 5 6 
#
# 1 0.013702 0.000663 -0.007570 0.000000 0.000000 0.000000
# 2 0.000663 0.031253 0.001657 0.000000 0.000000 0.000000
# 3 -0.007570 0.001657 0.011646 0.000000 0.000000 0.000000
# 4 0.000000 0.000000 0.000000 0.407493 0.000000 0.000000
# 5 0.000000 0.000000 0.000000 0.000000 0.050904 0.000000
# 6 0.000000 0.000000 0.000000 0.000000 0.000000 0.095623
#
#
# Mechanical properties :
#
#
# Convention : Reuss Voigt Hill
#
# Bulk Modulus (GPa) = 21.69141 45.01149 33.35145
# Shear Modulus (GPa) = 7.85561 21.42274 14.63918
#
# Velocity S-wave (km/s) = 2.11752 3.49684 2.89065
# Velocity P-wave (km/s) = 4.28483 6.48042 5.49343
#
# Compressibility (1/GPa) = 0.04610120
#
# Stress axis : x y z
#
# Youngs Moduli (GPa) = 72.98309 31.99707 85.86480
#
# Poissons Ratio (x) = -0.02123 0.65003
# Poissons Ratio (y) = -0.04842 -0.14228
# Poissons Ratio (z) = 0.55251 -0.05302
#
# Static dielectric constant tensor:
#      x y z
#    x 1.571760 0.000000 0.000000 
#    y 0.000000 1.668120 0.000000 
#    z 0.000000 0.000000 1.618220 
# 
# From -- ./inp_files/28420.got.cif
#   From: 2010.05.17/outbox.cif.g08.bks.cpg/sg59_15_cif.got.tgz:28420.got - 2010.06.03 14:40:33.
