data_PCOD9446455
_publ_section_title
;
Structure prediction by ZEFSAII (Michael W. Deem and Ramdas Pophale) SiO2 
 PCOD9446455
Probable space group: P M M N
;
_chemical_formula_sum "Si O2"
_cell_formula_units_Z 64
_cell_length_a 8.040302
_cell_length_b 26.396236
_cell_length_c 17.750120
_cell_angle_alpha 90.000000
_cell_angle_beta 90.000000
_cell_angle_gamma 90.000000
_cell_volume 3767.173805
_symmetry_space_group_name_H-M "P M M N"
_symmetry_group_IT_number 59
_space_group.IT_coordinate_system_code '2'
_symmetry_cell_setting 'orthorhombic'
loop_
_space_group_symop_operation_xyz
x,y,z
1/2-x,1/2-y,z
1/2+x,-y,-z
-x,1/2+y,-z
-x,-y,-z
1/2+x,1/2+y,-z
1/2-x,y,z
x,1/2-y,z
loop_
_atom_site_type_symbol
_atom_site_label
_atom_site_fract_x
_atom_site_fract_y
_atom_site_fract_z
Si Si1 0.549775 0.559071 0.499218
Si Si2 0.449851 0.806752 0.090740
Si Si3 0.946319 0.899059 0.818625
Si Si4 0.051073 0.060642 0.664949
Si Si5 0.053274 0.593759 0.174129
Si Si6 0.943581 0.005830 0.086161
Si Si7 0.452413 0.442427 0.336762
Si Si8 0.548377 0.692627 0.918623
O O1 0.500000 0.500000 0.500000
O O2 0.750000 0.562439 0.498056
O O3 0.491008 0.578953 0.417884
O O4 0.493421 0.578429 0.581198
O O5 0.250000 0.805042 0.098428
O O6 0.514338 0.750000 0.107977
O O7 0.511227 0.852840 0.142047
O O8 0.491004 0.817923 0.003734
O O9 0.750000 0.889762 0.808480
O O10 0.014720 0.912054 0.735911
O O11 0.015321 0.850227 0.861899
O O12 0.965602 0.948540 0.870818
O O13 0.250000 0.065923 0.668577
O O14 0.975141 0.087922 0.736992
O O15 0.008840 0.000804 0.670438
O O16 0.250000 0.590529 0.158586
O O17 0.972445 0.546335 0.131084
O O18 0.750000 0.018448 0.087064
O O19 0.000000 0.000000 0.000000
O O20 0.250000 0.443041 0.335576
O O21 0.750000 0.691340 0.918962
O O22 0.496497 0.750000 0.899182
#
# Coordination Sequence:
#
# PCOD9446455 Si02
#       8
#     8   8   8   8   8   8   8   8
#     4   8  15  26  41  62  88 121 156 189 225 264
#     4   9  19  35  52  68  86 113 153 198 236 272
#     4  10  19  31  48  69  94 123 156 190 229 274
#     4  10  18  28  43  66  95 124 155 191 227 272
#     4  11  21  33  49  69  94 122 153 189 233 282
#     4  12  24  35  47  65  94 126 156 187 225 276
#     4   9  16  28  45  64  91 125 158 191 226 271
#     4   9  18  32  49  69  92 118 151 193 235 274
#
# _framework density 16.988862999999998
#
# number of rings (size 3 to 8) (size 9 to 14) (size 15 to 20)
#    0.000    2.250    1.250    2.625    0.000    4.000 
#    0.000    0.000    0.000    0.000    0.000    0.875 
#    0.000    3.000    0.000    0.000    0.000    0.000 
#
# Total GULP energy -356750.808592 kJ/mol
# GULP energy per Si atom -5574.231384 kJ/mol
# Density = 1.695020 g / cm^3
# Si number density = 16.988863 Si / 1000 Ang^3
#
#
#
# Elastic Constant Matrix: (Units=GPa)
#
#
# Indices 1 2 3 4 5 6 
#
# 1 9.5915 -6.9713 -13.1659 0.0000 0.0000 0.0000
# 2 -6.9713 87.6351 66.1110 0.0000 0.0000 0.0000
# 3 -13.1659 66.1110 143.2160 0.0000 0.0000 0.0000
# 4 0.0000 0.0000 0.0000 16.8502 0.0000 0.0000
# 5 0.0000 0.0000 0.0000 0.0000 17.6257 0.0000
# 6 0.0000 0.0000 0.0000 0.0000 0.0000 0.6707
#
#
#
# Elastic Compliance Matrix: (Units=1/GPa)
#
#
# Indices 1 2 3 4 5 6 
#
# 1 0.119515 0.001870 0.010124 0.000000 0.000000 0.000000
# 2 0.001870 0.017537 -0.007924 0.000000 0.000000 0.000000
# 3 0.010124 -0.007924 0.011571 0.000000 0.000000 0.000000
# 4 0.000000 0.000000 0.000000 0.059347 0.000000 0.000000
# 5 0.000000 0.000000 0.000000 0.000000 0.056735 0.000000
# 6 0.000000 0.000000 0.000000 0.000000 0.000000 1.490879
#
#
# Mechanical properties :
#
#
# Convention : Reuss Voigt Hill
#
# Bulk Modulus (GPa) = 6.37904 36.93222 21.65563
# Shear Modulus (GPa) = 2.77825 19.99392 11.38608
#
# Velocity S-wave (km/s) = 1.28019 3.43430 2.59165
# Velocity P-wave (km/s) = 2.43889 6.12471 4.66156
#
# Compressibility (1/GPa) = 0.15676337
#
# Stress axis : x y z
#
# Youngs Moduli (GPa) = 8.36716 57.02179 86.42449
#
# Poissons Ratio (x) = -0.10663 -0.87495
# Poissons Ratio (y) = -0.01565 0.68479
# Poissons Ratio (z) = -0.08471 0.45181
#
# Static dielectric constant tensor:
#      x y z
#    x 1.602940 0.000000 0.000000 
#    y 0.000000 1.549860 0.000000 
#    z 0.000000 0.000000 1.596880 
# 
# From -- ./inp_files/26521.got.cif
#   From: 2010.05.17/outbox.cif.g08.bks.cpg/sg59_14_cif.got.tgz:26521.got - 2010.06.03 14:40:33.
