data_PCOD9446586
_publ_section_title
;
Structure prediction by ZEFSAII (Michael W. Deem and Ramdas Pophale) SiO2 
 PCOD9446586
Probable space group: P M M N
;
_chemical_formula_sum "Si O2"
_cell_formula_units_Z 56
_cell_length_a 14.312423
_cell_length_b 14.642245
_cell_length_c 15.525258
_cell_angle_alpha 90.000000
_cell_angle_beta 90.000000
_cell_angle_gamma 90.000000
_cell_volume 3253.566282
_symmetry_space_group_name_H-M "P M M N"
_symmetry_group_IT_number 59
_space_group.IT_coordinate_system_code '2'
_symmetry_cell_setting 'orthorhombic'
loop_
_space_group_symop_operation_xyz
x,y,z
1/2-x,1/2-y,z
1/2+x,-y,-z
-x,1/2+y,-z
-x,-y,-z
1/2+x,1/2+y,-z
1/2-x,y,z
x,1/2-y,z
loop_
_atom_site_type_symbol
_atom_site_label
_atom_site_fract_x
_atom_site_fract_y
_atom_site_fract_z
Si Si1 0.141143 0.448332 0.337414
Si Si2 0.143120 0.651645 0.409016
Si Si3 0.855976 0.859150 0.333912
Si Si4 0.485325 0.358003 0.824624
Si Si5 0.139020 0.008461 0.148415
Si Si6 0.361002 0.354383 0.994567
Si Si7 0.030363 0.395689 0.493945
O O1 0.250000 0.429942 0.356015
O O2 0.127454 0.557916 0.356333
O O3 0.123256 0.435616 0.236864
O O4 0.078694 0.388485 0.401534
O O5 0.250000 0.646451 0.440377
O O6 0.133766 0.750000 0.361521
O O7 0.065916 0.653808 0.483443
O O8 0.750000 0.895441 0.325114
O O9 0.850938 0.750000 0.322576
O O10 0.928672 0.890612 0.260557
O O11 0.897510 0.876380 0.428665
O O12 0.506658 0.250000 0.815384
O O13 0.575714 0.418827 0.843752
O O14 0.416599 0.367882 0.906294
O O15 0.250000 0.986657 0.145574
O O16 0.114818 0.071060 0.066686
O O17 0.250000 0.361354 0.977961
O O18 0.379130 0.250000 0.024571
O O19 0.000000 0.500000 0.500000
#
# Coordination Sequence:
#
# PCOD9446586 Si02
#       7
#     8   8   8   8   8   8   8
#     4   9  18  31  46  65  92 126 159 193 234 280
#     4   9  17  29  45  65  90 122 158 194 236 286
#     4  10  20  33  50  73  98 123 156 200 247 293
#     4  10  19  32  52  77 103 128 156 197 251 303
#     4  10  20  33  50  74 102 131 165 200 236 288
#     4   9  18  34  54  73  96 129 167 206 245 284
#     4  10  18  29  45  65  92 124 156 189 228 275
#
# _framework density 17.211883
#
# number of rings (size 3 to 8) (size 9 to 14) (size 15 to 20)
#    0.000    2.429    0.000    3.429    0.000    4.286 
#    0.000    2.857    0.000    3.429    0.000    0.000 
#    0.000    0.000    0.000    0.000    0.000    0.429 
#
# Total GULP energy -311919.070007 kJ/mol
# GULP energy per Si atom -5569.983393 kJ/mol
# Density = 1.717271 g / cm^3
# Si number density = 17.211883 Si / 1000 Ang^3
#
#
#
# Elastic Constant Matrix: (Units=GPa)
#
#
# Indices 1 2 3 4 5 6 
#
# 1 86.2570 30.3654 44.0101 0.0000 0.0000 0.0000
# 2 30.3654 37.9399 22.6808 0.0000 0.0000 0.0000
# 3 44.0101 22.6808 85.2264 0.0000 0.0000 0.0000
# 4 0.0000 0.0000 0.0000 20.5437 0.0000 0.0000
# 5 0.0000 0.0000 0.0000 0.0000 18.9131 0.0000
# 6 0.0000 0.0000 0.0000 0.0000 0.0000 26.1198
#
#
#
# Elastic Compliance Matrix: (Units=1/GPa)
#
#
# Indices 1 2 3 4 5 6 
#
# 1 0.019003 -0.011110 -0.006856 0.000000 0.000000 0.000000
# 2 -0.011110 0.037840 -0.004333 0.000000 0.000000 0.000000
# 3 -0.006856 -0.004333 0.016427 0.000000 0.000000 0.000000
# 4 0.000000 0.000000 0.000000 0.048677 0.000000 0.000000
# 5 0.000000 0.000000 0.000000 0.000000 0.052873 0.000000
# 6 0.000000 0.000000 0.000000 0.000000 0.000000 0.038285
#
#
# Mechanical properties :
#
#
# Convention : Reuss Voigt Hill
#
# Bulk Modulus (GPa) = 34.87839 44.83735 39.85787
# Shear Modulus (GPa) = 18.70839 20.60646 19.65742
#
# Velocity S-wave (km/s) = 3.30046 3.46384 3.38314
# Velocity P-wave (km/s) = 5.90188 6.48879 6.20228
#
# Compressibility (1/GPa) = 0.02867104
#
# Stress axis : x y z
#
# Youngs Moduli (GPa) = 52.62461 26.42718 60.87565
#
# Poissons Ratio (x) = 0.29361 0.41737
# Poissons Ratio (y) = 0.58467 0.26377
# Poissons Ratio (z) = 0.36080 0.11451
#
# Static dielectric constant tensor:
#      x y z
#    x 1.604670 0.000000 0.000000 
#    y 0.000000 1.586600 0.000000 
#    z 0.000000 0.000000 1.576530 
# 
# From -- ./inp_files/23312.got.cif
#   From: 2010.05.17/outbox.cif.g08.bks.cpg/sg59_12_cif.got.tgz:23312.got - 2010.06.03 14:40:33.
