data_PCOD9446794
_publ_section_title
;
Structure prediction by ZEFSAII (Michael W. Deem and Ramdas Pophale) SiO2 
 PCOD9446794
Probable space group: P M M N
;
_chemical_formula_sum "Si O2"
_cell_formula_units_Z 64
_cell_length_a 8.860659
_cell_length_b 29.174977
_cell_length_c 15.982320
_cell_angle_alpha 90.000000
_cell_angle_beta 90.000000
_cell_angle_gamma 90.000000
_cell_volume 4131.581912
_symmetry_space_group_name_H-M "P M M N"
_symmetry_group_IT_number 59
_space_group.IT_coordinate_system_code '2'
_symmetry_cell_setting 'orthorhombic'
loop_
_space_group_symop_operation_xyz
x,y,z
1/2-x,1/2-y,z
1/2+x,-y,-z
-x,1/2+y,-z
-x,-y,-z
1/2+x,1/2+y,-z
1/2-x,y,z
x,1/2-y,z
loop_
_atom_site_type_symbol
_atom_site_label
_atom_site_fract_x
_atom_site_fract_y
_atom_site_fract_z
Si Si1 0.565983 0.303016 0.329794
Si Si2 0.929414 0.357721 0.841905
Si Si3 0.431872 0.852482 0.838822
Si Si4 0.429131 0.195729 0.687823
Si Si5 0.930383 0.695933 0.000662
Si Si6 0.424317 0.805645 0.486221
Si Si7 0.069459 0.551649 0.914407
Si Si8 0.929534 0.948028 0.097952
O O1 0.750000 0.302870 0.332305
O O2 0.518818 0.250000 0.317754
O O3 0.518598 0.333196 0.250937
O O4 0.518130 0.319934 0.421931
O O5 0.750000 0.356677 0.846760
O O6 0.986775 0.332797 0.758656
O O7 0.988266 0.409725 0.847855
O O8 0.997328 0.331027 0.921847
O O9 0.250000 0.846974 0.844245
O O10 0.505433 0.824190 0.914355
O O11 0.465940 0.905974 0.854247
O O12 0.250000 0.190545 0.697524
O O13 0.465237 0.250000 0.697320
O O14 0.480300 0.181371 0.594787
O O15 0.750000 0.690020 0.003239
O O16 0.964297 0.750000 0.006976
O O17 0.250000 0.820228 0.475367
O O18 0.423643 0.750000 0.489809
O O19 0.250000 0.552697 0.931949
O O20 0.034319 0.500930 0.880496
O O21 0.983324 0.558130 0.001934
O O22 0.750000 0.941496 0.103057
#
# Coordination Sequence:
#
# PCOD9446794 Si02
#       8
#     8   8   8   8   8   8   8   8
#     4   8  14  25  44  70  98 127 158 192 228 267
#     4  12  23  34  49  69  91 121 162 198 235 284
#     4  10  18  30  49  72  96 125 163 198 230 274
#     4  10  20  33  49  70  96 124 154 191 237 284
#     4  11  23  35  45  63  95 131 162 192 231 277
#     4   8  14  27  46  67  92 123 158 192 226 268
#     4   9  18  31  48  71  94 122 160 200 239 283
#     4  10  19  32  49  67  93 124 156 199 247 283
#
# _framework density 15.490434
#
# number of rings (size 3 to 8) (size 9 to 14) (size 15 to 20)
#    0.000    2.250    1.250    3.750    0.000    4.250 
#    0.000    0.625    0.000    2.250    0.000    0.875 
#    0.000    0.000    0.000    0.000    0.000    0.000 
#
# Total GULP energy -356929.105222 kJ/mol
# GULP energy per Si atom -5577.017269 kJ/mol
# Density = 1.545518 g / cm^3
# Si number density = 15.490434 Si / 1000 Ang^3
#
#
#
# Elastic Constant Matrix: (Units=GPa)
#
#
# Indices 1 2 3 4 5 6 
#
# 1 42.9441 43.9543 35.1357 0.0000 0.0000 0.0000
# 2 43.9543 94.7484 56.7081 0.0000 0.0000 0.0000
# 3 35.1357 56.7081 112.7388 0.0000 0.0000 0.0000
# 4 0.0000 0.0000 0.0000 6.8653 0.0000 0.0000
# 5 0.0000 0.0000 0.0000 0.0000 3.4284 0.0000
# 6 0.0000 0.0000 0.0000 0.0000 0.0000 18.9753
#
#
#
# Elastic Compliance Matrix: (Units=1/GPa)
#
#
# Indices 1 2 3 4 5 6 
#
# 1 0.046373 -0.018403 -0.005196 0.000000 0.000000 0.000000
# 2 -0.018403 0.022403 -0.005534 0.000000 0.000000 0.000000
# 3 -0.005196 -0.005534 0.013273 0.000000 0.000000 0.000000
# 4 0.000000 0.000000 0.000000 0.145661 0.000000 0.000000
# 5 0.000000 0.000000 0.000000 0.000000 0.291683 0.000000
# 6 0.000000 0.000000 0.000000 0.000000 0.000000 0.052700
#
#
# Mechanical properties :
#
#
# Convention : Reuss Voigt Hill
#
# Bulk Modulus (GPa) = 42.04397 58.00306 50.02351
# Shear Modulus (GPa) = 7.83348 13.49601 10.66475
#
# Velocity S-wave (km/s) = 2.25121 2.95489 2.62672
# Velocity P-wave (km/s) = 5.82736 7.01196 6.44692
#
# Compressibility (1/GPa) = 0.02378462
#
# Stress axis : x y z
#
# Youngs Moduli (GPa) = 21.56433 44.63588 75.34244
#
# Poissons Ratio (x) = 0.82144 0.39145
# Poissons Ratio (y) = 0.39685 0.41692
# Poissons Ratio (z) = 0.11204 0.24700
#
# Static dielectric constant tensor:
#      x y z
#    x 1.518520 0.000000 0.000000 
#    y 0.000000 1.517300 0.000000 
#    z 0.000000 0.000000 1.504490 
# 
# From -- ./inp_files/21962.got.cif
#   From: 2010.05.17/outbox.cif.g08.bks.cpg/sg59_11_cif.got.tgz:21962.got - 2010.06.03 14:40:33.
