data_PCOD9446162
_publ_section_title
;
Structure prediction by ZEFSAII (Michael W. Deem and Ramdas Pophale) SiO2 
 PCOD9446162
Probable space group: P M M N
;
_chemical_formula_sum "Si O2"
_cell_formula_units_Z 64
_cell_length_a 23.234117
_cell_length_b 9.251071
_cell_length_c 20.606255
_cell_angle_alpha 90.000000
_cell_angle_beta 90.000000
_cell_angle_gamma 90.000000
_cell_volume 4429.118052
_symmetry_space_group_name_H-M "P M M N"
_symmetry_group_IT_number 59
_space_group.IT_coordinate_system_code '2'
_symmetry_cell_setting 'orthorhombic'
loop_
_space_group_symop_operation_xyz
x,y,z
1/2-x,1/2-y,z
1/2+x,-y,-z
-x,1/2+y,-z
-x,-y,-z
1/2+x,1/2+y,-z
1/2-x,y,z
x,1/2-y,z
loop_
_atom_site_type_symbol
_atom_site_label
_atom_site_fract_x
_atom_site_fract_y
_atom_site_fract_z
Si Si1 0.524194 0.079015 0.709736
Si Si2 0.181787 0.421768 0.794651
Si Si3 0.553589 0.916731 0.582536
Si Si4 0.525671 0.920199 0.842397
Si Si5 0.891360 0.578995 0.330600
Si Si6 0.439801 0.423088 0.017647
Si Si7 0.417900 0.916352 0.542651
Si Si8 0.896624 0.077832 0.101660
O O1 0.534189 0.250000 0.707190
O O2 0.455655 0.054559 0.697816
O O3 0.556242 0.999775 0.650656
O O4 0.538980 0.013935 0.779588
O O5 0.250000 0.443837 0.794546
O O6 0.170236 0.250000 0.804903
O O7 0.153814 0.460019 0.725207
O O8 0.150408 0.513012 0.850082
O O9 0.570802 0.750000 0.588604
O O10 0.485875 0.918923 0.562045
O O11 0.586548 0.996384 0.524313
O O12 0.529021 0.750000 0.826287
O O13 0.565787 0.947648 0.905208
O O14 0.459727 0.948159 0.865795
O O15 0.886569 0.750000 0.344621
O O16 0.886205 0.490842 0.397001
O O17 0.443626 0.250000 0.007507
O O18 0.500000 0.500000 0.000000
O O19 0.396012 0.495583 0.967378
O O20 0.401133 0.750000 0.534495
O O21 0.890931 0.250000 0.092926
#
# Coordination Sequence:
#
# PCOD9446162 Si02
#       8
#     8   8   8   8   8   8   8   8
#     4  10  17  24  38  57  79 107 137 169 201 240
#     4  10  20  33  47  62  81 108 143 182 221 258
#     4   9  16  25  36  52  76 103 130 164 198 235
#     4   9  17  27  39  58  81 107 136 168 205 248
#     4   9  17  28  40  56  75 102 136 171 211 249
#     4   9  17  28  42  60  81 105 136 171 208 251
#     4   9  16  25  38  54  72  98 132 167 200 238
#     4  10  19  30  44  60  80 106 138 176 216 256
#
# _framework density 14.449828999999999
#
# number of rings (size 3 to 8) (size 9 to 14) (size 15 to 20)
#    0.000    2.625    1.250    2.625    0.000    6.750 
#    0.000    0.000    0.000    0.000    0.000    0.000 
#    0.000    0.000    0.000    1.125    0.000   20.000 
#
# Total GULP energy -356481.523570 kJ/mol
# GULP energy per Si atom -5570.023806 kJ/mol
# Density = 1.441694 g / cm^3
# Si number density = 14.449829 Si / 1000 Ang^3
#
#
#
# Elastic Constant Matrix: (Units=GPa)
#
#
# Indices 1 2 3 4 5 6 
#
# 1 29.0861 26.6569 33.7561 0.0000 0.0000 0.0000
# 2 26.6569 94.7338 94.1795 0.0000 0.0000 0.0000
# 3 33.7561 94.1795 150.1791 0.0000 0.0000 0.0000
# 4 0.0000 0.0000 0.0000 31.7832 0.0000 0.0000
# 5 0.0000 0.0000 0.0000 0.0000 9.7801 0.0000
# 6 0.0000 0.0000 0.0000 0.0000 0.0000 11.1187
#
#
#
# Elastic Compliance Matrix: (Units=1/GPa)
#
#
# Indices 1 2 3 4 5 6 
#
# 1 0.048416 -0.007449 -0.006211 0.000000 0.000000 0.000000
# 2 -0.007449 0.029179 -0.016624 0.000000 0.000000 0.000000
# 3 -0.006211 -0.016624 0.018480 0.000000 0.000000 0.000000
# 4 0.000000 0.000000 0.000000 0.031463 0.000000 0.000000
# 5 0.000000 0.000000 0.000000 0.000000 0.102248 0.000000
# 6 0.000000 0.000000 0.000000 0.000000 0.000000 0.089938
#
#
# Mechanical properties :
#
#
# Convention : Reuss Voigt Hill
#
# Bulk Modulus (GPa) = 28.16390 64.79823 46.48107
# Shear Modulus (GPa) = 12.75094 18.49686 15.62390
#
# Velocity S-wave (km/s) = 2.97379 3.58169 3.29181
# Velocity P-wave (km/s) = 5.59682 7.87691 6.83264
#
# Compressibility (1/GPa) = 0.03550645
#
# Stress axis : x y z
#
# Youngs Moduli (GPa) = 20.65436 34.27156 54.11214
#
# Poissons Ratio (x) = 0.25527 0.33612
# Poissons Ratio (y) = 0.15384 0.89957
# Poissons Ratio (z) = 0.12829 0.56974
#
# Static dielectric constant tensor:
#      x y z
#    x 1.440210 0.000000 0.000000 
#    y 0.000000 1.482130 0.000000 
#    z 0.000000 0.000000 1.487700 
# 
# From -- ./inp_files/26541.got.cif
#   From: 2010.05.17/outbox.cif.g08.bks.cpg/sg59_14_cif.got.tgz:26541.got - 2010.06.03 14:40:33.
