data_PCOD9446895
_publ_section_title
;
Structure prediction by ZEFSAII (Michael W. Deem and Ramdas Pophale) SiO2 
 PCOD9446895
Probable space group: P M M N
;
_chemical_formula_sum "Si O2"
_cell_formula_units_Z 48
_cell_length_a 31.792726
_cell_length_b 9.034279
_cell_length_c 9.126710
_cell_angle_alpha 90.000000
_cell_angle_beta 90.000000
_cell_angle_gamma 90.000000
_cell_volume 2621.413410
_symmetry_space_group_name_H-M "P M M N"
_symmetry_group_IT_number 59
_space_group.IT_coordinate_system_code '2'
_symmetry_cell_setting 'orthorhombic'
loop_
_space_group_symop_operation_xyz
x,y,z
1/2-x,1/2-y,z
1/2+x,-y,-z
-x,1/2+y,-z
-x,-y,-z
1/2+x,1/2+y,-z
1/2-x,y,z
x,1/2-y,z
loop_
_atom_site_type_symbol
_atom_site_label
_atom_site_fract_x
_atom_site_fract_y
_atom_site_fract_z
Si Si1 0.420763 0.574037 0.326118
Si Si2 0.657351 0.576145 0.824759
Si Si3 0.498514 0.072768 0.159444
Si Si4 0.250000 0.574464 0.833911
Si Si5 0.250000 0.074405 0.149568
Si Si6 0.584629 0.073380 0.329752
Si Si7 0.336282 0.425389 0.824482
O O1 0.426118 0.750000 0.307800
O O2 0.377156 0.521966 0.254099
O O3 0.458843 0.490501 0.247162
O O4 0.420197 0.539649 0.498687
O O5 0.647696 0.750000 0.801949
O O6 0.705452 0.549189 0.772651
O O7 0.657425 0.549180 0.000403
O O8 0.495140 0.250000 0.146965
O O9 0.541553 0.037176 0.245337
O O10 0.500000 0.000000 0.000000
O O11 0.250000 0.750000 0.818547
O O12 0.293236 0.504596 0.775146
O O13 0.250000 0.525672 0.004886
O O14 0.250000 0.250000 0.104212
O O15 0.591777 0.250000 0.314730
O O16 0.623690 0.988178 0.259915
O O17 0.332078 0.250000 0.803928
#
# Coordination Sequence:
#
# PCOD9446895 Si02
#       7
#     8   8   8   4   4   8   8
#     4  11  23  38  56  81 114 148 182 222 272 330
#     4   9  18  34  56  82 110 143 185 230 274 321
#     4  11  23  40  62  85 109 140 182 229 276 328
#     4  10  18  30  53  82 113 146 182 228 278 324
#     4   8  16  32  53  78 109 142 182 230 272 316
#     4  10  23  40  56  79 112 148 184 225 275 329
#     4  10  20  35  57  83 111 145 187 231 274 324
#
# _framework density 18.310732999999999
#
# number of rings (size 3 to 8) (size 9 to 14) (size 15 to 20)
#    0.000    2.000    0.000    4.750    0.000    8.667 
#    0.000    0.833    0.000    4.000    0.000    0.000 
#    0.000    0.000    0.000    0.000    0.000    0.000 
#
# Total GULP energy -268047.046808 kJ/mol
# GULP energy per Si atom -5584.313475 kJ/mol
# Density = 1.826906 g / cm^3
# Si number density = 18.310733 Si / 1000 Ang^3
#
#
#
# Elastic Constant Matrix: (Units=GPa)
#
#
# Indices 1 2 3 4 5 6 
#
# 1 194.6921 96.8660 86.8676 0.0000 0.0000 0.0000
# 2 96.8660 84.9124 69.0766 0.0000 0.0000 0.0000
# 3 86.8676 69.0766 90.7746 0.0000 0.0000 0.0000
# 4 0.0000 0.0000 0.0000 26.0776 0.0000 0.0000
# 5 0.0000 0.0000 0.0000 0.0000 -30.3326 0.0000
# 6 0.0000 0.0000 0.0000 0.0000 0.0000 36.5253
#
#
#
# Elastic Compliance Matrix: (Units=1/GPa)
#
#
# Indices 1 2 3 4 5 6 
#
# 1 0.012149 -0.011554 -0.002834 0.000000 0.000000 0.000000
# 2 -0.011554 0.041903 -0.020830 0.000000 0.000000 0.000000
# 3 -0.002834 -0.020830 0.029579 0.000000 0.000000 0.000000
# 4 0.000000 0.000000 0.000000 0.038347 0.000000 0.000000
# 5 0.000000 0.000000 0.000000 0.000000 -0.032968 0.000000
# 6 0.000000 0.000000 0.000000 0.000000 0.000000 0.027378
#
#
# Mechanical properties :
#
#
# Convention : Reuss Voigt Hill
#
# Bulk Modulus (GPa) = 75.78508 97.33327 86.55917
# Shear Modulus (GPa) = 26.14741 14.29196 20.21969
#
# Velocity S-wave (km/s) = 3.78297 2.79682 3.32664
# Velocity P-wave (km/s) = 7.78199 7.98131 7.88228
#
# Compressibility (1/GPa) = 0.01319521
#
# Stress axis : x y z
#
# Youngs Moduli (GPa) = 82.30810 23.86486 33.80751
#
# Poissons Ratio (x) = 0.27574 0.09582
# Poissons Ratio (y) = 0.95100 0.70420
# Poissons Ratio (z) = 0.23327 0.49710
#
# Static dielectric constant tensor:
#      x y z
#    x 1.625810 0.000000 0.000000 
#    y 0.000000 1.608380 0.000000 
#    z 0.000000 0.000000 1.602550 
# 
# From -- ./inp_files/13018.got.cif
#   From: 2010.05.17/outbox.cif.g08.bks.cpg/sg59_7_cif.got.tgz:13018.got - 2010.06.03 14:40:33.
