data_PCOD9446982
_publ_section_title
;
Structure prediction by ZEFSAII (Michael W. Deem and Ramdas Pophale) SiO2 
 PCOD9446982
Probable space group: P M M N
;
_chemical_formula_sum "Si O2"
_cell_formula_units_Z 64
_cell_length_a 8.302613
_cell_length_b 15.171995
_cell_length_c 25.142569
_cell_angle_alpha 90.000000
_cell_angle_beta 90.000000
_cell_angle_gamma 90.000000
_cell_volume 3167.139091
_symmetry_space_group_name_H-M "P M M N"
_symmetry_group_IT_number 59
_space_group.IT_coordinate_system_code '2'
_symmetry_cell_setting 'orthorhombic'
loop_
_space_group_symop_operation_xyz
x,y,z
1/2-x,1/2-y,z
1/2+x,-y,-z
-x,1/2+y,-z
-x,-y,-z
1/2+x,1/2+y,-z
1/2-x,y,z
x,1/2-y,z
loop_
_atom_site_type_symbol
_atom_site_label
_atom_site_fract_x
_atom_site_fract_y
_atom_site_fract_z
Si Si1 0.556313 0.653884 0.902478
Si Si2 0.947525 0.849075 0.134237
Si Si3 0.443902 0.149629 0.471550
Si Si4 0.553633 0.848008 0.404096
Si Si5 0.056601 0.403298 0.983601
Si Si6 0.059229 0.150325 0.277440
Si Si7 0.438410 0.974507 0.816148
Si Si8 0.940734 0.037019 0.375677
O O1 0.750000 0.640305 0.898079
O O2 0.519257 0.750000 0.879116
O O3 0.466984 0.577587 0.871146
O O4 0.513278 0.653202 0.964617
O O5 0.750000 0.851176 0.133869
O O6 0.996349 0.750000 0.148411
O O7 0.002323 0.871345 0.073858
O O8 0.002344 0.926838 0.173525
O O9 0.250000 0.141170 0.468048
O O10 0.485447 0.250000 0.454708
O O11 0.488938 0.141187 0.533515
O O12 0.522783 0.078565 0.433265
O O13 0.750000 0.847390 0.401982
O O14 0.499798 0.750000 0.386644
O O15 0.497746 0.935884 0.373963
O O16 0.250000 0.402681 0.980079
O O17 0.000000 0.500000 0.000000
O O18 0.250000 0.158501 0.276324
O O19 0.990248 0.250000 0.273372
O O20 0.012066 0.085985 0.229392
O O21 0.011970 0.101883 0.331797
O O22 0.250000 0.981446 0.804669
O O23 0.750000 0.034215 0.367444
#
# Coordination Sequence:
#
# PCOD9446982 Si02
#       8
#     8   8   8   8   8   8   8   8
#     4  10  20  33  52  78 109 146 180 210 257 322
#     4   9  18  34  56  81 110 144 180 216 260 318
#     4   9  17  31  52  78 113 156 191 218 261 325
#     4   8  16  32  53  79 113 152 189 221 260 318
#     4  10  18  31  52  78 110 146 181 216 256 309
#     4  11  25  44  62  78 103 142 180 216 270 338
#     4  11  22  37  59  84 106 133 175 229 276 311
#     4  11  21  33  55  85 112 141 182 234 279 312
#
# _framework density 20.207511
#
# number of rings (size 3 to 8) (size 9 to 14) (size 15 to 20)
#    0.000    2.125    1.250    3.375    0.000    6.000 
#    0.000    1.250    0.000   10.875    0.000    0.000 
#    0.000    0.000    0.000    0.000    0.000    0.000 
#
# Total GULP energy -357128.489075 kJ/mol
# GULP energy per Si atom -5580.132642 kJ/mol
# Density = 2.016152 g / cm^3
# Si number density = 20.207511 Si / 1000 Ang^3
#
#
#
# Elastic Constant Matrix: (Units=GPa)
#
#
# Indices 1 2 3 4 5 6 
#
# 1 11.4230 16.3566 10.6517 0.0000 0.0000 0.0000
# 2 16.3566 185.7483 52.8306 0.0000 0.0000 0.0000
# 3 10.6517 52.8306 54.2184 0.0000 0.0000 0.0000
# 4 0.0000 0.0000 0.0000 12.0230 0.0000 0.0000
# 5 0.0000 0.0000 0.0000 0.0000 14.1630 0.0000
# 6 0.0000 0.0000 0.0000 0.0000 0.0000 15.3283
#
#
#
# Elastic Compliance Matrix: (Units=1/GPa)
#
#
# Indices 1 2 3 4 5 6 
#
# 1 0.110323 -0.004911 -0.016888 0.000000 0.000000 0.000000
# 2 -0.004911 0.007666 -0.006505 0.000000 0.000000 0.000000
# 3 -0.016888 -0.006505 0.028101 0.000000 0.000000 0.000000
# 4 0.000000 0.000000 0.000000 0.083174 0.000000 0.000000
# 5 0.000000 0.000000 0.000000 0.000000 0.070606 0.000000
# 6 0.000000 0.000000 0.000000 0.000000 0.000000 0.065239
#
#
# Mechanical properties :
#
#
# Convention : Reuss Voigt Hill
#
# Bulk Modulus (GPa) = 11.17567 45.67418 28.42492
# Shear Modulus (GPa) = 11.07308 19.73960 15.40634
#
# Velocity S-wave (km/s) = 2.34341 3.12884 2.76417
# Velocity P-wave (km/s) = 3.58672 5.97533 4.92793
#
# Compressibility (1/GPa) = 0.08948012
#
# Stress axis : x y z
#
# Youngs Moduli (GPa) = 9.06426 130.44046 35.58655
#
# Poissons Ratio (x) = 0.64065 0.60100
# Poissons Ratio (y) = 0.04452 0.23150
# Poissons Ratio (z) = 0.15308 0.84854
#
# Static dielectric constant tensor:
#      x y z
#    x 1.706900 0.000000 0.000000 
#    y 0.000000 1.759770 0.000000 
#    z 0.000000 0.000000 1.709890 
# 
# From -- ./inp_files/31399.got.cif
#   From: 2010.05.17/outbox.cif.g08.bks.cpg/sg59_16_cif.got.tgz:31399.got - 2010.06.03 14:40:33.
