data_PCOD9446144
_publ_section_title
;
Structure prediction by ZEFSAII (Michael W. Deem and Ramdas Pophale) SiO2 
 PCOD9446144
Probable space group: P M M N
;
_chemical_formula_sum "Si O2"
_cell_formula_units_Z 58
_cell_length_a 17.721841
_cell_length_b 18.775746
_cell_length_c 9.675267
_cell_angle_alpha 90.000000
_cell_angle_beta 90.000000
_cell_angle_gamma 90.000000
_cell_volume 3219.355939
_symmetry_space_group_name_H-M "P M M N"
_symmetry_group_IT_number 59
_space_group.IT_coordinate_system_code '2'
_symmetry_cell_setting 'orthorhombic'
loop_
_space_group_symop_operation_xyz
x,y,z
1/2-x,1/2-y,z
1/2+x,-y,-z
-x,1/2+y,-z
-x,-y,-z
1/2+x,1/2+y,-z
1/2-x,y,z
x,1/2-y,z
loop_
_atom_site_type_symbol
_atom_site_label
_atom_site_fract_x
_atom_site_fract_y
_atom_site_fract_z
Si Si1 0.158012 0.330905 0.129499
Si Si2 0.455144 0.665899 0.282728
Si Si3 0.124847 0.366709 0.814420
Si Si4 0.838524 0.466045 0.219601
Si Si5 0.163620 0.040445 0.295754
Si Si6 0.162575 0.590222 0.086465
Si Si7 0.074171 0.548532 0.508658
Si Si8 0.750000 0.750000 0.266081
O O1 0.250000 0.336409 0.118937
O O2 0.140075 0.250000 0.165475
O O3 0.127954 0.386485 0.241941
O O4 0.128462 0.349121 0.977684
O O5 0.449158 0.750000 0.305186
O O6 0.540387 0.646176 0.239270
O O7 0.396887 0.641080 0.162574
O O8 0.435981 0.619631 0.418682
O O9 0.147746 0.449073 0.795274
O O10 0.183866 0.312695 0.744043
O O11 0.750000 0.454701 0.253826
O O12 0.894290 0.439022 0.338816
O O13 0.853381 0.427666 0.073017
O O14 0.250000 0.057055 0.323314
O O15 0.158248 0.984503 0.169830
O O16 0.132948 0.001555 0.428528
O O17 0.250000 0.615035 0.098867
O O18 0.000000 0.500000 0.500000
#
# Coordination Sequence:
#
# PCOD9446144 Si02
#       8
#     8   8   8   8   8   8   8   2
#     4  10  16  28  51  82 119 152 189 235 294 352
#     4  11  24  41  62  89 123 160 203 255 314 368
#     4  12  19  32  59  91 125 160 197 241 300 370
#     4  11  21  37  63  90 121 159 206 257 306 361
#     4   9  18  33  55  79 112 150 196 243 294 351
#     4   9  20  38  62  90 114 149 205 263 311 358
#     4  11  23  39  56  83 119 162 204 246 297 363
#     4  12  20  32  56 100 132 160 194 236 306 372
#
# _framework density 18.016026
#
# number of rings (size 3 to 8) (size 9 to 14) (size 15 to 20)
#    0.000    1.517    5.517    0.414    0.000    2.483 
#    0.000    1.379    1.517    0.828    0.000    0.000 
#    0.000    0.000    0.000    0.000    0.000    0.000 
#
# Total GULP energy -323060.472221 kJ/mol
# GULP energy per Si atom -5570.008142 kJ/mol
# Density = 1.797502 g / cm^3
# Si number density = 18.016026 Si / 1000 Ang^3
#
#
#
# Elastic Constant Matrix: (Units=GPa)
#
#
# Indices 1 2 3 4 5 6 
#
# 1 85.3096 30.4894 36.0567 0.0000 0.0000 0.0000
# 2 30.4894 82.9193 11.9121 0.0000 0.0000 0.0000
# 3 36.0567 11.9121 65.5642 0.0000 0.0000 0.0000
# 4 0.0000 0.0000 0.0000 15.2374 0.0000 0.0000
# 5 0.0000 0.0000 0.0000 0.0000 10.6664 0.0000
# 6 0.0000 0.0000 0.0000 0.0000 0.0000 22.9676
#
#
#
# Elastic Compliance Matrix: (Units=1/GPa)
#
#
# Indices 1 2 3 4 5 6 
#
# 1 0.017128 -0.005077 -0.008497 0.000000 0.000000 0.000000
# 2 -0.005077 0.013888 0.000269 0.000000 0.000000 0.000000
# 3 -0.008497 0.000269 0.019876 0.000000 0.000000 0.000000
# 4 0.000000 0.000000 0.000000 0.065628 0.000000 0.000000
# 5 0.000000 0.000000 0.000000 0.000000 0.093752 0.000000
# 6 0.000000 0.000000 0.000000 0.000000 0.000000 0.043540
#
#
# Mechanical properties :
#
#
# Convention : Reuss Voigt Hill
#
# Bulk Modulus (GPa) = 41.18316 43.41215 42.29765
# Shear Modulus (GPa) = 17.33002 20.12994 18.72998
#
# Velocity S-wave (km/s) = 3.10485 3.34628 3.22783
# Velocity P-wave (km/s) = 5.98016 6.25131 6.11724
#
# Compressibility (1/GPa) = 0.02428177
#
# Stress axis : x y z
#
# Youngs Moduli (GPa) = 58.38434 72.00359 50.31138
#
# Poissons Ratio (x) = 0.36558 0.42749
# Poissons Ratio (y) = 0.29643 -0.01353
# Poissons Ratio (z) = 0.49609 -0.01936
#
# Static dielectric constant tensor:
#      x y z
#    x 1.604870 0.000000 0.000000 
#    y 0.000000 1.636130 0.000000 
#    z 0.000000 0.000000 1.639150 
# 
# From -- ./inp_files/10524.got.cif
#   From: 2010.05.17/outbox.cif.g08.bks.cpg/sg59_6_cif.got.tgz:10524.got - 2010.06.03 14:40:33.
