data_PCOD9446799
_publ_section_title
;
Structure prediction by ZEFSAII (Michael W. Deem and Ramdas Pophale) SiO2 
 PCOD9446799
Probable space group: P M M N
;
_chemical_formula_sum "Si O2"
_cell_formula_units_Z 48
_cell_length_a 8.776993
_cell_length_b 20.824060
_cell_length_c 14.790332
_cell_angle_alpha 90.000000
_cell_angle_beta 90.000000
_cell_angle_gamma 90.000000
_cell_volume 2703.267861
_symmetry_space_group_name_H-M "P M M N"
_symmetry_group_IT_number 59
_space_group.IT_coordinate_system_code '2'
_symmetry_cell_setting 'orthorhombic'
loop_
_space_group_symop_operation_xyz
x,y,z
1/2-x,1/2-y,z
1/2+x,-y,-z
-x,1/2+y,-z
-x,-y,-z
1/2+x,1/2+y,-z
1/2-x,y,z
x,1/2-y,z
loop_
_atom_site_type_symbol
_atom_site_label
_atom_site_fract_x
_atom_site_fract_y
_atom_site_fract_z
Si Si1 0.933714 0.476349 0.222768
Si Si2 0.430989 0.325872 0.511309
Si Si3 0.566583 0.067724 0.035945
Si Si4 0.580445 0.325571 0.696922
Si Si5 0.933348 0.450138 0.426396
Si Si6 0.068327 0.384586 0.863296
O O1 0.750000 0.472639 0.227363
O O2 0.980207 0.428180 0.141402
O O3 0.989130 0.466034 0.324404
O O4 0.970167 0.546919 0.184292
O O5 0.250000 0.331402 0.499784
O O6 0.471187 0.250000 0.497480
O O7 0.475589 0.346772 0.613598
O O8 0.516337 0.377482 0.449534
O O9 0.750000 0.065916 0.031218
O O10 0.501672 0.117506 0.963358
O O11 0.500000 0.000000 0.000000
O O12 0.750000 0.354923 0.692590
O O13 0.595638 0.250000 0.683519
O O14 0.504042 0.335782 0.793274
O O15 0.750000 0.454950 0.429329
O O16 0.000000 0.500000 0.500000
O O17 0.250000 0.379385 0.868372
#
# Coordination Sequence:
#
# PCOD9446799 Si02
#       6
#     8   8   8   8   8   8
#     4   8  17  31  47  69  98 130 162 201 246 294
#     4  10  21  37  54  73 102 139 175 213 261 314
#     4   9  16  29  47  68  95 127 163 200 243 296
#     4  10  20  33  50  73  98 127 166 207 247 298
#     4  11  21  34  53  78 107 137 174 218 263 309
#     4  10  18  30  49  73 101 130 160 198 250 306
#
# _framework density 17.756285999999999
#
# number of rings (size 3 to 8) (size 9 to 14) (size 15 to 20)
#    0.000    2.333    0.000    4.500    0.000    3.333 
#    0.000    9.167    0.000    1.000    0.000    2.333 
#    0.000    0.000    0.000    0.000    0.000    0.000 
#
# Total GULP energy -267347.234065 kJ/mol
# GULP energy per Si atom -5569.734043 kJ/mol
# Density = 1.771587 g / cm^3
# Si number density = 17.756286 Si / 1000 Ang^3
#
#
#
# Elastic Constant Matrix: (Units=GPa)
#
#
# Indices 1 2 3 4 5 6 
#
# 1 68.7170 21.8695 33.3928 0.0000 0.0000 0.0000
# 2 21.8695 32.9531 27.3681 0.0000 0.0000 0.0000
# 3 33.3928 27.3681 143.6057 0.0000 0.0000 0.0000
# 4 0.0000 0.0000 0.0000 25.1983 0.0000 0.0000
# 5 0.0000 0.0000 0.0000 0.0000 27.7190 0.0000
# 6 0.0000 0.0000 0.0000 0.0000 0.0000 24.0830
#
#
#
# Elastic Compliance Matrix: (Units=1/GPa)
#
#
# Indices 1 2 3 4 5 6 
#
# 1 0.019126 -0.010692 -0.002410 0.000000 0.000000 0.000000
# 2 -0.010692 0.042029 -0.005524 0.000000 0.000000 0.000000
# 3 -0.002410 -0.005524 0.008577 0.000000 0.000000 0.000000
# 4 0.000000 0.000000 0.000000 0.039685 0.000000 0.000000
# 5 0.000000 0.000000 0.000000 0.000000 0.036076 0.000000
# 6 0.000000 0.000000 0.000000 0.000000 0.000000 0.041523
#
#
# Mechanical properties :
#
#
# Convention : Reuss Voigt Hill
#
# Bulk Modulus (GPa) = 30.78678 45.61517 38.20097
# Shear Modulus (GPa) = 21.26805 26.24310 23.75558
#
# Velocity S-wave (km/s) = 3.46464 3.84860 3.66166
# Velocity P-wave (km/s) = 5.77764 6.74495 6.27995
#
# Compressibility (1/GPa) = 0.03248148
#
# Stress axis : x y z
#
# Youngs Moduli (GPa) = 52.28436 23.79291 116.59684
#
# Poissons Ratio (x) = 0.25439 0.28098
# Poissons Ratio (y) = 0.55901 0.64405
# Poissons Ratio (z) = 0.12600 0.13142
#
# Static dielectric constant tensor:
#      x y z
#    x 1.615670 0.000000 0.000000 
#    y 0.000000 1.746640 0.000000 
#    z 0.000000 0.000000 1.651960 
# 
# From -- ./inp_files/14386.got.cif
#   From: 2010.05.17/outbox.cif.g08.bks.cpg/sg59_8_cif.got.tgz:14386.got - 2010.06.03 14:40:33.
