data_PCOD9446405
_publ_section_title
;
Structure prediction by ZEFSAII (Michael W. Deem and Ramdas Pophale) SiO2 
 PCOD9446405
Probable space group: P M M N
;
_chemical_formula_sum "Si O2"
_cell_formula_units_Z 48
_cell_length_a 7.502540
_cell_length_b 23.126025
_cell_length_c 14.592965
_cell_angle_alpha 90.000000
_cell_angle_beta 90.000000
_cell_angle_gamma 90.000000
_cell_volume 2531.936743
_symmetry_space_group_name_H-M "P M M N"
_symmetry_group_IT_number 59
_space_group.IT_coordinate_system_code '2'
_symmetry_cell_setting 'orthorhombic'
loop_
_space_group_symop_operation_xyz
x,y,z
1/2-x,1/2-y,z
1/2+x,-y,-z
-x,1/2+y,-z
-x,-y,-z
1/2+x,1/2+y,-z
1/2-x,y,z
x,1/2-y,z
loop_
_atom_site_type_symbol
_atom_site_label
_atom_site_fract_x
_atom_site_fract_y
_atom_site_fract_z
Si Si1 0.035492 0.981694 0.105625
Si Si2 0.038135 0.750000 0.483872
Si Si3 0.455726 0.645482 0.150721
Si Si4 0.530113 0.250000 0.724935
Si Si5 0.034826 0.313790 0.049354
Si Si6 0.532509 0.595191 0.796729
Si Si7 0.539019 0.812780 0.656573
O O1 0.250000 0.979240 0.111304
O O2 0.971107 0.031491 0.175144
O O3 0.965397 0.918404 0.133790
O O4 0.000000 0.000000 0.000000
O O5 0.250000 0.750000 0.479847
O O6 0.972036 0.750000 0.380644
O O7 0.983902 0.695277 0.547421
O O8 0.250000 0.636846 0.178274
O O9 0.462104 0.675038 0.051296
O O10 0.531016 0.692144 0.222065
O O11 0.750000 0.250000 0.728235
O O12 0.250000 0.315918 0.043612
O O13 0.984025 0.250000 0.081395
O O14 0.980172 0.363031 0.119580
O O15 0.750000 0.592190 0.793837
O O16 0.470813 0.629912 0.706272
O O17 0.750000 0.811835 0.675687
O O18 0.467391 0.750000 0.691323
#
# Coordination Sequence:
#
# PCOD9446405 Si02
#       7
#     8   4   8   4   8   8   8
#     4  10  19  30  46  66  92 128 162 186 215 261
#     4   9  17  31  50  69  88 112 145 193 244 281
#     4  10  19  31  46  66  91 123 160 188 218 265
#     4   9  18  33  50  65  90 122 149 189 236 275
#     4  10  18  27  43  67  93 123 154 185 222 264
#     4   9  16  28  46  65  92 125 151 179 221 269
#     4   8  15  29  49  70  90 114 145 184 227 277
#
# _framework density 18.957819000000001
#
# number of rings (size 3 to 8) (size 9 to 14) (size 15 to 20)
#    0.500    2.167    2.500    0.500    0.000    2.000 
#    0.000    3.333    0.000    1.000    0.000    0.000 
#    0.000    0.000    0.000    0.000    0.000    0.000 
#
# Total GULP energy -267250.426250 kJ/mol
# GULP energy per Si atom -5567.717214 kJ/mol
# Density = 1.891467 g / cm^3
# Si number density = 18.957819 Si / 1000 Ang^3
#
#
#
# Elastic Constant Matrix: (Units=GPa)
#
#
# Indices 1 2 3 4 5 6 
#
# 1 48.9212 9.1175 -3.5520 0.0000 0.0000 0.0000
# 2 9.1175 165.8745 74.1791 0.0000 0.0000 0.0000
# 3 -3.5520 74.1791 131.5156 0.0000 0.0000 0.0000
# 4 0.0000 0.0000 0.0000 16.1214 0.0000 0.0000
# 5 0.0000 0.0000 0.0000 0.0000 16.3743 0.0000
# 6 0.0000 0.0000 0.0000 0.0000 0.0000 2.7504
#
#
#
# Elastic Compliance Matrix: (Units=1/GPa)
#
#
# Indices 1 2 3 4 5 6 
#
# 1 0.020908 -0.001875 0.001622 0.000000 0.000000 0.000000
# 2 -0.001875 0.008230 -0.004693 0.000000 0.000000 0.000000
# 3 0.001622 -0.004693 0.010294 0.000000 0.000000 0.000000
# 4 0.000000 0.000000 0.000000 0.062029 0.000000 0.000000
# 5 0.000000 0.000000 0.000000 0.000000 0.061071 0.000000
# 6 0.000000 0.000000 0.000000 0.000000 0.000000 0.363585
#
#
# Mechanical properties :
#
#
# Convention : Reuss Voigt Hill
#
# Bulk Modulus (GPa) = 33.85001 56.20005 45.02503
# Shear Modulus (GPa) = 9.15992 24.82034 16.99013
#
# Velocity S-wave (km/s) = 2.20051 3.62227 2.99692
# Velocity P-wave (km/s) = 4.93462 6.87049 5.98139
#
# Compressibility (1/GPa) = 0.02954209
#
# Stress axis : x y z
#
# Youngs Moduli (GPa) = 47.82817 121.50213 97.14062
#
# Poissons Ratio (x) = 0.22777 -0.15756
# Poissons Ratio (y) = 0.08966 0.45586
# Poissons Ratio (z) = -0.07758 0.57018
#
# Static dielectric constant tensor:
#      x y z
#    x 1.728490 0.000000 0.000000 
#    y 0.000000 1.689990 0.000000 
#    z 0.000000 0.000000 1.643320 
# 
# From -- ./inp_files/15975.got.cif
#   From: 2010.05.17/outbox.cif.g08.bks.cpg/sg59_8_cif.got.tgz:15975.got - 2010.06.03 14:40:33.
