data_PCOD9446701
_publ_section_title
;
Structure prediction by ZEFSAII (Michael W. Deem and Ramdas Pophale) SiO2 
 PCOD9446701
Probable space group: P M M N
;
_chemical_formula_sum "Si O2"
_cell_formula_units_Z 40
_cell_length_a 24.810698
_cell_length_b 9.904028
_cell_length_c 10.020505
_cell_angle_alpha 90.000000
_cell_angle_beta 90.000000
_cell_angle_gamma 90.000000
_cell_volume 2462.297085
_symmetry_space_group_name_H-M "P M M N"
_symmetry_group_IT_number 59
_space_group.IT_coordinate_system_code '2'
_symmetry_cell_setting 'orthorhombic'
loop_
_space_group_symop_operation_xyz
x,y,z
1/2-x,1/2-y,z
1/2+x,-y,-z
-x,1/2+y,-z
-x,-y,-z
1/2+x,1/2+y,-z
1/2-x,y,z
x,1/2-y,z
loop_
_atom_site_type_symbol
_atom_site_label
_atom_site_fract_x
_atom_site_fract_y
_atom_site_fract_z
Si Si1 0.572400 0.750000 0.633813
Si Si2 0.402270 0.533388 0.791828
Si Si3 0.992223 0.250000 0.131088
Si Si4 0.187802 0.750000 0.799298
Si Si5 0.689852 0.250000 0.523891
Si Si6 0.516413 0.250000 0.594836
Si Si7 0.555618 0.750000 0.140688
Si Si8 0.896084 0.029834 0.531252
O O1 0.545419 0.750000 0.777856
O O2 0.521817 0.750000 0.532852
O O3 0.604449 0.615132 0.598642
O O4 0.454296 0.622254 0.833453
O O5 0.349161 0.619222 0.833088
O O6 0.408843 0.385915 0.854931
O O7 0.401656 0.520306 0.629966
O O8 0.013790 0.250000 0.981160
O O9 0.250000 0.750000 0.848029
O O10 0.190770 0.750000 0.637756
O O11 0.750000 0.250000 0.575637
O O12 0.656294 0.381726 0.562679
O O13 0.479911 0.250000 0.724793
O O14 0.553776 0.382040 0.584640
#
# Coordination Sequence:
#
# PCOD9446701 Si02
#       8
#     4   8   4   4   4   4   4   8
#     4  12  18  30  49  71  99 127 165 195 227 286
#     4  10  18  32  48  70 101 128 162 198 238 284
#     4  11  22  32  45  69 105 141 157 187 241 286
#     4   8  16  31  52  71  93 125 158 198 250 292
#     4   8  16  31  48  71 101 119 149 204 258 288
#     4  11  18  30  49  67  99 131 165 184 230 286
#     4  12  22  30  45  75 103 135 156 200 240 276
#     4  10  18  29  50  74  90 132 167 195 234 286
#
# _framework density 16.244994999999999
#
# number of rings (size 3 to 8) (size 9 to 14) (size 15 to 20)
#    0.000    1.800    4.000    3.600    0.000    0.000 
#    0.000    1.000    0.000    4.800    0.000   26.600 
#    0.000    0.000    0.000    0.000    0.000    0.000 
#
# Total GULP energy -223081.862264 kJ/mol
# GULP energy per Si atom -5577.046557 kJ/mol
# Density = 1.620802 g / cm^3
# Si number density = 16.244995 Si / 1000 Ang^3
#
#
#
# Elastic Constant Matrix: (Units=GPa)
#
#
# Indices 1 2 3 4 5 6 
#
# 1 92.6469 55.3745 -3.6903 0.0000 0.0000 0.0000
# 2 55.3745 156.2882 0.2294 0.0000 0.0000 0.0000
# 3 -3.6903 0.2294 14.3708 0.0000 0.0000 0.0000
# 4 0.0000 0.0000 0.0000 5.4989 0.0000 0.0000
# 5 0.0000 0.0000 0.0000 0.0000 12.8473 0.0000
# 6 0.0000 0.0000 0.0000 0.0000 0.0000 -31.5902
#
#
#
# Elastic Compliance Matrix: (Units=1/GPa)
#
#
# Indices 1 2 3 4 5 6 
#
# 1 0.013882 -0.004924 0.003643 0.000000 0.000000 0.000000
# 2 -0.004924 0.008145 -0.001394 0.000000 0.000000 0.000000
# 3 0.003643 -0.001394 0.070544 0.000000 0.000000 0.000000
# 4 0.000000 0.000000 0.000000 0.181856 0.000000 0.000000
# 5 0.000000 0.000000 0.000000 0.000000 0.077837 0.000000
# 6 0.000000 0.000000 0.000000 0.000000 0.000000 -0.031655
#
#
# Mechanical properties :
#
#
# Convention : Reuss Voigt Hill
#
# Bulk Modulus (GPa) = 11.46519 40.79257 26.12888
# Shear Modulus (GPa) = 14.08327 11.44402 12.76364
#
# Velocity S-wave (km/s) = 2.94756 2.65705 2.80607
# Velocity P-wave (km/s) = 4.31939 5.88036 5.15925
#
# Compressibility (1/GPa) = 0.08722056
#
# Stress axis : x y z
#
# Youngs Moduli (GPa) = 72.03730 122.77432 14.17564
#
# Poissons Ratio (x) = 0.60451 -0.05165
# Poissons Ratio (y) = 0.35470 0.01977
# Poissons Ratio (z) = -0.26245 0.17120
#
# Static dielectric constant tensor:
#      x y z
#    x 1.537260 0.000000 0.000000 
#    y 0.000000 1.575290 0.000000 
#    z 0.000000 0.000000 1.518520 
# 
# From -- ./inp_files/12488.got.cif
#   From: 2010.05.17/outbox.cif.g08.bks.cpg/sg59_7_cif.got.tgz:12488.got - 2010.06.03 14:40:33.
