data_PCOD9446007
_publ_section_title
;
Structure prediction by ZEFSAII (Michael W. Deem and Ramdas Pophale) SiO2 
 PCOD9446007
Probable space group: P N N M
;
_chemical_formula_sum "Si O2"
_cell_formula_units_Z 48
_cell_length_a 24.000000
_cell_length_b 12.000000
_cell_length_c 9.000000
_cell_angle_alpha 90.000000
_cell_angle_beta 90.000000
_cell_angle_gamma 90.000000
_cell_volume 2592.000000
_symmetry_space_group_name_H-M "P N N M"
_symmetry_group_IT_number 58
_symmetry_cell_setting 'orthorhombic'
loop_
_space_group_symop_operation_xyz
x,y,z
-x,-y,z
1/2+x,1/2-y,1/2-z
1/2-x,1/2+y,1/2-z
-x,-y,-z
x,y,-z
1/2-x,1/2+y,1/2+z
1/2+x,1/2-y,1/2+z
loop_
_atom_site_type_symbol
_atom_site_label
_atom_site_fract_x
_atom_site_fract_y
_atom_site_fract_z
Si Si1 0.122126 0.999781 0.822344
Si Si2 0.956541 0.823715 0.676645
Si Si3 0.148781 0.331077 0.323318
Si Si4 0.775423 0.848347 0.178676
Si Si5 0.925900 0.234318 0.176839
Si Si6 0.651498 0.911184 0.820661
O O1 0.072539 0.065932 0.741608
O O2 0.181311 0.053102 0.777300
O O3 0.114931 0.870058 0.791170
O O4 0.115923 0.016373 0.000000
O O5 0.964385 0.834258 0.500000
O O6 0.910258 0.728368 0.706022
O O7 0.014301 0.794554 0.754252
O O8 0.159059 0.323493 0.500000
O O9 0.196815 0.262933 0.241203
O O10 0.147424 0.459347 0.280911
O O11 0.712386 0.868075 0.228490
O O12 0.774912 0.845222 0.000000
O O13 0.897814 0.341614 0.248333
O O14 0.931175 0.245741 0.000000
O O15 0.648140 0.901678 0.000000
#
# Coordination Sequence:
#
# PCOD9446007 Si02
#       6
#     8   8   8   8   8   8
#     4   9  19  36  57  82 111 145 183 225 279 331
#     4  10  20  36  58  83 111 146 186 231 277 326
#     4   9  20  38  59  80 108 147 185 224 275 331
#     4   9  19  36  58  81 107 141 180 227 275 324
#     4  11  23  36  55  83 114 148 185 229 277 328
#     4  10  22  38  56  80 111 147 185 226 273 326
#
# _framework density 18.518519000000001
#
# number of rings (size 3 to 8) (size 9 to 14) (size 15 to 20)
#    0.000    2.333    0.000    1.500    2.333    6.000 
#    0.000    3.333    0.000    0.000    0.000    0.000 
#    0.000    0.000    0.000    0.000    0.000    0.000 
#
# Total GULP energy -267956.545159 kJ/mol
# GULP energy per Si atom -5582.428024 kJ/mol
# Density = 1.847637 g / cm^3
# Si number density = 18.518519 Si / 1000 Ang^3
#
#
#
# Elastic Constant Matrix: (Units=GPa)
#
#
# Indices 1 2 3 4 5 6 
#
# 1 16.0670 -5.7589 5.7732 0.0000 0.0000 0.0000
# 2 -5.7589 72.2010 20.8044 0.0000 0.0000 0.0000
# 3 5.7732 20.8044 11.7092 0.0000 0.0000 0.0000
# 4 0.0000 0.0000 0.0000 26.2993 0.0000 0.0000
# 5 0.0000 0.0000 0.0000 0.0000 2048.0023 0.0000
# 6 0.0000 0.0000 0.0000 0.0000 0.0000 6.9965
#
#
#
# Elastic Compliance Matrix: (Units=1/GPa)
#
#
# Indices 1 2 3 4 5 6 
#
# 1 0.168340 0.076517 -0.218953 0.000000 0.000000 0.000000
# 2 0.076517 0.063160 -0.149946 0.000000 0.000000 0.000000
# 3 -0.218953 -0.149946 0.459775 0.000000 0.000000 0.000000
# 4 0.000000 0.000000 0.000000 0.038024 0.000000 0.000000
# 5 0.000000 0.000000 0.000000 0.000000 0.000488 0.000000
# 6 0.000000 0.000000 0.000000 0.000000 0.000000 0.142928
#
#
# Mechanical properties :
#
#
# Convention : Reuss Voigt Hill
#
# Bulk Modulus (GPa) = 9.38862 15.73497 12.56179
# Shear Modulus (GPa) = 3.34900 421.53686 212.44293
#
# Velocity S-wave (km/s) = 1.34625 15.10378 10.72232
# Velocity P-wave (km/s) = 2.73813 17.68278 12.65263
#
# Compressibility (1/GPa) = 0.10651194
#
# Stress axis : x y z
#
# Youngs Moduli (GPa) = 5.94036 15.83289 2.17498
#
# Poissons Ratio (x) = -1.21149 0.47622
# Poissons Ratio (y) = -0.45454 0.32613
# Poissons Ratio (z) = 1.30066 2.37408
#
# Static dielectric constant tensor:
#      x y z
#    x 1.608320 0.000000 0.000000 
#    y 0.000000 1.632490 0.000000 
#    z 0.000000 0.000000 1.619330 
# 
# From -- ./inp_files/4183.got.cif
#   From: 2010.05.17/outbox.ucp.g08.bks.cvg/sg58_3_cif.got.tgz:4183.got - 2010.06.11 16:41:41.
