data_PCOD9446174
_publ_section_title
;
Structure prediction by ZEFSAII (Michael W. Deem and Ramdas Pophale) SiO2 
 PCOD9446174
Probable space group: P M M N
;
_chemical_formula_sum "Si O2"
_cell_formula_units_Z 56
_cell_length_a 22.775500
_cell_length_b 8.781843
_cell_length_c 18.474657
_cell_angle_alpha 90.000000
_cell_angle_beta 90.000000
_cell_angle_gamma 90.000000
_cell_volume 3695.132132
_symmetry_space_group_name_H-M "P M M N"
_symmetry_group_IT_number 59
_space_group.IT_coordinate_system_code '2'
_symmetry_cell_setting 'orthorhombic'
loop_
_space_group_symop_operation_xyz
x,y,z
1/2-x,1/2-y,z
1/2+x,-y,-z
-x,1/2+y,-z
-x,-y,-z
1/2+x,1/2+y,-z
1/2-x,y,z
x,1/2-y,z
loop_
_atom_site_type_symbol
_atom_site_label
_atom_site_fract_x
_atom_site_fract_y
_atom_site_fract_z
Si Si1 0.100510 0.432283 0.376053
Si Si2 0.318574 0.932327 0.252321
Si Si3 0.563958 0.067288 0.481103
Si Si4 0.599449 0.566854 0.869087
Si Si5 0.472092 0.432353 0.826542
Si Si6 0.563148 0.932904 0.021297
Si Si7 0.532668 0.432422 0.325806
O O1 0.103638 0.250000 0.378508
O O2 0.148067 0.498679 0.321459
O O3 0.105285 0.498928 0.457052
O O4 0.035284 0.472535 0.345316
O O5 0.250000 0.972758 0.252495
O O6 0.324123 0.750000 0.253924
O O7 0.351192 0.995971 0.181515
O O8 0.562406 0.250000 0.487048
O O9 0.571599 0.028420 0.396376
O O10 0.500000 0.000000 0.500000
O O11 0.600371 0.750000 0.862429
O O12 0.535836 0.507654 0.841725
O O13 0.604674 0.522837 0.954223
O O14 0.479335 0.250000 0.826132
O O15 0.430013 0.475235 0.894440
O O16 0.450773 0.488015 0.748706
O O17 0.559889 0.750000 0.018978
O O18 0.500000 0.000000 0.000000
O O19 0.534361 0.250000 0.316412
#
# Coordination Sequence:
#
# PCOD9446174 Si02
#       7
#     8   8   8   8   8   8   8
#     4  10  19  31  46  62  84 113 146 183 223 262
#     4  11  23  35  47  64  85 112 150 190 224 261
#     4   9  17  28  42  60  85 115 148 180 214 259
#     4  10  18  30  45  59  83 114 146 183 220 258
#     4  10  17  25  41  63  88 117 147 176 211 256
#     4   8  16  27  39  59  83 111 144 176 211 255
#     4   9  17  27  40  62  89 117 146 176 212 256
#
# _framework density 15.155074000000001
#
# number of rings (size 3 to 8) (size 9 to 14) (size 15 to 20)
#    0.000    2.429    1.429    3.000    0.000    5.143 
#    0.000    0.000    0.000    0.000    0.000    0.000 
#    0.000    1.143    0.000    7.429    0.000    5.571 
#
# Total GULP energy -311801.191398 kJ/mol
# GULP energy per Si atom -5567.878418 kJ/mol
# Density = 1.512058 g / cm^3
# Si number density = 15.155074 Si / 1000 Ang^3
#
#
#
# Elastic Constant Matrix: (Units=GPa)
#
#
# Indices 1 2 3 4 5 6 
#
# 1 49.1692 23.9743 51.7331 0.0000 0.0000 0.0000
# 2 23.9743 37.8011 50.2639 0.0000 0.0000 0.0000
# 3 51.7331 50.2639 183.5627 0.0000 0.0000 0.0000
# 4 0.0000 0.0000 0.0000 27.9523 0.0000 0.0000
# 5 0.0000 0.0000 0.0000 0.0000 12.7432 0.0000
# 6 0.0000 0.0000 0.0000 0.0000 0.0000 13.4594
#
#
#
# Elastic Compliance Matrix: (Units=1/GPa)
#
#
# Indices 1 2 3 4 5 6 
#
# 1 0.032694 -0.013341 -0.005561 0.000000 0.000000 0.000000
# 2 -0.013341 0.047045 -0.009122 0.000000 0.000000 0.000000
# 3 -0.005561 -0.009122 0.009513 0.000000 0.000000 0.000000
# 4 0.000000 0.000000 0.000000 0.035775 0.000000 0.000000
# 5 0.000000 0.000000 0.000000 0.000000 0.078473 0.000000
# 6 0.000000 0.000000 0.000000 0.000000 0.000000 0.074298
#
#
# Mechanical properties :
#
#
# Convention : Reuss Voigt Hill
#
# Bulk Modulus (GPa) = 30.11714 58.05283 44.08499
# Shear Modulus (GPa) = 14.49638 20.46842 17.48240
#
# Velocity S-wave (km/s) = 3.09615 3.67904 3.40011
# Velocity P-wave (km/s) = 5.71815 7.51240 6.67583
#
# Compressibility (1/GPa) = 0.03320369
#
# Stress axis : x y z
#
# Youngs Moduli (GPa) = 30.58700 21.25621 105.12076
#
# Poissons Ratio (x) = 0.28357 0.58457
# Poissons Ratio (y) = 0.40805 0.95894
# Poissons Ratio (z) = 0.17009 0.19391
#
# Static dielectric constant tensor:
#      x y z
#    x 1.462270 0.000000 0.000000 
#    y 0.000000 1.509340 0.000000 
#    z 0.000000 0.000000 1.571620 
# 
# From -- ./inp_files/28359.got.cif
#   From: 2010.05.17/outbox.cif.g08.bks.cpg/sg59_15_cif.got.tgz:28359.got - 2010.06.03 14:40:33.
