data_PCOD9446971
_publ_section_title
;
Structure prediction by ZEFSAII (Michael W. Deem and Ramdas Pophale) SiO2 
 PCOD9446971
Probable space group: P M M N
;
_chemical_formula_sum "Si O2"
_cell_formula_units_Z 56
_cell_length_a 14.785910
_cell_length_b 7.799036
_cell_length_c 23.120465
_cell_angle_alpha 90.000000
_cell_angle_beta 90.000000
_cell_angle_gamma 90.000000
_cell_volume 2666.155944
_symmetry_space_group_name_H-M "P M M N"
_symmetry_group_IT_number 59
_space_group.IT_coordinate_system_code '2'
_symmetry_cell_setting 'orthorhombic'
loop_
_space_group_symop_operation_xyz
x,y,z
1/2-x,1/2-y,z
1/2+x,-y,-z
-x,1/2+y,-z
-x,-y,-z
1/2+x,1/2+y,-z
1/2-x,y,z
x,1/2-y,z
loop_
_atom_site_type_symbol
_atom_site_label
_atom_site_fract_x
_atom_site_fract_y
_atom_site_fract_z
Si Si1 0.152380 0.956862 0.394267
Si Si2 0.853116 0.449667 0.809987
Si Si3 0.026988 0.053516 0.295272
Si Si4 0.398703 0.955246 0.518141
Si Si5 0.647303 0.450904 0.035914
Si Si6 0.851663 0.460341 0.352813
Si Si7 0.455767 0.450225 0.076899
O O1 0.250000 0.993409 0.367386
O O2 0.138402 0.750000 0.392730
O O3 0.153792 0.012439 0.460935
O O4 0.074815 0.044797 0.357782
O O5 0.750000 0.517386 0.805858
O O6 0.847171 0.250000 0.825007
O O7 0.907164 0.464895 0.750024
O O8 0.912373 0.533898 0.860261
O O9 0.018657 0.250000 0.276170
O O10 0.927690 0.980121 0.307862
O O11 0.387312 0.750000 0.521432
O O12 0.372422 0.020763 0.581472
O O13 0.500000 0.000000 0.500000
O O14 0.750000 0.522959 0.042270
O O15 0.654353 0.250000 0.050768
O O16 0.559060 0.519825 0.071098
O O17 0.611791 0.466589 0.969890
O O18 0.750000 0.508624 0.337481
O O19 0.856797 0.250000 0.353489
O O20 0.460241 0.250000 0.060801
#
# Coordination Sequence:
#
# PCOD9446971 Si02
#       7
#     8   8   8   8   8   8   8
#     4  10  20  33  51  75 104 138 170 205 259 324
#     4  11  24  41  59  78 106 146 184 220 271 331
#     4  11  22  36  56  80 103 132 175 226 270 311
#     4  10  18  31  52  76 103 134 169 210 259 317
#     4   9  18  34  56  84 121 160 190 220 267 324
#     4   9  18  34  55  77 102 135 174 214 262 323
#     4  10  20  34  56  87 118 149 190 235 271 309
#
# _framework density 21.004024000000001
#
# number of rings (size 3 to 8) (size 9 to 14) (size 15 to 20)
#    0.000    2.000    1.429    2.571    0.000    7.429 
#    0.000    0.714    0.000    9.000    0.000    0.000 
#    0.000    0.000    0.000    0.000    0.000    0.000 
#
# Total GULP energy -312366.846930 kJ/mol
# GULP energy per Si atom -5577.979409 kJ/mol
# Density = 2.095622 g / cm^3
# Si number density = 21.004024 Si / 1000 Ang^3
#
#
#
# Elastic Constant Matrix: (Units=GPa)
#
#
# Indices 1 2 3 4 5 6 
#
# 1 194.5015 3.6019 55.0723 0.0000 0.0000 0.0000
# 2 3.6019 27.8407 -1.9834 0.0000 0.0000 0.0000
# 3 55.0723 -1.9834 78.4646 0.0000 0.0000 0.0000
# 4 0.0000 0.0000 0.0000 16.8293 0.0000 0.0000
# 5 0.0000 0.0000 0.0000 0.0000 24.8613 0.0000
# 6 0.0000 0.0000 0.0000 0.0000 0.0000 13.8083
#
#
#
# Elastic Compliance Matrix: (Units=1/GPa)
#
#
# Indices 1 2 3 4 5 6 
#
# 1 0.006454 -0.001160 -0.004559 0.000000 0.000000 0.000000
# 2 -0.001160 0.036192 0.001729 0.000000 0.000000 0.000000
# 3 -0.004559 0.001729 0.015988 0.000000 0.000000 0.000000
# 4 0.000000 0.000000 0.000000 0.059420 0.000000 0.000000
# 5 0.000000 0.000000 0.000000 0.000000 0.040223 0.000000
# 6 0.000000 0.000000 0.000000 0.000000 0.000000 0.072420
#
#
# Mechanical properties :
#
#
# Convention : Reuss Voigt Hill
#
# Bulk Modulus (GPa) = 19.74183 46.02095 32.88139
# Shear Modulus (GPa) = 19.56475 27.37417 23.46946
#
# Velocity S-wave (km/s) = 3.05532 3.61402 3.34635
# Velocity P-wave (km/s) = 4.67612 6.27478 5.53349
#
# Compressibility (1/GPa) = 0.05065385
#
# Stress axis : x y z
#
# Youngs Moduli (GPa) = 154.95016 27.63053 62.54632
#
# Poissons Ratio (x) = 0.03204 0.28515
# Poissons Ratio (y) = 0.17970 -0.10813
# Poissons Ratio (z) = 0.70642 -0.04777
#
# Static dielectric constant tensor:
#      x y z
#    x 1.824810 0.000000 0.000000 
#    y 0.000000 1.790450 0.000000 
#    z 0.000000 0.000000 1.728840 
# 
# From -- ./inp_files/30385.got.cif
#   From: 2010.05.17/outbox.cif.g08.bks.cpg/sg59_16_cif.got.tgz:30385.got - 2010.06.03 14:40:33.
