data_PCOD9446291
_publ_section_title
;
Structure prediction by ZEFSAII (Michael W. Deem and Ramdas Pophale) SiO2 
 PCOD9446291
Probable space group: P M M N
;
_chemical_formula_sum "Si O2"
_cell_formula_units_Z 64
_cell_length_a 7.573765
_cell_length_b 16.182227
_cell_length_c 24.434384
_cell_angle_alpha 90.000000
_cell_angle_beta 90.000000
_cell_angle_gamma 90.000000
_cell_volume 2994.687497
_symmetry_space_group_name_H-M "P M M N"
_symmetry_group_IT_number 59
_space_group.IT_coordinate_system_code '2'
_symmetry_cell_setting 'orthorhombic'
loop_
_space_group_symop_operation_xyz
x,y,z
1/2-x,1/2-y,z
1/2+x,-y,-z
-x,1/2+y,-z
-x,-y,-z
1/2+x,1/2+y,-z
1/2-x,y,z
x,1/2-y,z
loop_
_atom_site_type_symbol
_atom_site_label
_atom_site_fract_x
_atom_site_fract_y
_atom_site_fract_z
Si Si1 0.458802 0.840770 0.128463
Si Si2 0.036649 0.400250 0.750995
Si Si3 0.041408 0.500551 0.063930
Si Si4 0.534324 0.408100 0.249831
Si Si5 0.539309 0.340459 0.134093
Si Si6 0.534103 0.841428 0.368161
Si Si7 0.534102 0.342150 0.367718
Si Si8 0.961649 0.000155 0.435974
O O1 0.250000 0.837224 0.116309
O O2 0.533616 0.750000 0.115409
O O3 0.477395 0.858165 0.193050
O O4 0.534653 0.919101 0.095374
O O5 0.250000 0.399117 0.751448
O O6 0.980163 0.496049 0.750077
O O7 0.979985 0.357495 0.694669
O O8 0.250000 0.505789 0.070098
O O9 0.990131 0.415125 0.092634
O O10 0.000000 0.500000 0.000000
O O11 0.750000 0.407488 0.249497
O O12 0.471572 0.365219 0.194284
O O13 0.480564 0.363409 0.305583
O O14 0.750000 0.334351 0.139522
O O15 0.472283 0.250000 0.117065
O O16 0.750000 0.842363 0.368797
O O17 0.477925 0.750000 0.386103
O O18 0.472928 0.917418 0.405625
O O19 0.750000 0.342273 0.368578
O O20 0.476638 0.250000 0.383360
O O21 0.473078 0.416383 0.406660
O O22 0.750000 0.000047 0.428919
O O23 0.000000 0.000000 0.500000
#
# Coordination Sequence:
#
# PCOD9446291 Si02
#       8
#     8   8   8   8   8   8   8   8
#     4  10  22  39  57  80 112 147 178 214 271 332
#     4  10  17  30  56  85 109 134 171 218 264 317
#     4  11  24  41  60  81 109 147 190 234 274 318
#     4   9  15  27  51  82 111 136 168 212 263 317
#     4  10  20  35  58  87 117 146 176 217 273 333
#     4   9  17  30  50  76 103 132 168 212 262 311
#     4   9  16  28  49  76 104 133 168 213 261 309
#     4  10  20  34  50  70  97 133 175 218 260 306
#
# _framework density 21.371176999999999
#
# number of rings (size 3 to 8) (size 9 to 14) (size 15 to 20)
#    0.000    2.250    2.500    1.125    0.000    4.000 
#    0.000    1.875    0.000    1.500    0.000    0.000 
#    0.000    0.000    0.000    0.000    0.000    0.000 
#
# Total GULP energy -357480.720293 kJ/mol
# GULP energy per Si atom -5585.636255 kJ/mol
# Density = 2.132254 g / cm^3
# Si number density = 21.371177 Si / 1000 Ang^3
#
#
#
# Elastic Constant Matrix: (Units=GPa)
#
#
# Indices 1 2 3 4 5 6 
#
# 1 46.7061 10.7870 -6.0296 0.0000 0.0000 0.0000
# 2 10.7870 248.4726 113.2103 0.0000 0.0000 0.0000
# 3 -6.0296 113.2103 160.7503 0.0000 0.0000 0.0000
# 4 0.0000 0.0000 0.0000 0.8765 0.0000 0.0000
# 5 0.0000 0.0000 0.0000 0.0000 17.0965 0.0000
# 6 0.0000 0.0000 0.0000 0.0000 0.0000 6.1035
#
#
#
# Elastic Compliance Matrix: (Units=1/GPa)
#
#
# Indices 1 2 3 4 5 6 
#
# 1 0.022153 -0.001974 0.002221 0.000000 0.000000 0.000000
# 2 -0.001974 0.006102 -0.004371 0.000000 0.000000 0.000000
# 3 0.002221 -0.004371 0.009383 0.000000 0.000000 0.000000
# 4 0.000000 0.000000 0.000000 1.140867 0.000000 0.000000
# 5 0.000000 0.000000 0.000000 0.000000 0.058491 0.000000
# 6 0.000000 0.000000 0.000000 0.000000 0.000000 0.163840
#
#
# Mechanical properties :
#
#
# Convention : Reuss Voigt Hill
#
# Bulk Modulus (GPa) = 34.02580 76.87383 55.44982
# Shear Modulus (GPa) = 3.52390 27.34606 15.43498
#
# Velocity S-wave (km/s) = 1.28549 3.58100 2.69036
# Velocity P-wave (km/s) = 4.26136 7.29020 5.97102
#
# Compressibility (1/GPa) = 0.02938946
#
# Stress axis : x y z
#
# Youngs Moduli (GPa) = 45.14055 163.88050 106.57833
#
# Poissons Ratio (x) = 0.32344 -0.23670
# Poissons Ratio (y) = 0.08909 0.46590
# Poissons Ratio (z) = -0.10025 0.71639
#
# Static dielectric constant tensor:
#      x y z
#    x 1.818010 0.000000 0.000000 
#    y 0.000000 1.789900 0.000000 
#    z 0.000000 0.000000 1.704280 
# 
# From -- ./inp_files/31428.got.cif
#   From: 2010.05.17/outbox.cif.g08.bks.cpg/sg59_16_cif.got.tgz:31428.got - 2010.06.03 14:40:33.
