data_PCOD9446654
_publ_section_title
;
Structure prediction by ZEFSAII (Michael W. Deem and Ramdas Pophale) SiO2 
 PCOD9446654
Probable space group: P M M N
;
_chemical_formula_sum "Si O2"
_cell_formula_units_Z 64
_cell_length_a 8.842894
_cell_length_b 30.362567
_cell_length_c 15.341893
_cell_angle_alpha 90.000000
_cell_angle_beta 90.000000
_cell_angle_gamma 90.000000
_cell_volume 4119.190287
_symmetry_space_group_name_H-M "P M M N"
_symmetry_group_IT_number 59
_space_group.IT_coordinate_system_code '2'
_symmetry_cell_setting 'orthorhombic'
loop_
_space_group_symop_operation_xyz
x,y,z
1/2-x,1/2-y,z
1/2+x,-y,-z
-x,1/2+y,-z
-x,-y,-z
1/2+x,1/2+y,-z
1/2-x,y,z
x,1/2-y,z
loop_
_atom_site_type_symbol
_atom_site_label
_atom_site_fract_x
_atom_site_fract_y
_atom_site_fract_z
Si Si1 0.930957 0.621758 0.704708
Si Si2 0.068734 0.609961 0.039078
Si Si3 0.567938 0.468348 0.624017
Si Si4 0.568672 0.561258 0.872278
Si Si5 0.431912 0.436108 0.453833
Si Si6 0.565802 0.463423 0.823271
Si Si7 0.569414 0.700001 0.995326
Si Si8 0.573726 0.199352 0.194569
O O1 0.750000 0.628916 0.703284
O O2 0.959370 0.585450 0.780195
O O3 0.978579 0.602537 0.611572
O O4 0.014214 0.665566 0.734435
O O5 0.250000 0.611914 0.037541
O O6 0.019578 0.577512 0.117117
O O7 0.011004 0.587579 0.949691
O O8 0.003967 0.659242 0.045779
O O9 0.750000 0.465762 0.622793
O O10 0.502004 0.436782 0.549666
O O11 0.525999 0.517853 0.593682
O O12 0.516047 0.460232 0.722758
O O13 0.750000 0.562321 0.887168
O O14 0.518833 0.510427 0.864010
O O15 0.250000 0.435583 0.460541
O O16 0.750000 0.464453 0.822089
O O17 0.750000 0.697356 0.001258
O O18 0.522336 0.750000 0.020506
O O19 0.519815 0.693909 0.894622
O O20 0.750000 0.191073 0.174745
O O21 0.557701 0.250000 0.222598
#
# Coordination Sequence:
#
# PCOD9446654 Si02
#       8
#     8   8   8   8   8   8   8   8
#     4  10  18  29  48  69  94 129 160 187 226 279
#     4  11  21  31  46  70  96 124 159 200 237 274
#     4   9  16  30  48  65  89 123 157 191 229 273
#     4  10  18  31  47  64  93 133 167 190 219 272
#     4   9  17  29  46  69  93 119 153 192 231 268
#     4   9  18  32  48  66  94 131 165 194 233 277
#     4  10  20  34  50  66  88 121 158 193 235 287
#     4  10  20  32  47  69  96 121 150 195 240 276
#
# _framework density 15.537034
#
# number of rings (size 3 to 8) (size 9 to 14) (size 15 to 20)
#    0.000    2.250    2.500    1.500    0.000    2.000 
#    0.000    2.500    0.000    0.000    0.000    0.875 
#    0.000    1.000    0.000    0.000    0.000    0.000 
#
# Total GULP energy -356878.534348 kJ/mol
# GULP energy per Si atom -5576.227099 kJ/mol
# Density = 1.550167 g / cm^3
# Si number density = 15.537034 Si / 1000 Ang^3
#
#
#
# Elastic Constant Matrix: (Units=GPa)
#
#
# Indices 1 2 3 4 5 6 
#
# 1 23.2124 32.1535 21.1124 0.0000 0.0000 0.0000
# 2 32.1535 107.4642 46.2363 0.0000 0.0000 0.0000
# 3 21.1124 46.2363 68.0375 0.0000 0.0000 0.0000
# 4 0.0000 0.0000 0.0000 23.2275 0.0000 0.0000
# 5 0.0000 0.0000 0.0000 0.0000 20.5545 0.0000
# 6 0.0000 0.0000 0.0000 0.0000 0.0000 23.6398
#
#
#
# Elastic Compliance Matrix: (Units=1/GPa)
#
#
# Indices 1 2 3 4 5 6 
#
# 1 0.080054 -0.018745 -0.012102 0.000000 0.000000 0.000000
# 2 -0.018745 0.017540 -0.006103 0.000000 0.000000 0.000000
# 3 -0.012102 -0.006103 0.022601 0.000000 0.000000 0.000000
# 4 0.000000 0.000000 0.000000 0.043052 0.000000 0.000000
# 5 0.000000 0.000000 0.000000 0.000000 0.048651 0.000000
# 6 0.000000 0.000000 0.000000 0.000000 0.000000 0.042301
#
#
# Mechanical properties :
#
#
# Convention : Reuss Voigt Hill
#
# Bulk Modulus (GPa) = 21.60149 44.19095 32.89622
# Shear Modulus (GPa) = 14.55475 20.09849 17.32662
#
# Velocity S-wave (km/s) = 3.06400 3.60055 3.34306
# Velocity P-wave (km/s) = 5.14304 6.76678 6.01000
#
# Compressibility (1/GPa) = 0.04629310
#
# Stress axis : x y z
#
# Youngs Moduli (GPa) = 12.49164 57.01352 44.24676
#
# Poissons Ratio (x) = 1.06872 0.53549
# Poissons Ratio (y) = 0.23416 0.27003
# Poissons Ratio (z) = 0.15118 0.34794
#
# Static dielectric constant tensor:
#      x y z
#    x 1.524520 0.000000 0.000000 
#    y 0.000000 1.525640 0.000000 
#    z 0.000000 0.000000 1.501210 
# 
# From -- ./inp_files/21891.got.cif
#   From: 2010.05.17/outbox.cif.g08.bks.cpg/sg59_11_cif.got.tgz:21891.got - 2010.06.03 14:40:33.
