data_PCOD9446447
_publ_section_title
;
Structure prediction by ZEFSAII (Michael W. Deem and Ramdas Pophale) SiO2 
 PCOD9446447
Probable space group: P M M N
;
_chemical_formula_sum "Si O2"
_cell_formula_units_Z 56
_cell_length_a 8.494413
_cell_length_b 19.052987
_cell_length_c 21.672527
_cell_angle_alpha 90.000000
_cell_angle_beta 90.000000
_cell_angle_gamma 90.000000
_cell_volume 3507.567169
_symmetry_space_group_name_H-M "P M M N"
_symmetry_group_IT_number 59
_space_group.IT_coordinate_system_code '2'
_symmetry_cell_setting 'orthorhombic'
loop_
_space_group_symop_operation_xyz
x,y,z
1/2-x,1/2-y,z
1/2+x,-y,-z
-x,1/2+y,-z
-x,-y,-z
1/2+x,1/2+y,-z
1/2-x,y,z
x,1/2-y,z
loop_
_atom_site_type_symbol
_atom_site_label
_atom_site_fract_x
_atom_site_fract_y
_atom_site_fract_z
Si Si1 0.941772 0.596783 0.874376
Si Si2 0.060089 0.170201 0.997451
Si Si3 0.060972 0.408353 0.376852
Si Si4 0.061176 0.831016 0.500253
Si Si5 0.061582 0.961417 0.061590
Si Si6 0.057620 0.331058 0.251816
Si Si7 0.437428 0.038720 0.561680
O O1 0.750000 0.599038 0.874001
O O2 0.991424 0.640242 0.935403
O O3 0.987018 0.515280 0.884404
O O4 0.996226 0.631638 0.811093
O O5 0.250000 0.169309 0.997886
O O6 0.006554 0.250000 0.989445
O O7 0.003397 0.116820 0.944715
O O8 0.250000 0.409028 0.379668
O O9 0.009477 0.372623 0.313120
O O10 0.000238 0.362533 0.434832
O O11 0.000290 0.487989 0.384752
O O12 0.250000 0.834578 0.500946
O O13 0.012396 0.750000 0.493653
O O14 0.998906 0.882251 0.446341
O O15 0.250000 0.958962 0.060195
O O16 0.000000 0.000000 0.000000
O O17 0.250000 0.331144 0.251105
O O18 0.007471 0.250000 0.253930
O O19 0.250000 0.038356 0.561460
O O20 0.500000 0.000000 0.500000
#
# Coordination Sequence:
#
# PCOD9446447 Si02
#       7
#     8   8   8   8   8   8   8
#     4   8  14  25  40  59  84 113 144 176 208 245
#     4   9  16  26  42  63  86 112 141 176 218 259
#     4  10  18  28  43  63  88 115 144 176 208 246
#     4  10  19  30  45  65  89 114 139 172 214 255
#     4   9  16  26  41  60  83 111 142 177 216 256
#     4   9  16  25  40  63  87 112 144 178 207 239
#     4  10  18  29  45  62  84 113 144 176 210 250
#
# _framework density 15.965482
#
# number of rings (size 3 to 8) (size 9 to 14) (size 15 to 20)
#    0.000    2.714    0.000    6.000    0.000    3.714 
#    0.000    0.000    0.000    8.571    0.000    1.000 
#    0.000    3.429    0.000    0.000    0.000    0.000 
#
# Total GULP energy -311858.385138 kJ/mol
# GULP energy per Si atom -5568.899735 kJ/mol
# Density = 1.592914 g / cm^3
# Si number density = 15.965482 Si / 1000 Ang^3
#
#
#
# Elastic Constant Matrix: (Units=GPa)
#
#
# Indices 1 2 3 4 5 6 
#
# 1 38.1693 32.1634 14.5976 0.0000 0.0000 0.0000
# 2 32.1634 169.8698 68.0598 0.0000 0.0000 0.0000
# 3 14.5976 68.0598 74.8329 0.0000 0.0000 0.0000
# 4 0.0000 0.0000 0.0000 28.5786 0.0000 0.0000
# 5 0.0000 0.0000 0.0000 0.0000 12.5041 0.0000
# 6 0.0000 0.0000 0.0000 0.0000 0.0000 24.2243
#
#
#
# Elastic Compliance Matrix: (Units=1/GPa)
#
#
# Indices 1 2 3 4 5 6 
#
# 1 0.031233 -0.005463 -0.001124 0.000000 0.000000 0.000000
# 2 -0.005463 0.010218 -0.008227 0.000000 0.000000 0.000000
# 3 -0.001124 -0.008227 0.021065 0.000000 0.000000 0.000000
# 4 0.000000 0.000000 0.000000 0.034991 0.000000 0.000000
# 5 0.000000 0.000000 0.000000 0.000000 0.079974 0.000000
# 6 0.000000 0.000000 0.000000 0.000000 0.000000 0.041281
#
#
# Mechanical properties :
#
#
# Convention : Reuss Voigt Hill
#
# Bulk Modulus (GPa) = 30.40735 56.94595 43.67665
# Shear Modulus (GPa) = 19.27892 24.26482 21.77187
#
# Velocity S-wave (km/s) = 3.47873 3.90273 3.69681
# Velocity P-wave (km/s) = 5.93485 7.48692 6.75561
#
# Compressibility (1/GPa) = 0.03288678
#
# Stress axis : x y z
#
# Youngs Moduli (GPa) = 32.01784 97.87074 47.47287
#
# Poissons Ratio (x) = 0.53472 0.05334
# Poissons Ratio (y) = 0.17493 0.39056
# Poissons Ratio (z) = 0.03597 0.80518
#
# Static dielectric constant tensor:
#      x y z
#    x 1.549820 0.000000 0.000000 
#    y 0.000000 1.569060 0.000000 
#    z 0.000000 0.000000 1.518780 
# 
# From -- ./inp_files/31693.got.cif
#   From: 2010.05.17/outbox.cif.g08.bks.cpg/sg59_16_cif.got.tgz:31693.got - 2010.06.03 14:40:33.
