data_PCOD9446658
_publ_section_title
;
Structure prediction by ZEFSAII (Michael W. Deem and Ramdas Pophale) SiO2 
 PCOD9446658
Probable space group: P M M N
;
_chemical_formula_sum "Si O2"
_cell_formula_units_Z 64
_cell_length_a 7.396975
_cell_length_b 14.967710
_cell_length_c 29.268376
_cell_angle_alpha 90.000000
_cell_angle_beta 90.000000
_cell_angle_gamma 90.000000
_cell_volume 3240.470981
_symmetry_space_group_name_H-M "P M M N"
_symmetry_group_IT_number 59
_space_group.IT_coordinate_system_code '2'
_symmetry_cell_setting 'orthorhombic'
loop_
_space_group_symop_operation_xyz
x,y,z
1/2-x,1/2-y,z
1/2+x,-y,-z
-x,1/2+y,-z
-x,-y,-z
1/2+x,1/2+y,-z
1/2-x,y,z
x,1/2-y,z
loop_
_atom_site_type_symbol
_atom_site_label
_atom_site_fract_x
_atom_site_fract_y
_atom_site_fract_z
Si Si1 0.470441 0.351840 0.742981
Si Si2 0.466940 0.030553 0.930763
Si Si3 0.965166 0.601332 0.514523
Si Si4 0.030250 0.154420 0.582287
Si Si5 0.465622 0.852875 0.979213
Si Si6 0.964278 0.971945 0.339534
Si Si7 0.029529 0.148004 0.847310
Si Si8 0.532856 0.650743 0.615583
O O1 0.250000 0.353054 0.743291
O O2 0.522839 0.250000 0.731013
O O3 0.534137 0.423357 0.705725
O O4 0.526883 0.369873 0.795124
O O5 0.250000 0.022939 0.927639
O O6 0.532986 0.075309 0.883965
O O7 0.534508 0.931484 0.944992
O O8 0.504272 0.101596 0.971295
O O9 0.750000 0.617607 0.516930
O O10 0.034893 0.651852 0.469760
O O11 0.036283 0.623699 0.564818
O O12 0.000000 0.500000 0.500000
O O13 0.250000 0.147656 0.579764
O O14 0.987051 0.250000 0.603598
O O15 0.963043 0.075934 0.614650
O O16 0.250000 0.847243 0.972491
O O17 0.534360 0.750000 0.976134
O O18 0.750000 0.955272 0.339421
O O19 0.989094 0.076460 0.347055
O O20 0.250000 0.147339 0.847907
O O21 0.975673 0.250000 0.859296
O O22 0.750000 0.652788 0.612684
O O23 0.468727 0.750000 0.626524
#
# Coordination Sequence:
#
# PCOD9446658 Si02
#       8
#     8   8   8   8   8   8   8   8
#     4   8  14  25  43  69  96 116 137 172 220 267
#     4   9  16  26  42  62  84 116 156 187 214 258
#     4  10  18  30  47  65  87 113 143 175 207 247
#     4   9  16  26  43  66  88 110 136 165 201 249
#     4   9  17  27  38  57  88 120 148 184 227 263
#     4  10  18  29  48  71  90 110 140 180 218 252
#     4   8  13  22  39  64  90 113 141 179 217 255
#     4  10  21  35  49  64  86 119 151 177 211 256
#
# _framework density 19.750215000000001
#
# number of rings (size 3 to 8) (size 9 to 14) (size 15 to 20)
#    0.000    2.875    1.250    1.875    0.000    4.000 
#    0.000    0.000    0.000    4.875    0.000    5.250 
#    0.000    0.000    0.000    0.000    0.000    0.000 
#
# Total GULP energy -356816.619293 kJ/mol
# GULP energy per Si atom -5575.259676 kJ/mol
# Density = 1.970526 g / cm^3
# Si number density = 19.750215 Si / 1000 Ang^3
#
#
#
# Elastic Constant Matrix: (Units=GPa)
#
#
# Indices 1 2 3 4 5 6 
#
# 1 67.2791 -1.6089 5.1082 0.0000 0.0000 0.0000
# 2 -1.6089 182.2637 100.0840 0.0000 0.0000 0.0000
# 3 5.1082 100.0840 134.4154 0.0000 0.0000 0.0000
# 4 0.0000 0.0000 0.0000 32.9398 0.0000 0.0000
# 5 0.0000 0.0000 0.0000 0.0000 1.9864 0.0000
# 6 0.0000 0.0000 0.0000 0.0000 0.0000 1.9193
#
#
#
# Elastic Compliance Matrix: (Units=1/GPa)
#
#
# Indices 1 2 3 4 5 6 
#
# 1 0.014967 0.000752 -0.001129 0.000000 0.000000 0.000000
# 2 0.000752 0.009319 -0.006968 0.000000 0.000000 0.000000
# 3 -0.001129 -0.006968 0.012670 0.000000 0.000000 0.000000
# 4 0.000000 0.000000 0.000000 0.030358 0.000000 0.000000
# 5 0.000000 0.000000 0.000000 0.000000 0.503411 0.000000
# 6 0.000000 0.000000 0.000000 0.000000 0.000000 0.521031
#
#
# Mechanical properties :
#
#
# Convention : Reuss Voigt Hill
#
# Bulk Modulus (GPa) = 44.90711 65.68053 55.29382
# Shear Modulus (GPa) = 4.48886 26.06078 15.27482
#
# Velocity S-wave (km/s) = 1.50922 3.63646 2.78402
# Velocity P-wave (km/s) = 5.08172 7.13860 6.19611
#
# Compressibility (1/GPa) = 0.02226819
#
# Stress axis : x y z
#
# Youngs Moduli (GPa) = 66.81313 107.30579 78.92394
#
# Poissons Ratio (x) = -0.08068 0.08907
# Poissons Ratio (y) = -0.05023 0.54990
# Poissons Ratio (z) = 0.07541 0.74765
#
# Static dielectric constant tensor:
#      x y z
#    x 1.798850 0.000000 0.000000 
#    y 0.000000 1.739630 0.000000 
#    z 0.000000 0.000000 1.681860 
# 
# From -- ./inp_files/33243.got.cif
#   From: 2010.05.17/outbox.cif.g08.bks.cpg/sg59_17_cif.got.tgz:33243.got - 2010.06.03 14:40:33.
