data_PCOD9446089
_publ_section_title
;
Structure prediction by ZEFSAII (Michael W. Deem and Ramdas Pophale) SiO2 
 PCOD9446089
Probable space group: P N N M
;
_chemical_formula_sum "Si O2"
_cell_formula_units_Z 58
_cell_length_a 9.000000
_cell_length_b 27.000000
_cell_length_c 12.000000
_cell_angle_alpha 90.000000
_cell_angle_beta 90.000000
_cell_angle_gamma 90.000000
_cell_volume 2916.000000
_symmetry_space_group_name_H-M "P N N M"
_symmetry_group_IT_number 58
_symmetry_cell_setting 'orthorhombic'
loop_
_space_group_symop_operation_xyz
x,y,z
-x,-y,z
1/2+x,1/2-y,1/2-z
1/2-x,1/2+y,1/2-z
-x,-y,-z
x,y,-z
1/2-x,1/2+y,1/2+z
1/2+x,1/2-y,1/2+z
loop_
_atom_site_type_symbol
_atom_site_label
_atom_site_fract_x
_atom_site_fract_y
_atom_site_fract_z
Si Si1 0.574378 0.875992 0.866350
Si Si2 0.336271 0.977320 0.378420
Si Si3 0.531393 0.233705 0.624091
Si Si4 0.182351 0.044714 0.791573
Si Si5 0.264431 0.700300 0.777765
Si Si6 0.514268 0.378901 0.132056
Si Si7 0.821657 0.632480 0.192497
Si Si8 0.000000 0.000000 0.000000
O O1 0.671051 0.923460 0.826022
O O2 0.668639 0.830778 0.812924
O O3 0.410512 0.873862 0.809793
O O4 0.567029 0.874208 0.000000
O O5 0.274881 0.991882 0.500000
O O6 0.350095 0.918708 0.370669
O O7 0.500000 0.000000 0.369136
O O8 0.237473 0.997519 0.278317
O O9 0.554031 0.253402 0.500000
O O10 0.620220 0.265522 0.713333
O O11 0.357682 0.230316 0.652903
O O12 0.599496 0.178595 0.633396
O O13 0.080120 0.076606 0.706940
O O14 0.094440 0.029312 0.901388
O O15 0.360670 0.663416 0.853674
O O16 0.356912 0.361903 0.186322
O O17 0.493359 0.389938 0.000000
#
# Coordination Sequence:
#
# PCOD9446089 Si02
#       8
#     8   8   8   8   8   8   8   2
#     4  10  21  43  63  88 128 170 213 268 316 385
#     4  11  22  39  64  95 128 168 220 272 318 377
#     4  11  22  41  66  95 130 169 209 266 326 384
#     4  11  23  42  63  94 128 171 221 261 332 376
#     4  10  23  40  67  98 129 165 218 259 325 394
#     4  11  23  43  67  96 132 169 214 274 327 386
#     4  11  23  40  61  94 126 169 221 262 322 381
#     4  12  24  40  64  92 132 172 214 274 312 392
#
# _framework density 19.890260999999999
#
# number of rings (size 3 to 8) (size 9 to 14) (size 15 to 20)
#    0.000    1.241    2.069    4.138    0.000    0.000 
#    4.966   12.069    0.000    0.000    0.000    0.000 
#    0.000    0.000    0.000    0.000    0.000    0.000 
#
# Total GULP energy -323492.760116 kJ/mol
# GULP energy per Si atom -5577.461381 kJ/mol
# Density = 1.984499 g / cm^3
# Si number density = 19.890261 Si / 1000 Ang^3
#
#
#
# Elastic Constant Matrix: (Units=GPa)
#
#
# Indices 1 2 3 4 5 6 
#
# 1 102.5934 15.9369 58.0797 0.0000 0.0000 0.0000
# 2 15.9369 55.2105 22.5409 0.0000 0.0000 0.0000
# 3 58.0797 22.5409 137.0408 0.0000 0.0000 0.0000
# 4 0.0000 0.0000 0.0000 14.0385 0.0000 0.0000
# 5 0.0000 0.0000 0.0000 0.0000 11.2237 0.0000
# 6 0.0000 0.0000 0.0000 0.0000 0.0000 33.4006
#
#
#
# Elastic Compliance Matrix: (Units=1/GPa)
#
#
# Indices 1 2 3 4 5 6 
#
# 1 0.012956 -0.001606 -0.005227 0.000000 0.000000 0.000000
# 2 -0.001606 0.019615 -0.002546 0.000000 0.000000 0.000000
# 3 -0.005227 -0.002546 0.009931 0.000000 0.000000 0.000000
# 4 0.000000 0.000000 0.000000 0.071233 0.000000 0.000000
# 5 0.000000 0.000000 0.000000 0.000000 0.089097 0.000000
# 6 0.000000 0.000000 0.000000 0.000000 0.000000 0.029940
#
#
# Mechanical properties :
#
#
# Convention : Reuss Voigt Hill
#
# Bulk Modulus (GPa) = 42.11345 54.21771 48.16558
# Shear Modulus (GPa) = 19.27203 24.95169 22.11186
#
# Velocity S-wave (km/s) = 3.11612 3.54569 3.33782
# Velocity P-wave (km/s) = 5.84515 6.63929 6.25484
#
# Compressibility (1/GPa) = 0.02374538
#
# Stress axis : x y z
#
# Youngs Moduli (GPa) = 77.18718 50.98032 100.69541
#
# Poissons Ratio (x) = 0.08187 0.52629
# Poissons Ratio (y) = 0.12395 0.25635
# Poissons Ratio (z) = 0.40343 0.12979
#
# Static dielectric constant tensor:
#      x y z
#    x 1.698530 0.000000 0.000000 
#    y 0.000000 1.714380 0.000000 
#    z 0.000000 0.000000 1.663200 
# 
# From -- ./inp_files/13275.got.cif
#   From: 2010.05.17/outbox.ucp.g08.bks.cvg/sg58_7_cif.got.tgz:13275.got - 2010.06.11 16:41:41.
