data_PCOD9446164
_publ_section_title
;
Structure prediction by ZEFSAII (Michael W. Deem and Ramdas Pophale) SiO2 
 PCOD9446164
Probable space group: P M M N
;
_chemical_formula_sum "Si O2"
_cell_formula_units_Z 56
_cell_length_a 9.297586
_cell_length_b 15.128932
_cell_length_c 19.075589
_cell_angle_alpha 90.000000
_cell_angle_beta 90.000000
_cell_angle_gamma 90.000000
_cell_volume 2683.220922
_symmetry_space_group_name_H-M "P M M N"
_symmetry_group_IT_number 59
_space_group.IT_coordinate_system_code '2'
_symmetry_cell_setting 'orthorhombic'
loop_
_space_group_symop_operation_xyz
x,y,z
1/2-x,1/2-y,z
1/2+x,-y,-z
-x,1/2+y,-z
-x,-y,-z
1/2+x,1/2+y,-z
1/2-x,y,z
x,1/2-y,z
loop_
_atom_site_type_symbol
_atom_site_label
_atom_site_fract_x
_atom_site_fract_y
_atom_site_fract_z
Si Si1 0.578213 0.600890 0.790569
Si Si2 0.415004 0.882318 0.653904
Si Si3 0.913959 0.890837 0.064689
Si Si4 0.089449 0.092497 0.633027
Si Si5 0.912129 0.147437 0.501232
Si Si6 0.915119 0.107260 0.070868
Si Si7 0.424386 0.411059 0.783000
O O1 0.750000 0.605694 0.790885
O O2 0.509928 0.642982 0.720553
O O3 0.509989 0.635910 0.862775
O O4 0.521653 0.499087 0.787503
O O5 0.250000 0.850138 0.661032
O O6 0.473622 0.856957 0.577358
O O7 0.406957 0.988570 0.650506
O O8 0.750000 0.865920 0.047637
O O9 0.948546 0.861061 0.143842
O O10 0.917622 0.998983 0.068302
O O11 0.018968 0.862625 0.002882
O O12 0.250000 0.124323 0.616831
O O13 0.043669 0.133548 0.707978
O O14 0.995208 0.103048 0.564367
O O15 0.750000 0.110168 0.496043
O O16 0.904066 0.250000 0.520076
O O17 0.750000 0.133683 0.079967
O O18 0.250000 0.432404 0.782446
#
# Coordination Sequence:
#
# PCOD9446164 Si02
#       7
#     8   8   8   8   8   8   8
#     4  10  17  24  38  60  83 110 149 189 223 263
#     4   9  18  33  49  65  90 121 152 187 228 273
#     4   8  13  21  33  50  76 111 148 182 215 258
#     4   9  17  30  49  70  91 119 153 188 227 269
#     4  10  21  35  50  69  93 120 149 184 228 275
#     4   9  15  22  32  49  79 116 148 179 220 266
#     4   8  15  27  40  57  84 116 148 183 225 267
#
# _framework density 20.870439999999999
#
# number of rings (size 3 to 8) (size 9 to 14) (size 15 to 20)
#    0.000    3.000    0.000    3.857    0.000    6.571 
#    0.000    0.000    0.000    0.000    0.000    0.000 
#    0.000    1.143    0.000    8.286    0.000    8.857 
#
# Total GULP energy -312109.983346 kJ/mol
# GULP energy per Si atom -5573.392560 kJ/mol
# Density = 2.082294 g / cm^3
# Si number density = 20.870440 Si / 1000 Ang^3
#
#
#
# Elastic Constant Matrix: (Units=GPa)
#
#
# Indices 1 2 3 4 5 6 
#
# 1 117.3994 7.7650 105.9552 0.0000 0.0000 0.0000
# 2 7.7650 36.5123 14.7081 0.0000 0.0000 0.0000
# 3 105.9552 14.7081 214.1632 0.0000 0.0000 0.0000
# 4 0.0000 0.0000 0.0000 -29.3651 0.0000 0.0000
# 5 0.0000 0.0000 0.0000 0.0000 44.1849 0.0000
# 6 0.0000 0.0000 0.0000 0.0000 0.0000 -9.9432
#
#
#
# Elastic Compliance Matrix: (Units=1/GPa)
#
#
# Indices 1 2 3 4 5 6 
#
# 1 0.015391 -0.000212 -0.007600 0.000000 0.000000 0.000000
# 2 -0.000212 0.028170 -0.001830 0.000000 0.000000 0.000000
# 3 -0.007600 -0.001830 0.008555 0.000000 0.000000 0.000000
# 4 0.000000 0.000000 0.000000 -0.034054 0.000000 0.000000
# 5 0.000000 0.000000 0.000000 0.000000 0.022632 0.000000
# 6 0.000000 0.000000 0.000000 0.000000 0.000000 -0.100571
#
#
# Mechanical properties :
#
#
# Convention : Reuss Voigt Hill
#
# Bulk Modulus (GPa) = 30.45714 69.43683 49.94699
# Shear Modulus (GPa) = -168.64048 16.95176 -75.84436
#
# Velocity S-wave (km/s) = -8.99883 2.85307 -6.03485
# Velocity P-wave (km/s) = 9.66161 6.64801 4.95736
#
# Compressibility (1/GPa) = 0.03283302
#
# Stress axis : x y z
#
# Youngs Moduli (GPa) = 64.97237 35.49852 116.88962
#
# Poissons Ratio (x) = 0.00752 0.88837
# Poissons Ratio (y) = 0.01376 0.21390
# Poissons Ratio (z) = 0.49380 0.06496
#
# Static dielectric constant tensor:
#      x y z
#    x 1.724050 0.000000 0.000000 
#    y 0.000000 1.774460 0.000000 
#    z 0.000000 0.000000 1.791990 
# 
# From -- ./inp_files/26050.got.cif
#   From: 2010.05.17/outbox.cif.g08.bks.cpg/sg59_14_cif.got.tgz:26050.got - 2010.06.03 14:40:33.
