data_PCOD9446544
_publ_section_title
;
Structure prediction by ZEFSAII (Michael W. Deem and Ramdas Pophale) SiO2 
 PCOD9446544
Probable space group: P M M N
;
_chemical_formula_sum "Si O2"
_cell_formula_units_Z 40
_cell_length_a 26.378965
_cell_length_b 9.147579
_cell_length_c 9.922333
_cell_angle_alpha 90.000000
_cell_angle_beta 90.000000
_cell_angle_gamma 90.000000
_cell_volume 2394.295331
_symmetry_space_group_name_H-M "P M M N"
_symmetry_group_IT_number 59
_space_group.IT_coordinate_system_code '2'
_symmetry_cell_setting 'orthorhombic'
loop_
_space_group_symop_operation_xyz
x,y,z
1/2-x,1/2-y,z
1/2+x,-y,-z
-x,1/2+y,-z
-x,-y,-z
1/2+x,1/2+y,-z
1/2-x,y,z
x,1/2-y,z
loop_
_atom_site_type_symbol
_atom_site_label
_atom_site_fract_x
_atom_site_fract_y
_atom_site_fract_z
Si Si1 0.862004 0.422884 0.660984
Si Si2 0.558585 0.924288 0.852902
Si Si3 0.750000 0.576211 0.350194
Si Si4 0.750000 0.423420 0.638798
Si Si5 0.852619 0.424910 0.343055
Si Si6 0.442001 0.574902 0.860851
O O1 0.872362 0.250000 0.675057
O O2 0.902723 0.512030 0.744486
O O3 0.803857 0.449003 0.709412
O O4 0.862550 0.457956 0.501078
O O5 0.563132 0.750000 0.860150
O O6 0.499815 0.960491 0.819272
O O7 0.568843 0.994342 0.998991
O O8 0.750000 0.750000 0.339850
O O9 0.750000 0.522380 0.505814
O O10 0.802037 0.507394 0.295023
O O11 0.750000 0.250000 0.598149
O O12 0.843964 0.250000 0.334993
O O13 0.900932 0.462831 0.252344
O O14 0.439602 0.750000 0.882969
#
# Coordination Sequence:
#
# PCOD9446544 Si02
#       6
#     8   8   4   4   8   8
#     4   9  17  31  52  75  98 128 166 203 238 285
#     4  10  20  33  50  74 102 129 160 203 252 294
#     4  10  18  28  47  76 105 128 154 198 254 294
#     4   8  16  32  51  70  97 134 170 198 232 288
#     4   9  18  34  54  73  96 131 171 202 233 287
#     4   9  19  36  54  70  94 132 171 202 239 292
#
# _framework density 16.706375999999999
#
# number of rings (size 3 to 8) (size 9 to 14) (size 15 to 20)
#    0.000    2.800    0.000    2.700    0.000    5.600 
#    0.000    1.000    0.000    2.400    0.000    0.000 
#    0.000    0.000    0.000    0.000    0.000    0.000 
#
# Total GULP energy -222864.954792 kJ/mol
# GULP energy per Si atom -5571.623870 kJ/mol
# Density = 1.666835 g / cm^3
# Si number density = 16.706376 Si / 1000 Ang^3
#
#
#
# Elastic Constant Matrix: (Units=GPa)
#
#
# Indices 1 2 3 4 5 6 
#
# 1 162.1894 68.3187 89.5197 0.0000 0.0000 0.0000
# 2 68.3187 45.5497 43.2618 0.0000 0.0000 0.0000
# 3 89.5197 43.2618 69.3189 0.0000 0.0000 0.0000
# 4 0.0000 0.0000 0.0000 23.7240 0.0000 0.0000
# 5 0.0000 0.0000 0.0000 0.0000 -20.1280 0.0000
# 6 0.0000 0.0000 0.0000 0.0000 0.0000 30.9175
#
#
#
# Elastic Compliance Matrix: (Units=1/GPa)
#
#
# Indices 1 2 3 4 5 6 
#
# 1 0.026160 -0.017557 -0.022826 0.000000 0.000000 0.000000
# 2 -0.017557 0.065691 -0.018324 0.000000 0.000000 0.000000
# 3 -0.022826 -0.018324 0.055340 0.000000 0.000000 0.000000
# 4 0.000000 0.000000 0.000000 0.042151 0.000000 0.000000
# 5 0.000000 0.000000 0.000000 0.000000 -0.049682 0.000000
# 6 0.000000 0.000000 0.000000 0.000000 0.000000 0.032344
#
#
# Mechanical properties :
#
#
# Convention : Reuss Voigt Hill
#
# Bulk Modulus (GPa) = 33.58354 75.47316 54.52835
# Shear Modulus (GPa) = 16.70314 11.96655 14.33485
#
# Velocity S-wave (km/s) = 3.16540 2.67926 2.93242
# Velocity P-wave (km/s) = 5.78840 7.40578 6.64647
#
# Compressibility (1/GPa) = 0.02977649
#
# Stress axis : x y z
#
# Youngs Moduli (GPa) = 38.22653 15.22282 18.06995
#
# Poissons Ratio (x) = 0.26726 0.41247
# Poissons Ratio (y) = 0.67113 0.33112
# Poissons Ratio (z) = 0.87257 0.27895
#
# Static dielectric constant tensor:
#      x y z
#    x 1.584730 0.000000 0.000000 
#    y 0.000000 1.552100 0.000000 
#    z 0.000000 0.000000 1.533670 
# 
# From -- ./inp_files/5905.got.cif
#   From: 2010.05.17/outbox.cif.g08.bks.cpg/sg59_3_cif.got.tgz:5905.got - 2010.06.03 14:40:33.
