data_PCOD9446350
_publ_section_title
;
Structure prediction by ZEFSAII (Michael W. Deem and Ramdas Pophale) SiO2 
 PCOD9446350
Probable space group: P M M N
;
_chemical_formula_sum "Si O2"
_cell_formula_units_Z 64
_cell_length_a 27.300477
_cell_length_b 8.894913
_cell_length_c 17.716780
_cell_angle_alpha 90.000000
_cell_angle_beta 90.000000
_cell_angle_gamma 90.000000
_cell_volume 4302.260787
_symmetry_space_group_name_H-M "P M M N"
_symmetry_group_IT_number 59
_space_group.IT_coordinate_system_code '2'
_symmetry_cell_setting 'orthorhombic'
loop_
_space_group_symop_operation_xyz
x,y,z
1/2-x,1/2-y,z
1/2+x,-y,-z
-x,1/2+y,-z
-x,-y,-z
1/2+x,1/2+y,-z
1/2-x,y,z
x,1/2-y,z
loop_
_atom_site_type_symbol
_atom_site_label
_atom_site_fract_x
_atom_site_fract_y
_atom_site_fract_z
Si Si1 0.889093 0.930552 0.020262
Si Si2 0.872928 0.425288 0.780175
Si Si3 0.193523 0.431747 0.095968
Si Si4 0.054026 0.930419 0.509832
Si Si5 0.460539 0.930071 0.675908
Si Si6 0.926008 0.930204 0.642258
Si Si7 0.459299 0.574880 0.096620
Si Si8 0.062625 0.068535 0.832721
O O1 0.888641 0.750000 0.020159
O O2 0.896057 0.978890 0.106907
O O3 0.841327 0.981698 0.973669
O O4 0.936026 0.983635 0.972048
O O5 0.863076 0.250000 0.765652
O O6 0.829342 0.499917 0.827904
O O7 0.888332 0.509491 0.704168
O O8 0.919952 0.434861 0.835754
O O9 0.250000 0.474277 0.085622
O O10 0.190661 0.250000 0.100323
O O11 0.052014 0.750000 0.502680
O O12 0.066372 0.967009 0.596817
O O13 0.083590 0.000279 0.440360
O O14 0.000000 0.000000 0.500000
O O15 0.460451 0.750000 0.683957
O O16 0.518181 0.975426 0.667265
O O17 0.436687 0.002498 0.749268
O O18 0.925232 0.750000 0.638122
O O19 0.463982 0.750000 0.074604
O O20 0.510985 0.522155 0.129086
O O21 0.062478 0.250000 0.827318
#
# Coordination Sequence:
#
# PCOD9446350 Si02
#       8
#     8   8   8   8   8   8   8   8
#     4   9  18  29  42  60  79 106 142 177 213 256
#     4  10  18  28  44  65  87 111 142 179 215 257
#     4   9  18  33  49  63  84 112 141 178 222 263
#     4   9  17  28  40  57  81 112 149 182 211 246
#     4   9  18  28  39  57  82 115 149 177 209 247
#     4  10  18  28  42  61  84 113 148 179 210 253
#     4   9  17  27  38  56  81 110 139 171 212 251
#     4  10  18  27  39  57  83 111 143 178 212 252
#
# _framework density 14.875899
#
# number of rings (size 3 to 8) (size 9 to 14) (size 15 to 20)
#    0.000    2.625    1.250    2.250    0.000    4.250 
#    0.000    0.000    0.000    0.000    0.000    0.000 
#    0.000    1.000    0.000    9.250    0.000    2.500 
#
# Total GULP energy -356458.235344 kJ/mol
# GULP energy per Si atom -5569.659927 kJ/mol
# Density = 1.484204 g / cm^3
# Si number density = 14.875899 Si / 1000 Ang^3
#
#
#
# Elastic Constant Matrix: (Units=GPa)
#
#
# Indices 1 2 3 4 5 6 
#
# 1 50.2931 20.2977 46.0883 0.0000 0.0000 0.0000
# 2 20.2977 28.4199 42.6981 0.0000 0.0000 0.0000
# 3 46.0883 42.6981 153.2222 0.0000 0.0000 0.0000
# 4 0.0000 0.0000 0.0000 26.9859 0.0000 0.0000
# 5 0.0000 0.0000 0.0000 0.0000 12.0081 0.0000
# 6 0.0000 0.0000 0.0000 0.0000 0.0000 12.5406
#
#
#
# Elastic Compliance Matrix: (Units=1/GPa)
#
#
# Indices 1 2 3 4 5 6 
#
# 1 0.030242 -0.013645 -0.005294 0.000000 0.000000 0.000000
# 2 -0.013645 0.066684 -0.014478 0.000000 0.000000 0.000000
# 3 -0.005294 -0.014478 0.012154 0.000000 0.000000 0.000000
# 4 0.000000 0.000000 0.000000 0.037056 0.000000 0.000000
# 5 0.000000 0.000000 0.000000 0.000000 0.083277 0.000000
# 6 0.000000 0.000000 0.000000 0.000000 0.000000 0.079741
#
#
# Mechanical properties :
#
#
# Convention : Reuss Voigt Hill
#
# Bulk Modulus (GPa) = 23.67166 50.01148 36.84157
# Shear Modulus (GPa) = 12.81815 18.49699 15.65757
#
# Velocity S-wave (km/s) = 2.93861 3.53004 3.24782
# Velocity P-wave (km/s) = 5.24035 7.09275 6.23571
#
# Compressibility (1/GPa) = 0.04224460
#
# Stress axis : x y z
#
# Youngs Moduli (GPa) = 33.06660 14.99602 82.28024
#
# Poissons Ratio (x) = 0.20462 0.43560
# Poissons Ratio (y) = 0.45120 1.19129
# Poissons Ratio (z) = 0.17506 0.21712
#
# Static dielectric constant tensor:
#      x y z
#    x 1.473280 0.000000 0.000000 
#    y 0.000000 1.500670 0.000000 
#    z 0.000000 0.000000 1.522370 
# 
# From -- ./inp_files/25071.got.cif
#   From: 2010.05.17/outbox.cif.g08.bks.cpg/sg59_13_cif.got.tgz:25071.got - 2010.06.03 14:40:33.
