data_PCOD9446852
_publ_section_title
;
Structure prediction by ZEFSAII (Michael W. Deem and Ramdas Pophale) SiO2 
 PCOD9446852
Probable space group: P M M N
;
_chemical_formula_sum "Si O2"
_cell_formula_units_Z 56
_cell_length_a 7.857035
_cell_length_b 22.498531
_cell_length_c 14.640625
_cell_angle_alpha 90.000000
_cell_angle_beta 90.000000
_cell_angle_gamma 90.000000
_cell_volume 2588.048837
_symmetry_space_group_name_H-M "P M M N"
_symmetry_group_IT_number 59
_space_group.IT_coordinate_system_code '2'
_symmetry_cell_setting 'orthorhombic'
loop_
_space_group_symop_operation_xyz
x,y,z
1/2-x,1/2-y,z
1/2+x,-y,-z
-x,1/2+y,-z
-x,-y,-z
1/2+x,1/2+y,-z
1/2-x,y,z
x,1/2-y,z
loop_
_atom_site_type_symbol
_atom_site_label
_atom_site_fract_x
_atom_site_fract_y
_atom_site_fract_z
Si Si1 0.458136 0.250000 0.260336
Si Si2 0.455857 0.949002 0.775683
Si Si3 0.552668 0.183015 0.771658
Si Si4 0.446020 0.066740 0.872132
Si Si5 0.050059 0.877850 0.948730
Si Si6 0.546897 0.635465 0.622589
Si Si7 0.548453 0.819385 0.434553
Si Si8 0.553008 0.250000 0.049915
O O1 0.250000 0.250000 0.251459
O O2 0.511968 0.191345 0.316080
O O3 0.538824 0.250000 0.160121
O O4 0.250000 0.948777 0.776176
O O5 0.520581 0.903908 0.854534
O O6 0.509451 0.924203 0.677905
O O7 0.513963 0.014078 0.807924
O O8 0.750000 0.180741 0.800269
O O9 0.487968 0.250000 0.790722
O O10 0.459885 0.129286 0.820508
O O11 0.540459 0.173913 0.662633
O O12 0.250000 0.052875 0.891682
O O13 0.533137 0.075627 0.969651
O O14 0.250000 0.867728 0.932263
O O15 0.975945 0.813665 0.977294
O O16 0.750000 0.642373 0.615364
O O17 0.482393 0.641852 0.519116
O O18 0.750000 0.830936 0.419225
O O19 0.533381 0.750000 0.462582
O O20 0.750000 0.250000 0.018330
#
# Coordination Sequence:
#
# PCOD9446852 Si02
#       8
#     4   8   8   8   8   8   8   4
#     4  10  18  30  50  81 118 149 182 225 268 324
#     4  10  22  39  57  81 114 151 190 229 270 327
#     4  10  22  40  61  85 111 141 183 234 284 335
#     4  11  24  40  59  82 108 145 192 235 278 328
#     4  10  21  37  57  82 114 149 185 228 279 329
#     4  10  19  32  55  86 118 151 185 222 273 330
#     4   9  17  33  57  85 117 148 180 225 280 332
#     4  10  20  34  54  81 114 149 180 223 282 330
#
# _framework density 21.637923000000001
#
# number of rings (size 3 to 8) (size 9 to 14) (size 15 to 20)
#    0.000    2.000    2.143    1.286    1.000    3.714 
#    0.000    0.714    0.000    0.000    0.000    0.000 
#    0.000    0.000    0.000    0.000    0.000    0.000 
#
# Total GULP energy -312751.127596 kJ/mol
# GULP energy per Si atom -5584.841564 kJ/mol
# Density = 2.158867 g / cm^3
# Si number density = 21.637923 Si / 1000 Ang^3
#
#
#
# Elastic Constant Matrix: (Units=GPa)
#
#
# Indices 1 2 3 4 5 6 
#
# 1 25.4077 1.9681 -4.3643 0.0000 0.0000 0.0000
# 2 1.9681 74.9618 6.9705 0.0000 0.0000 0.0000
# 3 -4.3643 6.9705 50.5362 0.0000 0.0000 0.0000
# 4 0.0000 0.0000 0.0000 21.6513 0.0000 0.0000
# 5 0.0000 0.0000 0.0000 0.0000 22.5038 0.0000
# 6 0.0000 0.0000 0.0000 0.0000 0.0000 13.8376
#
#
#
# Elastic Compliance Matrix: (Units=1/GPa)
#
#
# Indices 1 2 3 4 5 6 
#
# 1 0.040094 -0.001392 0.003655 0.000000 0.000000 0.000000
# 2 -0.001392 0.013562 -0.001991 0.000000 0.000000 0.000000
# 3 0.003655 -0.001991 0.020378 0.000000 0.000000 0.000000
# 4 0.000000 0.000000 0.000000 0.046187 0.000000 0.000000
# 5 0.000000 0.000000 0.000000 0.000000 0.044437 0.000000
# 6 0.000000 0.000000 0.000000 0.000000 0.000000 0.072267
#
#
# Mechanical properties :
#
#
# Convention : Reuss Voigt Hill
#
# Bulk Modulus (GPa) = 13.40912 17.78379 15.59646
# Shear Modulus (GPa) = 19.13948 21.35397 20.24672
#
# Velocity S-wave (km/s) = 2.97734 3.14487 3.06225
# Velocity P-wave (km/s) = 4.24616 4.62856 4.44148
#
# Compressibility (1/GPa) = 0.07457610
#
# Stress axis : x y z
#
# Youngs Moduli (GPa) = 24.94155 73.73644 49.07251
#
# Poissons Ratio (x) = 0.10268 -0.17934
# Poissons Ratio (y) = 0.03473 0.09770
# Poissons Ratio (z) = -0.09115 0.14680
#
# Static dielectric constant tensor:
#      x y z
#    x 1.796710 0.000000 0.000000 
#    y 0.000000 1.818540 0.000000 
#    z 0.000000 0.000000 1.780100 
# 
# From -- ./inp_files/21163.got.cif
#   From: 2010.05.17/outbox.cif.g08.bks.cpg/sg59_11_cif.got.tgz:21163.got - 2010.06.03 14:40:33.
