data_PCOD9446631
_publ_section_title
;
Structure prediction by ZEFSAII (Michael W. Deem and Ramdas Pophale) SiO2 
 PCOD9446631
Probable space group: P M M N
;
_chemical_formula_sum "Si O2"
_cell_formula_units_Z 48
_cell_length_a 8.752382
_cell_length_b 21.201248
_cell_length_c 14.629964
_cell_angle_alpha 90.000000
_cell_angle_beta 90.000000
_cell_angle_gamma 90.000000
_cell_volume 2714.756914
_symmetry_space_group_name_H-M "P M M N"
_symmetry_group_IT_number 59
_space_group.IT_coordinate_system_code '2'
_symmetry_cell_setting 'orthorhombic'
loop_
_space_group_symop_operation_xyz
x,y,z
1/2-x,1/2-y,z
1/2+x,-y,-z
-x,1/2+y,-z
-x,-y,-z
1/2+x,1/2+y,-z
1/2-x,y,z
x,1/2-y,z
loop_
_atom_site_type_symbol
_atom_site_label
_atom_site_fract_x
_atom_site_fract_y
_atom_site_fract_z
Si Si1 0.067848 0.065326 0.957776
Si Si2 0.430348 0.323845 0.496861
Si Si3 0.567917 0.106459 0.132100
Si Si4 0.933598 0.021507 0.783034
Si Si5 0.920718 0.324591 0.310538
Si Si6 0.567326 0.050071 0.573104
O O1 0.250000 0.061215 0.952589
O O2 0.996077 0.071844 0.857232
O O3 0.014900 0.114227 0.035208
O O4 0.000000 0.000000 0.000000
O O5 0.250000 0.326257 0.513110
O O6 0.479406 0.250000 0.511125
O O7 0.466324 0.342748 0.391602
O O8 0.512618 0.378460 0.553744
O O9 0.750000 0.102552 0.116836
O O10 0.533822 0.158321 0.208296
O O11 0.509316 0.043156 0.182173
O O12 0.750000 0.017575 0.790801
O O13 0.974857 0.033161 0.677773
O O14 0.750000 0.352018 0.327468
O O15 0.909197 0.250000 0.316346
O O16 0.750000 0.047264 0.565652
O O17 0.500000 0.000000 0.500000
#
# Coordination Sequence:
#
# PCOD9446631 Si02
#       6
#     8   8   8   8   8   8
#     4  10  18  29  47  69  94 125 158 193 238 293
#     4  10  21  36  54  76 104 139 176 214 257 308
#     4  10  18  29  48  72  99 129 160 198 245 294
#     4  10  20  33  48  70  99 128 162 202 246 295
#     4   9  18  32  50  72  98 130 167 204 244 294
#     4  11  23  36  54  79 107 138 172 217 265 308
#
# _framework density 17.681139999999999
#
# number of rings (size 3 to 8) (size 9 to 14) (size 15 to 20)
#    0.000    2.000    0.000    6.500    0.000    7.667 
#    0.000    0.000    0.000    1.000    0.000    2.333 
#    0.000    0.000    0.000    0.000    0.000    0.000 
#
# Total GULP energy -267469.288932 kJ/mol
# GULP energy per Si atom -5572.276853 kJ/mol
# Density = 1.764090 g / cm^3
# Si number density = 17.681140 Si / 1000 Ang^3
#
#
#
# Elastic Constant Matrix: (Units=GPa)
#
#
# Indices 1 2 3 4 5 6 
#
# 1 65.8160 19.7258 49.1551 0.0000 0.0000 0.0000
# 2 19.7258 37.3547 31.4156 0.0000 0.0000 0.0000
# 3 49.1551 31.4156 141.1145 0.0000 0.0000 0.0000
# 4 0.0000 0.0000 0.0000 28.7187 0.0000 0.0000
# 5 0.0000 0.0000 0.0000 0.0000 30.5122 0.0000
# 6 0.0000 0.0000 0.0000 0.0000 0.0000 21.2694
#
#
#
# Elastic Compliance Matrix: (Units=1/GPa)
#
#
# Indices 1 2 3 4 5 6 
#
# 1 0.021667 -0.006268 -0.006152 0.000000 0.000000 0.000000
# 2 -0.006268 0.034750 -0.005553 0.000000 0.000000 0.000000
# 3 -0.006152 -0.005553 0.010466 0.000000 0.000000 0.000000
# 4 0.000000 0.000000 0.000000 0.034821 0.000000 0.000000
# 5 0.000000 0.000000 0.000000 0.000000 0.032774 0.000000
# 6 0.000000 0.000000 0.000000 0.000000 0.000000 0.047016
#
#
# Mechanical properties :
#
#
# Convention : Reuss Voigt Hill
#
# Bulk Modulus (GPa) = 32.32329 49.43090 40.87710
# Shear Modulus (GPa) = 21.95378 25.69931 23.82655
#
# Velocity S-wave (km/s) = 3.52753 3.81660 3.67491
# Velocity P-wave (km/s) = 5.90865 6.88763 6.41684
#
# Compressibility (1/GPa) = 0.03093744
#
# Stress axis : x y z
#
# Youngs Moduli (GPa) = 46.15298 28.77673 95.55066
#
# Poissons Ratio (x) = 0.18037 0.58783
# Poissons Ratio (y) = 0.28927 0.53059
# Poissons Ratio (z) = 0.28394 0.15980
#
# Static dielectric constant tensor:
#      x y z
#    x 1.611960 0.000000 0.000000 
#    y 0.000000 1.645290 0.000000 
#    z 0.000000 0.000000 1.666830 
# 
# From -- ./inp_files/20729.got.cif
#   From: 2010.05.17/outbox.cif.g08.bks.cpg/sg59_11_cif.got.tgz:20729.got - 2010.06.03 14:40:33.
