data_PCOD9446399
_publ_section_title
;
Structure prediction by ZEFSAII (Michael W. Deem and Ramdas Pophale) SiO2 
 PCOD9446399
Probable space group: P M M N
;
_chemical_formula_sum "Si O2"
_cell_formula_units_Z 56
_cell_length_a 9.186687
_cell_length_b 22.188662
_cell_length_c 18.316870
_cell_angle_alpha 90.000000
_cell_angle_beta 90.000000
_cell_angle_gamma 90.000000
_cell_volume 3733.716143
_symmetry_space_group_name_H-M "P M M N"
_symmetry_group_IT_number 59
_space_group.IT_coordinate_system_code '2'
_symmetry_cell_setting 'orthorhombic'
loop_
_space_group_symop_operation_xyz
x,y,z
1/2-x,1/2-y,z
1/2+x,-y,-z
-x,1/2+y,-z
-x,-y,-z
1/2+x,1/2+y,-z
1/2-x,y,z
x,1/2-y,z
loop_
_atom_site_type_symbol
_atom_site_label
_atom_site_fract_x
_atom_site_fract_y
_atom_site_fract_z
Si Si1 0.921315 0.466222 0.248648
Si Si2 0.423231 0.547958 0.911605
Si Si3 0.075371 0.679454 0.336787
Si Si4 0.077935 0.579633 0.066418
Si Si5 0.423766 0.587639 0.462352
Si Si6 0.077014 0.107017 0.791372
Si Si7 0.422808 0.455366 0.397487
O O1 0.750000 0.461083 0.265604
O O2 0.949744 0.432599 0.171676
O O3 0.951195 0.537306 0.232752
O O4 0.012963 0.445042 0.317458
O O5 0.250000 0.530511 0.914912
O O6 0.522258 0.489136 0.923723
O O7 0.448643 0.591870 0.980280
O O8 0.250000 0.672232 0.327517
O O9 0.042951 0.750000 0.343487
O O10 0.034296 0.642167 0.409288
O O11 0.995732 0.650033 0.267906
O O12 0.250000 0.583754 0.080212
O O13 0.991623 0.615523 0.128324
O O14 0.250000 0.589545 0.474657
O O15 0.456312 0.524882 0.420190
O O16 0.504904 0.584668 0.539359
O O17 0.250000 0.114991 0.793943
O O18 0.250000 0.448171 0.397847
#
# Coordination Sequence:
#
# PCOD9446399 Si02
#       7
#     8   8   8   8   8   8   8
#     4   9  16  26  40  59  86 116 144 176 214 256
#     4   8  15  25  36  56  83 113 144 174 210 249
#     4  10  20  34  50  66  85 111 147 187 224 263
#     4   9  15  24  39  56  80 112 146 178 207 246
#     4   9  18  31  44  61  85 111 141 178 222 265
#     4  10  19  29  42  60  85 115 148 180 217 261
#     4  10  18  27  43  64  85 112 146 179 215 264
#
# _framework density 14.998462
#
# number of rings (size 3 to 8) (size 9 to 14) (size 15 to 20)
#    0.000    2.714    1.429    2.143    0.000    4.286 
#    0.000    0.000    0.000    0.000    0.000    0.000 
#    0.000    1.143    0.000    9.143    0.000    4.429 
#
# Total GULP energy -311762.327784 kJ/mol
# GULP energy per Si atom -5567.184425 kJ/mol
# Density = 1.496432 g / cm^3
# Si number density = 14.998462 Si / 1000 Ang^3
#
#
#
# Elastic Constant Matrix: (Units=GPa)
#
#
# Indices 1 2 3 4 5 6 
#
# 1 40.0496 28.5991 64.7948 0.0000 0.0000 0.0000
# 2 28.5991 46.8903 48.1209 0.0000 0.0000 0.0000
# 3 64.7948 48.1209 167.7615 0.0000 0.0000 0.0000
# 4 0.0000 0.0000 0.0000 10.7194 0.0000 0.0000
# 5 0.0000 0.0000 0.0000 0.0000 28.0377 0.0000
# 6 0.0000 0.0000 0.0000 0.0000 0.0000 11.8455
#
#
#
# Elastic Compliance Matrix: (Units=1/GPa)
#
#
# Indices 1 2 3 4 5 6 
#
# 1 0.083379 -0.025233 -0.024966 0.000000 0.000000 0.000000
# 2 -0.025233 0.037860 -0.001114 0.000000 0.000000 0.000000
# 3 -0.024966 -0.001114 0.015923 0.000000 0.000000 0.000000
# 4 0.000000 0.000000 0.000000 0.093289 0.000000 0.000000
# 5 0.000000 0.000000 0.000000 0.000000 0.035666 0.000000
# 6 0.000000 0.000000 0.000000 0.000000 0.000000 0.084420
#
#
# Mechanical properties :
#
#
# Convention : Reuss Voigt Hill
#
# Bulk Modulus (GPa) = 28.95541 59.74789 44.35165
# Shear Modulus (GPa) = 10.76025 17.66630 14.21327
#
# Velocity S-wave (km/s) = 2.68138 3.43574 3.08173
# Velocity P-wave (km/s) = 5.37903 7.46067 6.50367
#
# Compressibility (1/GPa) = 0.03453586
#
# Stress axis : x y z
#
# Youngs Moduli (GPa) = 11.99347 26.41340 62.80302
#
# Poissons Ratio (x) = 0.66650 1.56791
# Poissons Ratio (y) = 0.30263 0.06995
# Poissons Ratio (z) = 0.29942 0.02942
#
# Static dielectric constant tensor:
#      x y z
#    x 1.496280 0.000000 0.000000 
#    y 0.000000 1.462560 0.000000 
#    z 0.000000 0.000000 1.530740 
# 
# From -- ./inp_files/26150.got.cif
#   From: 2010.05.17/outbox.cif.g08.bks.cpg/sg59_14_cif.got.tgz:26150.got - 2010.06.03 14:40:33.
