data_PCOD9446944
_publ_section_title
;
Structure prediction by ZEFSAII (Michael W. Deem and Ramdas Pophale) SiO2 
 PCOD9446944
Probable space group: P M M N
;
_chemical_formula_sum "Si O2"
_cell_formula_units_Z 48
_cell_length_a 22.405363
_cell_length_b 7.414260
_cell_length_c 12.730911
_cell_angle_alpha 90.000000
_cell_angle_beta 90.000000
_cell_angle_gamma 90.000000
_cell_volume 2114.848581
_symmetry_space_group_name_H-M "P M M N"
_symmetry_group_IT_number 59
_space_group.IT_coordinate_system_code '2'
_symmetry_cell_setting 'orthorhombic'
loop_
_space_group_symop_operation_xyz
x,y,z
1/2-x,1/2-y,z
1/2+x,-y,-z
-x,1/2+y,-z
-x,-y,-z
1/2+x,1/2+y,-z
1/2-x,y,z
x,1/2-y,z
loop_
_atom_site_type_symbol
_atom_site_label
_atom_site_fract_x
_atom_site_fract_y
_atom_site_fract_z
Si Si1 0.338028 0.045407 0.863269
Si Si2 0.428577 0.034126 0.487237
Si Si3 0.184976 0.469644 0.094411
Si Si4 0.082427 0.470443 0.251557
Si Si5 0.527010 0.464000 0.114941
Si Si6 0.316802 0.029335 0.629790
O O1 0.315008 0.250000 0.862844
O O2 0.320594 0.966570 0.751056
O O3 0.409322 0.050670 0.869913
O O4 0.319470 0.963021 0.974746
O O5 0.423667 0.250000 0.489394
O O6 0.411124 0.969746 0.370686
O O7 0.377075 0.969147 0.568405
O O8 0.500000 0.000000 0.500000
O O9 0.250000 0.513232 0.137407
O O10 0.179772 0.250000 0.088819
O O11 0.133046 0.531933 0.170908
O O12 0.083515 0.250000 0.251558
O O13 0.019395 0.525604 0.202743
O O14 0.534918 0.250000 0.125146
O O15 0.500000 0.500000 0.000000
O O16 0.250000 0.980596 0.588525
O O17 0.318735 0.250000 0.630219
#
# Coordination Sequence:
#
# PCOD9446944 Si02
#       6
#     8   8   8   8   8   8
#     4  10  18  31  51  76 105 134 168 209 256 311
#     4  10  20  35  55  77 106 139 176 223 269 315
#     4   9  16  27  46  71  97 127 163 202 244 293
#     4   9  18  31  47  72 101 128 164 208 252 301
#     4  11  20  32  50  74 104 135 169 211 259 313
#     4   9  18  32  53  82 110 139 180 228 271 313
#
# _framework density 22.696660000000001
#
# number of rings (size 3 to 8) (size 9 to 14) (size 15 to 20)
#    0.000    2.333    1.667    2.000    0.000    2.667 
#    0.000    4.167    0.000    3.500    0.000    0.000 
#    0.000    0.000    0.000    0.000    0.000    0.000 
#
# Total GULP energy -268003.577533 kJ/mol
# GULP energy per Si atom -5583.407865 kJ/mol
# Density = 2.264500 g / cm^3
# Si number density = 22.696660 Si / 1000 Ang^3
#
#
#
# Elastic Constant Matrix: (Units=GPa)
#
#
# Indices 1 2 3 4 5 6 
#
# 1 201.1207 7.7189 73.1104 0.0000 0.0000 0.0000
# 2 7.7189 81.3577 4.2382 0.0000 0.0000 0.0000
# 3 73.1104 4.2382 141.0262 0.0000 0.0000 0.0000
# 4 0.0000 0.0000 0.0000 -1.4730 0.0000 0.0000
# 5 0.0000 0.0000 0.0000 0.0000 6.1668 0.0000
# 6 0.0000 0.0000 0.0000 0.0000 0.0000 9.6963
#
#
#
# Elastic Compliance Matrix: (Units=1/GPa)
#
#
# Indices 1 2 3 4 5 6 
#
# 1 0.006141 -0.000417 -0.003171 0.000000 0.000000 0.000000
# 2 -0.000417 0.012339 -0.000154 0.000000 0.000000 0.000000
# 3 -0.003171 -0.000154 0.008739 0.000000 0.000000 0.000000
# 4 0.000000 0.000000 0.000000 -0.678876 0.000000 0.000000
# 5 0.000000 0.000000 0.000000 0.000000 0.162158 0.000000
# 6 0.000000 0.000000 0.000000 0.000000 0.000000 0.103132
#
#
# Mechanical properties :
#
#
# Convention : Reuss Voigt Hill
#
# Bulk Modulus (GPa) = 50.67482 65.95993 58.31738
# Shear Modulus (GPa) = -13.42992 25.44051 6.00529
#
# Velocity S-wave (km/s) = -2.43515 3.35160 1.62838
# Velocity P-wave (km/s) = 3.80379 6.64095 5.41161
#
# Compressibility (1/GPa) = 0.01973367
#
# Stress axis : x y z
#
# Youngs Moduli (GPa) = 162.84376 81.04352 114.42418
#
# Poissons Ratio (x) = 0.03383 0.36284
# Poissons Ratio (y) = 0.06798 0.01767
# Poissons Ratio (z) = 0.51637 0.01251
#
# Static dielectric constant tensor:
#      x y z
#    x 1.786260 0.000000 0.000000 
#    y 0.000000 1.917270 0.000000 
#    z 0.000000 0.000000 1.820360 
# 
# From -- ./inp_files/18582.got.cif
#   From: 2010.05.17/outbox.cif.g08.bks.cpg/sg59_10_cif.got.tgz:18582.got - 2010.06.03 14:40:33.
