data_PCOD9446111
_publ_section_title
;
Structure prediction by ZEFSAII (Michael W. Deem and Ramdas Pophale) SiO2 
 PCOD9446111
Probable space group: P N N M
;
_chemical_formula_sum "Si O2"
_cell_formula_units_Z 64
_cell_length_a 24.000000
_cell_length_b 15.000000
_cell_length_c 9.000000
_cell_angle_alpha 90.000000
_cell_angle_beta 90.000000
_cell_angle_gamma 90.000000
_cell_volume 3240.000000
_symmetry_space_group_name_H-M "P N N M"
_symmetry_group_IT_number 58
_symmetry_cell_setting 'orthorhombic'
loop_
_space_group_symop_operation_xyz
x,y,z
-x,-y,z
1/2+x,1/2-y,1/2-z
1/2-x,1/2+y,1/2-z
-x,-y,-z
x,y,-z
1/2-x,1/2+y,1/2+z
1/2+x,1/2-y,1/2+z
loop_
_atom_site_type_symbol
_atom_site_label
_atom_site_fract_x
_atom_site_fract_y
_atom_site_fract_z
Si Si1 0.681897 0.457284 0.678168
Si Si2 0.592656 0.155370 0.824940
Si Si3 0.980970 0.373852 0.167345
Si Si4 0.330545 0.357332 0.177998
Si Si5 0.869034 0.483357 0.174308
Si Si6 0.551049 0.667284 0.671654
Si Si7 0.575113 0.346666 0.320533
Si Si8 0.787203 0.338875 0.320925
O O1 0.683669 0.469659 0.500000
O O2 0.694821 0.551787 0.754556
O O3 0.619979 0.422195 0.718022
O O4 0.726215 0.379103 0.715337
O O5 0.529548 0.123838 0.787322
O O6 0.594816 0.252971 0.749947
O O7 0.631677 0.079910 0.751829
O O8 0.601934 0.161120 0.000000
O O9 0.931709 0.443810 0.186678
O O10 0.954955 0.274799 0.172083
O O11 0.005384 0.384670 0.000000
O O12 0.394865 0.355727 0.233217
O O13 0.301336 0.263284 0.225218
O O14 0.328264 0.361373 0.000000
O O15 0.829889 0.409520 0.249643
O O16 0.855722 0.491403 0.000000
O O17 0.559788 0.637991 0.500000
O O18 0.489473 0.634555 0.721910
O O19 0.574713 0.335997 0.500000
O O20 0.793260 0.341179 0.500000
#
# Coordination Sequence:
#
# PCOD9446111 Si02
#       8
#     8   8   8   8   8   8   8   8
#     4  10  23  44  67  88 117 159 204 248 297 358
#     4  11  22  33  52  85 124 161 197 245 307 359
#     4   9  18  33  53  81 117 159 206 246 289 356
#     4  11  23  39  62  93 126 155 193 249 309 364
#     4  11  21  35  57  83 115 159 207 249 292 353
#     4   9  17  34  60  88 118 157 206 249 297 360
#     4   9  20  40  62  86 119 162 210 254 298 361
#     4  10  23  42  62  88 121 155 198 252 306 359
#
# _framework density 19.753086
#
# number of rings (size 3 to 8) (size 9 to 14) (size 15 to 20)
#    0.000    2.000    1.250    3.000    0.000    7.500 
#    0.000    3.750    0.000    0.000    0.000    0.000 
#    0.000    0.000    0.000    0.000    0.000    0.000 
#
# Total GULP energy -357445.435733 kJ/mol
# GULP energy per Si atom -5585.084933 kJ/mol
# Density = 1.970813 g / cm^3
# Si number density = 19.753086 Si / 1000 Ang^3
#
#
#
# Elastic Constant Matrix: (Units=GPa)
#
#
# Indices 1 2 3 4 5 6 
#
# 1 65.9279 51.9977 23.3093 0.0000 0.0000 0.0000
# 2 51.9977 102.4362 32.9959 0.0000 0.0000 0.0000
# 3 23.3093 32.9959 47.4026 0.0000 0.0000 0.0000
# 4 0.0000 0.0000 0.0000 29.9706 0.0000 0.0000
# 5 0.0000 0.0000 0.0000 0.0000 22.5827 0.0000
# 6 0.0000 0.0000 0.0000 0.0000 0.0000 25.9364
#
#
#
# Elastic Compliance Matrix: (Units=1/GPa)
#
#
# Indices 1 2 3 4 5 6 
#
# 1 0.026067 -0.011734 -0.004650 0.000000 0.000000 0.000000
# 2 -0.011734 0.017866 -0.006666 0.000000 0.000000 0.000000
# 3 -0.004650 -0.006666 0.028023 0.000000 0.000000 0.000000
# 4 0.000000 0.000000 0.000000 0.033366 0.000000 0.000000
# 5 0.000000 0.000000 0.000000 0.000000 0.044282 0.000000
# 6 0.000000 0.000000 0.000000 0.000000 0.000000 0.038556
#
#
# Mechanical properties :
#
#
# Convention : Reuss Voigt Hill
#
# Bulk Modulus (GPa) = 38.67729 48.04139 43.35934
# Shear Modulus (GPa) = 20.58657 22.86217 21.72437
#
# Velocity S-wave (km/s) = 3.23181 3.40575 3.31992
# Velocity P-wave (km/s) = 5.79215 6.31183 6.05757
#
# Compressibility (1/GPa) = 0.02585497
#
# Stress axis : x y z
#
# Youngs Moduli (GPa) = 38.36302 55.97344 35.68559
#
# Poissons Ratio (x) = 0.65679 0.16594
# Poissons Ratio (y) = 0.45015 0.23788
# Poissons Ratio (z) = 0.17839 0.37312
#
# Static dielectric constant tensor:
#      x y z
#    x 1.711950 0.000000 0.000000 
#    y 0.000000 1.698680 0.000000 
#    z 0.000000 0.000000 1.667270 
# 
# From -- ./inp_files/9951.got.cif
#   From: 2010.05.17/outbox.ucp.g08.bks.cvg/sg58_5_cif.got.tgz:9951.got - 2010.06.11 16:41:41.
