data_PCOD9446771
_publ_section_title
;
Structure prediction by ZEFSAII (Michael W. Deem and Ramdas Pophale) SiO2 
 PCOD9446771
Probable space group: P M M N
;
_chemical_formula_sum "Si O2"
_cell_formula_units_Z 56
_cell_length_a 19.439529
_cell_length_b 7.837183
_cell_length_c 17.841622
_cell_angle_alpha 90.000000
_cell_angle_beta 90.000000
_cell_angle_gamma 90.000000
_cell_volume 2718.191562
_symmetry_space_group_name_H-M "P M M N"
_symmetry_group_IT_number 59
_space_group.IT_coordinate_system_code '2'
_symmetry_cell_setting 'orthorhombic'
loop_
_space_group_symop_operation_xyz
x,y,z
1/2-x,1/2-y,z
1/2+x,-y,-z
-x,1/2+y,-z
-x,-y,-z
1/2+x,1/2+y,-z
1/2-x,y,z
x,1/2-y,z
loop_
_atom_site_type_symbol
_atom_site_label
_atom_site_fract_x
_atom_site_fract_y
_atom_site_fract_z
Si Si1 0.529601 0.450825 0.824603
Si Si2 0.323433 0.449121 0.716071
Si Si3 0.568658 0.956942 0.401811
Si Si4 0.926198 0.550711 0.660189
Si Si5 0.578161 0.045367 0.977340
Si Si6 0.122363 0.552591 0.868291
Si Si7 0.828506 0.958679 0.534937
O O1 0.515262 0.250000 0.836441
O O2 0.556537 0.471489 0.740614
O O3 0.582360 0.507939 0.890455
O O4 0.457013 0.542186 0.839947
O O5 0.250000 0.526953 0.694686
O O6 0.320936 0.250000 0.694925
O O7 0.388978 0.516547 0.671657
O O8 0.334425 0.461698 0.804448
O O9 0.561615 0.750000 0.402456
O O10 0.617304 0.008834 0.470598
O O11 0.492374 0.028913 0.394062
O O12 0.915846 0.750000 0.674144
O O13 0.860566 0.484593 0.614193
O O14 0.586020 0.250000 0.979773
O O15 0.623406 0.980148 0.047035
O O16 0.500000 0.000000 0.000000
O O17 0.143650 0.750000 0.869205
O O18 0.750000 0.014424 0.522293
O O19 0.827975 0.750000 0.534344
#
# Coordination Sequence:
#
# PCOD9446771 Si02
#       7
#     8   8   8   8   8   8   8
#     4  10  18  31  50  73 102 135 170 209 254 306
#     4  10  20  32  48  72 103 141 179 211 252 312
#     4  10  19  34  56  77 101 136 174 212 256 312
#     4  11  21  32  52  81 109 134 168 218 265 305
#     4   8  16  28  45  69  96 128 164 203 248 298
#     4  10  18  30  48  72 102 132 168 214 262 306
#     4   9  19  36  56  77 102 136 176 213 255 310
#
# _framework density 20.601932999999999
#
# number of rings (size 3 to 8) (size 9 to 14) (size 15 to 20)
#    0.000    2.286    1.429    2.143    0.000    3.143 
#    0.000    0.714    0.000    5.571    0.000    4.000 
#    0.000    0.000    0.000    0.000    0.000    0.000 
#
# Total GULP energy -312197.751422 kJ/mol
# GULP energy per Si atom -5574.959847 kJ/mol
# Density = 2.055504 g / cm^3
# Si number density = 20.601933 Si / 1000 Ang^3
#
#
#
# Elastic Constant Matrix: (Units=GPa)
#
#
# Indices 1 2 3 4 5 6 
#
# 1 48.2493 -8.0405 28.6279 0.0000 0.0000 0.0000
# 2 -8.0405 26.1902 -6.9222 0.0000 0.0000 0.0000
# 3 28.6279 -6.9222 107.4755 0.0000 0.0000 0.0000
# 4 0.0000 0.0000 0.0000 14.1040 0.0000 0.0000
# 5 0.0000 0.0000 0.0000 0.0000 5.6771 0.0000
# 6 0.0000 0.0000 0.0000 0.0000 0.0000 11.2722
#
#
#
# Elastic Compliance Matrix: (Units=1/GPa)
#
#
# Indices 1 2 3 4 5 6 
#
# 1 0.025554 0.006151 -0.006411 0.000000 0.000000 0.000000
# 2 0.006151 0.040324 0.000959 0.000000 0.000000 0.000000
# 3 -0.006411 0.000959 0.011074 0.000000 0.000000 0.000000
# 4 0.000000 0.000000 0.000000 0.070902 0.000000 0.000000
# 5 0.000000 0.000000 0.000000 0.000000 0.176145 0.000000
# 6 0.000000 0.000000 0.000000 0.000000 0.000000 0.088713
#
#
# Mechanical properties :
#
#
# Convention : Reuss Voigt Hill
#
# Bulk Modulus (GPa) = 12.76319 23.24948 18.00633
# Shear Modulus (GPa) = 11.43037 17.42733 14.42885
#
# Velocity S-wave (km/s) = 2.35802 2.91160 2.64931
# Velocity P-wave (km/s) = 3.69083 4.75530 4.25647
#
# Compressibility (1/GPa) = 0.07835033
#
# Stress axis : x y z
#
# Youngs Moduli (GPa) = 39.13226 24.79909 90.30333
#
# Poissons Ratio (x) = -0.15254 0.57890
# Poissons Ratio (y) = -0.24070 -0.08658
# Poissons Ratio (z) = 0.25086 -0.02378
#
# Static dielectric constant tensor:
#      x y z
#    x 1.726640 0.000000 0.000000 
#    y 0.000000 1.786260 0.000000 
#    z 0.000000 0.000000 1.797770 
# 
# From -- ./inp_files/28080.got.cif
#   From: 2010.05.17/outbox.cif.g08.bks.cpg/sg59_15_cif.got.tgz:28080.got - 2010.06.03 14:40:33.
