data_PCOD9446057
_publ_section_title
;
Structure prediction by ZEFSAII (Michael W. Deem and Ramdas Pophale) SiO2 
 PCOD9446057
Probable space group: P N N M
;
_chemical_formula_sum "Si O2"
_cell_formula_units_Z 64
_cell_length_a 15.000000
_cell_length_b 24.000000
_cell_length_c 9.000000
_cell_angle_alpha 90.000000
_cell_angle_beta 90.000000
_cell_angle_gamma 90.000000
_cell_volume 3240.000000
_symmetry_space_group_name_H-M "P N N M"
_symmetry_group_IT_number 58
_symmetry_cell_setting 'orthorhombic'
loop_
_space_group_symop_operation_xyz
x,y,z
-x,-y,z
1/2+x,1/2-y,1/2-z
1/2-x,1/2+y,1/2-z
-x,-y,-z
x,y,-z
1/2-x,1/2+y,1/2+z
1/2+x,1/2-y,1/2+z
loop_
_atom_site_type_symbol
_atom_site_label
_atom_site_fract_x
_atom_site_fract_y
_atom_site_fract_z
Si Si1 0.091821 0.389858 0.325583
Si Si2 0.144906 0.503271 0.827320
Si Si3 0.912454 0.371801 0.176974
Si Si4 0.255219 0.799707 0.824024
Si Si5 0.402291 0.600529 0.677713
Si Si6 0.595638 0.628195 0.322077
Si Si7 0.857148 0.011826 0.671752
Si Si8 0.749518 0.314703 0.322449
O O1 0.070492 0.390544 0.500000
O O2 0.107796 0.452453 0.268382
O O3 0.178870 0.351857 0.303537
O O4 0.011895 0.363265 0.233203
O O5 0.113001 0.564416 0.780401
O O6 0.251752 0.500961 0.819398
O O7 0.118246 0.494779 0.000000
O O8 0.844491 0.329810 0.253397
O O9 0.905190 0.367370 0.000000
O O10 0.158677 0.821723 0.772680
O O11 0.281998 0.744909 0.736121
O O12 0.252690 0.786703 0.000000
O O13 0.397304 0.592220 0.500000
O O14 0.491791 0.634511 0.711244
O O15 0.405365 0.540457 0.753303
O O16 0.317735 0.636379 0.726422
O O17 0.606546 0.623758 0.500000
O O18 0.625305 0.569803 0.252534
O O19 0.882739 0.016381 0.500000
O O20 0.753135 0.314825 0.500000
#
# Coordination Sequence:
#
# PCOD9446057 Si02
#       8
#     8   8   8   8   8   8   8   8
#     4  11  23  39  62  93 123 157 201 250 299 355
#     4  10  21  37  59  88 122 160 198 240 301 364
#     4  11  23  41  63  88 122 163 199 243 304 363
#     4  10  23  42  62  85 119 159 200 246 301 355
#     4  10  22  39  61  87 119 156 196 242 294 356
#     4  10  21  40  62  87 119 159 200 238 295 362
#     4  11  21  35  59  91 124 155 194 242 296 353
#     4  11  24  41  62  89 118 154 206 255 297 350
#
# _framework density 19.753086
#
# number of rings (size 3 to 8) (size 9 to 14) (size 15 to 20)
#    0.000    1.500    2.500    2.250    0.000    8.000 
#    0.000    1.250    0.000    0.000    0.000    0.000 
#    0.000    0.000    0.000    0.000    0.000    0.000 
#
# Total GULP energy -357638.982754 kJ/mol
# GULP energy per Si atom -5588.109106 kJ/mol
# Density = 1.970813 g / cm^3
# Si number density = 19.753086 Si / 1000 Ang^3
#
#
#
# Elastic Constant Matrix: (Units=GPa)
#
#
# Indices 1 2 3 4 5 6 
#
# 1 52.9396 -7.5134 15.6606 0.0000 0.0000 0.0000
# 2 -7.5134 49.2649 15.4207 0.0000 0.0000 0.0000
# 3 15.6606 15.4207 19.3393 0.0000 0.0000 0.0000
# 4 0.0000 0.0000 0.0000 33.8717 0.0000 0.0000
# 5 0.0000 0.0000 0.0000 0.0000 33.0499 0.0000
# 6 0.0000 0.0000 0.0000 0.0000 0.0000 10.6925
#
#
#
# Elastic Compliance Matrix: (Units=1/GPa)
#
#
# Indices 1 2 3 4 5 6 
#
# 1 0.033971 0.018379 -0.042164 0.000000 0.000000 0.000000
# 2 0.018379 0.036993 -0.044380 0.000000 0.000000 0.000000
# 3 -0.042164 -0.044380 0.121240 0.000000 0.000000 0.000000
# 4 0.000000 0.000000 0.000000 0.029523 0.000000 0.000000
# 5 0.000000 0.000000 0.000000 0.000000 0.030257 0.000000
# 6 0.000000 0.000000 0.000000 0.000000 0.000000 0.093523
#
#
# Mechanical properties :
#
#
# Convention : Reuss Voigt Hill
#
# Bulk Modulus (GPa) = 17.89777 18.74219 18.31998
# Shear Modulus (GPa) = 9.99074 22.05456 16.02265
#
# Velocity S-wave (km/s) = 2.25140 3.34505 2.85115
# Velocity P-wave (km/s) = 3.97980 4.94247 4.48702
#
# Compressibility (1/GPa) = 0.05587288
#
# Stress axis : x y z
#
# Youngs Moduli (GPa) = 29.43699 27.03200 8.24810
#
# Poissons Ratio (x) = -0.49682 0.34777
# Poissons Ratio (y) = -0.54102 0.36605
# Poissons Ratio (z) = 1.24118 1.19969
#
# Static dielectric constant tensor:
#      x y z
#    x 1.725530 0.000000 0.000000 
#    y 0.000000 1.652830 0.000000 
#    z 0.000000 0.000000 1.660470 
# 
# From -- ./inp_files/6906.got.cif
#   From: 2010.05.17/outbox.ucp.g08.bks.cvg/sg58_4_cif.got.tgz:6906.got - 2010.06.11 16:41:41.
