data_PCOD9446301
_publ_section_title
;
Structure prediction by ZEFSAII (Michael W. Deem and Ramdas Pophale) SiO2 
 PCOD9446301
Probable space group: P M M N
;
_chemical_formula_sum "Si O2"
_cell_formula_units_Z 64
_cell_length_a 7.651294
_cell_length_b 16.108897
_cell_length_c 24.570396
_cell_angle_alpha 90.000000
_cell_angle_beta 90.000000
_cell_angle_gamma 90.000000
_cell_volume 3028.397303
_symmetry_space_group_name_H-M "P M M N"
_symmetry_group_IT_number 59
_space_group.IT_coordinate_system_code '2'
_symmetry_cell_setting 'orthorhombic'
loop_
_space_group_symop_operation_xyz
x,y,z
1/2-x,1/2-y,z
1/2+x,-y,-z
-x,1/2+y,-z
-x,-y,-z
1/2+x,1/2+y,-z
1/2-x,y,z
x,1/2-y,z
loop_
_atom_site_type_symbol
_atom_site_label
_atom_site_fract_x
_atom_site_fract_y
_atom_site_fract_z
Si Si1 0.535569 0.158021 0.133090
Si Si2 0.536140 0.342234 0.368420
Si Si3 0.045020 0.841088 0.129260
Si Si4 0.961377 0.903188 0.248464
Si Si5 0.959820 0.999519 0.436476
Si Si6 0.453044 0.994816 0.937012
Si Si7 0.963757 0.842271 0.366903
Si Si8 0.036928 0.595673 0.749544
O O1 0.750000 0.157252 0.133445
O O2 0.481719 0.250000 0.115372
O O3 0.481651 0.140607 0.195317
O O4 0.467241 0.083087 0.095652
O O5 0.750000 0.342753 0.369000
O O6 0.479879 0.250000 0.384839
O O7 0.475826 0.417013 0.406858
O O8 0.481716 0.361920 0.306525
O O9 0.250000 0.837572 0.118065
O O10 0.968649 0.750000 0.116450
O O11 0.019918 0.859620 0.193199
O O12 0.979198 0.919035 0.094774
O O13 0.750000 0.902422 0.247794
O O14 0.017333 0.860648 0.304662
O O15 0.017495 0.999384 0.248834
O O16 0.750000 0.999293 0.430200
O O17 0.024133 0.916859 0.405661
O O18 0.000000 0.000000 0.500000
O O19 0.250000 0.977554 0.935837
O O20 0.500000 0.000000 0.000000
O O21 0.750000 0.843166 0.367339
O O22 0.019630 0.750000 0.383539
O O23 0.250000 0.595881 0.749076
#
# Coordination Sequence:
#
# PCOD9446301 Si02
#       8
#     8   8   8   8   8   8   8   8
#     4   9  17  30  52  83 114 139 167 212 270 330
#     4   9  16  27  47  75 105 133 164 211 265 315
#     4  11  24  40  58  83 116 153 191 232 281 335
#     4  10  17  31  57  86 110 136 175 224 279 336
#     4  10  20  34  50  70  99 134 178 221 262 314
#     4  11  23  40  61  85 114 150 194 237 281 330
#     4   9  17  30  51  77 103 133 171 218 269 323
#     4   9  14  25  49  81 109 132 165 210 265 326
#
# _framework density 21.133289999999999
#
# number of rings (size 3 to 8) (size 9 to 14) (size 15 to 20)
#    0.000    2.250    2.500    1.500    0.000    4.000 
#    0.000    1.875    0.000    1.875    0.000    0.000 
#    0.000    0.000    0.000    0.000    0.000    0.000 
#
# Total GULP energy -357417.441593 kJ/mol
# GULP energy per Si atom -5584.647525 kJ/mol
# Density = 2.108519 g / cm^3
# Si number density = 21.133290 Si / 1000 Ang^3
#
#
#
# Elastic Constant Matrix: (Units=GPa)
#
#
# Indices 1 2 3 4 5 6 
#
# 1 34.6081 1.5005 -0.5537 0.0000 0.0000 0.0000
# 2 1.5005 213.5943 106.1149 0.0000 0.0000 0.0000
# 3 -0.5537 106.1149 169.5707 0.0000 0.0000 0.0000
# 4 0.0000 0.0000 0.0000 5.8212 0.0000 0.0000
# 5 0.0000 0.0000 0.0000 0.0000 20.0636 0.0000
# 6 0.0000 0.0000 0.0000 0.0000 0.0000 2.1463
#
#
#
# Elastic Compliance Matrix: (Units=1/GPa)
#
#
# Indices 1 2 3 4 5 6 
#
# 1 0.028916 -0.000363 0.000321 0.000000 0.000000 0.000000
# 2 -0.000363 0.006799 -0.004256 0.000000 0.000000 0.000000
# 3 0.000321 -0.004256 0.008561 0.000000 0.000000 0.000000
# 4 0.000000 0.000000 0.000000 0.171787 0.000000 0.000000
# 5 0.000000 0.000000 0.000000 0.000000 0.049841 0.000000
# 6 0.000000 0.000000 0.000000 0.000000 0.000000 0.465926
#
#
# Mechanical properties :
#
#
# Convention : Reuss Voigt Hill
#
# Bulk Modulus (GPa) = 28.02549 70.21072 49.11810
# Shear Modulus (GPa) = 6.64613 26.32031 16.48322
#
# Velocity S-wave (km/s) = 1.77530 3.53291 2.79581
# Velocity P-wave (km/s) = 4.18238 7.06660 5.80643
#
# Compressibility (1/GPa) = 0.03568180
#
# Stress axis : x y z
#
# Youngs Moduli (GPa) = 34.58314 147.09056 116.80338
#
# Poissons Ratio (x) = 0.05337 -0.03755
# Poissons Ratio (y) = 0.01255 0.49707
# Poissons Ratio (z) = -0.01112 0.62596
#
# Static dielectric constant tensor:
#      x y z
#    x 1.805330 0.000000 0.000000 
#    y 0.000000 1.785830 0.000000 
#    z 0.000000 0.000000 1.652590 
# 
# From -- ./inp_files/31534.got.cif
#   From: 2010.05.17/outbox.cif.g08.bks.cpg/sg59_16_cif.got.tgz:31534.got - 2010.06.03 14:40:33.
