data_PCOD9446481
_publ_section_title
;
Structure prediction by ZEFSAII (Michael W. Deem and Ramdas Pophale) SiO2 
 PCOD9446481
Probable space group: P M M N
;
_chemical_formula_sum "Si O2"
_cell_formula_units_Z 48
_cell_length_a 21.326572
_cell_length_b 8.686426
_cell_length_c 15.489970
_cell_angle_alpha 90.000000
_cell_angle_beta 90.000000
_cell_angle_gamma 90.000000
_cell_volume 2869.543113
_symmetry_space_group_name_H-M "P M M N"
_symmetry_group_IT_number 59
_space_group.IT_coordinate_system_code '2'
_symmetry_cell_setting 'orthorhombic'
loop_
_space_group_symop_operation_xyz
x,y,z
1/2-x,1/2-y,z
1/2+x,-y,-z
-x,1/2+y,-z
-x,-y,-z
1/2+x,1/2+y,-z
1/2-x,y,z
x,1/2-y,z
loop_
_atom_site_type_symbol
_atom_site_label
_atom_site_fract_x
_atom_site_fract_y
_atom_site_fract_z
Si Si1 0.989857 0.570692 0.241821
Si Si2 0.551098 0.437081 0.932323
Si Si3 0.681745 0.435353 0.383861
Si Si4 0.844600 0.928735 0.198209
Si Si5 0.182043 0.564498 0.987581
Si Si6 0.457386 0.933628 0.575813
O O1 0.003990 0.750000 0.260850
O O2 0.920065 0.564017 0.201795
O O3 0.986140 0.480889 0.331525
O O4 0.034777 0.514083 0.165354
O O5 0.547599 0.250000 0.934079
O O6 0.500000 0.500000 0.000000
O O7 0.620356 0.487279 0.961375
O O8 0.750000 0.487430 0.418913
O O9 0.680820 0.250000 0.387827
O O10 0.678467 0.486440 0.284036
O O11 0.615696 0.490058 0.425084
O O12 0.826156 0.750000 0.201371
O O13 0.822661 0.004930 0.110129
O O14 0.250000 0.516774 0.023539
O O15 0.180202 0.750000 0.986017
O O16 0.456217 0.750000 0.569054
O O17 0.500000 0.000000 0.500000
#
# Coordination Sequence:
#
# PCOD9446481 Si02
#       6
#     8   8   8   8   8   8
#     4   9  18  32  49  71  97 127 165 207 246 288
#     4  10  19  32  50  70  96 130 169 207 242 284
#     4   9  18  32  49  70  98 130 162 195 237 294
#     4  10  18  28  44  69  99 129 162 199 243 291
#     4  10  20  31  44  65  96 133 169 205 246 291
#     4  10  20  34  54  77 100 128 161 201 249 297
#
# _framework density 16.727402000000001
#
# number of rings (size 3 to 8) (size 9 to 14) (size 15 to 20)
#    0.000    2.333    1.667    1.500    0.000    4.667 
#    0.000    0.000    0.000    1.000    0.000    4.667 
#    0.000    0.000    0.000    0.000    0.000    0.000 
#
# Total GULP energy -267526.695937 kJ/mol
# GULP energy per Si atom -5573.472832 kJ/mol
# Density = 1.668933 g / cm^3
# Si number density = 16.727402 Si / 1000 Ang^3
#
#
#
# Elastic Constant Matrix: (Units=GPa)
#
#
# Indices 1 2 3 4 5 6 
#
# 1 153.0582 24.8885 78.5007 0.0000 0.0000 0.0000
# 2 24.8885 12.4602 19.2786 0.0000 0.0000 0.0000
# 3 78.5007 19.2786 87.8022 0.0000 0.0000 0.0000
# 4 0.0000 0.0000 0.0000 23.8432 0.0000 0.0000
# 5 0.0000 0.0000 0.0000 0.0000 9.0904 0.0000
# 6 0.0000 0.0000 0.0000 0.0000 0.0000 17.4618
#
#
#
# Elastic Compliance Matrix: (Units=1/GPa)
#
#
# Indices 1 2 3 4 5 6 
#
# 1 0.013200 -0.012278 -0.009106 0.000000 0.000000 0.000000
# 2 -0.012278 0.132967 -0.018218 0.000000 0.000000 0.000000
# 3 -0.009106 -0.018218 0.023531 0.000000 0.000000 0.000000
# 4 0.000000 0.000000 0.000000 0.041941 0.000000 0.000000
# 5 0.000000 0.000000 0.000000 0.000000 0.110006 0.000000
# 6 0.000000 0.000000 0.000000 0.000000 0.000000 0.057268
#
#
# Mechanical properties :
#
#
# Convention : Reuss Voigt Hill
#
# Bulk Modulus (GPa) = 11.05049 55.40625 33.22837
# Shear Modulus (GPa) = 10.24000 18.78925 14.51462
#
# Velocity S-wave (km/s) = 2.47689 3.35515 2.94890
# Velocity P-wave (km/s) = 3.84715 6.94293 5.61270
#
# Compressibility (1/GPa) = 0.09049373
#
# Stress axis : x y z
#
# Youngs Moduli (GPa) = 75.75620 7.52068 42.49748
#
# Poissons Ratio (x) = 0.09234 0.38699
# Poissons Ratio (y) = 0.93011 0.77423
# Poissons Ratio (z) = 0.68984 0.13701
#
# Static dielectric constant tensor:
#      x y z
#    x 1.622270 0.000000 0.000000 
#    y 0.000000 1.575960 0.000000 
#    z 0.000000 0.000000 1.524520 
# 
# From -- ./inp_files/20696.got.cif
#   From: 2010.05.17/outbox.cif.g08.bks.cpg/sg59_11_cif.got.tgz:20696.got - 2010.06.03 14:40:33.
