data_PCOD9446600
_publ_section_title
;
Structure prediction by ZEFSAII (Michael W. Deem and Ramdas Pophale) SiO2 
 PCOD9446600
Probable space group: P M M N
;
_chemical_formula_sum "Si O2"
_cell_formula_units_Z 64
_cell_length_a 7.814555
_cell_length_b 25.132828
_cell_length_c 15.702018
_cell_angle_alpha 90.000000
_cell_angle_beta 90.000000
_cell_angle_gamma 90.000000
_cell_volume 3083.905646
_symmetry_space_group_name_H-M "P M M N"
_symmetry_group_IT_number 59
_space_group.IT_coordinate_system_code '2'
_symmetry_cell_setting 'orthorhombic'
loop_
_space_group_symop_operation_xyz
x,y,z
1/2-x,1/2-y,z
1/2+x,-y,-z
-x,1/2+y,-z
-x,-y,-z
1/2+x,1/2+y,-z
1/2-x,y,z
x,1/2-y,z
loop_
_atom_site_type_symbol
_atom_site_label
_atom_site_fract_x
_atom_site_fract_y
_atom_site_fract_z
Si Si1 0.539858 0.808647 0.425086
Si Si2 0.545872 0.621154 0.786519
Si Si3 0.440841 0.545851 0.561426
Si Si4 0.042815 0.188581 0.053355
Si Si5 0.452154 0.688797 0.137498
Si Si6 0.442743 0.504059 0.753244
Si Si7 0.948723 0.889382 0.282988
Si Si8 0.057616 0.155977 0.396727
O O1 0.750000 0.811153 0.426393
O O2 0.493579 0.750000 0.390723
O O3 0.480234 0.857046 0.364622
O O4 0.479867 0.812883 0.523304
O O5 0.750000 0.628726 0.781370
O O6 0.481115 0.652276 0.868958
O O7 0.518231 0.557715 0.793975
O O8 0.476901 0.646130 0.696920
O O9 0.500000 0.500000 0.500000
O O10 0.250000 0.564434 0.538922
O O11 0.435554 0.520772 0.654677
O O12 0.562533 0.596255 0.565498
O O13 0.250000 0.187176 0.052625
O O14 0.012616 0.250000 0.856072
O O15 0.981591 0.171614 0.960022
O O16 0.250000 0.687528 0.155482
O O17 0.489870 0.750000 0.933738
O O18 0.543033 0.651459 0.205048
O O19 0.250000 0.498404 0.788285
O O20 0.526527 0.445529 0.748853
O O21 0.750000 0.901824 0.304116
O O22 0.250000 0.177196 0.383901
#
# Coordination Sequence:
#
# PCOD9446600 Si02
#       8
#     8   8   8   8   8   8   8   8
#     4   9  17  29  48  74 102 134 172 211 251 298
#     4   9  18  32  52  78 106 135 167 206 250 296
#     4  10  18  29  46  67  92 125 166 208 247 287
#     4   9  18  34  56  80 104 131 165 205 250 302
#     4  10  21  36  54  78 104 129 163 209 259 307
#     4   9  19  33  49  71 100 134 171 210 251 300
#     4  10  19  33  53  74  98 133 175 213 251 297
#     4   9  17  30  47  70 101 132 163 200 242 290
#
# _framework density 20.752904999999998
#
# number of rings (size 3 to 8) (size 9 to 14) (size 15 to 20)
#    0.000    2.625    0.000    1.875    0.000    5.250 
#    0.000    5.000    0.000    1.125    0.000    3.500 
#    0.000    0.000    0.000    0.000    0.000    0.000 
#
# Total GULP energy -356624.050853 kJ/mol
# GULP energy per Si atom -5572.250795 kJ/mol
# Density = 2.070567 g / cm^3
# Si number density = 20.752905 Si / 1000 Ang^3
#
#
#
# Elastic Constant Matrix: (Units=GPa)
#
#
# Indices 1 2 3 4 5 6 
#
# 1 35.9203 0.3240 -2.3091 0.0000 0.0000 0.0000
# 2 0.3240 90.5238 49.3397 0.0000 0.0000 0.0000
# 3 -2.3091 49.3397 81.5853 0.0000 0.0000 0.0000
# 4 0.0000 0.0000 0.0000 33.4757 0.0000 0.0000
# 5 0.0000 0.0000 0.0000 0.0000 2.4553 0.0000
# 6 0.0000 0.0000 0.0000 0.0000 0.0000 10.8668
#
#
#
# Elastic Compliance Matrix: (Units=1/GPa)
#
#
# Indices 1 2 3 4 5 6 
#
# 1 0.027928 -0.000792 0.001269 0.000000 0.000000 0.000000
# 2 -0.000792 0.016501 -0.010002 0.000000 0.000000 0.000000
# 3 0.001269 -0.010002 0.018342 0.000000 0.000000 0.000000
# 4 0.000000 0.000000 0.000000 0.029872 0.000000 0.000000
# 5 0.000000 0.000000 0.000000 0.000000 0.407286 0.000000
# 6 0.000000 0.000000 0.000000 0.000000 0.000000 0.092023
#
#
# Mechanical properties :
#
#
# Convention : Reuss Voigt Hill
#
# Bulk Modulus (GPa) = 22.87147 33.63763 28.25455
# Shear Modulus (GPa) = 7.99265 20.07120 14.03193
#
# Velocity S-wave (km/s) = 1.96461 3.11328 2.60310
# Velocity P-wave (km/s) = 4.02381 5.40066 4.76226
#
# Compressibility (1/GPa) = 0.04372260
#
# Stress axis : x y z
#
# Youngs Moduli (GPa) = 35.80614 60.60243 54.52079
#
# Poissons Ratio (x) = 0.04798 -0.06920
# Poissons Ratio (y) = 0.02835 0.54529
# Poissons Ratio (z) = -0.04545 0.60612
#
# Static dielectric constant tensor:
#      x y z
#    x 1.805780 0.000000 0.000000 
#    y 0.000000 1.764840 0.000000 
#    z 0.000000 0.000000 0.659800 
# 
# From -- ./inp_files/21443.got.cif
#   From: 2010.05.17/outbox.cif.g08.bks.cpg/sg59_11_cif.got.tgz:21443.got - 2010.06.03 14:40:33.
