data_PCOD9446360
_publ_section_title
;
Structure prediction by ZEFSAII (Michael W. Deem and Ramdas Pophale) SiO2 
 PCOD9446360
Probable space group: P M M N
;
_chemical_formula_sum "Si O2"
_cell_formula_units_Z 64
_cell_length_a 9.004028
_cell_length_b 27.414260
_cell_length_c 17.582589
_cell_angle_alpha 90.000000
_cell_angle_beta 90.000000
_cell_angle_gamma 90.000000
_cell_volume 4340.064548
_symmetry_space_group_name_H-M "P M M N"
_symmetry_group_IT_number 59
_space_group.IT_coordinate_system_code '2'
_symmetry_cell_setting 'orthorhombic'
loop_
_space_group_symop_operation_xyz
x,y,z
1/2-x,1/2-y,z
1/2+x,-y,-z
-x,1/2+y,-z
-x,-y,-z
1/2+x,1/2+y,-z
1/2-x,y,z
x,1/2-y,z
loop_
_atom_site_type_symbol
_atom_site_label
_atom_site_fract_x
_atom_site_fract_y
_atom_site_fract_z
Si Si1 0.428018 0.446687 0.510399
Si Si2 0.928783 0.061259 0.834842
Si Si3 0.427325 0.574250 0.640455
Si Si4 0.427356 0.613747 0.018474
Si Si5 0.077651 0.374508 0.223163
Si Si6 0.429261 0.193458 0.088012
Si Si7 0.427596 0.461632 0.677929
Si Si8 0.077292 0.041961 0.095161
O O1 0.500000 0.500000 0.500000
O O2 0.250000 0.449551 0.502730
O O3 0.496859 0.416432 0.441177
O O4 0.462222 0.434496 0.598283
O O5 0.750000 0.060251 0.828462
O O6 0.997317 0.061436 0.751419
O O7 0.973790 0.010291 0.874949
O O8 0.969994 0.103847 0.893961
O O9 0.250000 0.574430 0.632384
O O10 0.481495 0.611947 0.703974
O O11 0.471204 0.519005 0.667633
O O12 0.250000 0.617600 0.013872
O O13 0.501256 0.659984 0.977706
O O14 0.480247 0.566647 0.970173
O O15 0.250000 0.367259 0.245253
O O16 0.027654 0.329743 0.169711
O O17 0.072390 0.420761 0.166079
O O18 0.250000 0.188889 0.083672
O O19 0.469725 0.250000 0.081837
O O20 0.250000 0.461244 0.687632
O O21 0.250000 0.038584 0.070415
#
# Coordination Sequence:
#
# PCOD9446360 Si02
#       8
#     8   8   8   8   8   8   8   8
#     4   9  17  28  40  57  81 112 150 185 215 248
#     4  10  19  29  41  59  86 118 150 181 216 257
#     4  10  18  27  40  61  86 114 148 181 214 254
#     4  10  20  30  43  65  87 110 143 182 222 263
#     4   9  16  27  45  65  84 111 145 181 218 256
#     4   9  19  36  53  66  84 112 145 180 223 273
#     4   9  18  28  39  58  83 115 152 185 215 245
#     4   9  17  29  42  58  83 118 152 178 213 256
#
# _framework density 14.746325000000001
#
# number of rings (size 3 to 8) (size 9 to 14) (size 15 to 20)
#    0.000    2.625    1.250    3.000    0.000    6.250 
#    0.000    0.000    0.000    0.000    0.000    0.000 
#    0.000    1.000    0.000    9.000    0.000    5.250 
#
# Total GULP energy -356496.129765 kJ/mol
# GULP energy per Si atom -5570.252028 kJ/mol
# Density = 1.471276 g / cm^3
# Si number density = 14.746325 Si / 1000 Ang^3
#
#
#
# Elastic Constant Matrix: (Units=GPa)
#
#
# Indices 1 2 3 4 5 6 
#
# 1 36.6974 22.8872 50.1207 0.0000 0.0000 0.0000
# 2 22.8872 51.4839 50.3397 0.0000 0.0000 0.0000
# 3 50.1207 50.3397 142.7591 0.0000 0.0000 0.0000
# 4 0.0000 0.0000 0.0000 10.6964 0.0000 0.0000
# 5 0.0000 0.0000 0.0000 0.0000 28.5494 0.0000
# 6 0.0000 0.0000 0.0000 0.0000 0.0000 13.1042
#
#
#
# Elastic Compliance Matrix: (Units=1/GPa)
#
#
# Indices 1 2 3 4 5 6 
#
# 1 0.054660 -0.008448 -0.016211 0.000000 0.000000 0.000000
# 2 -0.008448 0.030950 -0.007948 0.000000 0.000000 0.000000
# 3 -0.016211 -0.007948 0.015499 0.000000 0.000000 0.000000
# 4 0.000000 0.000000 0.000000 0.093489 0.000000 0.000000
# 5 0.000000 0.000000 0.000000 0.000000 0.035027 0.000000
# 6 0.000000 0.000000 0.000000 0.000000 0.000000 0.076311
#
#
# Mechanical properties :
#
#
# Convention : Reuss Voigt Hill
#
# Bulk Modulus (GPa) = 27.85909 53.07060 40.46484
# Shear Modulus (GPa) = 13.05090 17.64286 15.34688
#
# Velocity S-wave (km/s) = 2.97817 3.46269 3.22953
# Velocity P-wave (km/s) = 5.54610 7.21485 6.43480
#
# Compressibility (1/GPa) = 0.03589492
#
# Stress axis : x y z
#
# Youngs Moduli (GPa) = 18.29492 32.31004 64.52064
#
# Poissons Ratio (x) = 0.27295 1.04597
# Poissons Ratio (y) = 0.15455 0.51279
# Poissons Ratio (z) = 0.29659 0.25679
#
# Static dielectric constant tensor:
#      x y z
#    x 1.489100 0.000000 0.000000 
#    y 0.000000 1.469130 0.000000 
#    z 0.000000 0.000000 1.512100 
# 
# From -- ./inp_files/26692.got.cif
#   From: 2010.05.17/outbox.cif.g08.bks.cpg/sg59_14_cif.got.tgz:26692.got - 2010.06.03 14:40:33.
