data_PCOD9446400
_publ_section_title
;
Structure prediction by ZEFSAII (Michael W. Deem and Ramdas Pophale) SiO2 
 PCOD9446400
Probable space group: P M M N
;
_chemical_formula_sum "Si O2"
_cell_formula_units_Z 64
_cell_length_a 8.999381
_cell_length_b 22.447621
_cell_length_c 21.061151
_cell_angle_alpha 90.000000
_cell_angle_beta 90.000000
_cell_angle_gamma 90.000000
_cell_volume 4254.661973
_symmetry_space_group_name_H-M "P M M N"
_symmetry_group_IT_number 59
_space_group.IT_coordinate_system_code '2'
_symmetry_cell_setting 'orthorhombic'
loop_
_space_group_symop_operation_xyz
x,y,z
1/2-x,1/2-y,z
1/2+x,-y,-z
-x,1/2+y,-z
-x,-y,-z
1/2+x,1/2+y,-z
1/2-x,y,z
x,1/2-y,z
loop_
_atom_site_type_symbol
_atom_site_label
_atom_site_fract_x
_atom_site_fract_y
_atom_site_fract_z
Si Si1 0.928680 0.027378 0.276102
Si Si2 0.927701 0.680949 0.358765
Si Si3 0.426503 0.601978 0.251890
Si Si4 0.072362 0.435422 0.012373
Si Si5 0.073567 0.461131 0.405284
Si Si6 0.077748 0.945984 0.861328
Si Si7 0.073144 0.419398 0.541894
Si Si8 0.077543 0.409563 0.876521
O O1 0.750000 0.021836 0.277017
O O2 0.970305 0.062566 0.211595
O O3 0.989189 0.055101 0.340893
O O4 0.998132 0.961146 0.270703
O O5 0.750000 0.676567 0.346981
O O6 0.965785 0.750000 0.366939
O O7 0.959361 0.641196 0.420989
O O8 0.012935 0.651057 0.300292
O O9 0.250000 0.596222 0.255731
O O10 0.477661 0.615391 0.179823
O O11 0.250000 0.441536 0.012786
O O12 0.014934 0.417114 0.081701
O O13 0.033723 0.397158 0.949576
O O14 0.000000 0.500000 0.000000
O O15 0.250000 0.462375 0.394262
O O16 0.041999 0.420217 0.466738
O O17 0.017285 0.526683 0.426352
O O18 0.250000 0.929059 0.868333
O O19 0.070705 0.018168 0.869581
O O20 0.250000 0.432349 0.549318
O O21 0.250000 0.392655 0.866693
#
# Coordination Sequence:
#
# PCOD9446400 Si02
#       8
#     8   8   8   8   8   8   8   8
#     4  10  18  28  40  56  81 112 140 170 208 250
#     4  10  20  34  50  63  80 111 142 170 211 260
#     4  11  20  28  41  61  80 102 137 178 213 245
#     4   9  15  22  33  49  70  98 132 166 198 231
#     4  10  18  27  43  65  84 106 136 172 213 251
#     4   8  15  24  34  49  72 102 134 165 199 237
#     4   9  18  31  45  62  84 107 134 170 210 257
#     4   8  15  26  37  50  72 103 134 166 202 241
#
# _framework density 15.042323
#
# number of rings (size 3 to 8) (size 9 to 14) (size 15 to 20)
#    0.000    2.625    1.250    3.750    0.000    6.250 
#    0.000    0.000    0.000    0.000    0.000    0.000 
#    0.000    0.000    0.000    1.125    0.000   20.375 
#
# Total GULP energy -356329.416900 kJ/mol
# GULP energy per Si atom -5567.647139 kJ/mol
# Density = 1.500809 g / cm^3
# Si number density = 15.042323 Si / 1000 Ang^3
#
#
#
# Elastic Constant Matrix: (Units=GPa)
#
#
# Indices 1 2 3 4 5 6 
#
# 1 56.6939 23.8073 62.7405 0.0000 0.0000 0.0000
# 2 23.8073 35.4091 34.4533 0.0000 0.0000 0.0000
# 3 62.7405 34.4533 163.4807 0.0000 0.0000 0.0000
# 4 0.0000 0.0000 0.0000 8.4063 0.0000 0.0000
# 5 0.0000 0.0000 0.0000 0.0000 29.1433 0.0000
# 6 0.0000 0.0000 0.0000 0.0000 0.0000 8.3469
#
#
#
# Elastic Compliance Matrix: (Units=1/GPa)
#
#
# Indices 1 2 3 4 5 6 
#
# 1 0.034922 -0.013132 -0.010635 0.000000 0.000000 0.000000
# 2 -0.013132 0.040465 -0.003488 0.000000 0.000000 0.000000
# 3 -0.010635 -0.003488 0.010933 0.000000 0.000000 0.000000
# 4 0.000000 0.000000 0.000000 0.118958 0.000000 0.000000
# 5 0.000000 0.000000 0.000000 0.000000 0.034313 0.000000
# 6 0.000000 0.000000 0.000000 0.000000 0.000000 0.119806
#
#
# Mechanical properties :
#
#
# Convention : Reuss Voigt Hill
#
# Bulk Modulus (GPa) = 31.43641 55.28734 43.36187
# Shear Modulus (GPa) = 11.77828 18.15147 14.96487
#
# Velocity S-wave (km/s) = 2.80127 3.47752 3.15755
# Velocity P-wave (km/s) = 5.60418 7.27726 6.49482
#
# Compressibility (1/GPa) = 0.03181025
#
# Stress axis : x y z
#
# Youngs Moduli (GPa) = 28.63512 24.71297 91.46247
#
# Poissons Ratio (x) = 0.32453 0.97269
# Poissons Ratio (y) = 0.37604 0.31902
# Poissons Ratio (z) = 0.30453 0.08620
#
# Static dielectric constant tensor:
#      x y z
#    x 1.504280 0.000000 0.000000 
#    y 0.000000 1.453320 0.000000 
#    z 0.000000 0.000000 1.565280 
# 
# From -- ./inp_files/29762.got.cif
#   From: 2010.05.17/outbox.cif.g08.bks.cpg/sg59_15_cif.got.tgz:29762.got - 2010.06.03 14:40:33.
