data_PCOD9446922
_publ_section_title
;
Structure prediction by ZEFSAII (Michael W. Deem and Ramdas Pophale) SiO2 
 PCOD9446922
Probable space group: P M M N
;
_chemical_formula_sum "Si O2"
_cell_formula_units_Z 56
_cell_length_a 7.625167
_cell_length_b 22.353723
_cell_length_c 17.448274
_cell_angle_alpha 90.000000
_cell_angle_beta 90.000000
_cell_angle_gamma 90.000000
_cell_volume 2974.073500
_symmetry_space_group_name_H-M "P M M N"
_symmetry_group_IT_number 59
_space_group.IT_coordinate_system_code '2'
_symmetry_cell_setting 'orthorhombic'
loop_
_space_group_symop_operation_xyz
x,y,z
1/2-x,1/2-y,z
1/2+x,-y,-z
-x,1/2+y,-z
-x,-y,-z
1/2+x,1/2+y,-z
1/2-x,y,z
x,1/2-y,z
loop_
_atom_site_type_symbol
_atom_site_label
_atom_site_fract_x
_atom_site_fract_y
_atom_site_fract_z
Si Si1 0.956518 0.534074 0.377028
Si Si2 0.458704 0.877095 0.808114
Si Si3 0.457421 0.561372 0.046382
Si Si4 0.963358 0.586286 0.531370
Si Si5 0.538522 0.816907 0.647031
Si Si6 0.964927 0.182317 0.037077
Si Si7 0.960271 0.988660 0.208316
O O1 0.750000 0.547699 0.370493
O O2 0.028092 0.576367 0.444711
O O3 0.029581 0.533397 0.290859
O O4 0.977067 0.468418 0.414563
O O5 0.250000 0.881605 0.819860
O O6 0.491216 0.850696 0.724770
O O7 0.521332 0.834235 0.876145
O O8 0.529754 0.944732 0.810639
O O9 0.250000 0.566111 0.041203
O O10 0.507346 0.552078 0.134778
O O11 0.500000 0.500000 0.000000
O O12 0.525758 0.624262 0.011752
O O13 0.750000 0.584067 0.530124
O O14 0.021442 0.646095 0.573364
O O15 0.750000 0.814960 0.643815
O O16 0.469688 0.750000 0.649004
O O17 0.750000 0.183432 0.034173
O O18 0.021871 0.250000 0.016226
O O19 0.750000 0.994312 0.217167
#
# Coordination Sequence:
#
# PCOD9446922 Si02
#       7
#     8   8   8   8   8   8   8
#     4   9  17  30  48  68  93 123 155 198 242 281
#     4  10  18  31  50  71  97 130 165 197 237 295
#     4  11  21  34  53  76 101 131 166 206 251 297
#     4   9  17  29  46  67  91 124 161 193 235 285
#     4  10  20  31  43  66 101 132 160 198 241 289
#     4   9  18  33  51  70  94 127 167 203 237 290
#     4  10  19  32  50  74 102 128 160 204 250 294
#
# _framework density 18.829393
#
# number of rings (size 3 to 8) (size 9 to 14) (size 15 to 20)
#    0.000    2.286    2.857    0.857    0.000    2.000 
#    0.000    0.000    0.000    3.429    0.000    2.000 
#    0.000    0.000    0.000    0.000    0.000    0.000 
#
# Total GULP energy -312215.027285 kJ/mol
# GULP energy per Si atom -5575.268344 kJ/mol
# Density = 1.878654 g / cm^3
# Si number density = 18.829393 Si / 1000 Ang^3
#
#
#
# Elastic Constant Matrix: (Units=GPa)
#
#
# Indices 1 2 3 4 5 6 
#
# 1 19.2976 -4.7521 6.8648 0.0000 0.0000 0.0000
# 2 -4.7521 129.7357 80.4532 0.0000 0.0000 0.0000
# 3 6.8648 80.4532 149.3418 0.0000 0.0000 0.0000
# 4 0.0000 0.0000 0.0000 23.1840 0.0000 0.0000
# 5 0.0000 0.0000 0.0000 0.0000 12.9320 0.0000
# 6 0.0000 0.0000 0.0000 0.0000 0.0000 8.6225
#
#
#
# Elastic Compliance Matrix: (Units=1/GPa)
#
#
# Indices 1 2 3 4 5 6 
#
# 1 0.055080 0.005387 -0.005434 0.000000 0.000000 0.000000
# 2 0.005387 0.012102 -0.006767 0.000000 0.000000 0.000000
# 3 -0.005434 -0.006767 0.010591 0.000000 0.000000 0.000000
# 4 0.000000 0.000000 0.000000 0.043133 0.000000 0.000000
# 5 0.000000 0.000000 0.000000 0.000000 0.077328 0.000000
# 6 0.000000 0.000000 0.000000 0.000000 0.000000 0.115976
#
#
# Mechanical properties :
#
#
# Convention : Reuss Voigt Hill
#
# Bulk Modulus (GPa) = 15.58966 51.50077 33.54522
# Shear Modulus (GPa) = 14.31767 23.33497 18.82632
#
# Velocity S-wave (km/s) = 2.76051 3.52417 3.16545
# Velocity P-wave (km/s) = 4.29627 6.63101 5.58696
#
# Compressibility (1/GPa) = 0.06414507
#
# Stress axis : x y z
#
# Youngs Moduli (GPa) = 18.15555 82.63218 94.41608
#
# Poissons Ratio (x) = -0.44517 0.51307
# Poissons Ratio (y) = -0.09781 0.63892
# Poissons Ratio (z) = 0.09866 0.55918
#
# Static dielectric constant tensor:
#      x y z
#    x 1.637970 0.000000 0.000000 
#    y 0.000000 1.659300 0.000000 
#    z 0.000000 0.000000 1.644770 
# 
# From -- ./inp_files/26074.got.cif
#   From: 2010.05.17/outbox.cif.g08.bks.cpg/sg59_14_cif.got.tgz:26074.got - 2010.06.03 14:40:33.
