data_PCOD9446439
_publ_section_title
;
Structure prediction by ZEFSAII (Michael W. Deem and Ramdas Pophale) SiO2 
 PCOD9446439
Probable space group: P M M N
;
_chemical_formula_sum "Si O2"
_cell_formula_units_Z 64
_cell_length_a 8.744384
_cell_length_b 19.078405
_cell_length_c 27.081764
_cell_angle_alpha 90.000000
_cell_angle_beta 90.000000
_cell_angle_gamma 90.000000
_cell_volume 4518.020883
_symmetry_space_group_name_H-M "P M M N"
_symmetry_group_IT_number 59
_space_group.IT_coordinate_system_code '2'
_symmetry_cell_setting 'orthorhombic'
loop_
_space_group_symop_operation_xyz
x,y,z
1/2-x,1/2-y,z
1/2+x,-y,-z
-x,1/2+y,-z
-x,-y,-z
1/2+x,1/2+y,-z
1/2-x,y,z
x,1/2-y,z
loop_
_atom_site_type_symbol
_atom_site_label
_atom_site_fract_x
_atom_site_fract_y
_atom_site_fract_z
Si Si1 0.066256 0.462602 0.951122
Si Si2 0.933020 0.542124 0.453296
Si Si3 0.565698 0.330864 0.496955
Si Si4 0.433365 0.085483 0.103887
Si Si5 0.564217 0.829300 0.994669
Si Si6 0.434023 0.589548 0.604605
Si Si7 0.567446 0.831423 0.697510
Si Si8 0.566985 0.331677 0.195506
O O1 0.250000 0.467796 0.950695
O O2 0.022905 0.381509 0.960449
O O3 0.998158 0.507847 0.906646
O O4 0.000000 0.500000 0.000000
O O5 0.750000 0.544098 0.456754
O O6 0.973280 0.491561 0.407475
O O7 0.000000 0.500000 0.500000
O O8 0.998650 0.619733 0.460127
O O9 0.750000 0.334107 0.499392
O O10 0.517955 0.250000 0.499979
O O11 0.521648 0.364344 0.443766
O O12 0.250000 0.083042 0.104071
O O13 0.494726 0.120012 0.153577
O O14 0.481984 0.134472 0.057178
O O15 0.750000 0.827106 0.993675
O O16 0.507310 0.750000 0.998761
O O17 0.250000 0.594542 0.609102
O O18 0.510148 0.620549 0.653062
O O19 0.750000 0.835436 0.702015
O O20 0.525764 0.750000 0.686821
O O21 0.492270 0.850052 0.749907
O O22 0.750000 0.336613 0.193976
O O23 0.523635 0.250000 0.186493
#
# Coordination Sequence:
#
# PCOD9446439 Si02
#       8
#     8   8   8   8   8   8   8   8
#     4   9  16  26  40  58  81 108 139 174 209 247
#     4   9  17  28  41  58  81 109 140 173 208 246
#     4   9  17  28  42  61  85 112 141 173 209 248
#     4  10  18  28  43  60  82 112 142 172 206 246
#     4   8  14  24  39  59  81 107 138 170 204 240
#     4   9  17  29  43  58  80 111 142 171 206 245
#     4  10  20  31  43  61  83 107 138 174 208 243
#     4  10  20  32  45  61  82 108 138 173 210 245
#
# _framework density 14.165494000000001
#
# number of rings (size 3 to 8) (size 9 to 14) (size 15 to 20)
#    0.000    2.750    0.000    4.125    0.000    5.250 
#    0.000    0.000    0.000    7.500    0.000    0.000 
#    0.000    1.000    0.000    5.250    0.000    4.250 
#
# Total GULP energy -356377.963907 kJ/mol
# GULP energy per Si atom -5568.405686 kJ/mol
# Density = 1.413325 g / cm^3
# Si number density = 14.165494 Si / 1000 Ang^3
#
#
#
# Elastic Constant Matrix: (Units=GPa)
#
#
# Indices 1 2 3 4 5 6 
#
# 1 34.2927 32.0972 31.9891 0.0000 0.0000 0.0000
# 2 32.0972 118.0229 61.0049 0.0000 0.0000 0.0000
# 3 31.9891 61.0049 86.7585 0.0000 0.0000 0.0000
# 4 0.0000 0.0000 0.0000 28.1386 0.0000 0.0000
# 5 0.0000 0.0000 0.0000 0.0000 22.1388 0.0000
# 6 0.0000 0.0000 0.0000 0.0000 0.0000 20.6678
#
#
#
# Elastic Compliance Matrix: (Units=1/GPa)
#
#
# Indices 1 2 3 4 5 6 
#
# 1 0.047014 -0.006010 -0.013109 0.000000 0.000000 0.000000
# 2 -0.006010 0.014079 -0.007684 0.000000 0.000000 0.000000
# 3 -0.013109 -0.007684 0.021763 0.000000 0.000000 0.000000
# 4 0.000000 0.000000 0.000000 0.035538 0.000000 0.000000
# 5 0.000000 0.000000 0.000000 0.000000 0.045170 0.000000
# 6 0.000000 0.000000 0.000000 0.000000 0.000000 0.048384
#
#
# Mechanical properties :
#
#
# Convention : Reuss Voigt Hill
#
# Bulk Modulus (GPa) = 34.18738 54.36182 44.27460
# Shear Modulus (GPa) = 18.16176 21.78792 19.97484
#
# Velocity S-wave (km/s) = 3.58454 3.92611 3.75921
# Velocity P-wave (km/s) = 6.42796 7.68193 7.08275
#
# Compressibility (1/GPa) = 0.02925056
#
# Stress axis : x y z
#
# Youngs Moduli (GPa) = 21.27017 71.02718 45.95044
#
# Poissons Ratio (x) = 0.42688 0.60235
# Poissons Ratio (y) = 0.12784 0.35308
# Poissons Ratio (z) = 0.27883 0.54576
#
# Static dielectric constant tensor:
#      x y z
#    x 1.473930 0.000000 0.000000 
#    y 0.000000 1.503880 0.000000 
#    z 0.000000 0.000000 1.448840 
# 
# From -- ./inp_files/31771.got.cif
#   From: 2010.05.17/outbox.cif.g08.bks.cpg/sg59_16_cif.got.tgz:31771.got - 2010.06.03 14:40:33.
