data_PCOD9446101
_publ_section_title
;
Structure prediction by ZEFSAII (Michael W. Deem and Ramdas Pophale) SiO2 
 PCOD9446101
Probable space group: P N N M
;
_chemical_formula_sum "Si O2"
_cell_formula_units_Z 64
_cell_length_a 24.000000
_cell_length_b 15.000000
_cell_length_c 9.000000
_cell_angle_alpha 90.000000
_cell_angle_beta 90.000000
_cell_angle_gamma 90.000000
_cell_volume 3240.000000
_symmetry_space_group_name_H-M "P N N M"
_symmetry_group_IT_number 58
_symmetry_cell_setting 'orthorhombic'
loop_
_space_group_symop_operation_xyz
x,y,z
-x,-y,z
1/2+x,1/2-y,1/2-z
1/2-x,1/2+y,1/2-z
-x,-y,-z
x,y,-z
1/2-x,1/2+y,1/2+z
1/2+x,1/2-y,1/2+z
loop_
_atom_site_type_symbol
_atom_site_label
_atom_site_fract_x
_atom_site_fract_y
_atom_site_fract_z
Si Si1 0.091365 0.969939 0.320384
Si Si2 0.290156 0.443945 0.322113
Si Si3 0.299661 0.814072 0.678822
Si Si4 0.592196 0.080180 0.324277
Si Si5 0.493588 0.171023 0.178055
Si Si6 0.240114 0.637080 0.677645
Si Si7 0.122237 0.625879 0.824773
Si Si8 0.021968 0.134268 0.679615
O O1 0.098061 0.968441 0.500000
O O2 0.071453 0.068951 0.271139
O O3 0.147938 0.939722 0.244227
O O4 0.038023 0.908614 0.282791
O O5 0.291920 0.435201 0.500000
O O6 0.249224 0.371565 0.252018
O O7 0.263872 0.540278 0.283655
O O8 0.297307 0.825457 0.500000
O O9 0.359633 0.851512 0.726792
O O10 0.285704 0.712061 0.714592
O O11 0.581583 0.092987 0.500000
O O12 0.534869 0.095439 0.238189
O O13 0.616022 0.980936 0.304421
O O14 0.431753 0.166045 0.244336
O O15 0.521792 0.264090 0.228276
O O16 0.490397 0.168278 0.000000
O O17 0.230613 0.639754 0.500000
O O18 0.181291 0.654516 0.757082
O O19 0.120431 0.645441 0.000000
O O20 0.024410 0.133302 0.500000
#
# Coordination Sequence:
#
# PCOD9446101 Si02
#       8
#     8   8   8   8   8   8   8   8
#     4   9  18  37  62  81 112 158 198 230 278 347
#     4  11  23  38  59  93 125 149 190 250 302 344
#     4  10  22  42  64  85 116 164 203 235 291 361
#     4  10  22  41  62  84 113 152 198 240 287 352
#     4  11  23  37  59  89 118 150 192 243 297 346
#     4  10  23  41  62  87 120 158 198 243 295 351
#     4  11  23  41  62  85 115 152 196 243 291 349
#     4   8  18  37  58  84 113 151 198 238 276 339
#
# _framework density 19.753086
#
# number of rings (size 3 to 8) (size 9 to 14) (size 15 to 20)
#    0.000    2.000    1.250    2.250    3.500    4.000 
#    0.000    2.500    0.000    0.000    0.000    0.000 
#    0.000    0.000    0.000    0.000    0.000    0.000 
#
# Total GULP energy -357487.650817 kJ/mol
# GULP energy per Si atom -5585.744544 kJ/mol
# Density = 1.970813 g / cm^3
# Si number density = 19.753086 Si / 1000 Ang^3
#
#
#
# Elastic Constant Matrix: (Units=GPa)
#
#
# Indices 1 2 3 4 5 6 
#
# 1 49.1581 -14.2108 -1.2221 0.0000 0.0000 0.0000
# 2 -14.2108 45.8834 8.0201 0.0000 0.0000 0.0000
# 3 -1.2221 8.0201 13.7327 0.0000 0.0000 0.0000
# 4 0.0000 0.0000 0.0000 12.2196 0.0000 0.0000
# 5 0.0000 0.0000 0.0000 0.0000 30.4222 0.0000
# 6 0.0000 0.0000 0.0000 0.0000 0.0000 187.3164
#
#
#
# Elastic Compliance Matrix: (Units=1/GPa)
#
#
# Indices 1 2 3 4 5 6 
#
# 1 0.022408 0.007341 -0.002293 0.000000 0.000000 0.000000
# 2 0.007341 0.026677 -0.014926 0.000000 0.000000 0.000000
# 3 -0.002293 -0.014926 0.081332 0.000000 0.000000 0.000000
# 4 0.000000 0.000000 0.000000 0.081836 0.000000 0.000000
# 5 0.000000 0.000000 0.000000 0.000000 0.032871 0.000000
# 6 0.000000 0.000000 0.000000 0.000000 0.000000 0.005339
#
#
# Mechanical properties :
#
#
# Convention : Reuss Voigt Hill
#
# Bulk Modulus (GPa) = 9.03673 10.43873 9.73773
# Shear Modulus (GPa) = 16.28103 53.73744 35.00923
#
# Velocity S-wave (km/s) = 2.87405 5.22146 4.21449
# Velocity P-wave (km/s) = 3.94947 6.45349 5.35004
#
# Compressibility (1/GPa) = 0.11065950
#
# Stress axis : x y z
#
# Youngs Moduli (GPa) = 44.62767 37.48556 12.29525
#
# Poissons Ratio (x) = -0.27517 0.02819
# Poissons Ratio (y) = -0.32760 0.18352
# Poissons Ratio (z) = 0.10233 0.55953
#
# Static dielectric constant tensor:
#      x y z
#    x 1.645540 0.000000 0.000000 
#    y 0.000000 1.735280 0.000000 
#    z 0.000000 0.000000 1.662500 
# 
# From -- ./inp_files/9994.got.cif
#   From: 2010.05.17/outbox.ucp.g08.bks.cvg/sg58_5_cif.got.tgz:9994.got - 2010.06.11 16:41:41.
