data_PCOD9446647
_publ_section_title
;
Structure prediction by ZEFSAII (Michael W. Deem and Ramdas Pophale) SiO2 
 PCOD9446647
Probable space group: P M M N
;
_chemical_formula_sum "Si O2"
_cell_formula_units_Z 56
_cell_length_a 22.401797
_cell_length_b 7.439380
_cell_length_c 15.193734
_cell_angle_alpha 90.000000
_cell_angle_beta 90.000000
_cell_angle_gamma 90.000000
_cell_volume 2532.119041
_symmetry_space_group_name_H-M "P M M N"
_symmetry_group_IT_number 59
_space_group.IT_coordinate_system_code '2'
_symmetry_cell_setting 'orthorhombic'
loop_
_space_group_symop_operation_xyz
x,y,z
1/2-x,1/2-y,z
1/2+x,-y,-z
-x,1/2+y,-z
-x,-y,-z
1/2+x,1/2+y,-z
1/2-x,y,z
x,1/2-y,z
loop_
_atom_site_type_symbol
_atom_site_label
_atom_site_fract_x
_atom_site_fract_y
_atom_site_fract_z
Si Si1 0.103560 0.529062 0.148096
Si Si2 0.133566 0.970778 0.532080
Si Si3 0.113131 0.545386 0.340928
Si Si4 0.466049 0.034958 0.846929
Si Si5 0.250000 0.529238 0.841917
Si Si6 0.855497 0.042076 0.035195
Si Si7 0.475962 0.540064 0.648709
Si Si8 0.750000 0.030708 0.359613
O O1 0.103878 0.750000 0.149497
O O2 0.124632 0.466396 0.244311
O O3 0.034164 0.475657 0.137578
O O4 0.139414 0.465945 0.062910
O O5 0.131911 0.750000 0.531152
O O6 0.137069 0.034484 0.431486
O O7 0.072033 0.028490 0.578726
O O8 0.190408 0.025063 0.589236
O O9 0.135462 0.750000 0.337663
O O10 0.040908 0.549038 0.350923
O O11 0.464743 0.250000 0.850473
O O12 0.419824 0.965195 0.918331
O O13 0.449813 0.978586 0.747388
O O14 0.250000 0.750000 0.837975
O O15 0.192396 0.467285 0.896605
O O16 0.250000 0.469800 0.741195
O O17 0.838562 0.250000 0.023269
O O18 0.486489 0.750000 0.631323
O O19 0.750000 0.250000 0.359382
#
# Coordination Sequence:
#
# PCOD9446647 Si02
#       8
#     8   8   8   8   4   8   8   4
#     4   8  16  29  46  67  95 123 152 190 236 281
#     4   9  17  28  46  68  94 125 159 194 234 280
#     4   9  17  31  47  69  98 125 152 194 242 284
#     4  10  19  31  47  71  99 127 154 194 245 288
#     4   9  18  30  48  70  94 121 157 201 238 271
#     4  10  18  31  49  69  92 125 162 196 232 280
#     4  10  18  29  47  73  98 126 160 195 233 286
#     4   9  16  28  43  66  94 121 153 193 236 279
#
# _framework density 22.115862
#
# number of rings (size 3 to 8) (size 9 to 14) (size 15 to 20)
#    0.000    2.714    0.000    3.429    0.000    2.286 
#    0.000    4.643    0.000    4.286    0.000    4.000 
#    0.000    0.000    0.000    0.000    0.000    0.000 
#
# Total GULP energy -312700.863072 kJ/mol
# GULP energy per Si atom -5583.943983 kJ/mol
# Density = 2.206553 g / cm^3
# Si number density = 22.115862 Si / 1000 Ang^3
#
#
#
# Elastic Constant Matrix: (Units=GPa)
#
#
# Indices 1 2 3 4 5 6 
#
# 1 43.2875 -0.1345 74.1193 0.0000 0.0000 0.0000
# 2 -0.1345 71.2597 -0.8167 0.0000 0.0000 0.0000
# 3 74.1193 -0.8167 240.3007 0.0000 0.0000 0.0000
# 4 0.0000 0.0000 0.0000 2.6524 0.0000 0.0000
# 5 0.0000 0.0000 0.0000 0.0000 35.2150 0.0000
# 6 0.0000 0.0000 0.0000 0.0000 0.0000 3.7765
#
#
#
# Elastic Compliance Matrix: (Units=1/GPa)
#
#
# Indices 1 2 3 4 5 6 
#
# 1 0.048958 -0.000081 -0.015101 0.000000 0.000000 0.000000
# 2 -0.000081 0.014034 0.000073 0.000000 0.000000 0.000000
# 3 -0.015101 0.000073 0.008820 0.000000 0.000000 0.000000
# 4 0.000000 0.000000 0.000000 0.377010 0.000000 0.000000
# 5 0.000000 0.000000 0.000000 0.000000 0.028397 0.000000
# 6 0.000000 0.000000 0.000000 0.000000 0.000000 0.264796
#
#
# Mechanical properties :
#
#
# Convention : Reuss Voigt Hill
#
# Bulk Modulus (GPa) = 24.04248 55.68713 39.86481
# Shear Modulus (GPa) = 6.36054 27.10744 16.73399
#
# Velocity S-wave (km/s) = 1.69772 3.50480 2.75371
# Velocity P-wave (km/s) = 3.83898 6.45078 5.30803
#
# Compressibility (1/GPa) = 0.04159304
#
# Stress axis : x y z
#
# Youngs Moduli (GPa) = 20.42565 71.25627 113.38455
#
# Poissons Ratio (x) = 0.00575 1.71223
# Poissons Ratio (y) = 0.00165 -0.00823
# Poissons Ratio (z) = 0.30845 -0.00517
#
# Static dielectric constant tensor:
#      x y z
#    x 1.760710 0.000000 0.000000 
#    y 0.000000 1.849200 0.000000 
#    z 0.000000 0.000000 1.819000 
# 
# From -- ./inp_files/24410.got.cif
#   From: 2010.05.17/outbox.cif.g08.bks.cpg/sg59_13_cif.got.tgz:24410.got - 2010.06.03 14:40:33.
