data_PCOD9446502
_publ_section_title
;
Structure prediction by ZEFSAII (Michael W. Deem and Ramdas Pophale) SiO2 
 PCOD9446502
Probable space group: P M M N
;
_chemical_formula_sum "Si O2"
_cell_formula_units_Z 64
_cell_length_a 13.626113
_cell_length_b 18.736915
_cell_length_c 14.863832
_cell_angle_alpha 90.000000
_cell_angle_beta 90.000000
_cell_angle_gamma 90.000000
_cell_volume 3794.904584
_symmetry_space_group_name_H-M "P M M N"
_symmetry_group_IT_number 59
_space_group.IT_coordinate_system_code '2'
_symmetry_cell_setting 'orthorhombic'
loop_
_space_group_symop_operation_xyz
x,y,z
1/2-x,1/2-y,z
1/2+x,-y,-z
-x,1/2+y,-z
-x,-y,-z
1/2+x,1/2+y,-z
1/2-x,y,z
x,1/2-y,z
loop_
_atom_site_type_symbol
_atom_site_label
_atom_site_fract_x
_atom_site_fract_y
_atom_site_fract_z
Si Si1 0.638952 0.164249 0.571708
Si Si2 0.636573 0.565610 0.436161
Si Si3 0.042014 0.164184 0.697373
Si Si4 0.362708 0.336983 0.082902
Si Si5 0.632407 0.672316 0.581128
Si Si6 0.993563 0.667354 0.754618
Si Si7 0.137816 0.336558 0.877618
Si Si8 0.133007 0.588497 0.619902
O O1 0.750000 0.142134 0.597140
O O2 0.636517 0.250000 0.566543
O O3 0.558398 0.142690 0.646139
O O4 0.620462 0.134086 0.471798
O O5 0.750000 0.550078 0.455785
O O6 0.625783 0.625139 0.359632
O O7 0.595574 0.605438 0.523779
O O8 0.594529 0.491052 0.402407
O O9 0.050031 0.250000 0.692205
O O10 0.060623 0.142500 0.800716
O O11 0.250000 0.358211 0.105296
O O12 0.363490 0.250000 0.086115
O O13 0.445279 0.360608 0.153496
O O14 0.383229 0.359145 0.979963
O O15 0.750000 0.672076 0.578092
O O16 0.598877 0.750000 0.543715
O O17 0.594488 0.668340 0.681897
O O18 0.025742 0.750000 0.766743
O O19 0.077324 0.622914 0.704227
O O20 0.250000 0.358743 0.854823
O O21 0.138634 0.250000 0.878979
O O22 0.250000 0.586030 0.638590
#
# Coordination Sequence:
#
# PCOD9446502 Si02
#       8
#     8   8   8   8   8   8   8   8
#     4   9  18  32  47  63  87 121 159 194 223 254
#     4  10  20  31  43  63  92 122 147 178 226 276
#     4  10  18  28  47  72  93 116 149 184 219 264
#     4   8  14  26  45  70  97 119 141 176 225 278
#     4   9  17  28  42  64  93 118 140 172 219 274
#     4  10  18  28  46  67  86 114 152 191 227 261
#     4   8  14  25  43  69  98 121 141 173 219 271
#     4  10  21  34  45  60  86 122 161 194 224 261
#
# _framework density 16.864719000000001
#
# number of rings (size 3 to 8) (size 9 to 14) (size 15 to 20)
#    0.000    2.750    0.000    3.000    0.000    7.500 
#    0.000    0.000    0.000    2.250    0.000    3.500 
#    0.000    0.000    0.000    0.000    0.000    0.000 
#
# Total GULP energy -356303.421666 kJ/mol
# GULP energy per Si atom -5567.240964 kJ/mol
# Density = 1.682633 g / cm^3
# Si number density = 16.864719 Si / 1000 Ang^3
#
#
#
# Elastic Constant Matrix: (Units=GPa)
#
#
# Indices 1 2 3 4 5 6 
#
# 1 59.1407 9.0762 39.1836 0.0000 0.0000 0.0000
# 2 9.0762 18.4347 10.1952 0.0000 0.0000 0.0000
# 3 39.1836 10.1952 103.2162 0.0000 0.0000 0.0000
# 4 0.0000 0.0000 0.0000 -1.8646 0.0000 0.0000
# 5 0.0000 0.0000 0.0000 0.0000 29.6148 0.0000
# 6 0.0000 0.0000 0.0000 0.0000 0.0000 15.1696
#
#
#
# Elastic Compliance Matrix: (Units=1/GPa)
#
#
# Indices 1 2 3 4 5 6 
#
# 1 0.023413 -0.006994 -0.008198 0.000000 0.000000 0.000000
# 2 -0.006994 0.059469 -0.003219 0.000000 0.000000 0.000000
# 3 -0.008198 -0.003219 0.013118 0.000000 0.000000 0.000000
# 4 0.000000 0.000000 0.000000 -0.536297 0.000000 0.000000
# 5 0.000000 0.000000 0.000000 0.000000 0.033767 0.000000
# 6 0.000000 0.000000 0.000000 0.000000 0.000000 0.065921
#
#
# Mechanical properties :
#
#
# Convention : Reuss Voigt Hill
#
# Bulk Modulus (GPa) = 16.89755 33.07796 24.98775
# Shear Modulus (GPa) = -17.60193 16.73972 -0.43110
#
# Velocity S-wave (km/s) = -3.23416 3.15395 -0.50614
# Velocity P-wave (km/s) = 1.97615 5.73755 3.80883
#
# Compressibility (1/GPa) = 0.05918017
#
# Stress axis : x y z
#
# Youngs Moduli (GPa) = 42.71056 16.81544 76.22901
#
# Poissons Ratio (x) = 0.11760 0.62489
# Poissons Ratio (y) = 0.29871 0.24538
# Poissons Ratio (z) = 0.35012 0.05413
#
# Static dielectric constant tensor:
#      x y z
#    x 1.609700 0.000000 0.000000 
#    y 0.000000 1.578290 0.000000 
#    z 0.000000 0.000000 1.576710 
# 
# From -- ./inp_files/23497.got.cif
#   From: 2010.05.17/outbox.cif.g08.bks.cpg/sg59_12_cif.got.tgz:23497.got - 2010.06.03 14:40:33.
