data_PCOD9446336
_publ_section_title
;
Structure prediction by ZEFSAII (Michael W. Deem and Ramdas Pophale) SiO2 
 PCOD9446336
Probable space group: P M M N
;
_chemical_formula_sum "Si O2"
_cell_formula_units_Z 56
_cell_length_a 8.970840
_cell_length_b 22.920669
_cell_length_c 18.315512
_cell_angle_alpha 90.000000
_cell_angle_beta 90.000000
_cell_angle_gamma 90.000000
_cell_volume 3765.992615
_symmetry_space_group_name_H-M "P M M N"
_symmetry_group_IT_number 59
_space_group.IT_coordinate_system_code '2'
_symmetry_cell_setting 'orthorhombic'
loop_
_space_group_symop_operation_xyz
x,y,z
1/2-x,1/2-y,z
1/2+x,-y,-z
-x,1/2+y,-z
-x,-y,-z
1/2+x,1/2+y,-z
1/2-x,y,z
x,1/2-y,z
loop_
_atom_site_type_symbol
_atom_site_label
_atom_site_fract_x
_atom_site_fract_y
_atom_site_fract_z
Si Si1 0.929846 0.317174 0.247186
Si Si2 0.071716 0.437485 0.519312
Si Si3 0.072114 0.966668 0.170061
Si Si4 0.571942 0.968087 0.323245
Si Si5 0.928195 0.899246 0.871836
Si Si6 0.071112 0.599439 0.621226
Si Si7 0.928663 0.561068 0.025910
O O1 0.750000 0.318713 0.244684
O O2 0.978223 0.250000 0.248046
O O3 0.974858 0.351941 0.320412
O O4 0.991912 0.352208 0.178102
O O5 0.250000 0.441120 0.512592
O O6 0.037108 0.429436 0.605026
O O7 0.000000 0.500000 0.500000
O O8 0.005967 0.395444 0.457570
O O9 0.250000 0.962066 0.164869
O O10 0.013802 0.951534 0.250209
O O11 0.996542 0.929155 0.105679
O O12 0.031969 0.035089 0.155284
O O13 0.750000 0.965868 0.310508
O O14 0.535495 0.035474 0.344772
O O15 0.750000 0.893641 0.863774
O O16 0.963508 0.896076 0.958316
O O17 0.250000 0.601080 0.611603
O O18 0.750000 0.555433 0.030179
O O19 0.000000 0.500000 0.000000
#
# Coordination Sequence:
#
# PCOD9446336 Si02
#       7
#     8   8   8   8   8   8   8
#     4  10  20  32  46  63  83 112 150 186 218 252
#     4   9  17  27  40  59  81 109 142 173 210 254
#     4  10  18  26  40  63  86 112 143 171 207 254
#     4   9  16  26  40  59  83 113 142 171 208 250
#     4   9  18  30  42  59  82 110 143 178 215 251
#     4   9  17  29  42  58  81 111 144 178 217 253
#     4   9  17  28  41  59  82 109 141 173 209 253
#
# _framework density 14.869916999999999
#
# number of rings (size 3 to 8) (size 9 to 14) (size 15 to 20)
#    0.000    2.714    1.429    3.000    0.000    6.571 
#    0.000    0.000    0.000    0.000    0.000    0.000 
#    0.000    1.143    0.000    8.571    0.000    4.429 
#
# Total GULP energy -311754.595953 kJ/mol
# GULP energy per Si atom -5567.046356 kJ/mol
# Density = 1.483607 g / cm^3
# Si number density = 14.869917 Si / 1000 Ang^3
#
#
#
# Elastic Constant Matrix: (Units=GPa)
#
#
# Indices 1 2 3 4 5 6 
#
# 1 34.5394 19.2564 56.1575 0.0000 0.0000 0.0000
# 2 19.2564 48.5793 46.3450 0.0000 0.0000 0.0000
# 3 56.1575 46.3450 168.4408 0.0000 0.0000 0.0000
# 4 0.0000 0.0000 0.0000 12.3025 0.0000 0.0000
# 5 0.0000 0.0000 0.0000 0.0000 31.8404 0.0000
# 6 0.0000 0.0000 0.0000 0.0000 0.0000 12.7043
#
#
#
# Elastic Compliance Matrix: (Units=1/GPa)
#
#
# Indices 1 2 3 4 5 6 
#
# 1 0.064882 -0.006891 -0.019735 0.000000 0.000000 0.000000
# 2 -0.006891 0.028643 -0.005583 0.000000 0.000000 0.000000
# 3 -0.019735 -0.005583 0.014053 0.000000 0.000000 0.000000
# 4 0.000000 0.000000 0.000000 0.081285 0.000000 0.000000
# 5 0.000000 0.000000 0.000000 0.000000 0.031407 0.000000
# 6 0.000000 0.000000 0.000000 0.000000 0.000000 0.078713
#
#
# Mechanical properties :
#
#
# Convention : Reuss Voigt Hill
#
# Bulk Modulus (GPa) = 23.17061 55.00858 39.08959
# Shear Modulus (GPa) = 13.23494 20.02281 16.62888
#
# Velocity S-wave (km/s) = 2.98660 3.67349 3.34771
# Velocity P-wave (km/s) = 5.24491 7.42066 6.42555
#
# Compressibility (1/GPa) = 0.04315813
#
# Stress axis : x y z
#
# Youngs Moduli (GPa) = 15.41262 34.91249 71.16046
#
# Poissons Ratio (x) = 0.24058 1.40438
# Poissons Ratio (y) = 0.10621 0.39732
# Poissons Ratio (z) = 0.30417 0.19493
#
# Static dielectric constant tensor:
#      x y z
#    x 1.497220 0.000000 0.000000 
#    y 0.000000 1.462030 0.000000 
#    z 0.000000 0.000000 1.535490 
# 
# From -- ./inp_files/26389.got.cif
#   From: 2010.05.17/outbox.cif.g08.bks.cpg/sg59_14_cif.got.tgz:26389.got - 2010.06.03 14:40:33.
