data_PCOD9446184
_publ_section_title
;
Structure prediction by ZEFSAII (Michael W. Deem and Ramdas Pophale) SiO2 
 PCOD9446184
Probable space group: P M M N
;
_chemical_formula_sum "Si O2"
_cell_formula_units_Z 64
_cell_length_a 7.415290
_cell_length_b 14.886098
_cell_length_c 29.593043
_cell_angle_alpha 90.000000
_cell_angle_beta 90.000000
_cell_angle_gamma 90.000000
_cell_volume 3266.620169
_symmetry_space_group_name_H-M "P M M N"
_symmetry_group_IT_number 59
_space_group.IT_coordinate_system_code '2'
_symmetry_cell_setting 'orthorhombic'
loop_
_space_group_symop_operation_xyz
x,y,z
1/2-x,1/2-y,z
1/2+x,-y,-z
-x,1/2+y,-z
-x,-y,-z
1/2+x,1/2+y,-z
1/2-x,y,z
x,1/2-y,z
loop_
_atom_site_type_symbol
_atom_site_label
_atom_site_fract_x
_atom_site_fract_y
_atom_site_fract_z
Si Si1 0.963118 0.035631 0.386464
Si Si2 0.530792 0.145768 0.472066
Si Si3 0.969710 0.146020 0.199541
Si Si4 0.466712 0.648543 0.426367
Si Si5 0.464473 0.898581 0.984016
Si Si6 0.467623 0.845712 0.080178
Si Si7 0.963885 0.452841 0.111225
Si Si8 0.530031 0.353800 0.301109
O O1 0.750000 0.054555 0.386485
O O2 0.036393 0.082754 0.431936
O O3 0.034064 0.081112 0.340880
O O4 0.985103 0.929339 0.391707
O O5 0.750000 0.140999 0.472826
O O6 0.484520 0.250000 0.463274
O O7 0.469082 0.123149 0.522890
O O8 0.750000 0.142835 0.200091
O O9 0.019074 0.250000 0.191248
O O10 0.034239 0.083437 0.158783
O O11 0.028755 0.121707 0.250320
O O12 0.250000 0.651911 0.428225
O O13 0.529527 0.750000 0.416325
O O14 0.250000 0.880502 0.981363
O O15 0.536010 0.898613 0.932794
O O16 0.532921 0.846654 0.027925
O O17 0.500000 0.000000 0.000000
O O18 0.250000 0.846474 0.078906
O O19 0.524752 0.750000 0.100975
O O20 0.516018 0.940211 0.103269
O O21 0.750000 0.435955 0.111253
O O22 0.750000 0.355578 0.300653
O O23 0.479197 0.250000 0.310057
#
# Coordination Sequence:
#
# PCOD9446184 Si02
#       8
#     8   8   8   8   8   8   8   8
#     4  10  17  25  44  69  86 105 138 177 209 239
#     4   8  14  25  41  62  87 113 140 168 201 246
#     4   8  14  25  42  65  90 111 132 164 208 254
#     4   9  18  31  43  56  82 119 148 169 201 246
#     4   8  14  24  37  55  79 105 134 167 200 235
#     4   9  17  28  41  58  84 117 145 169 203 246
#     4   9  16  26  43  65  85 107 139 176 208 241
#     4   8  14  25  42  66  92 111 129 161 209 259
#
# _framework density 19.592115
#
# number of rings (size 3 to 8) (size 9 to 14) (size 15 to 20)
#    0.000    3.375    0.000    2.250    0.000    2.500 
#    0.000    2.500    0.000    4.125    0.000   10.500 
#    0.000    0.000    0.000    0.000    0.000    0.000 
#
# Total GULP energy -356512.264087 kJ/mol
# GULP energy per Si atom -5570.504126 kJ/mol
# Density = 1.954752 g / cm^3
# Si number density = 19.592115 Si / 1000 Ang^3
#
#
#
# Elastic Constant Matrix: (Units=GPa)
#
#
# Indices 1 2 3 4 5 6 
#
# 1 62.6773 -5.4011 5.7828 0.0000 0.0000 0.0000
# 2 -5.4011 108.9836 101.9136 0.0000 0.0000 0.0000
# 3 5.7828 101.9136 161.4394 0.0000 0.0000 0.0000
# 4 0.0000 0.0000 0.0000 31.9000 0.0000 0.0000
# 5 0.0000 0.0000 0.0000 0.0000 -0.1695 0.0000
# 6 0.0000 0.0000 0.0000 0.0000 0.0000 0.4976
#
#
#
# Elastic Compliance Matrix: (Units=1/GPa)
#
#
# Indices 1 2 3 4 5 6 
#
# 1 0.016492 0.003344 -0.002701 0.000000 0.000000 0.000000
# 2 0.003344 0.023076 -0.014687 0.000000 0.000000 0.000000
# 3 -0.002701 -0.014687 0.015563 0.000000 0.000000 0.000000
# 4 0.000000 0.000000 0.000000 0.031348 0.000000 0.000000
# 5 0.000000 0.000000 0.000000 0.000000 -5.898463 0.000000
# 6 0.000000 0.000000 0.000000 0.000000 0.000000 2.009569
#
#
# Mechanical properties :
#
#
# Convention : Reuss Voigt Hill
#
# Bulk Modulus (GPa) = 36.98148 59.74343 48.36245
# Shear Modulus (GPa) = -1.32791 21.83262 10.25235
#
# Velocity S-wave (km/s) = -0.82417 3.34182 2.29003
# Velocity P-wave (km/s) = 4.24394 6.74167 5.63299
#
# Compressibility (1/GPa) = 0.02704056
#
# Stress axis : x y z
#
# Youngs Moduli (GPa) = 60.63511 43.33598 64.25663
#
# Poissons Ratio (x) = -0.14490 0.17359
# Poissons Ratio (y) = -0.20274 0.94373
# Poissons Ratio (z) = 0.16380 0.63647
#
# Static dielectric constant tensor:
#      x y z
#    x 1.769760 0.000000 0.000000 
#    y 0.000000 1.690050 0.000000 
#    z 0.000000 0.000000 1.697410 
# 
# From -- ./inp_files/33205.got.cif
#   From: 2010.05.17/outbox.cif.g08.bks.cpg/sg59_17_cif.got.tgz:33205.got - 2010.06.03 14:40:33.
