data_PCOD9446684
_publ_section_title
;
Structure prediction by ZEFSAII (Michael W. Deem and Ramdas Pophale) SiO2 
 PCOD9446684
Probable space group: P M M N
;
_chemical_formula_sum "Si O2"
_cell_formula_units_Z 48
_cell_length_a 30.046264
_cell_length_b 13.432788
_cell_length_c 7.745015
_cell_angle_alpha 90.000000
_cell_angle_beta 90.000000
_cell_angle_gamma 90.000000
_cell_volume 3125.927511
_symmetry_space_group_name_H-M "P M M N"
_symmetry_group_IT_number 59
_space_group.IT_coordinate_system_code '2'
_symmetry_cell_setting 'orthorhombic'
loop_
_space_group_symop_operation_xyz
x,y,z
1/2-x,1/2-y,z
1/2+x,-y,-z
-x,1/2+y,-z
-x,-y,-z
1/2+x,1/2+y,-z
1/2-x,y,z
x,1/2-y,z
loop_
_atom_site_type_symbol
_atom_site_label
_atom_site_fract_x
_atom_site_fract_y
_atom_site_fract_z
Si Si1 0.525000 0.133686 0.150904
Si Si2 0.642586 0.867271 0.988805
Si Si3 0.127045 0.131816 0.613450
Si Si4 0.563132 0.004018 0.853995
Si Si5 0.052217 0.976329 0.527543
Si Si6 0.700351 0.630070 0.668481
O O1 0.516141 0.250000 0.137747
O O2 0.551993 0.106853 0.324810
O O3 0.479105 0.071055 0.154378
O O4 0.551596 0.090351 0.988245
O O5 0.631230 0.750000 0.962342
O O6 0.684338 0.888827 0.864435
O O7 0.603591 0.937698 0.920726
O O8 0.646940 0.881511 0.194226
O O9 0.118094 0.250000 0.589503
O O10 0.162564 0.098399 0.468311
O O11 0.081504 0.069619 0.594255
O O12 0.570325 0.046848 0.662683
O O13 0.000000 0.000000 0.500000
O O14 0.750000 0.590882 0.635422
O O15 0.702210 0.750000 0.649550
#
# Coordination Sequence:
#
# PCOD9446684 Si02
#       6
#     8   8   8   8   8   8
#     4  10  21  34  47  69 100 129 164 208 249 280
#     4  10  18  29  49  72  97 131 166 200 241 289
#     4  10  19  31  49  72 101 138 169 201 246 297
#     4  10  19  33  50  70  95 132 168 201 237 295
#     4  10  20  32  47  70  98 132 172 209 238 288
#     4   9  18  31  47  71 102 133 164 201 247 300
#
# _framework density 15.355441000000001
#
# number of rings (size 3 to 8) (size 9 to 14) (size 15 to 20)
#    0.000    2.167    3.333    0.500    0.000    4.000 
#    0.000    3.333    0.000    0.000    0.000    0.000 
#    0.000    4.000    0.000    0.000    0.000    0.000 
#
# Total GULP energy -267273.247921 kJ/mol
# GULP energy per Si atom -5568.192665 kJ/mol
# Density = 1.532049 g / cm^3
# Si number density = 15.355441 Si / 1000 Ang^3
#
#
#
# Elastic Constant Matrix: (Units=GPa)
#
#
# Indices 1 2 3 4 5 6 
#
# 1 68.5624 13.4788 17.2512 0.0000 0.0000 0.0000
# 2 13.4788 46.8090 32.4511 0.0000 0.0000 0.0000
# 3 17.2512 32.4511 106.0765 0.0000 0.0000 0.0000
# 4 0.0000 0.0000 0.0000 13.9129 0.0000 0.0000
# 5 0.0000 0.0000 0.0000 0.0000 13.4655 0.0000
# 6 0.0000 0.0000 0.0000 0.0000 0.0000 15.1844
#
#
#
# Elastic Compliance Matrix: (Units=1/GPa)
#
#
# Indices 1 2 3 4 5 6 
#
# 1 0.015641 -0.003478 -0.001480 0.000000 0.000000 0.000000
# 2 -0.003478 0.027887 -0.007966 0.000000 0.000000 0.000000
# 3 -0.001480 -0.007966 0.012105 0.000000 0.000000 0.000000
# 4 0.000000 0.000000 0.000000 0.071876 0.000000 0.000000
# 5 0.000000 0.000000 0.000000 0.000000 0.074264 0.000000
# 6 0.000000 0.000000 0.000000 0.000000 0.000000 0.065857
#
#
# Mechanical properties :
#
#
# Convention : Reuss Voigt Hill
#
# Bulk Modulus (GPa) = 33.57253 38.64557 36.10905
# Shear Modulus (GPa) = 16.47958 19.06368 17.77163
#
# Velocity S-wave (km/s) = 3.27954 3.52731 3.40568
# Velocity P-wave (km/s) = 6.02093 6.46616 6.24751
#
# Compressibility (1/GPa) = 0.02978626
#
# Stress axis : x y z
#
# Youngs Moduli (GPa) = 63.93316 35.85865 82.61267
#
# Poissons Ratio (x) = 0.12472 0.12224
# Poissons Ratio (y) = 0.22237 0.65807
# Poissons Ratio (z) = 0.09460 0.28564
#
# Static dielectric constant tensor:
#      x y z
#    x 1.512060 0.000000 0.000000 
#    y 0.000000 1.475570 0.000000 
#    z 0.000000 0.000000 1.558670 
# 
# From -- ./inp_files/12522.got.cif
#   From: 2010.05.17/outbox.cif.g08.bks.cpg/sg59_7_cif.got.tgz:12522.got - 2010.06.03 14:40:33.
