data_PCOD9446290
_publ_section_title
;
Structure prediction by ZEFSAII (Michael W. Deem and Ramdas Pophale) SiO2 
 PCOD9446290
Probable space group: P M M N
;
_chemical_formula_sum "Si O2"
_cell_formula_units_Z 36
_cell_length_a 14.771093
_cell_length_b 7.724587
_cell_length_c 12.521395
_cell_angle_alpha 90.000000
_cell_angle_beta 90.000000
_cell_angle_gamma 90.000000
_cell_volume 1428.698594
_symmetry_space_group_name_H-M "P M M N"
_symmetry_group_IT_number 59
_space_group.IT_coordinate_system_code '2'
_symmetry_cell_setting 'orthorhombic'
loop_
_space_group_symop_operation_xyz
x,y,z
1/2-x,1/2-y,z
1/2+x,-y,-z
-x,1/2+y,-z
-x,-y,-z
1/2+x,1/2+y,-z
1/2-x,y,z
x,1/2-y,z
loop_
_atom_site_type_symbol
_atom_site_label
_atom_site_fract_x
_atom_site_fract_y
_atom_site_fract_z
Si Si1 0.106778 0.044092 0.486434
Si Si2 0.623803 0.436284 0.283247
Si Si3 0.143131 0.546241 0.025010
Si Si4 0.076507 0.550264 0.260846
Si Si5 0.116622 0.250000 0.868913
O O1 0.880698 0.750000 0.512188
O O2 0.148000 0.963250 0.592798
O O3 0.132335 0.972024 0.369898
O O4 0.000000 0.000000 0.500000
O O5 0.654553 0.250000 0.245059
O O6 0.513933 0.440375 0.274140
O O7 0.650327 0.597935 0.213334
O O8 0.250000 0.513959 0.003547
O O9 0.123833 0.750000 0.005499
O O10 0.126924 0.514471 0.151209
O O11 0.090639 0.405151 0.955597
O O12 0.041965 0.750000 0.251819
#
# Coordination Sequence:
#
# PCOD9446290 Si02
#       5
#     8   8   8   8   4
#     4  10  17  30  54  85 123 155 189 229 295 368
#     4  11  21  36  56  90 128 159 191 240 309 371
#     4  10  24  44  63  83 112 159 210 253 297 347
#     4  10  19  36  58  90 122 157 196 245 304 366
#     4  12  23  40  58  86 121 158 202 248 296 352
#
# _framework density 25.197755999999998
#
# number of rings (size 3 to 8) (size 9 to 14) (size 15 to 20)
#    0.000    1.556    2.222    6.333    3.111    0.889 
#    0.000    0.000    0.000    2.667    0.000    3.111 
#    0.000    0.000    0.000    0.000    0.000    0.000 
#
# Total GULP energy -200487.557073 kJ/mol
# GULP energy per Si atom -5569.098808 kJ/mol
# Density = 2.514040 g / cm^3
# Si number density = 25.197756 Si / 1000 Ang^3
#
#
#
# Elastic Constant Matrix: (Units=GPa)
#
#
# Indices 1 2 3 4 5 6 
#
# 1 68.1128 9.9296 5.7225 0.0000 0.0000 0.0000
# 2 9.9296 204.1931 46.4543 0.0000 0.0000 0.0000
# 3 5.7225 46.4543 177.9119 0.0000 0.0000 0.0000
# 4 0.0000 0.0000 0.0000 45.2900 0.0000 0.0000
# 5 0.0000 0.0000 0.0000 0.0000 -10.4294 0.0000
# 6 0.0000 0.0000 0.0000 0.0000 0.0000 -42.1902
#
#
#
# Elastic Compliance Matrix: (Units=1/GPa)
#
#
# Indices 1 2 3 4 5 6 
#
# 1 0.014802 -0.000650 -0.000306 0.000000 0.000000 0.000000
# 2 -0.000650 0.005235 -0.001346 0.000000 0.000000 0.000000
# 3 -0.000306 -0.001346 0.005982 0.000000 0.000000 0.000000
# 4 0.000000 0.000000 0.000000 0.022080 0.000000 0.000000
# 5 0.000000 0.000000 0.000000 0.000000 -0.095883 0.000000
# 6 0.000000 0.000000 0.000000 0.000000 0.000000 -0.023702
#
#
# Mechanical properties :
#
#
# Convention : Reuss Voigt Hill
#
# Bulk Modulus (GPa) = 46.69781 63.82565 55.26173
# Shear Modulus (GPa) = -83.69225 24.40816 -29.64205
#
# Velocity S-wave (km/s) = -5.76943 3.11571 -3.43356
# Velocity P-wave (km/s) = 5.08025 6.19100 2.50195
#
# Compressibility (1/GPa) = 0.02141428
#
# Stress axis : x y z
#
# Youngs Moduli (GPa) = 67.55824 191.01600 167.16612
#
# Poissons Ratio (x) = 0.12418 0.05121
# Poissons Ratio (y) = 0.04392 0.22501
# Poissons Ratio (z) = 0.02070 0.25711
#
# Static dielectric constant tensor:
#      x y z
#    x 2.169630 0.000000 0.000000 
#    y 0.000000 1.892300 0.000000 
#    z 0.000000 0.000000 2.039070 
# 
# From -- ./inp_files/18103.got.cif
#   From: 2010.05.17/outbox.cif.g08.bks.cpg/sg59_10_cif.got.tgz:18103.got - 2010.06.03 14:40:33.
