data_PCOD9446793
_publ_section_title
;
Structure prediction by ZEFSAII (Michael W. Deem and Ramdas Pophale) SiO2 
 PCOD9446793
Probable space group: P M M N
;
_chemical_formula_sum "Si O2"
_cell_formula_units_Z 64
_cell_length_a 9.180210
_cell_length_b 19.187817
_cell_length_c 20.106841
_cell_angle_alpha 90.000000
_cell_angle_beta 90.000000
_cell_angle_gamma 90.000000
_cell_volume 3541.783639
_symmetry_space_group_name_H-M "P M M N"
_symmetry_group_IT_number 59
_space_group.IT_coordinate_system_code '2'
_symmetry_cell_setting 'orthorhombic'
loop_
_space_group_symop_operation_xyz
x,y,z
1/2-x,1/2-y,z
1/2+x,-y,-z
-x,1/2+y,-z
-x,-y,-z
1/2+x,1/2+y,-z
1/2-x,y,z
x,1/2-y,z
loop_
_atom_site_type_symbol
_atom_site_label
_atom_site_fract_x
_atom_site_fract_y
_atom_site_fract_z
Si Si1 0.581618 0.567404 0.414851
Si Si2 0.578378 0.462289 0.717699
Si Si3 0.574544 0.570010 0.142089
Si Si4 0.582812 0.402695 0.455192
Si Si5 0.923345 0.827011 0.814988
Si Si6 0.580321 0.624405 0.673887
Si Si7 0.074474 0.831561 0.044289
Si Si8 0.075486 0.575703 0.917810
O O1 0.750000 0.586900 0.406179
O O2 0.492893 0.574777 0.346460
O O3 0.578347 0.485088 0.435063
O O4 0.508048 0.605431 0.477345
O O5 0.750000 0.446281 0.724256
O O6 0.494017 0.445121 0.785603
O O7 0.566508 0.544730 0.700505
O O8 0.750000 0.573728 0.146448
O O9 0.506148 0.638411 0.108845
O O10 0.534215 0.504813 0.093376
O O11 0.750000 0.383655 0.465843
O O12 0.513602 0.365232 0.391694
O O13 0.750000 0.841052 0.819769
O O14 0.952417 0.750000 0.841989
O O15 0.960881 0.830068 0.737294
O O16 0.011093 0.883532 0.855287
O O17 0.750000 0.635602 0.657556
O O18 0.250000 0.837887 0.051884
O O19 0.042010 0.750000 0.032007
O O20 0.027925 0.881218 0.982783
O O21 0.250000 0.578598 0.916677
#
# Coordination Sequence:
#
# PCOD9446793 Si02
#       8
#     8   8   8   8   8   8   8   8
#     4   9  16  26  41  65  98 131 166 211 259 309
#     4  10  18  30  49  72 102 138 173 213 261 314
#     4  11  22  35  55  83 110 139 176 220 268 319
#     4   9  16  25  40  63  92 130 171 211 256 310
#     4  10  20  33  50  74 104 140 182 225 270 321
#     4   9  17  29  44  65  96 135 174 216 263 310
#     4  10  22  40  59  79 106 141 178 217 265 320
#     4  10  21  37  57  80 107 139 176 218 266 321
#
# _framework density 18.069990000000001
#
# number of rings (size 3 to 8) (size 9 to 14) (size 15 to 20)
#    0.000    2.250    1.250    2.250    0.000    6.000 
#    0.000    0.000    0.000    0.000    0.000    0.875 
#    0.000    5.000    0.000    0.000    0.000    0.000 
#
# Total GULP energy -356929.398554 kJ/mol
# GULP energy per Si atom -5577.021852 kJ/mol
# Density = 1.802886 g / cm^3
# Si number density = 18.069990 Si / 1000 Ang^3
#
#
#
# Elastic Constant Matrix: (Units=GPa)
#
#
# Indices 1 2 3 4 5 6 
#
# 1 55.6051 21.7057 47.7929 0.0000 0.0000 0.0000
# 2 21.7057 41.7090 35.3509 0.0000 0.0000 0.0000
# 3 47.7929 35.3509 108.0860 0.0000 0.0000 0.0000
# 4 0.0000 0.0000 0.0000 9.2450 0.0000 0.0000
# 5 0.0000 0.0000 0.0000 0.0000 35.4134 0.0000
# 6 0.0000 0.0000 0.0000 0.0000 0.0000 10.8906
#
#
#
# Elastic Compliance Matrix: (Units=1/GPa)
#
#
# Indices 1 2 3 4 5 6 
#
# 1 0.030077 -0.006060 -0.011317 0.000000 0.000000 0.000000
# 2 -0.006060 0.034392 -0.008569 0.000000 0.000000 0.000000
# 3 -0.011317 -0.008569 0.017058 0.000000 0.000000 0.000000
# 4 0.000000 0.000000 0.000000 0.108166 0.000000 0.000000
# 5 0.000000 0.000000 0.000000 0.000000 0.028238 0.000000
# 6 0.000000 0.000000 0.000000 0.000000 0.000000 0.091822
#
#
# Mechanical properties :
#
#
# Convention : Reuss Voigt Hill
#
# Bulk Modulus (GPa) = 33.74367 46.12211 39.93289
# Shear Modulus (GPa) = 13.45810 17.81319 15.63565
#
# Velocity S-wave (km/s) = 2.73202 3.14313 2.94476
# Velocity P-wave (km/s) = 5.35409 6.22511 5.80596
#
# Compressibility (1/GPa) = 0.02963518
#
# Stress axis : x y z
#
# Youngs Moduli (GPa) = 33.24829 29.07664 58.62186
#
# Poissons Ratio (x) = 0.17621 0.66343
# Poissons Ratio (y) = 0.20149 0.50231
# Poissons Ratio (z) = 0.37627 0.24915
#
# Static dielectric constant tensor:
#      x y z
#    x 1.600200 0.000000 0.000000 
#    y 0.000000 1.613700 0.000000 
#    z 0.000000 0.000000 1.612630 
# 
# From -- ./inp_files/26359.got.cif
#   From: 2010.05.17/outbox.cif.g08.bks.cpg/sg59_14_cif.got.tgz:26359.got - 2010.06.03 14:40:33.
