data_PCOD9446622
_publ_section_title
;
Structure prediction by ZEFSAII (Michael W. Deem and Ramdas Pophale) SiO2 
 PCOD9446622
Probable space group: P M M N
;
_chemical_formula_sum "Si O2"
_cell_formula_units_Z 56
_cell_length_a 20.068752
_cell_length_b 7.424913
_cell_length_c 18.394619
_cell_angle_alpha 90.000000
_cell_angle_beta 90.000000
_cell_angle_gamma 90.000000
_cell_volume 2740.958956
_symmetry_space_group_name_H-M "P M M N"
_symmetry_group_IT_number 59
_space_group.IT_coordinate_system_code '2'
_symmetry_cell_setting 'orthorhombic'
loop_
_space_group_symop_operation_xyz
x,y,z
1/2-x,1/2-y,z
1/2+x,-y,-z
-x,1/2+y,-z
-x,-y,-z
1/2+x,1/2+y,-z
1/2-x,y,z
x,1/2-y,z
loop_
_atom_site_type_symbol
_atom_site_label
_atom_site_fract_x
_atom_site_fract_y
_atom_site_fract_z
Si Si1 0.327414 0.470564 0.017321
Si Si2 0.425280 0.465717 0.142999
Si Si3 0.941791 0.540949 0.695419
Si Si4 0.427966 0.033922 0.464789
Si Si5 0.578980 0.534512 0.114735
Si Si6 0.094120 0.031563 0.722984
Si Si7 0.824932 0.970169 0.414645
O O1 0.250000 0.526603 0.013594
O O2 0.327076 0.250000 0.016940
O O3 0.367027 0.528826 0.089706
O O4 0.373713 0.531083 0.949858
O O5 0.580314 0.750000 0.852373
O O6 0.421678 0.537278 0.225841
O O7 0.499542 0.498347 0.110657
O O8 0.920768 0.750000 0.696095
O O9 0.921010 0.462590 0.617512
O O10 0.021951 0.531856 0.696394
O O11 0.421360 0.250000 0.459840
O O12 0.373411 0.967443 0.521591
O O13 0.500000 0.000000 0.500000
O O14 0.585214 0.750000 0.114265
O O15 0.602423 0.469552 0.194183
O O16 0.092543 0.250000 0.723916
O O17 0.147912 0.974169 0.664112
O O18 0.750000 0.028228 0.426467
O O19 0.826351 0.750000 0.414984
#
# Coordination Sequence:
#
# PCOD9446622 Si02
#       7
#     8   8   8   8   8   8   8
#     4   9  17  29  45  66  92 121 152 186 224 265
#     4   9  17  30  47  66  90 119 150 185 226 268
#     4   9  17  28  44  67  89 111 145 186 223 260
#     4  10  18  29  47  67  88 115 149 186 222 261
#     4   9  17  28  46  70  91 113 149 190 224 261
#     4   9  16  27  44  66  88 113 145 180 221 266
#     4   9  17  28  42  63  91 118 143 177 223 268
#
# _framework density 20.430804999999999
#
# number of rings (size 3 to 8) (size 9 to 14) (size 15 to 20)
#    0.000    2.857    1.429    0.429    0.000    0.571 
#    0.000    3.571    0.000    7.714    0.000    4.000 
#    0.000    3.429    0.000    0.000    0.000    0.000 
#
# Total GULP energy -312335.850700 kJ/mol
# GULP energy per Si atom -5577.425905 kJ/mol
# Density = 2.038430 g / cm^3
# Si number density = 20.430805 Si / 1000 Ang^3
#
#
#
# Elastic Constant Matrix: (Units=GPa)
#
#
# Indices 1 2 3 4 5 6 
#
# 1 121.6268 0.1664 96.3012 0.0000 0.0000 0.0000
# 2 0.1664 67.2669 8.1785 0.0000 0.0000 0.0000
# 3 96.3012 8.1785 161.7536 0.0000 0.0000 0.0000
# 4 0.0000 0.0000 0.0000 4.6865 0.0000 0.0000
# 5 0.0000 0.0000 0.0000 0.0000 23.5726 0.0000
# 6 0.0000 0.0000 0.0000 0.0000 0.0000 15.5648
#
#
#
# Elastic Compliance Matrix: (Units=1/GPa)
#
#
# Indices 1 2 3 4 5 6 
#
# 1 0.015634 0.001100 -0.009364 0.000000 0.000000 0.000000
# 2 0.001100 0.015035 -0.001415 0.000000 0.000000 0.000000
# 3 -0.009364 -0.001415 0.011828 0.000000 0.000000 0.000000
# 4 0.000000 0.000000 0.000000 0.213377 0.000000 0.000000
# 5 0.000000 0.000000 0.000000 0.000000 0.042422 0.000000
# 6 0.000000 0.000000 0.000000 0.000000 0.000000 0.064247
#
#
# Mechanical properties :
#
#
# Convention : Reuss Voigt Hill
#
# Bulk Modulus (GPa) = 43.21405 62.21549 52.71477
# Shear Modulus (GPa) = 12.83317 25.16489 18.99903
#
# Velocity S-wave (km/s) = 2.50897 3.51338 3.05277
# Velocity P-wave (km/s) = 5.43972 6.85393 6.18737
#
# Compressibility (1/GPa) = 0.02314062
#
# Stress axis : x y z
#
# Youngs Moduli (GPa) = 63.96237 66.50944 84.54205
#
# Poissons Ratio (x) = -0.07315 0.79161
# Poissons Ratio (y) = -0.07034 0.11962
# Poissons Ratio (z) = 0.59891 0.09411
#
# Static dielectric constant tensor:
#      x y z
#    x 1.667100 0.000000 0.000000 
#    y 0.000000 1.817070 0.000000 
#    z 0.000000 0.000000 1.756560 
# 
# From -- ./inp_files/28063.got.cif
#   From: 2010.05.17/outbox.cif.g08.bks.cpg/sg59_15_cif.got.tgz:28063.got - 2010.06.03 14:40:33.
