data_PCOD9446693
_publ_section_title
;
Structure prediction by ZEFSAII (Michael W. Deem and Ramdas Pophale) SiO2 
 PCOD9446693
Probable space group: P M M N
;
_chemical_formula_sum "Si O2"
_cell_formula_units_Z 48
_cell_length_a 15.042420
_cell_length_b 7.415664
_cell_length_c 18.731122
_cell_angle_alpha 90.000000
_cell_angle_beta 90.000000
_cell_angle_gamma 90.000000
_cell_volume 2089.447902
_symmetry_space_group_name_H-M "P M M N"
_symmetry_group_IT_number 59
_space_group.IT_coordinate_system_code '2'
_symmetry_cell_setting 'orthorhombic'
loop_
_space_group_symop_operation_xyz
x,y,z
1/2-x,1/2-y,z
1/2+x,-y,-z
-x,1/2+y,-z
-x,-y,-z
1/2+x,1/2+y,-z
1/2-x,y,z
x,1/2-y,z
loop_
_atom_site_type_symbol
_atom_site_label
_atom_site_fract_x
_atom_site_fract_y
_atom_site_fract_z
Si Si1 0.850776 0.970361 0.614024
Si Si2 0.896706 0.036547 0.017907
Si Si3 0.045678 0.529215 0.834657
Si Si4 0.350633 0.466592 0.547782
Si Si5 0.973711 0.037669 0.318194
Si Si6 0.845214 0.956051 0.864598
O O1 0.750000 0.026756 0.629951
O O2 0.850752 0.750000 0.614904
O O3 0.874026 0.026113 0.532589
O O4 0.927817 0.035477 0.666148
O O5 0.877919 0.250000 0.015738
O O6 0.892007 0.970335 0.099651
O O7 0.846268 0.953943 0.951053
O O8 0.000000 0.000000 0.000000
O O9 0.045471 0.750000 0.840930
O O10 0.070456 0.471124 0.754891
O O11 0.942329 0.468828 0.844472
O O12 0.250000 0.528713 0.562570
O O13 0.349394 0.250000 0.545513
O O14 0.416118 0.517965 0.610762
O O15 0.985276 0.250000 0.306293
O O16 0.750000 0.036578 0.841686
O O17 0.845870 0.750000 0.837842
#
# Coordination Sequence:
#
# PCOD9446693 Si02
#       6
#     8   8   8   8   8   8
#     4   8  15  28  47  71  96 122 154 192 233 279
#     4   9  16  29  47  64  86 116 149 182 218 263
#     4   8  16  29  44  66  94 119 143 180 232 278
#     4   9  18  33  49  65  91 126 160 195 237 281
#     4  10  18  29  49  74  96 121 157 196 233 278
#     4   9  17  30  48  69  92 118 150 188 228 273
#
# _framework density 22.972574000000002
#
# number of rings (size 3 to 8) (size 9 to 14) (size 15 to 20)
#    0.000    3.167    0.000    3.000    0.000    1.333 
#    0.000    8.333    0.000    6.500    0.000    0.000 
#    0.000    0.000    0.000    0.000    0.000    0.000 
#
# Total GULP energy -267570.301674 kJ/mol
# GULP energy per Si atom -5574.381285 kJ/mol
# Density = 2.292029 g / cm^3
# Si number density = 22.972574 Si / 1000 Ang^3
#
#
#
# Elastic Constant Matrix: (Units=GPa)
#
#
# Indices 1 2 3 4 5 6 
#
# 1 21.4962 -8.0783 -1.1112 0.0000 0.0000 0.0000
# 2 -8.0783 74.3708 -2.5730 0.0000 0.0000 0.0000
# 3 -1.1112 -2.5730 78.8748 0.0000 0.0000 0.0000
# 4 0.0000 0.0000 0.0000 9.9681 0.0000 0.0000
# 5 0.0000 0.0000 0.0000 0.0000 6.5075 0.0000
# 6 0.0000 0.0000 0.0000 0.0000 0.0000 4.6341
#
#
#
# Elastic Compliance Matrix: (Units=1/GPa)
#
#
# Indices 1 2 3 4 5 6 
#
# 1 0.048558 0.005304 0.000857 0.000000 0.000000 0.000000
# 2 0.005304 0.014041 0.000533 0.000000 0.000000 0.000000
# 3 0.000857 0.000533 0.012708 0.000000 0.000000 0.000000
# 4 0.000000 0.000000 0.000000 0.100320 0.000000 0.000000
# 5 0.000000 0.000000 0.000000 0.000000 0.153668 0.000000
# 6 0.000000 0.000000 0.000000 0.000000 0.000000 0.215790
#
#
# Mechanical properties :
#
#
# Convention : Reuss Voigt Hill
#
# Bulk Modulus (GPa) = 11.27473 16.80186 14.03830
# Shear Modulus (GPa) = 8.90853 16.65558 12.78205
#
# Velocity S-wave (km/s) = 1.97137 2.69554 2.36138
# Velocity P-wave (km/s) = 3.17810 4.12525 3.68225
#
# Compressibility (1/GPa) = 0.08869388
#
# Stress axis : x y z
#
# Youngs Moduli (GPa) = 20.59413 71.22147 78.69200
#
# Poissons Ratio (x) = -0.37776 -0.06745
# Poissons Ratio (y) = -0.10923 -0.04192
# Poissons Ratio (z) = -0.01765 -0.03794
#
# Static dielectric constant tensor:
#      x y z
#    x 1.843860 0.000000 0.000000 
#    y 0.000000 1.910060 0.000000 
#    z 0.000000 0.000000 1.897310 
# 
# From -- ./inp_files/27785.got.cif
#   From: 2010.05.17/outbox.cif.g08.bks.cpg/sg59_14_cif.got.tgz:27785.got - 2010.06.03 14:40:33.
