data_PCOD9446246
_publ_section_title
;
Structure prediction by ZEFSAII (Michael W. Deem and Ramdas Pophale) SiO2 
 PCOD9446246
Probable space group: P M M N
;
_chemical_formula_sum "Si O2"
_cell_formula_units_Z 64
_cell_length_a 8.694814
_cell_length_b 29.395327
_cell_length_c 16.015042
_cell_angle_alpha 90.000000
_cell_angle_beta 90.000000
_cell_angle_gamma 90.000000
_cell_volume 4093.234950
_symmetry_space_group_name_H-M "P M M N"
_symmetry_group_IT_number 59
_space_group.IT_coordinate_system_code '2'
_symmetry_cell_setting 'orthorhombic'
loop_
_space_group_symop_operation_xyz
x,y,z
1/2-x,1/2-y,z
1/2+x,-y,-z
-x,1/2+y,-z
-x,-y,-z
1/2+x,1/2+y,-z
1/2-x,y,z
x,1/2-y,z
loop_
_atom_site_type_symbol
_atom_site_label
_atom_site_fract_x
_atom_site_fract_y
_atom_site_fract_z
Si Si1 0.565978 0.548770 0.402051
Si Si2 0.562671 0.197756 0.501353
Si Si3 0.065973 0.450700 0.402931
Si Si4 0.927301 0.194828 0.009084
Si Si5 0.436202 0.859438 0.335822
Si Si6 0.067037 0.196931 0.184814
Si Si7 0.934241 0.141296 0.338105
Si Si8 0.562170 0.302607 0.825255
O O1 0.750000 0.547827 0.398198
O O2 0.520160 0.556449 0.499505
O O3 0.499898 0.499681 0.377396
O O4 0.501054 0.590275 0.348571
O O5 0.750000 0.198407 0.501374
O O6 0.510316 0.250000 0.501601
O O7 0.515062 0.170846 0.584361
O O8 0.513758 0.171241 0.418157
O O9 0.250000 0.451569 0.398936
O O10 0.001396 0.408956 0.350037
O O11 0.750000 0.180034 0.018832
O O12 0.926502 0.250000 0.005539
O O13 0.986818 0.181013 0.917498
O O14 0.020908 0.182152 0.091238
O O15 0.250000 0.861361 0.336182
O O16 0.485569 0.834494 0.250870
O O17 0.250000 0.195069 0.194228
O O18 0.018109 0.250000 0.194978
O O19 0.988915 0.166122 0.254603
O O20 0.750000 0.139073 0.339617
O O21 0.750000 0.302085 0.827049
O O22 0.514222 0.250000 0.811983
#
# Coordination Sequence:
#
# PCOD9446246 Si02
#       8
#     8   8   8   8   8   8   8   8
#     4  10  20  33  49  68  93 122 157 199 243 283
#     4   9  17  27  41  64  94 127 161 191 220 264
#     4  10  20  34  51  68  90 120 159 202 244 283
#     4   8  14  27  46  67  91 121 159 201 240 275
#     4  10  17  28  47  70  96 126 161 196 233 276
#     4  10  20  32  46  67  96 129 163 199 239 281
#     4  11  20  31  48  70  96 125 160 197 238 284
#     4   8  14  25  45  72  98 125 160 200 236 273
#
# _framework density 15.635555
#
# number of rings (size 3 to 8) (size 9 to 14) (size 15 to 20)
#    0.000    2.500    1.250    3.000    0.000    3.750 
#    0.000    0.625    0.000    3.000    0.000    0.875 
#    0.000    0.000    0.000    0.000    0.000    0.000 
#
# Total GULP energy -356834.996786 kJ/mol
# GULP energy per Si atom -5575.546825 kJ/mol
# Density = 1.559997 g / cm^3
# Si number density = 15.635555 Si / 1000 Ang^3
#
#
#
# Elastic Constant Matrix: (Units=GPa)
#
#
# Indices 1 2 3 4 5 6 
#
# 1 25.1391 28.5670 26.5341 0.0000 0.0000 0.0000
# 2 28.5670 121.6284 71.4428 0.0000 0.0000 0.0000
# 3 26.5341 71.4428 125.2547 0.0000 0.0000 0.0000
# 4 0.0000 0.0000 0.0000 8.4186 0.0000 0.0000
# 5 0.0000 0.0000 0.0000 0.0000 11.5404 0.0000
# 6 0.0000 0.0000 0.0000 0.0000 0.0000 20.4719
#
#
#
# Elastic Compliance Matrix: (Units=1/GPa)
#
#
# Indices 1 2 3 4 5 6 
#
# 1 0.057846 -0.009607 -0.006774 0.000000 0.000000 0.000000
# 2 -0.009607 0.013960 -0.005927 0.000000 0.000000 0.000000
# 3 -0.006774 -0.005927 0.012800 0.000000 0.000000 0.000000
# 4 0.000000 0.000000 0.000000 0.118784 0.000000 0.000000
# 5 0.000000 0.000000 0.000000 0.000000 0.086652 0.000000
# 6 0.000000 0.000000 0.000000 0.000000 0.000000 0.048847
#
#
# Mechanical properties :
#
#
# Convention : Reuss Voigt Hill
#
# Bulk Modulus (GPa) = 25.00752 58.34555 41.67653
# Shear Modulus (GPa) = 12.59965 17.78474 15.19219
#
# Velocity S-wave (km/s) = 2.84180 3.37628 3.12050
# Velocity P-wave (km/s) = 5.17653 7.25231 6.30049
#
# Compressibility (1/GPa) = 0.03998798
#
# Stress axis : x y z
#
# Youngs Moduli (GPa) = 17.28719 71.63456 78.12751
#
# Poissons Ratio (x) = 0.68821 0.52927
# Poissons Ratio (y) = 0.16608 0.46307
# Poissons Ratio (z) = 0.11711 0.42459
#
# Static dielectric constant tensor:
#      x y z
#    x 1.525510 0.000000 0.000000 
#    y 0.000000 1.498600 0.000000 
#    z 0.000000 0.000000 1.522900 
# 
# From -- ./inp_files/21950.got.cif
#   From: 2010.05.17/outbox.cif.g08.bks.cpg/sg59_11_cif.got.tgz:21950.got - 2010.06.03 14:40:33.
