data_PCOD9446867
_publ_section_title
;
Structure prediction by ZEFSAII (Michael W. Deem and Ramdas Pophale) SiO2 
 PCOD9446867
Probable space group: P M M N
;
_chemical_formula_sum "Si O2"
_cell_formula_units_Z 64
_cell_length_a 33.713361
_cell_length_b 9.381219
_cell_length_c 10.992135
_cell_angle_alpha 90.000000
_cell_angle_beta 90.000000
_cell_angle_gamma 90.000000
_cell_volume 3476.509168
_symmetry_space_group_name_H-M "P M M N"
_symmetry_group_IT_number 59
_space_group.IT_coordinate_system_code '2'
_symmetry_cell_setting 'orthorhombic'
loop_
_space_group_symop_operation_xyz
x,y,z
1/2-x,1/2-y,z
1/2+x,-y,-z
-x,1/2+y,-z
-x,-y,-z
1/2+x,1/2+y,-z
1/2-x,y,z
x,1/2-y,z
loop_
_atom_site_type_symbol
_atom_site_label
_atom_site_fract_x
_atom_site_fract_y
_atom_site_fract_z
Si Si1 0.629135 0.080738 0.323260
Si Si2 0.939168 0.581573 0.207180
Si Si3 0.933833 0.585367 0.931497
Si Si4 0.422143 0.586830 0.433183
Si Si5 0.011873 0.082667 0.306887
Si Si6 0.367805 0.914549 0.191639
Si Si7 0.295475 0.080203 0.294109
Si Si8 0.703764 0.580299 0.417346
O O1 0.630942 0.250000 0.298926
O O2 0.604236 0.059611 0.448514
O O3 0.603042 0.994319 0.226504
O O4 0.672237 0.012627 0.343956
O O5 0.937077 0.750000 0.233670
O O6 0.971442 0.503837 0.291150
O O7 0.950958 0.563002 0.065717
O O8 0.920579 0.750000 0.924231
O O9 0.964938 0.565005 0.822139
O O10 0.896382 0.485447 0.907045
O O11 0.437011 0.750000 0.438206
O O12 0.458593 0.481938 0.407349
O O13 0.392832 0.575862 0.317503
O O14 0.004490 0.250000 0.326318
O O15 0.360494 0.750000 0.164710
O O16 0.327313 0.997640 0.214865
O O17 0.250000 0.043191 0.264617
O O18 0.300320 0.250000 0.279254
O O19 0.301409 0.050070 0.438169
O O20 0.750000 0.552207 0.387801
O O21 0.696651 0.750000 0.400269
#
# Coordination Sequence:
#
# PCOD9446867 Si02
#       8
#     8   8   8   8   8   8   8   8
#     4  11  22  36  54  78 111 144 179 220 260 311
#     4  11  23  38  55  76 104 140 180 220 265 314
#     4   9  20  37  56  77 101 134 176 220 265 316
#     4   9  19  34  50  74 107 141 173 209 260 315
#     4  10  20  35  57  81 103 132 173 222 270 314
#     4  10  18  30  51  78 106 136 170 214 263 309
#     4   9  17  29  48  76 109 141 171 206 253 313
#     4   9  18  33  54  80 109 142 178 214 256 309
#
# _framework density 18.409271
#
# number of rings (size 3 to 8) (size 9 to 14) (size 15 to 20)
#    0.000    2.250    1.250    2.625    0.000    4.000 
#    0.000    1.250    0.000    0.750    0.000    5.250 
#    0.000    0.000    0.000    0.000    0.000    0.000 
#
# Total GULP energy -357282.530974 kJ/mol
# GULP energy per Si atom -5582.539546 kJ/mol
# Density = 1.836737 g / cm^3
# Si number density = 18.409271 Si / 1000 Ang^3
#
#
#
# Elastic Constant Matrix: (Units=GPa)
#
#
# Indices 1 2 3 4 5 6 
#
# 1 104.0923 67.5108 6.8477 0.0000 0.0000 0.0000
# 2 67.5108 82.9092 21.4000 0.0000 0.0000 0.0000
# 3 6.8477 21.4000 31.3830 0.0000 0.0000 0.0000
# 4 0.0000 0.0000 0.0000 17.3491 0.0000 0.0000
# 5 0.0000 0.0000 0.0000 0.0000 23.0486 0.0000
# 6 0.0000 0.0000 0.0000 0.0000 0.0000 37.6054
#
#
#
# Elastic Compliance Matrix: (Units=1/GPa)
#
#
# Indices 1 2 3 4 5 6 
#
# 1 0.022325 -0.020536 0.009132 0.000000 0.000000 0.000000
# 2 -0.020536 0.033528 -0.018382 0.000000 0.000000 0.000000
# 3 0.009132 -0.018382 0.042406 0.000000 0.000000 0.000000
# 4 0.000000 0.000000 0.000000 0.057640 0.000000 0.000000
# 5 0.000000 0.000000 0.000000 0.000000 0.043387 0.000000
# 6 0.000000 0.000000 0.000000 0.000000 0.000000 0.026592
#
#
# Mechanical properties :
#
#
# Convention : Reuss Voigt Hill
#
# Bulk Modulus (GPa) = 25.84770 45.54464 35.69617
# Shear Modulus (GPa) = 16.75920 23.77568 20.26744
#
# Velocity S-wave (km/s) = 3.02050 3.59765 3.32164
# Velocity P-wave (km/s) = 5.12208 6.48469 5.84324
#
# Compressibility (1/GPa) = 0.03868816
#
# Stress axis : x y z
#
# Youngs Moduli (GPa) = 44.79318 29.82622 23.58145
#
# Poissons Ratio (x) = 0.61250 -0.21535
# Poissons Ratio (y) = 0.91986 0.43346
# Poissons Ratio (z) = -0.40905 0.54825
#
# Static dielectric constant tensor:
#      x y z
#    x 1.618650 0.000000 0.000000 
#    y 0.000000 1.612530 0.000000 
#    z 0.000000 0.000000 1.646910 
# 
# From -- ./inp_files/19310.got.cif
#   From: 2010.05.17/outbox.cif.g08.bks.cpg/sg59_10_cif.got.tgz:19310.got - 2010.06.03 14:40:33.
