data_PCOD9446551
_publ_section_title
;
Structure prediction by ZEFSAII (Michael W. Deem and Ramdas Pophale) SiO2 
 PCOD9446551
Probable space group: P M M N
;
_chemical_formula_sum "Si O2"
_cell_formula_units_Z 48
_cell_length_a 31.927073
_cell_length_b 9.129993
_cell_length_c 9.187824
_cell_angle_alpha 90.000000
_cell_angle_beta 90.000000
_cell_angle_gamma 90.000000
_cell_volume 2678.195137
_symmetry_space_group_name_H-M "P M M N"
_symmetry_group_IT_number 59
_space_group.IT_coordinate_system_code '2'
_symmetry_cell_setting 'orthorhombic'
loop_
_space_group_symop_operation_xyz
x,y,z
1/2-x,1/2-y,z
1/2+x,-y,-z
-x,1/2+y,-z
-x,-y,-z
1/2+x,1/2+y,-z
1/2-x,y,z
x,1/2-y,z
loop_
_atom_site_type_symbol
_atom_site_label
_atom_site_fract_x
_atom_site_fract_y
_atom_site_fract_z
Si Si1 0.834702 0.075430 0.829211
Si Si2 0.750000 0.076455 0.149764
Si Si3 0.418716 0.926264 0.346022
Si Si4 0.582485 0.925095 0.340561
Si Si5 0.750000 0.576139 0.837616
Si Si6 0.499903 0.574000 0.156795
Si Si7 0.657608 0.422825 0.174955
O O1 0.827399 0.250000 0.817346
O O2 0.875821 0.036845 0.738069
O O3 0.793127 0.991661 0.777919
O O4 0.842654 0.045935 0.001194
O O5 0.750000 0.250000 0.105372
O O6 0.794409 0.051379 0.226658
O O7 0.750000 0.977760 0.005810
O O8 0.419661 0.750000 0.365345
O O9 0.458651 0.967586 0.248025
O O10 0.420392 0.003278 0.501147
O O11 0.583702 0.750000 0.352817
O O12 0.541527 0.965813 0.246432
O O13 0.623585 0.983635 0.258801
O O14 0.750000 0.750000 0.826991
O O15 0.499310 0.750000 0.139196
O O16 0.500000 0.500000 0.000000
O O17 0.648341 0.250000 0.193525
#
# Coordination Sequence:
#
# PCOD9446551 Si02
#       7
#     8   4   8   8   4   8   8
#     4   9  18  34  56  79 103 137 184 228 260 303
#     4   8  16  32  53  76 103 138 182 226 262 304
#     4  10  21  38  58  78 104 143 185 218 255 311
#     4  11  23  36  52  80 115 143 170 214 271 321
#     4  10  18  28  49  80 111 140 170 214 274 324
#     4  10  22  39  59  83 108 137 176 219 263 313
#     4   9  17  33  57  80 104 139 182 223 262 310
#
# _framework density 17.922518
#
# number of rings (size 3 to 8) (size 9 to 14) (size 15 to 20)
#    0.000    2.333    0.000    3.750    0.000    6.667 
#    0.000    0.833    0.000    2.000    0.000    0.000 
#    0.000    0.000    0.000    0.000    0.000    0.000 
#
# Total GULP energy -267857.354810 kJ/mol
# GULP energy per Si atom -5580.361559 kJ/mol
# Density = 1.788173 g / cm^3
# Si number density = 17.922518 Si / 1000 Ang^3
#
#
#
# Elastic Constant Matrix: (Units=GPa)
#
#
# Indices 1 2 3 4 5 6 
#
# 1 204.0461 74.5424 97.5077 0.0000 0.0000 0.0000
# 2 74.5424 44.9349 54.5325 0.0000 0.0000 0.0000
# 3 97.5077 54.5325 116.2838 0.0000 0.0000 0.0000
# 4 0.0000 0.0000 0.0000 29.3460 0.0000 0.0000
# 5 0.0000 0.0000 0.0000 0.0000 -11.4260 0.0000
# 6 0.0000 0.0000 0.0000 0.0000 0.0000 25.6255
#
#
#
# Elastic Compliance Matrix: (Units=1/GPa)
#
#
# Indices 1 2 3 4 5 6 
#
# 1 0.012595 -0.018745 -0.001771 0.000000 0.000000 0.000000
# 2 -0.018745 0.079547 -0.021586 0.000000 0.000000 0.000000
# 3 -0.001771 -0.021586 0.020208 0.000000 0.000000 0.000000
# 4 0.000000 0.000000 0.000000 0.034076 0.000000 0.000000
# 5 0.000000 0.000000 0.000000 0.000000 -0.087520 0.000000
# 6 0.000000 0.000000 0.000000 0.000000 0.000000 0.039024
#
#
# Mechanical properties :
#
#
# Convention : Reuss Voigt Hill
#
# Bulk Modulus (GPa) = 35.52907 90.93667 63.23287
# Shear Modulus (GPa) = 26.10764 17.95459 22.03112
#
# Velocity S-wave (km/s) = 3.82081 3.16854 3.50986
# Velocity P-wave (km/s) = 6.27148 8.01468 7.19606
#
# Compressibility (1/GPa) = 0.02814596
#
# Stress axis : x y z
#
# Youngs Moduli (GPa) = 79.39766 12.57117 49.48646
#
# Poissons Ratio (x) = 0.23564 0.08762
# Poissons Ratio (y) = 1.48829 1.06823
# Poissons Ratio (z) = 0.14058 0.27137
#
# Static dielectric constant tensor:
#      x y z
#    x 1.627500 0.000000 0.000000 
#    y 0.000000 1.594200 0.000000 
#    z 0.000000 0.000000 1.576920 
# 
# From -- ./inp_files/13031.got.cif
#   From: 2010.05.17/outbox.cif.g08.bks.cpg/sg59_7_cif.got.tgz:13031.got - 2010.06.03 14:40:33.
