data_PCOD9446973
_publ_section_title
;
Structure prediction by ZEFSAII (Michael W. Deem and Ramdas Pophale) SiO2 
 PCOD9446973
Probable space group: P M M N
;
_chemical_formula_sum "Si O2"
_cell_formula_units_Z 64
_cell_length_a 19.902246
_cell_length_b 8.573645
_cell_length_c 21.126163
_cell_angle_alpha 90.000000
_cell_angle_beta 90.000000
_cell_angle_gamma 90.000000
_cell_volume 3604.858427
_symmetry_space_group_name_H-M "P M M N"
_symmetry_group_IT_number 59
_space_group.IT_coordinate_system_code '2'
_symmetry_cell_setting 'orthorhombic'
loop_
_space_group_symop_operation_xyz
x,y,z
1/2-x,1/2-y,z
1/2+x,-y,-z
-x,1/2+y,-z
-x,-y,-z
1/2+x,1/2+y,-z
1/2-x,y,z
x,1/2-y,z
loop_
_atom_site_type_symbol
_atom_site_label
_atom_site_fract_x
_atom_site_fract_y
_atom_site_fract_z
Si Si1 0.326749 0.062154 0.011925
Si Si2 0.963066 0.063226 0.184376
Si Si3 0.673651 0.061914 0.639265
Si Si4 0.038032 0.938798 0.561742
Si Si5 0.325969 0.061990 0.863588
Si Si6 0.462128 0.061653 0.311588
Si Si7 0.461582 0.565038 0.061468
Si Si8 0.824709 0.439772 0.492524
O O1 0.250000 0.021454 0.029032
O O2 0.333356 0.250000 0.016005
O O3 0.384074 0.983696 0.053386
O O4 0.336540 0.019420 0.937750
O O5 0.962889 0.250000 0.183969
O O6 0.999713 0.008928 0.248438
O O7 0.886581 0.005716 0.176991
O O8 0.004446 0.003711 0.123938
O O9 0.750000 0.014858 0.656223
O O10 0.671024 0.250000 0.641052
O O11 0.662102 0.013976 0.565675
O O12 0.614276 0.995139 0.681690
O O13 0.036184 0.750000 0.561142
O O14 0.115276 0.989619 0.552897
O O15 0.002304 0.992387 0.625835
O O16 0.000000 0.000000 0.500000
O O17 0.250000 0.012868 0.845951
O O18 0.328258 0.250000 0.860739
O O19 0.461954 0.250000 0.311699
O O20 0.468571 0.750000 0.062429
O O21 0.500000 0.500000 0.000000
O O22 0.750000 0.493185 0.474930
O O23 0.823880 0.250000 0.492604
#
# Coordination Sequence:
#
# PCOD9446973 Si02
#       8
#     8   8   8   8   8   8   8   8
#     4   9  18  34  57  85 115 143 175 221 276 328
#     4  11  23  38  54  78 113 151 187 224 266 322
#     4   9  17  31  53  79 103 134 180 224 265 322
#     4  10  18  31  52  77 104 135 173 218 265 316
#     4   9  18  34  57  83 109 140 180 224 271 323
#     4  10  22  36  51  78 113 144 180 222 270 321
#     4  12  23  36  57  84 111 141 181 227 272 322
#     4   8  14  26  47  75 103 132 170 216 264 313
#
# _framework density 17.753819
#
# number of rings (size 3 to 8) (size 9 to 14) (size 15 to 20)
#    0.000    2.250    2.500    3.000    0.000    1.750 
#    0.000    2.500    0.000    3.375    0.000    0.000 
#    0.000    0.000    0.000    0.000    0.000    0.000 
#
# Total GULP energy -357024.028513 kJ/mol
# GULP energy per Si atom -5578.500446 kJ/mol
# Density = 1.771341 g / cm^3
# Si number density = 17.753819 Si / 1000 Ang^3
#
#
#
# Elastic Constant Matrix: (Units=GPa)
#
#
# Indices 1 2 3 4 5 6 
#
# 1 171.4965 30.0167 82.6445 0.0000 0.0000 0.0000
# 2 30.0167 22.5416 24.1017 0.0000 0.0000 0.0000
# 3 82.6445 24.1017 114.2518 0.0000 0.0000 0.0000
# 4 0.0000 0.0000 0.0000 18.2457 0.0000 0.0000
# 5 0.0000 0.0000 0.0000 0.0000 29.2010 0.0000
# 6 0.0000 0.0000 0.0000 0.0000 0.0000 29.7150
#
#
#
# Elastic Compliance Matrix: (Units=1/GPa)
#
#
# Indices 1 2 3 4 5 6 
#
# 1 0.009742 -0.007022 -0.005566 0.000000 0.000000 0.000000
# 2 -0.007022 0.062344 -0.008072 0.000000 0.000000 0.000000
# 3 -0.005566 -0.008072 0.014482 0.000000 0.000000 0.000000
# 4 0.000000 0.000000 0.000000 0.054808 0.000000 0.000000
# 5 0.000000 0.000000 0.000000 0.000000 0.034245 0.000000
# 6 0.000000 0.000000 0.000000 0.000000 0.000000 0.033653
#
#
# Mechanical properties :
#
#
# Convention : Reuss Voigt Hill
#
# Bulk Modulus (GPa) = 22.10058 64.64618 43.37338
# Shear Modulus (GPa) = 18.81991 26.86746 22.84369
#
# Velocity S-wave (km/s) = 3.25937 3.89438 3.59094
# Velocity P-wave (km/s) = 5.16140 7.53082 6.45574
#
# Compressibility (1/GPa) = 0.04524769
#
# Stress axis : x y z
#
# Youngs Moduli (GPa) = 102.64625 16.04006 69.05356
#
# Poissons Ratio (x) = 0.11263 0.38434
# Poissons Ratio (y) = 0.72077 0.55742
# Poissons Ratio (z) = 0.57131 0.12948
#
# Static dielectric constant tensor:
#      x y z
#    x 1.638870 0.000000 0.000000 
#    y 0.000000 1.603990 0.000000 
#    z 0.000000 0.000000 1.607260 
# 
# From -- ./inp_files/30655.got.cif
#   From: 2010.05.17/outbox.cif.g08.bks.cpg/sg59_16_cif.got.tgz:30655.got - 2010.06.03 14:40:33.
