data_PCOD9446411
_publ_section_title
;
Structure prediction by ZEFSAII (Michael W. Deem and Ramdas Pophale) SiO2 
 PCOD9446411
Probable space group: P M M N
;
_chemical_formula_sum "Si O2"
_cell_formula_units_Z 64
_cell_length_a 8.865530
_cell_length_b 14.334348
_cell_length_c 32.472725
_cell_angle_alpha 90.000000
_cell_angle_beta 90.000000
_cell_angle_gamma 90.000000
_cell_volume 4126.685597
_symmetry_space_group_name_H-M "P M M N"
_symmetry_group_IT_number 59
_space_group.IT_coordinate_system_code '2'
_symmetry_cell_setting 'orthorhombic'
loop_
_space_group_symop_operation_xyz
x,y,z
1/2-x,1/2-y,z
1/2+x,-y,-z
-x,1/2+y,-z
-x,-y,-z
1/2+x,1/2+y,-z
1/2-x,y,z
x,1/2-y,z
loop_
_atom_site_type_symbol
_atom_site_label
_atom_site_fract_x
_atom_site_fract_y
_atom_site_fract_z
Si Si1 0.430879 0.640466 0.434058
Si Si2 0.576548 0.636810 0.772529
Si Si3 0.566651 0.358338 0.473809
Si Si4 0.069410 0.456944 0.062603
Si Si5 0.067980 0.527685 0.605924
Si Si6 0.931749 0.143027 0.983526
Si Si7 0.068184 0.640840 0.686469
Si Si8 0.569657 0.140417 0.141187
O O1 0.250000 0.629042 0.432531
O O2 0.463264 0.750000 0.429152
O O3 0.483921 0.612717 0.480404
O O4 0.507683 0.576016 0.400350
O O5 0.750000 0.606887 0.774675
O O6 0.573179 0.750000 0.771846
O O7 0.501164 0.607728 0.729620
O O8 0.489082 0.609906 0.813928
O O9 0.750000 0.362420 0.474310
O O10 0.525896 0.250000 0.468260
O O11 0.513882 0.416613 0.434735
O O12 0.250000 0.449823 0.064042
O O13 0.029364 0.563717 0.050152
O O14 0.000299 0.421312 0.105096
O O15 0.006732 0.391834 0.025854
O O16 0.250000 0.528133 0.605628
O O17 0.019388 0.579685 0.647450
O O18 0.750000 0.140453 0.988716
O O19 0.974296 0.250000 0.973909
O O20 0.250000 0.637099 0.689381
O O21 0.027618 0.750000 0.679876
O O22 0.750000 0.135582 0.139923
O O23 0.526495 0.250000 0.135175
#
# Coordination Sequence:
#
# PCOD9446411 Si02
#       8
#     8   8   8   8   8   8   8   8
#     4   9  18  31  44  58  81 114 147 179 216 254
#     4   9  17  29  45  65  89 116 145 177 212 252
#     4   8  14  26  43  62  85 113 143 173 208 253
#     4  10  19  29  44  67  91 117 154 195 228 261
#     4  10  18  27  44  67  86 109 143 179 212 249
#     4   9  18  32  46  61  88 125 158 188 226 268
#     4   9  17  29  44  64  91 118 141 167 207 262
#     4  10  19  30  45  65  91 122 151 180 218 263
#
# _framework density 15.508813999999999
#
# number of rings (size 3 to 8) (size 9 to 14) (size 15 to 20)
#    0.000    2.750    0.000    3.000    0.000    6.750 
#    0.000    0.000    0.000    1.875    0.000    0.875 
#    0.000    5.000    0.000    0.000    0.000    0.000 
#
# Total GULP energy -356641.721965 kJ/mol
# GULP energy per Si atom -5572.526906 kJ/mol
# Density = 1.547352 g / cm^3
# Si number density = 15.508814 Si / 1000 Ang^3
#
#
#
# Elastic Constant Matrix: (Units=GPa)
#
#
# Indices 1 2 3 4 5 6 
#
# 1 23.0359 29.5721 41.1687 0.0000 0.0000 0.0000
# 2 29.5721 83.9465 71.9166 0.0000 0.0000 0.0000
# 3 41.1687 71.9166 141.3491 0.0000 0.0000 0.0000
# 4 0.0000 0.0000 0.0000 25.3566 0.0000 0.0000
# 5 0.0000 0.0000 0.0000 0.0000 25.0832 0.0000
# 6 0.0000 0.0000 0.0000 0.0000 0.0000 19.6829
#
#
#
# Elastic Compliance Matrix: (Units=1/GPa)
#
#
# Indices 1 2 3 4 5 6 
#
# 1 0.105551 -0.019226 -0.020960 0.000000 0.000000 0.000000
# 2 -0.019226 0.024619 -0.006926 0.000000 0.000000 0.000000
# 3 -0.020960 -0.006926 0.016703 0.000000 0.000000 0.000000
# 4 0.000000 0.000000 0.000000 0.039437 0.000000 0.000000
# 5 0.000000 0.000000 0.000000 0.000000 0.039867 0.000000
# 6 0.000000 0.000000 0.000000 0.000000 0.000000 0.050805
#
#
# Mechanical properties :
#
#
# Convention : Reuss Voigt Hill
#
# Bulk Modulus (GPa) = 18.99400 59.29402 39.14401
# Shear Modulus (GPa) = 12.86149 21.06949 16.96549
#
# Velocity S-wave (km/s) = 2.88288 3.68985 3.31104
# Velocity P-wave (km/s) = 4.83272 7.51457 6.31759
#
# Compressibility (1/GPa) = 0.05264819
#
# Stress axis : x y z
#
# Youngs Moduli (GPa) = 9.47408 40.61966 59.86850
#
# Poissons Ratio (x) = 0.78096 1.25486
# Poissons Ratio (y) = 0.18215 0.41464
# Poissons Ratio (z) = 0.19858 0.28133
#
# Static dielectric constant tensor:
#      x y z
#    x 1.522100 0.000000 0.000000 
#    y 0.000000 1.515430 0.000000 
#    z 0.000000 0.000000 1.505230 
# 
# From -- ./inp_files/33230.got.cif
#   From: 2010.05.17/outbox.cif.g08.bks.cpg/sg59_17_cif.got.tgz:33230.got - 2010.06.03 14:40:33.
