data_PCOD9446430
_publ_section_title
;
Structure prediction by ZEFSAII (Michael W. Deem and Ramdas Pophale) SiO2 
 PCOD9446430
Probable space group: P M M N
;
_chemical_formula_sum "Si O2"
_cell_formula_units_Z 64
_cell_length_a 27.308666
_cell_length_b 8.753276
_cell_length_c 19.009226
_cell_angle_alpha 90.000000
_cell_angle_beta 90.000000
_cell_angle_gamma 90.000000
_cell_volume 4543.970909
_symmetry_space_group_name_H-M "P M M N"
_symmetry_group_IT_number 59
_space_group.IT_coordinate_system_code '2'
_symmetry_cell_setting 'orthorhombic'
loop_
_space_group_symop_operation_xyz
x,y,z
1/2-x,1/2-y,z
1/2+x,-y,-z
-x,1/2+y,-z
-x,-y,-z
1/2+x,1/2+y,-z
1/2-x,y,z
x,1/2-y,z
loop_
_atom_site_type_symbol
_atom_site_label
_atom_site_fract_x
_atom_site_fract_y
_atom_site_fract_z
Si Si1 0.006130 0.933174 0.170527
Si Si2 0.953789 0.066481 0.458087
Si Si3 0.602721 0.433363 0.589133
Si Si4 0.805740 0.934036 0.831364
Si Si5 0.193460 0.434099 0.330796
Si Si6 0.545382 0.433447 0.044540
Si Si7 0.009724 0.433845 0.326030
Si Si8 0.895398 0.066591 0.914751
O O1 0.004169 0.750000 0.170360
O O2 0.057818 0.979211 0.133563
O O3 0.004713 0.996801 0.248976
O O4 0.962608 0.998169 0.121606
O O5 0.956250 0.250000 0.459430
O O6 0.908102 0.022810 0.507476
O O7 0.964284 0.021745 0.377532
O O8 0.000000 0.000000 0.500000
O O9 0.599958 0.250000 0.595158
O O10 0.654139 0.491538 0.618158
O O11 0.559209 0.505070 0.636575
O O12 0.750000 0.983096 0.847533
O O13 0.806592 0.750000 0.833024
O O14 0.816760 0.979571 0.750435
O O15 0.846382 0.996903 0.883496
O O16 0.250000 0.474263 0.346157
O O17 0.189398 0.250000 0.334456
O O18 0.542056 0.250000 0.047372
O O19 0.500000 0.500000 0.000000
O O20 0.591737 0.474626 0.995598
O O21 0.012446 0.250000 0.321774
O O22 0.892391 0.250000 0.911194
#
# Coordination Sequence:
#
# PCOD9446430 Si02
#       8
#     8   8   8   8   8   8   8   8
#     4  10  19  29  41  61  85 107 137 173 205 240
#     4   8  16  28  40  56  79 106 135 167 201 240
#     4  10  18  28  42  60  82 107 138 174 207 240
#     4   9  18  30  42  57  78 105 137 170 201 234
#     4   9  18  31  43  57  80 109 141 174 205 240
#     4   9  17  29  42  58  81 108 137 167 201 241
#     4  10  18  28  42  59  81 111 141 166 201 246
#     4   9  18  29  41  58  80 106 135 166 199 236
#
# _framework density 14.084597
#
# number of rings (size 3 to 8) (size 9 to 14) (size 15 to 20)
#    0.000    2.750    0.000    3.750    0.000    7.000 
#    0.000    1.250    0.000    0.000    0.000    0.000 
#    0.000    1.000    0.000    9.500    0.000    5.500 
#
# Total GULP energy -356273.337040 kJ/mol
# GULP energy per Si atom -5566.770891 kJ/mol
# Density = 1.405254 g / cm^3
# Si number density = 14.084597 Si / 1000 Ang^3
#
#
#
# Elastic Constant Matrix: (Units=GPa)
#
#
# Indices 1 2 3 4 5 6 
#
# 1 81.4163 25.5815 55.0258 0.0000 0.0000 0.0000
# 2 25.5815 29.9552 32.3259 0.0000 0.0000 0.0000
# 3 55.0258 32.3259 109.6513 0.0000 0.0000 0.0000
# 4 0.0000 0.0000 0.0000 21.7712 0.0000 0.0000
# 5 0.0000 0.0000 0.0000 0.0000 27.9884 0.0000
# 6 0.0000 0.0000 0.0000 0.0000 0.0000 21.7048
#
#
#
# Elastic Compliance Matrix: (Units=1/GPa)
#
#
# Indices 1 2 3 4 5 6 
#
# 1 0.020196 -0.009255 -0.007407 0.000000 0.000000 0.000000
# 2 -0.009255 0.053200 -0.011039 0.000000 0.000000 0.000000
# 3 -0.007407 -0.011039 0.016091 0.000000 0.000000 0.000000
# 4 0.000000 0.000000 0.000000 0.045932 0.000000 0.000000
# 5 0.000000 0.000000 0.000000 0.000000 0.035729 0.000000
# 6 0.000000 0.000000 0.000000 0.000000 0.000000 0.046073
#
#
# Mechanical properties :
#
#
# Convention : Reuss Voigt Hill
#
# Bulk Modulus (GPa) = 29.33779 49.65434 39.49606
# Shear Modulus (GPa) = 17.60661 21.49886 19.55273
#
# Velocity S-wave (km/s) = 3.53946 3.91117 3.72995
# Velocity P-wave (km/s) = 6.13014 7.46507 6.83029
#
# Compressibility (1/GPa) = 0.03408574
#
# Stress axis : x y z
#
# Youngs Moduli (GPa) = 49.51419 18.79712 62.14586
#
# Poissons Ratio (x) = 0.17396 0.46029
# Poissons Ratio (y) = 0.45823 0.68606
# Poissons Ratio (z) = 0.36674 0.20751
#
# Static dielectric constant tensor:
#      x y z
#    x 1.452850 0.000000 0.000000 
#    y 0.000000 1.473720 0.000000 
#    z 0.000000 0.000000 1.489910 
# 
# From -- ./inp_files/26447.got.cif
#   From: 2010.05.17/outbox.cif.g08.bks.cpg/sg59_14_cif.got.tgz:26447.got - 2010.06.03 14:40:33.
