data_PCOD9446873
_publ_section_title
;
Structure prediction by ZEFSAII (Michael W. Deem and Ramdas Pophale) SiO2 
 PCOD9446873
Probable space group: P M M N
;
_chemical_formula_sum "Si O2"
_cell_formula_units_Z 48
_cell_length_a 32.041346
_cell_length_b 8.671401
_cell_length_c 9.218314
_cell_angle_alpha 90.000000
_cell_angle_beta 90.000000
_cell_angle_gamma 90.000000
_cell_volume 2561.247333
_symmetry_space_group_name_H-M "P M M N"
_symmetry_group_IT_number 59
_space_group.IT_coordinate_system_code '2'
_symmetry_cell_setting 'orthorhombic'
loop_
_space_group_symop_operation_xyz
x,y,z
1/2-x,1/2-y,z
1/2+x,-y,-z
-x,1/2+y,-z
-x,-y,-z
1/2+x,1/2+y,-z
1/2-x,y,z
x,1/2-y,z
loop_
_atom_site_type_symbol
_atom_site_label
_atom_site_fract_x
_atom_site_fract_y
_atom_site_fract_z
Si Si1 0.336582 0.933860 0.834329
Si Si2 0.663517 0.935302 0.838957
Si Si3 0.250000 0.565751 0.163096
Si Si4 0.083941 0.436454 0.668489
Si Si5 0.750000 0.565653 0.166048
Si Si6 0.420535 0.435609 0.331151
Si Si7 0.999865 0.065561 0.838203
O O1 0.333444 0.750000 0.842317
O O2 0.375949 0.986875 0.741161
O O3 0.293335 0.002431 0.771128
O O4 0.341599 0.000271 0.997710
O O5 0.666905 0.750000 0.846563
O O6 0.623020 0.977623 0.745718
O O7 0.706516 0.003060 0.774309
O O8 0.250000 0.750000 0.159590
O O9 0.250000 0.499120 0.998829
O O10 0.088363 0.250000 0.677498
O O11 0.079887 0.479303 0.499935
O O12 0.042054 0.481274 0.754310
O O13 0.750000 0.750000 0.164244
O O14 0.424377 0.250000 0.322657
O O15 0.459445 0.507951 0.247857
O O16 0.999256 0.250000 0.844805
O O17 0.000000 0.000000 0.000000
#
# Coordination Sequence:
#
# PCOD9446873 Si02
#       7
#     8   8   4   8   4   8   8
#     4  11  21  34  55  84 113 144 184 231 274 322
#     4  10  19  34  56  81 108 143 183 226 272 324
#     4  10  18  30  51  80 111 142 178 226 272 318
#     4  10  22  40  57  79 111 149 185 223 274 332
#     4  10  18  32  55  80 109 146 184 228 276 324
#     4  10  22  39  59  81 110 145 185 227 273 328
#     4  11  23  38  60  85 112 143 182 228 275 327
#
# _framework density 18.740870000000001
#
# number of rings (size 3 to 8) (size 9 to 14) (size 15 to 20)
#    0.000    1.667    0.000    7.500    0.000    7.333 
#    0.000    0.833    0.000    2.000    0.000    0.000 
#    0.000    0.000    0.000    0.000    0.000    0.000 
#
# Total GULP energy -268188.354090 kJ/mol
# GULP energy per Si atom -5587.257377 kJ/mol
# Density = 1.869821 g / cm^3
# Si number density = 18.740870 Si / 1000 Ang^3
#
#
#
# Elastic Constant Matrix: (Units=GPa)
#
#
# Indices 1 2 3 4 5 6 
#
# 1 232.1073 80.8037 101.1155 0.0000 0.0000 0.0000
# 2 80.8037 90.2364 47.8291 0.0000 0.0000 0.0000
# 3 101.1155 47.8291 121.2488 0.0000 0.0000 0.0000
# 4 0.0000 0.0000 0.0000 12.0644 0.0000 0.0000
# 5 0.0000 0.0000 0.0000 0.0000 -19.1430 0.0000
# 6 0.0000 0.0000 0.0000 0.0000 0.0000 37.1957
#
#
#
# Elastic Compliance Matrix: (Units=1/GPa)
#
#
# Indices 1 2 3 4 5 6 
#
# 1 0.008043 -0.004611 -0.004889 0.000000 0.000000 0.000000
# 2 -0.004611 0.016655 -0.002724 0.000000 0.000000 0.000000
# 3 -0.004889 -0.002724 0.013399 0.000000 0.000000 0.000000
# 4 0.000000 0.000000 0.000000 0.082888 0.000000 0.000000
# 5 0.000000 0.000000 0.000000 0.000000 -0.052238 0.000000
# 6 0.000000 0.000000 0.000000 0.000000 0.000000 0.026885
#
#
# Mechanical properties :
#
#
# Convention : Reuss Voigt Hill
#
# Bulk Modulus (GPa) = 73.26590 100.34323 86.80456
# Shear Modulus (GPa) = 40.11825 20.27972 30.19898
#
# Velocity S-wave (km/s) = 4.63177 3.29312 4.01858
# Velocity P-wave (km/s) = 8.23307 8.25337 8.24323
#
# Compressibility (1/GPa) = 0.01364892
#
# Stress axis : x y z
#
# Youngs Moduli (GPa) = 124.32416 60.04063 74.63120
#
# Poissons Ratio (x) = 0.27687 0.36486
# Poissons Ratio (y) = 0.57331 0.20332
# Poissons Ratio (z) = 0.60780 0.16357
#
# Static dielectric constant tensor:
#      x y z
#    x 1.660700 0.000000 0.000000 
#    y 0.000000 1.633740 0.000000 
#    z 0.000000 0.000000 1.622610 
# 
# From -- ./inp_files/13053.got.cif
#   From: 2010.05.17/outbox.cif.g08.bks.cpg/sg59_7_cif.got.tgz:13053.got - 2010.06.03 14:40:33.
