data_PCOD9446764
_publ_section_title
;
Structure prediction by ZEFSAII (Michael W. Deem and Ramdas Pophale) SiO2 
 PCOD9446764
Probable space group: P M M N
;
_chemical_formula_sum "Si O2"
_cell_formula_units_Z 48
_cell_length_a 8.268921
_cell_length_b 31.552557
_cell_length_c 10.529183
_cell_angle_alpha 90.000000
_cell_angle_beta 90.000000
_cell_angle_gamma 90.000000
_cell_volume 2747.122821
_symmetry_space_group_name_H-M "P M M N"
_symmetry_group_IT_number 59
_space_group.IT_coordinate_system_code '2'
_symmetry_cell_setting 'orthorhombic'
loop_
_space_group_symop_operation_xyz
x,y,z
1/2-x,1/2-y,z
1/2+x,-y,-z
-x,1/2+y,-z
-x,-y,-z
1/2+x,1/2+y,-z
1/2-x,y,z
x,1/2-y,z
loop_
_atom_site_type_symbol
_atom_site_label
_atom_site_fract_x
_atom_site_fract_y
_atom_site_fract_z
Si Si1 0.056839 0.972538 0.619918
Si Si2 0.057903 0.204276 0.792457
Si Si3 0.442985 0.384949 0.481738
Si Si4 0.445472 0.021537 0.870682
Si Si5 0.442339 0.795937 0.496699
Si Si6 0.052236 0.387752 0.778124
O O1 0.250000 0.973546 0.621849
O O2 0.000736 0.924550 0.599747
O O3 0.997510 0.994335 0.749327
O O4 0.000000 0.000000 0.500000
O O5 0.250000 0.204822 0.817084
O O6 0.990615 0.250000 0.837832
O O7 0.995711 0.157806 0.832588
O O8 0.030102 0.203740 0.640211
O O9 0.250000 0.384250 0.483028
O O10 0.505382 0.339167 0.436581
O O11 0.497154 0.391153 0.629385
O O12 0.250000 0.022110 0.868079
O O13 0.500390 0.070201 0.851520
O O14 0.500000 0.000000 0.000000
O O15 0.250000 0.797592 0.474435
O O16 0.479524 0.750000 0.557103
O O17 0.250000 0.386990 0.778271
#
# Coordination Sequence:
#
# PCOD9446764 Si02
#       6
#     8   8   8   8   8   8
#     4  11  21  34  52  74 100 129 166 209 252 300
#     4   8  13  22  39  62  88 121 156 190 236 292
#     4  10  18  30  48  70  96 127 165 206 249 296
#     4  10  21  36  50  69  98 132 167 206 249 299
#     4   9  16  25  38  62  97 130 159 195 242 294
#     4   8  14  27  44  64  94 124 153 195 242 287
#
# _framework density 17.472826000000001
#
# number of rings (size 3 to 8) (size 9 to 14) (size 15 to 20)
#    0.000    2.667    1.667    2.500    0.000    2.333 
#    0.000    0.833    0.000    0.000    0.000    1.167 
#    0.000    4.000    0.000    0.000    0.000    0.333 
#
# Total GULP energy -267224.977743 kJ/mol
# GULP energy per Si atom -5567.187036 kJ/mol
# Density = 1.743306 g / cm^3
# Si number density = 17.472826 Si / 1000 Ang^3
#
#
#
# Elastic Constant Matrix: (Units=GPa)
#
#
# Indices 1 2 3 4 5 6 
#
# 1 17.5443 18.2129 7.5057 0.0000 0.0000 0.0000
# 2 18.2129 228.0203 62.2559 0.0000 0.0000 0.0000
# 3 7.5057 62.2559 65.2422 0.0000 0.0000 0.0000
# 4 0.0000 0.0000 0.0000 13.7137 0.0000 0.0000
# 5 0.0000 0.0000 0.0000 0.0000 16.0169 0.0000
# 6 0.0000 0.0000 0.0000 0.0000 0.0000 25.0300
#
#
#
# Elastic Compliance Matrix: (Units=1/GPa)
#
#
# Indices 1 2 3 4 5 6 
#
# 1 0.062670 -0.004107 -0.003290 0.000000 0.000000 0.000000
# 2 -0.004107 0.006200 -0.005444 0.000000 0.000000 0.000000
# 3 -0.003290 -0.005444 0.020900 0.000000 0.000000 0.000000
# 4 0.000000 0.000000 0.000000 0.072920 0.000000 0.000000
# 5 0.000000 0.000000 0.000000 0.000000 0.062434 0.000000
# 6 0.000000 0.000000 0.000000 0.000000 0.000000 0.039952
#
#
# Mechanical properties :
#
#
# Convention : Reuss Voigt Hill
#
# Bulk Modulus (GPa) = 15.60361 54.08399 34.84380
# Shear Modulus (GPa) = 16.01940 25.80761 20.91350
#
# Velocity S-wave (km/s) = 3.03118 3.84736 3.46340
# Velocity P-wave (km/s) = 4.60439 7.12437 5.99821
#
# Compressibility (1/GPa) = 0.06408775
#
# Stress axis : x y z
#
# Youngs Moduli (GPa) = 15.95656 161.29305 47.84579
#
# Poissons Ratio (x) = 0.66248 0.15744
# Poissons Ratio (y) = 0.06554 0.26045
# Poissons Ratio (z) = 0.05250 0.87801
#
# Static dielectric constant tensor:
#      x y z
#    x 1.610470 0.000000 0.000000 
#    y 0.000000 1.672180 0.000000 
#    z 0.000000 0.000000 1.548120 
# 
# From -- ./inp_files/14685.got.cif
#   From: 2010.05.17/outbox.cif.g08.bks.cpg/sg59_8_cif.got.tgz:14685.got - 2010.06.03 14:40:33.
