data_PCOD9446363
_publ_section_title
;
Structure prediction by ZEFSAII (Michael W. Deem and Ramdas Pophale) SiO2 
 PCOD9446363
Probable space group: P M M N
;
_chemical_formula_sum "Si O2"
_cell_formula_units_Z 64
_cell_length_a 7.570090
_cell_length_b 26.679380
_cell_length_c 17.778502
_cell_angle_alpha 90.000000
_cell_angle_beta 90.000000
_cell_angle_gamma 90.000000
_cell_volume 3590.640628
_symmetry_space_group_name_H-M "P M M N"
_symmetry_group_IT_number 59
_space_group.IT_coordinate_system_code '2'
_symmetry_cell_setting 'orthorhombic'
loop_
_space_group_symop_operation_xyz
x,y,z
1/2-x,1/2-y,z
1/2+x,-y,-z
-x,1/2+y,-z
-x,-y,-z
1/2+x,1/2+y,-z
1/2-x,y,z
x,1/2-y,z
loop_
_atom_site_type_symbol
_atom_site_label
_atom_site_fract_x
_atom_site_fract_y
_atom_site_fract_z
Si Si1 0.462757 0.693483 0.581740
Si Si2 0.041345 0.936215 0.837293
Si Si3 0.461661 0.940592 0.000583
Si Si4 0.461239 0.945926 0.163662
Si Si5 0.538907 0.693756 0.407833
Si Si6 0.460822 0.403246 0.676247
Si Si7 0.467138 0.599320 0.677594
Si Si8 0.961722 0.499244 0.411821
O O1 0.250000 0.694590 0.586706
O O2 0.527971 0.750000 0.597038
O O3 0.507872 0.680965 0.495378
O O4 0.525603 0.650507 0.638080
O O5 0.250000 0.925542 0.839599
O O6 0.971222 0.909172 0.763059
O O7 0.967719 0.922146 0.919871
O O8 0.023909 0.996474 0.826989
O O9 0.250000 0.933190 0.999344
O O10 0.526716 0.924512 0.083155
O O11 0.500000 0.000000 0.000000
O O12 0.250000 0.948661 0.159655
O O13 0.510191 0.913826 0.236087
O O14 0.750000 0.696434 0.396835
O O15 0.467554 0.750000 0.394671
O O16 0.468614 0.649236 0.355579
O O17 0.250000 0.402287 0.663782
O O18 0.531193 0.451052 0.629706
O O19 0.250000 0.599319 0.678012
O O20 0.524921 0.551440 0.628365
O O21 0.750000 0.499335 0.402662
O O22 0.000000 0.500000 0.500000
#
# Coordination Sequence:
#
# PCOD9446363 Si02
#       8
#     8   8   8   8   8   8   8   8
#     4   9  17  29  45  64  85 109 140 178 215 247
#     4   9  15  28  45  59  83 118 146 170 208 256
#     4   8  15  25  40  60  82 111 142 171 207 249
#     4  10  18  27  40  64  91 111 139 178 212 248
#     4   9  18  32  48  64  82 106 142 184 216 247
#     4  10  19  31  45  61  84 115 144 169 209 261
#     4   9  16  27  43  61  83 111 142 170 200 246
#     4  10  19  29  40  57  81 110 140 166 199 249
#
# _framework density 17.824117000000001
#
# number of rings (size 3 to 8) (size 9 to 14) (size 15 to 20)
#    0.000    2.750    1.250    1.125    0.000    1.500 
#    0.000    0.625    0.000    0.000    0.000    0.875 
#    0.000    3.000    0.000    0.000    0.000    0.000 
#
# Total GULP energy -356673.390838 kJ/mol
# GULP energy per Si atom -5573.021732 kJ/mol
# Density = 1.778355 g / cm^3
# Si number density = 17.824117 Si / 1000 Ang^3
#
#
#
# Elastic Constant Matrix: (Units=GPa)
#
#
# Indices 1 2 3 4 5 6 
#
# 1 39.7025 3.9729 -4.4299 0.0000 0.0000 0.0000
# 2 3.9729 102.1073 103.6240 0.0000 0.0000 0.0000
# 3 -4.4299 103.6240 186.9038 0.0000 0.0000 0.0000
# 4 0.0000 0.0000 0.0000 15.9119 0.0000 0.0000
# 5 0.0000 0.0000 0.0000 0.0000 13.1325 0.0000
# 6 0.0000 0.0000 0.0000 0.0000 0.0000 -0.1466
#
#
#
# Elastic Compliance Matrix: (Units=1/GPa)
#
#
# Indices 1 2 3 4 5 6 
#
# 1 0.025859 -0.003723 0.002677 0.000000 0.000000 0.000000
# 2 -0.003723 0.022930 -0.012801 0.000000 0.000000 0.000000
# 3 0.002677 -0.012801 0.012511 0.000000 0.000000 0.000000
# 4 0.000000 0.000000 0.000000 0.062846 0.000000 0.000000
# 5 0.000000 0.000000 0.000000 0.000000 0.076147 0.000000
# 6 0.000000 0.000000 0.000000 0.000000 0.000000 -6.821508
#
#
# Mechanical properties :
#
#
# Convention : Reuss Voigt Hill
#
# Bulk Modulus (GPa) = 29.75715 59.44974 44.60344
# Shear Modulus (GPa) = -0.75961 20.81600 10.02820
#
# Velocity S-wave (km/s) = -0.65353 3.42110 2.37453
# Velocity P-wave (km/s) = 4.02016 7.00223 5.70933
#
# Compressibility (1/GPa) = 0.03360537
#
# Stress axis : x y z
#
# Youngs Moduli (GPa) = 38.67196 43.61185 79.93003
#
# Poissons Ratio (x) = 0.16236 -0.21396
# Poissons Ratio (y) = 0.14397 1.02318
# Poissons Ratio (z) = -0.10352 0.55827
#
# Static dielectric constant tensor:
#      x y z
#    x 1.660800 0.000000 0.000000 
#    y 0.000000 1.594290 0.000000 
#    z 0.000000 0.000000 1.639080 
# 
# From -- ./inp_files/26493.got.cif
#   From: 2010.05.17/outbox.cif.g08.bks.cpg/sg59_14_cif.got.tgz:26493.got - 2010.06.03 14:40:33.
