data_PCOD9446324
_publ_section_title
;
Structure prediction by ZEFSAII (Michael W. Deem and Ramdas Pophale) SiO2 
 PCOD9446324
Probable space group: P M M N
;
_chemical_formula_sum "Si O2"
_cell_formula_units_Z 64
_cell_length_a 7.781423
_cell_length_b 27.397548
_cell_length_c 17.965007
_cell_angle_alpha 90.000000
_cell_angle_beta 90.000000
_cell_angle_gamma 90.000000
_cell_volume 3829.994158
_symmetry_space_group_name_H-M "P M M N"
_symmetry_group_IT_number 59
_space_group.IT_coordinate_system_code '2'
_symmetry_cell_setting 'orthorhombic'
loop_
_space_group_symop_operation_xyz
x,y,z
1/2-x,1/2-y,z
1/2+x,-y,-z
-x,1/2+y,-z
-x,-y,-z
1/2+x,1/2+y,-z
1/2-x,y,z
x,1/2-y,z
loop_
_atom_site_type_symbol
_atom_site_label
_atom_site_fract_x
_atom_site_fract_y
_atom_site_fract_z
Si Si1 0.951410 0.083112 0.861366
Si Si2 0.053755 0.436652 0.330729
Si Si3 0.543235 0.305013 0.584545
Si Si4 0.543656 0.056295 0.017417
Si Si5 0.040350 0.621892 0.289838
Si Si6 0.457276 0.109289 0.473753
Si Si7 0.451212 0.973034 0.828259
Si Si8 0.547766 0.964083 0.400931
O O1 0.750000 0.095002 0.867390
O O2 0.021571 0.116597 0.794949
O O3 0.025831 0.084988 0.945170
O O4 0.963353 0.026534 0.833753
O O5 0.250000 0.423492 0.314441
O O6 0.978704 0.397798 0.389559
O O7 0.970112 0.448209 0.251698
O O8 0.047328 0.487137 0.377245
O O9 0.750000 0.302913 0.587839
O O10 0.477104 0.250000 0.576941
O O11 0.485506 0.331902 0.660608
O O12 0.499067 0.340881 0.516360
O O13 0.750000 0.062775 0.016502
O O14 0.485357 0.060848 0.103064
O O15 0.500000 0.000000 0.000000
O O16 0.250000 0.620238 0.290272
O O17 0.974725 0.574780 0.334557
O O18 0.250000 0.105229 0.471619
O O19 0.518883 0.064754 0.526626
O O20 0.250000 0.982740 0.840880
O O21 0.750000 0.975098 0.409655
#
# Coordination Sequence:
#
# PCOD9446324 Si02
#       8
#     8   8   8   8   8   8   8   8
#     4   9  15  25  40  56  78 108 141 172 203 242
#     4  11  20  29  40  56  82 112 142 173 207 246
#     4   9  18  32  48  65  85 107 132 166 208 252
#     4   8  15  25  36  52  75 105 140 173 203 234
#     4   9  16  26  42  62  83 109 138 167 203 246
#     4   9  20  33  44  60  80 106 139 173 208 249
#     4  10  18  26  37  55  80 110 143 177 208 237
#     4  10  18  28  41  58  81 107 138 173 207 242
#
# _framework density 16.710208999999999
#
# number of rings (size 3 to 8) (size 9 to 14) (size 15 to 20)
#    0.000    2.625    1.250    1.500    0.000    2.250 
#    0.000    0.000    0.000    0.000    0.000    0.000 
#    0.000    1.000    0.000    7.000    0.000    1.625 
#
# Total GULP energy -356351.687105 kJ/mol
# GULP energy per Si atom -5567.995111 kJ/mol
# Density = 1.667218 g / cm^3
# Si number density = 16.710209 Si / 1000 Ang^3
#
#
#
# Elastic Constant Matrix: (Units=GPa)
#
#
# Indices 1 2 3 4 5 6 
#
# 1 26.4017 -2.3760 -1.7624 0.0000 0.0000 0.0000
# 2 -2.3760 57.7841 51.3554 0.0000 0.0000 0.0000
# 3 -1.7624 51.3554 133.6018 0.0000 0.0000 0.0000
# 4 0.0000 0.0000 0.0000 9.8847 0.0000 0.0000
# 5 0.0000 0.0000 0.0000 0.0000 8.0779 0.0000
# 6 0.0000 0.0000 0.0000 0.0000 0.0000 10.8344
#
#
#
# Elastic Compliance Matrix: (Units=1/GPa)
#
#
# Indices 1 2 3 4 5 6 
#
# 1 0.038019 0.001697 -0.000151 0.000000 0.000000 0.000000
# 2 0.001697 0.026361 -0.010111 0.000000 0.000000 0.000000
# 3 -0.000151 -0.010111 0.011369 0.000000 0.000000 0.000000
# 4 0.000000 0.000000 0.000000 0.101167 0.000000 0.000000
# 5 0.000000 0.000000 0.000000 0.000000 0.123795 0.000000
# 6 0.000000 0.000000 0.000000 0.000000 0.000000 0.092299
#
#
# Mechanical properties :
#
#
# Convention : Reuss Voigt Hill
#
# Bulk Modulus (GPa) = 17.05863 34.69131 25.87497
# Shear Modulus (GPa) = 11.63657 17.13075 14.38366
#
# Velocity S-wave (km/s) = 2.64175 3.20530 2.93707
# Velocity P-wave (km/s) = 4.41994 5.87403 5.19808
#
# Compressibility (1/GPa) = 0.05862137
#
# Stress axis : x y z
#
# Youngs Moduli (GPa) = 26.30263 37.93413 87.95519
#
# Poissons Ratio (x) = -0.06439 0.01328
# Poissons Ratio (y) = -0.04465 0.88929
# Poissons Ratio (z) = 0.00397 0.38354
#
# Static dielectric constant tensor:
#      x y z
#    x 1.621750 0.000000 0.000000 
#    y 0.000000 1.530770 0.000000 
#    z 0.000000 0.000000 1.645020 
# 
# From -- ./inp_files/26503.got.cif
#   From: 2010.05.17/outbox.cif.g08.bks.cpg/sg59_14_cif.got.tgz:26503.got - 2010.06.03 14:40:33.
