data_PCOD9446562
_publ_section_title
;
Structure prediction by ZEFSAII (Michael W. Deem and Ramdas Pophale) SiO2 
 PCOD9446562
Probable space group: P M M N
;
_chemical_formula_sum "Si O2"
_cell_formula_units_Z 48
_cell_length_a 22.227414
_cell_length_b 7.780596
_cell_length_c 15.893795
_cell_angle_alpha 90.000000
_cell_angle_beta 90.000000
_cell_angle_gamma 90.000000
_cell_volume 2748.713094
_symmetry_space_group_name_H-M "P M M N"
_symmetry_group_IT_number 59
_space_group.IT_coordinate_system_code '2'
_symmetry_cell_setting 'orthorhombic'
loop_
_space_group_symop_operation_xyz
x,y,z
1/2-x,1/2-y,z
1/2+x,-y,-z
-x,1/2+y,-z
-x,-y,-z
1/2+x,1/2+y,-z
1/2-x,y,z
x,1/2-y,z
loop_
_atom_site_type_symbol
_atom_site_label
_atom_site_fract_x
_atom_site_fract_y
_atom_site_fract_z
Si Si1 0.317401 0.046919 0.191471
Si Si2 0.403539 0.950791 0.338017
Si Si3 0.549416 0.954558 0.119119
Si Si4 0.040535 0.038907 0.696470
Si Si5 0.569745 0.954666 0.482184
Si Si6 0.415373 0.459172 0.060632
O O1 0.250000 0.974233 0.193828
O O2 0.312401 0.250000 0.174996
O O3 0.360757 0.976992 0.118005
O O4 0.352667 0.028755 0.279255
O O5 0.404509 0.750000 0.318701
O O6 0.470757 0.017985 0.315500
O O7 0.500000 0.000000 0.500000
O O8 0.394661 0.973518 0.437989
O O9 0.559314 0.750000 0.121519
O O10 0.563078 0.020860 0.212575
O O11 0.478766 0.985566 0.101104
O O12 0.583774 0.020396 0.036315
O O13 0.039641 0.250000 0.695711
O O14 0.078158 0.985204 0.614044
O O15 0.576673 0.750000 0.484207
O O16 0.415241 0.250000 0.060362
#
# Coordination Sequence:
#
# PCOD9446562 Si02
#       6
#     8   8   8   8   8   8
#     4  10  20  32  44  61  87 118 150 184 222 264
#     4  10  18  29  43  61  85 114 149 185 220 262
#     4   9  15  26  43  62  87 114 140 175 219 266
#     4   8  14  24  40  62  86 113 139 169 211 261
#     4   9  16  26  40  61  88 117 145 174 215 261
#     4   9  17  27  41  62  84 112 146 179 219 263
#
# _framework density 17.462717000000001
#
# number of rings (size 3 to 8) (size 9 to 14) (size 15 to 20)
#    0.000    2.833    1.667    2.000    0.000    0.333 
#    0.000    0.833    0.000    0.000    0.000    1.167 
#    0.000    6.667    0.000    0.000    0.000    0.167 
#
# Total GULP energy -267232.857557 kJ/mol
# GULP energy per Si atom -5567.351199 kJ/mol
# Density = 1.742297 g / cm^3
# Si number density = 17.462717 Si / 1000 Ang^3
#
#
#
# Elastic Constant Matrix: (Units=GPa)
#
#
# Indices 1 2 3 4 5 6 
#
# 1 68.2847 -2.3551 51.1501 0.0000 0.0000 0.0000
# 2 -2.3551 19.8886 -7.7389 0.0000 0.0000 0.0000
# 3 51.1501 -7.7389 178.2994 0.0000 0.0000 0.0000
# 4 0.0000 0.0000 0.0000 11.4686 0.0000 0.0000
# 5 0.0000 0.0000 0.0000 0.0000 10.3921 0.0000
# 6 0.0000 0.0000 0.0000 0.0000 0.0000 10.0661
#
#
#
# Elastic Compliance Matrix: (Units=1/GPa)
#
#
# Indices 1 2 3 4 5 6 
#
# 1 0.018653 0.000129 -0.005346 0.000000 0.000000 0.000000
# 2 0.000129 0.051145 0.002183 0.000000 0.000000 0.000000
# 3 -0.005346 0.002183 0.007237 0.000000 0.000000 0.000000
# 4 0.000000 0.000000 0.000000 0.087195 0.000000 0.000000
# 5 0.000000 0.000000 0.000000 0.000000 0.096227 0.000000
# 6 0.000000 0.000000 0.000000 0.000000 0.000000 0.099343
#
#
# Mechanical properties :
#
#
# Convention : Reuss Voigt Hill
#
# Bulk Modulus (GPa) = 14.09104 38.73165 26.41134
# Shear Modulus (GPa) = 12.83622 21.41314 17.12468
#
# Velocity S-wave (km/s) = 2.71415 3.50554 3.13492
# Velocity P-wave (km/s) = 4.23189 6.21393 5.31610
#
# Compressibility (1/GPa) = 0.07096710
#
# Stress axis : x y z
#
# Youngs Moduli (GPa) = 53.60997 19.55233 138.18213
#
# Poissons Ratio (x) = -0.00252 0.73867
# Poissons Ratio (y) = -0.00690 -0.30164
# Poissons Ratio (z) = 0.28658 -0.04268
#
# Static dielectric constant tensor:
#      x y z
#    x 1.558330 0.000000 0.000000 
#    y 0.000000 1.634280 0.000000 
#    z 0.000000 0.000000 1.661880 
# 
# From -- ./inp_files/22745.got.cif
#   From: 2010.05.17/outbox.cif.g08.bks.cpg/sg59_12_cif.got.tgz:22745.got - 2010.06.03 14:40:33.
