data_PCOD9446869
_publ_section_title
;
Structure prediction by ZEFSAII (Michael W. Deem and Ramdas Pophale) SiO2 
 PCOD9446869
Probable space group: P M M N
;
_chemical_formula_sum "Si O2"
_cell_formula_units_Z 40
_cell_length_a 8.600893
_cell_length_b 25.579528
_cell_length_c 10.499037
_cell_angle_alpha 90.000000
_cell_angle_beta 90.000000
_cell_angle_gamma 90.000000
_cell_volume 2309.859358
_symmetry_space_group_name_H-M "P M M N"
_symmetry_group_IT_number 59
_space_group.IT_coordinate_system_code '2'
_symmetry_cell_setting 'orthorhombic'
loop_
_space_group_symop_operation_xyz
x,y,z
1/2-x,1/2-y,z
1/2+x,-y,-z
-x,1/2+y,-z
-x,-y,-z
1/2+x,1/2+y,-z
1/2-x,y,z
x,1/2-y,z
loop_
_atom_site_type_symbol
_atom_site_label
_atom_site_fract_x
_atom_site_fract_y
_atom_site_fract_z
Si Si1 0.065246 0.250000 0.006456
Si Si2 0.934721 0.634649 0.019139
Si Si3 0.564009 0.025144 0.371756
Si Si4 0.060842 0.636408 0.730151
Si Si5 0.432932 0.750000 0.713278
Si Si6 0.565719 0.469096 0.877929
O O1 0.250000 0.250000 0.042310
O O2 0.035709 0.194720 0.939421
O O3 0.963723 0.250000 0.134692
O O4 0.750000 0.625130 0.022174
O O5 0.019430 0.591147 0.101842
O O6 0.992499 0.630392 0.872579
O O7 0.750000 0.023687 0.374238
O O8 0.516486 0.085729 0.351018
O O9 0.500000 0.000000 0.500000
O O10 0.505368 0.993319 0.249348
O O11 0.250000 0.637508 0.741184
O O12 0.007089 0.692593 0.673965
O O13 0.250000 0.750000 0.685283
O O14 0.750000 0.474919 0.875258
O O15 0.500000 0.500000 0.000000
#
# Coordination Sequence:
#
# PCOD9446869 Si02
#       6
#     4   8   8   8   4   8
#     4   8  16  28  44  73 108 139 170 212 266 320
#     4  10  18  30  51  78 109 141 176 219 268 320
#     4  11  23  38  55  78 109 145 183 224 274 326
#     4   9  17  30  50  75 105 136 173 217 265 319
#     4   8  14  26  46  73 100 131 168 214 264 312
#     4  12  23  36  55  80 108 142 182 224 271 321
#
# _framework density 17.317073000000001
#
# number of rings (size 3 to 8) (size 9 to 14) (size 15 to 20)
#    0.000    2.000    2.000    3.000    0.000    1.600 
#    0.000    0.000    0.000    1.200    0.000    4.200 
#    0.000    0.000    0.000    0.000    0.000    0.000 
#
# Total GULP energy -223005.872522 kJ/mol
# GULP energy per Si atom -5575.146813 kJ/mol
# Density = 1.727766 g / cm^3
# Si number density = 17.317073 Si / 1000 Ang^3
#
#
#
# Elastic Constant Matrix: (Units=GPa)
#
#
# Indices 1 2 3 4 5 6 
#
# 1 47.7146 38.1616 24.7845 0.0000 0.0000 0.0000
# 2 38.1616 181.5230 69.1583 0.0000 0.0000 0.0000
# 3 24.7845 69.1583 89.0586 0.0000 0.0000 0.0000
# 4 0.0000 0.0000 0.0000 17.2274 0.0000 0.0000
# 5 0.0000 0.0000 0.0000 0.0000 24.9667 0.0000
# 6 0.0000 0.0000 0.0000 0.0000 0.0000 23.5140
#
#
#
# Elastic Compliance Matrix: (Units=1/GPa)
#
#
# Indices 1 2 3 4 5 6 
#
# 1 0.026303 -0.003893 -0.004297 0.000000 0.000000 0.000000
# 2 -0.003893 0.008400 -0.005439 0.000000 0.000000 0.000000
# 3 -0.004297 -0.005439 0.016649 0.000000 0.000000 0.000000
# 4 0.000000 0.000000 0.000000 0.058047 0.000000 0.000000
# 5 0.000000 0.000000 0.000000 0.000000 0.040053 0.000000
# 6 0.000000 0.000000 0.000000 0.000000 0.000000 0.042528
#
#
# Mechanical properties :
#
#
# Convention : Reuss Voigt Hill
#
# Bulk Modulus (GPa) = 41.50615 64.72278 53.11446
# Shear Modulus (GPa) = 22.00034 25.55441 23.77738
#
# Velocity S-wave (km/s) = 3.56819 3.84562 3.70950
# Velocity P-wave (km/s) = 6.40284 7.56139 7.00611
#
# Compressibility (1/GPa) = 0.02409282
#
# Stress axis : x y z
#
# Youngs Moduli (GPa) = 38.01806 119.05261 60.06544
#
# Poissons Ratio (x) = 0.46341 0.25812
# Poissons Ratio (y) = 0.14799 0.32672
# Poissons Ratio (z) = 0.16338 0.64758
#
# Static dielectric constant tensor:
#      x y z
#    x 1.584120 0.000000 0.000000 
#    y 0.000000 1.660240 0.000000 
#    z 0.000000 0.000000 1.527400 
# 
# From -- ./inp_files/5896.got.cif
#   From: 2010.05.17/outbox.cif.g08.bks.cpg/sg59_3_cif.got.tgz:5896.got - 2010.06.03 14:40:33.
