data_PCOD9446120
_publ_section_title
;
Structure prediction by ZEFSAII (Michael W. Deem and Ramdas Pophale) SiO2 
 PCOD9446120
Probable space group: P N N M
;
_chemical_formula_sum "Si O2"
_cell_formula_units_Z 58
_cell_length_a 12.000000
_cell_length_b 18.000000
_cell_length_c 15.000000
_cell_angle_alpha 90.000000
_cell_angle_beta 90.000000
_cell_angle_gamma 90.000000
_cell_volume 3240.000000
_symmetry_space_group_name_H-M "P N N M"
_symmetry_group_IT_number 58
_symmetry_cell_setting 'orthorhombic'
loop_
_space_group_symop_operation_xyz
x,y,z
-x,-y,z
1/2+x,1/2-y,1/2-z
1/2-x,1/2+y,1/2-z
-x,-y,-z
x,y,-z
1/2-x,1/2+y,1/2+z
1/2+x,1/2-y,1/2+z
loop_
_atom_site_type_symbol
_atom_site_label
_atom_site_fract_x
_atom_site_fract_y
_atom_site_fract_z
Si Si1 0.944152 0.317013 0.247210
Si Si2 0.697482 0.378513 0.266650
Si Si3 0.562609 0.079597 0.103500
Si Si4 0.682259 0.543983 0.652521
Si Si5 0.540126 0.415994 0.100857
Si Si6 0.374382 0.763033 0.610089
Si Si7 0.346865 0.338250 0.184409
Si Si8 0.500000 0.500000 0.500000
O O1 0.824845 0.358890 0.239091
O O2 0.906667 0.236074 0.280887
O O3 0.015769 0.362221 0.322418
O O4 0.017245 0.300622 0.157944
O O5 0.694761 0.459858 0.310855
O O6 0.621837 0.385105 0.177691
O O7 0.651396 0.316200 0.337952
O O8 0.695805 0.067618 0.114613
O O9 0.500000 0.000000 0.116779
O O10 0.539945 0.102704 0.000000
O O11 0.659108 0.601910 0.734071
O O12 0.583525 0.537151 0.578984
O O13 0.500000 0.500000 0.120096
O O14 0.426636 0.370185 0.108747
O O15 0.586261 0.412717 0.000000
O O16 0.380690 0.755806 0.500000
O O17 0.271173 0.814871 0.641842
#
# Coordination Sequence:
#
# PCOD9446120 Si02
#       8
#     8   8   8   8   8   8   8   2
#     4  11  24  42  66  95 133 174 222 276 336 405
#     4  11  24  42  66  97 131 175 221 280 340 399
#     4  11  23  43  69  99 131 174 223 274 336 406
#     4  12  23  42  67  96 142 173 220 278 340 405
#     4  11  22  39  65  93 124 168 219 271 330 404
#     4  11  25  42  66  94 134 179 224 278 342 412
#     4  11  23  43  64  92 130 179 221 276 339 403
#     4  12  28  36  66 116 134 176 218 276 354 416
#
# _framework density 17.901235
#
# number of rings (size 3 to 8) (size 9 to 14) (size 15 to 20)
#    0.000    0.828    6.207    1.241    0.966    3.310 
#    0.000    0.000    1.517    1.241    0.000    0.000 
#    0.000    0.000    0.000    0.000    0.000    0.000 
#
# Total GULP energy -323081.088021 kJ/mol
# GULP energy per Si atom -5570.363587 kJ/mol
# Density = 1.786049 g / cm^3
# Si number density = 17.901235 Si / 1000 Ang^3
#
#
#
# Elastic Constant Matrix: (Units=GPa)
#
#
# Indices 1 2 3 4 5 6 
#
# 1 118.6928 40.0173 67.4146 0.0000 0.0000 0.0000
# 2 40.0173 113.1505 60.0491 0.0000 0.0000 0.0000
# 3 67.4146 60.0491 172.4706 0.0000 0.0000 0.0000
# 4 0.0000 0.0000 0.0000 25.6995 0.0000 0.0000
# 5 0.0000 0.0000 0.0000 0.0000 35.2564 0.0000
# 6 0.0000 0.0000 0.0000 0.0000 0.0000 33.4070
#
#
#
# Elastic Compliance Matrix: (Units=1/GPa)
#
#
# Indices 1 2 3 4 5 6 
#
# 1 0.011189 -0.002007 -0.003675 0.000000 0.000000 0.000000
# 2 -0.002007 0.011201 -0.003115 0.000000 0.000000 0.000000
# 3 -0.003675 -0.003115 0.008319 0.000000 0.000000 0.000000
# 4 0.000000 0.000000 0.000000 0.038911 0.000000 0.000000
# 5 0.000000 0.000000 0.000000 0.000000 0.028364 0.000000
# 6 0.000000 0.000000 0.000000 0.000000 0.000000 0.029934
#
#
# Mechanical properties :
#
#
# Convention : Reuss Voigt Hill
#
# Bulk Modulus (GPa) = 76.24916 82.14178 79.19547
# Shear Modulus (GPa) = 33.35929 34.66145 34.01037
#
# Velocity S-wave (km/s) = 4.32153 4.40507 4.36350
# Velocity P-wave (km/s) = 8.22117 8.47694 8.35004
#
# Compressibility (1/GPa) = 0.01311490
#
# Stress axis : x y z
#
# Youngs Moduli (GPa) = 89.37430 89.27865 120.20506
#
# Poissons Ratio (x) = 0.17918 0.44172
# Poissons Ratio (y) = 0.17937 0.37448
# Poissons Ratio (z) = 0.32842 0.27813
#
# Static dielectric constant tensor:
#      x y z
#    x 1.636000 0.000000 0.000000 
#    y 0.000000 1.629320 0.000000 
#    z 0.000000 0.000000 1.604550 
# 
# From -- ./inp_files/21474.got.cif
#   From: 2010.05.17/outbox.ucp.g08.bks.cvg/sg58_11_cif.got.tgz:21474.got - 2010.06.11 16:41:41.
