data_PCOD9446820
_publ_section_title
;
Structure prediction by ZEFSAII (Michael W. Deem and Ramdas Pophale) SiO2 
 PCOD9446820
Probable space group: P M M N
;
_chemical_formula_sum "Si O2"
_cell_formula_units_Z 64
_cell_length_a 7.456808
_cell_length_b 20.923978
_cell_length_c 20.657840
_cell_angle_alpha 90.000000
_cell_angle_beta 90.000000
_cell_angle_gamma 90.000000
_cell_volume 3223.161932
_symmetry_space_group_name_H-M "P M M N"
_symmetry_group_IT_number 59
_space_group.IT_coordinate_system_code '2'
_symmetry_cell_setting 'orthorhombic'
loop_
_space_group_symop_operation_xyz
x,y,z
1/2-x,1/2-y,z
1/2+x,-y,-z
-x,1/2+y,-z
-x,-y,-z
1/2+x,1/2+y,-z
1/2-x,y,z
x,1/2-y,z
loop_
_atom_site_type_symbol
_atom_site_label
_atom_site_fract_x
_atom_site_fract_y
_atom_site_fract_z
Si Si1 0.461867 0.320645 0.932316
Si Si2 0.036057 0.177943 0.403557
Si Si3 0.531390 0.959135 0.832007
Si Si4 0.969019 0.080816 0.662969
Si Si5 0.965402 0.322398 0.553477
Si Si6 0.464958 0.070462 0.027795
Si Si7 0.465608 0.603605 0.192931
Si Si8 0.530910 0.564027 0.687468
O O1 0.250000 0.317149 0.945630
O O2 0.538090 0.250000 0.941633
O O3 0.536728 0.375315 0.979677
O O4 0.479716 0.343666 0.858434
O O5 0.250000 0.180750 0.393702
O O6 0.965273 0.250000 0.392253
O O7 0.967315 0.122338 0.356727
O O8 0.005906 0.162000 0.478905
O O9 0.750000 0.958600 0.832341
O O10 0.476313 0.930790 0.762754
O O11 0.475588 0.033599 0.831849
O O12 0.469261 0.926657 0.898142
O O13 0.750000 0.080512 0.661947
O O14 0.031453 0.124750 0.603989
O O15 0.024497 0.109316 0.732679
O O16 0.023987 0.006340 0.662232
O O17 0.750000 0.320581 0.559706
O O18 0.031625 0.250000 0.566230
O O19 0.250000 0.077127 0.030189
O O20 0.500000 0.000000 0.000000
O O21 0.250000 0.602777 0.193903
O O22 0.750000 0.564035 0.686513
#
# Coordination Sequence:
#
# PCOD9446820 Si02
#       8
#     8   8   8   8   8   8   8   8
#     4  10  21  33  43  64 100 131 150 180 232 282
#     4   9  17  29  45  65  88 115 148 182 219 266
#     4   8  14  26  46  70  89 109 146 190 227 262
#     4   8  15  27  45  68  90 113 145 187 227 260
#     4   9  17  29  44  62  86 116 149 183 221 267
#     4  10  18  30  50  70  90 120 157 192 225 270
#     4   9  16  29  49  69  87 113 154 194 224 262
#     4   8  14  26  44  66  91 114 139 182 230 262
#
# _framework density 19.856278
#
# number of rings (size 3 to 8) (size 9 to 14) (size 15 to 20)
#    0.000    3.125    1.250    1.500    0.000    1.250 
#    0.000    2.500    0.000    9.000    0.000    0.000 
#    0.000    2.000    0.000    0.000    0.000    0.000 
#
# Total GULP energy -356888.719071 kJ/mol
# GULP energy per Si atom -5576.386235 kJ/mol
# Density = 1.981108 g / cm^3
# Si number density = 19.856278 Si / 1000 Ang^3
#
#
#
# Elastic Constant Matrix: (Units=GPa)
#
#
# Indices 1 2 3 4 5 6 
#
# 1 58.7577 6.2522 1.5687 0.0000 0.0000 0.0000
# 2 6.2522 162.1337 130.9416 0.0000 0.0000 0.0000
# 3 1.5687 130.9416 169.1378 0.0000 0.0000 0.0000
# 4 0.0000 0.0000 0.0000 23.8413 0.0000 0.0000
# 5 0.0000 0.0000 0.0000 0.0000 11.1329 0.0000
# 6 0.0000 0.0000 0.0000 0.0000 0.0000 4.4849
#
#
#
# Elastic Compliance Matrix: (Units=1/GPa)
#
#
# Indices 1 2 3 4 5 6 
#
# 1 0.017145 -0.001421 0.000941 0.000000 0.000000 0.000000
# 2 -0.001421 0.016575 -0.012819 0.000000 0.000000 0.000000
# 3 0.000941 -0.012819 0.015828 0.000000 0.000000 0.000000
# 4 0.000000 0.000000 0.000000 0.041944 0.000000 0.000000
# 5 0.000000 0.000000 0.000000 0.000000 0.089824 0.000000
# 6 0.000000 0.000000 0.000000 0.000000 0.000000 0.222969
#
#
# Mechanical properties :
#
#
# Convention : Reuss Voigt Hill
#
# Bulk Modulus (GPa) = 43.57263 74.17269 58.87266
# Shear Modulus (GPa) = 11.40163 24.64295 18.02229
#
# Velocity S-wave (km/s) = 2.39886 3.52670 3.01597
# Velocity P-wave (km/s) = 5.44650 7.34979 6.46853
#
# Compressibility (1/GPa) = 0.02295019
#
# Stress axis : x y z
#
# Youngs Moduli (GPa) = 58.32553 60.33055 63.18046
#
# Poissons Ratio (x) = 0.08576 -0.05948
# Poissons Ratio (y) = 0.08291 0.80991
# Poissons Ratio (z) = -0.05491 0.77338
#
# Static dielectric constant tensor:
#      x y z
#    x 1.773970 0.000000 0.000000 
#    y 0.000000 1.686280 0.000000 
#    z 0.000000 0.000000 1.685790 
# 
# From -- ./inp_files/27223.got.cif
#   From: 2010.05.17/outbox.cif.g08.bks.cpg/sg59_14_cif.got.tgz:27223.got - 2010.06.03 14:40:33.
