data_PCOD9446014
_publ_section_title
;
Structure prediction by ZEFSAII (Michael W. Deem and Ramdas Pophale) SiO2 
 PCOD9446014
Probable space group: P N N M
;
_chemical_formula_sum "Si O2"
_cell_formula_units_Z 56
_cell_length_a 15.000000
_cell_length_b 21.000000
_cell_length_c 9.000000
_cell_angle_alpha 90.000000
_cell_angle_beta 90.000000
_cell_angle_gamma 90.000000
_cell_volume 2835.000000
_symmetry_space_group_name_H-M "P N N M"
_symmetry_group_IT_number 58
_symmetry_cell_setting 'orthorhombic'
loop_
_space_group_symop_operation_xyz
x,y,z
-x,-y,z
1/2+x,1/2-y,1/2-z
1/2-x,1/2+y,1/2-z
-x,-y,-z
x,y,-z
1/2-x,1/2+y,1/2+z
1/2+x,1/2-y,1/2+z
loop_
_atom_site_type_symbol
_atom_site_label
_atom_site_fract_x
_atom_site_fract_y
_atom_site_fract_z
Si Si1 0.570040 0.556821 0.174846
Si Si2 0.741189 0.499934 0.677834
Si Si3 0.262850 0.779277 0.823302
Si Si4 0.072740 0.799389 0.675918
Si Si5 0.632737 0.103109 0.678118
Si Si6 0.769417 0.363735 0.820563
Si Si7 0.963444 0.340948 0.677504
O O1 0.500000 0.500000 0.197737
O O2 0.654335 0.540825 0.276564
O O3 0.535631 0.629206 0.201635
O O4 0.597103 0.554473 0.000000
O O5 0.750197 0.494958 0.500000
O O6 0.822076 0.540896 0.748377
O O7 0.732972 0.429501 0.750875
O O8 0.160168 0.791242 0.776864
O O9 0.316233 0.832899 0.733424
O O10 0.280887 0.703998 0.791113
O O11 0.276016 0.789135 0.000000
O O12 0.098117 0.796821 0.500000
O O13 0.015987 0.734948 0.700844
O O14 0.636153 0.098355 0.500000
O O15 0.533789 0.114728 0.739649
O O16 0.866424 0.354007 0.746261
O O17 0.775323 0.369861 0.000000
O O18 0.963891 0.352190 0.500000
#
# Coordination Sequence:
#
# PCOD9446014 Si02
#       7
#     8   8   8   8   8   8   8
#     4  10  21  38  61  90 124 164 203 245 303 370
#     4  12  25  41  62  90 123 163 208 257 309 364
#     4  10  20  36  61  88 115 154 201 252 303 361
#     4   9  18  35  59  84 116 156 195 242 298 358
#     4  12  24  39  61  89 123 164 209 253 307 369
#     4  10  22  41  63  89 124 163 203 252 312 373
#     4  10  21  38  60  90 122 157 206 258 307 361
#
# _framework density 19.753086
#
# number of rings (size 3 to 8) (size 9 to 14) (size 15 to 20)
#    0.000    1.571    1.429    3.857    0.000    4.286 
#    0.000    5.714    0.000    0.000    0.000    0.000 
#    0.000    0.000    0.000    0.000    0.000    0.000 
#
# Total GULP energy -312762.208372 kJ/mol
# GULP energy per Si atom -5585.039435 kJ/mol
# Density = 1.970813 g / cm^3
# Si number density = 19.753086 Si / 1000 Ang^3
#
#
#
# Elastic Constant Matrix: (Units=GPa)
#
#
# Indices 1 2 3 4 5 6 
#
# 1 8.7277 -14.5399 1.9647 0.0000 0.0000 0.0000
# 2 -14.5399 104.3876 27.8406 0.0000 0.0000 0.0000
# 3 1.9647 27.8406 106.3766 0.0000 0.0000 0.0000
# 4 0.0000 0.0000 0.0000 28.6212 0.0000 0.0000
# 5 0.0000 0.0000 0.0000 0.0000 29.8599 0.0000
# 6 0.0000 0.0000 0.0000 0.0000 0.0000 30.1565
#
#
#
# Elastic Compliance Matrix: (Units=1/GPa)
#
#
# Indices 1 2 3 4 5 6 
#
# 1 0.157294 0.024386 -0.009287 0.000000 0.000000 0.000000
# 2 0.024386 0.014079 -0.004135 0.000000 0.000000 0.000000
# 3 -0.009287 -0.004135 0.010654 0.000000 0.000000 0.000000
# 4 0.000000 0.000000 0.000000 0.034939 0.000000 0.000000
# 5 0.000000 0.000000 0.000000 0.000000 0.033490 0.000000
# 6 0.000000 0.000000 0.000000 0.000000 0.000000 0.033160
#
#
# Mechanical properties :
#
#
# Convention : Reuss Voigt Hill
#
# Bulk Modulus (GPa) = 4.90304 27.78031 16.34168
# Shear Modulus (GPa) = 15.16645 31.34262 23.25453
#
# Velocity S-wave (km/s) = 2.77393 3.98769 3.43485
# Velocity P-wave (km/s) = 3.57031 5.94109 4.90121
#
# Compressibility (1/GPa) = 0.20395496
#
# Stress axis : x y z
#
# Youngs Moduli (GPa) = 6.35751 71.02665 93.85841
#
# Poissons Ratio (x) = -1.73206 0.87170
# Poissons Ratio (y) = -0.15503 0.38812
# Poissons Ratio (z) = 0.05904 0.29371
#
# Static dielectric constant tensor:
#      x y z
#    x 1.714310 0.000000 0.000000 
#    y 0.000000 1.714160 0.000000 
#    z 0.000000 0.000000 1.651550 
# 
# From -- ./inp_files/6342.got.cif
#   From: 2010.05.17/outbox.ucp.g08.bks.cvg/sg58_4_cif.got.tgz:6342.got - 2010.06.11 16:41:41.
