data_PCOD9446372
_publ_section_title
;
Structure prediction by ZEFSAII (Michael W. Deem and Ramdas Pophale) SiO2 
 PCOD9446372
Probable space group: P M M N
;
_chemical_formula_sum "Si O2"
_cell_formula_units_Z 64
_cell_length_a 31.733520
_cell_length_b 8.612139
_cell_length_c 12.687960
_cell_angle_alpha 90.000000
_cell_angle_beta 90.000000
_cell_angle_gamma 90.000000
_cell_volume 3467.536808
_symmetry_space_group_name_H-M "P M M N"
_symmetry_group_IT_number 59
_space_group.IT_coordinate_system_code '2'
_symmetry_cell_setting 'orthorhombic'
loop_
_space_group_symop_operation_xyz
x,y,z
1/2-x,1/2-y,z
1/2+x,-y,-z
-x,1/2+y,-z
-x,-y,-z
1/2+x,1/2+y,-z
1/2-x,y,z
x,1/2-y,z
loop_
_atom_site_type_symbol
_atom_site_label
_atom_site_fract_x
_atom_site_fract_y
_atom_site_fract_z
Si Si1 0.517539 0.431356 0.173698
Si Si2 0.886353 0.434749 0.192593
Si Si3 0.854428 0.935654 0.985694
Si Si4 0.297236 0.061318 0.202290
Si Si5 0.382838 0.075229 0.583417
Si Si6 0.929610 0.434351 0.843791
Si Si7 0.483119 0.074387 0.605466
Si Si8 0.876566 0.561071 0.655234
O O1 0.516362 0.250000 0.146014
O O2 0.565717 0.491867 0.163039
O O3 0.477119 0.516751 0.125185
O O4 0.509222 0.459854 0.297821
O O5 0.889139 0.250000 0.191725
O O6 0.855987 0.494497 0.101513
O O7 0.872019 0.487330 0.308776
O O8 0.854728 0.750000 0.991602
O O9 0.815470 0.984919 0.911813
O O10 0.896202 0.990428 0.923663
O O11 0.250000 0.004524 0.222066
O O12 0.296162 0.250000 0.203737
O O13 0.332912 0.017659 0.286856
O O14 0.364840 0.250000 0.587118
O O15 0.433222 0.086511 0.590915
O O16 0.374822 0.009235 0.466513
O O17 0.926212 0.250000 0.847852
O O18 0.913976 0.492731 0.727979
O O19 0.499452 0.250000 0.626273
O O20 0.500000 0.000000 0.500000
O O21 0.881118 0.750000 0.655938
#
# Coordination Sequence:
#
# PCOD9446372 Si02
#       8
#     8   8   8   8   8   8   8   8
#     4  10  20  33  46  63  92 130 173 218 260 299
#     4  10  21  35  51  71  97 133 177 219 253 292
#     4  10  20  35  55  75 100 133 166 207 256 303
#     4   8  15  30  55  85 108 126 155 198 247 298
#     4   9  18  31  47  68  96 132 170 204 244 293
#     4  11  21  32  49  73 101 132 170 215 260 306
#     4  10  18  27  41  62  90 126 169 215 254 291
#     4   9  17  31  52  77 105 135 165 202 250 301
#
# _framework density 18.456906
#
# number of rings (size 3 to 8) (size 9 to 14) (size 15 to 20)
#    0.000    2.375    0.000    4.125    0.000    4.000 
#    0.000    0.000    0.000   10.125    0.000    3.500 
#    0.000    0.000    0.000    0.000    0.000    0.000 
#
# Total GULP energy -356773.671105 kJ/mol
# GULP energy per Si atom -5574.588611 kJ/mol
# Density = 1.841490 g / cm^3
# Si number density = 18.456906 Si / 1000 Ang^3
#
#
#
# Elastic Constant Matrix: (Units=GPa)
#
#
# Indices 1 2 3 4 5 6 
#
# 1 66.3021 5.7756 24.8052 0.0000 0.0000 0.0000
# 2 5.7756 26.3933 15.3021 0.0000 0.0000 0.0000
# 3 24.8052 15.3021 99.5192 0.0000 0.0000 0.0000
# 4 0.0000 0.0000 0.0000 16.8482 0.0000 0.0000
# 5 0.0000 0.0000 0.0000 0.0000 14.8850 0.0000
# 6 0.0000 0.0000 0.0000 0.0000 0.0000 10.2424
#
#
#
# Elastic Compliance Matrix: (Units=1/GPa)
#
#
# Indices 1 2 3 4 5 6 
#
# 1 0.016678 -0.001361 -0.003948 0.000000 0.000000 0.000000
# 2 -0.001361 0.041708 -0.006074 0.000000 0.000000 0.000000
# 3 -0.003948 -0.006074 0.011966 0.000000 0.000000 0.000000
# 4 0.000000 0.000000 0.000000 0.059353 0.000000 0.000000
# 5 0.000000 0.000000 0.000000 0.000000 0.067182 0.000000
# 6 0.000000 0.000000 0.000000 0.000000 0.000000 0.097633
#
#
# Mechanical properties :
#
#
# Convention : Reuss Voigt Hill
#
# Bulk Modulus (GPa) = 21.01410 31.55338 26.28374
# Shear Modulus (GPa) = 15.00836 18.15056 16.57946
#
# Velocity S-wave (km/s) = 2.85468 3.13933 3.00038
# Velocity P-wave (km/s) = 4.71973 5.50212 5.12587
#
# Compressibility (1/GPa) = 0.04758710
#
# Stress axis : x y z
#
# Youngs Moduli (GPa) = 59.95935 23.97643 83.56866
#
# Poissons Ratio (x) = 0.03263 0.32991
# Poissons Ratio (y) = 0.08159 0.50758
# Poissons Ratio (z) = 0.23671 0.14563
#
# Static dielectric constant tensor:
#      x y z
#    x 1.647360 0.000000 0.000000 
#    y 0.000000 1.645090 0.000000 
#    z 0.000000 0.000000 1.802490 
# 
# From -- ./inp_files/19359.got.cif
#   From: 2010.05.17/outbox.cif.g08.bks.cpg/sg59_10_cif.got.tgz:19359.got - 2010.06.03 14:40:33.
