data_PCOD9446568
_publ_section_title
;
Structure prediction by ZEFSAII (Michael W. Deem and Ramdas Pophale) SiO2 
 PCOD9446568
Probable space group: P M M N
;
_chemical_formula_sum "Si O2"
_cell_formula_units_Z 56
_cell_length_a 8.620319
_cell_length_b 25.307791
_cell_length_c 16.675855
_cell_angle_alpha 90.000000
_cell_angle_beta 90.000000
_cell_angle_gamma 90.000000
_cell_volume 3638.025065
_symmetry_space_group_name_H-M "P M M N"
_symmetry_group_IT_number 59
_space_group.IT_coordinate_system_code '2'
_symmetry_cell_setting 'orthorhombic'
loop_
_space_group_symop_operation_xyz
x,y,z
1/2-x,1/2-y,z
1/2+x,-y,-z
-x,1/2+y,-z
-x,-y,-z
1/2+x,1/2+y,-z
1/2-x,y,z
x,1/2-y,z
loop_
_atom_site_type_symbol
_atom_site_label
_atom_site_fract_x
_atom_site_fract_y
_atom_site_fract_z
Si Si1 0.565650 0.811716 0.726189
Si Si2 0.562638 0.010243 0.874080
Si Si3 0.565749 0.098319 0.384946
Si Si4 0.562799 0.417056 0.019290
Si Si5 0.065032 0.054715 0.537334
Si Si6 0.937658 0.190253 0.095323
Si Si7 0.563615 0.010111 0.690165
O O1 0.750000 0.821397 0.724272
O O2 0.537479 0.750000 0.707671
O O3 0.482444 0.850308 0.664427
O O4 0.503636 0.820844 0.816171
O O5 0.750000 0.007414 0.875616
O O6 0.497858 0.956030 0.911275
O O7 0.515396 0.018283 0.782209
O O8 0.513031 0.056755 0.935119
O O9 0.750000 0.092175 0.388200
O O10 0.498657 0.097893 0.475320
O O11 0.495181 0.047306 0.339159
O O12 0.750000 0.418198 0.020942
O O13 0.512904 0.357176 0.036944
O O14 0.250000 0.054028 0.535960
O O15 0.004027 0.052995 0.628083
O O16 0.000000 0.000000 0.500000
O O17 0.750000 0.189606 0.099908
O O18 0.985105 0.250000 0.072208
O O19 0.750000 0.010762 0.684897
#
# Coordination Sequence:
#
# PCOD9446568 Si02
#       7
#     8   8   8   8   8   8   8
#     4  10  20  32  45  63  88 116 146 178 212 253
#     4   9  18  29  42  61  86 116 146 178 217 260
#     4  11  20  30  45  64  88 116 144 176 215 256
#     4   9  17  29  43  61  86 114 145 179 216 259
#     4  10  18  29  44  63  87 112 142 175 210 254
#     4   9  17  29  45  64  86 113 145 180 216 255
#     4  10  18  29  44  63  88 116 147 179 215 259
#
# _framework density 15.392967000000001
#
# number of rings (size 3 to 8) (size 9 to 14) (size 15 to 20)
#    0.000    2.286    0.000    6.000    0.000    4.857 
#    0.000    0.000    0.000    0.000    0.000    1.000 
#    0.000    3.429    0.000    0.000    0.000    0.000 
#
# Total GULP energy -312198.279734 kJ/mol
# GULP energy per Si atom -5574.969281 kJ/mol
# Density = 1.535793 g / cm^3
# Si number density = 15.392967 Si / 1000 Ang^3
#
#
#
# Elastic Constant Matrix: (Units=GPa)
#
#
# Indices 1 2 3 4 5 6 
#
# 1 57.1427 27.2824 33.1111 0.0000 0.0000 0.0000
# 2 27.2824 81.4092 57.9398 0.0000 0.0000 0.0000
# 3 33.1111 57.9398 125.2964 0.0000 0.0000 0.0000
# 4 0.0000 0.0000 0.0000 25.9627 0.0000 0.0000
# 5 0.0000 0.0000 0.0000 0.0000 20.9752 0.0000
# 6 0.0000 0.0000 0.0000 0.0000 0.0000 18.7118
#
#
#
# Elastic Compliance Matrix: (Units=1/GPa)
#
#
# Indices 1 2 3 4 5 6 
#
# 1 0.021849 -0.004789 -0.003559 0.000000 0.000000 0.000000
# 2 -0.004789 0.019359 -0.007687 0.000000 0.000000 0.000000
# 3 -0.003559 -0.007687 0.012476 0.000000 0.000000 0.000000
# 4 0.000000 0.000000 0.000000 0.038517 0.000000 0.000000
# 5 0.000000 0.000000 0.000000 0.000000 0.047675 0.000000
# 6 0.000000 0.000000 0.000000 0.000000 0.000000 0.053442
#
#
# Mechanical properties :
#
#
# Convention : Reuss Voigt Hill
#
# Bulk Modulus (GPa) = 46.26521 55.61276 50.93899
# Shear Modulus (GPa) = 21.49678 22.83094 22.16386
#
# Velocity S-wave (km/s) = 3.74108 3.85542 3.79868
# Velocity P-wave (km/s) = 6.98442 7.48506 7.23907
#
# Compressibility (1/GPa) = 0.02161451
#
# Stress axis : x y z
#
# Youngs Moduli (GPa) = 45.76877 51.65519 80.15321
#
# Poissons Ratio (x) = 0.24737 0.28529
# Poissons Ratio (y) = 0.21918 0.61610
# Poissons Ratio (z) = 0.16291 0.39705
#
# Static dielectric constant tensor:
#      x y z
#    x 1.519070 0.000000 0.000000 
#    y 0.000000 1.515420 0.000000 
#    z 0.000000 0.000000 1.525620 
# 
# From -- ./inp_files/26406.got.cif
#   From: 2010.05.17/outbox.cif.g08.bks.cpg/sg59_14_cif.got.tgz:26406.got - 2010.06.03 14:40:33.
