data_PCOD9446590
_publ_section_title
;
Structure prediction by ZEFSAII (Michael W. Deem and Ramdas Pophale) SiO2 
 PCOD9446590
Probable space group: P M M N
;
_chemical_formula_sum "Si O2"
_cell_formula_units_Z 56
_cell_length_a 22.647229
_cell_length_b 8.466035
_cell_length_c 17.511990
_cell_angle_alpha 90.000000
_cell_angle_beta 90.000000
_cell_angle_gamma 90.000000
_cell_volume 3357.612953
_symmetry_space_group_name_H-M "P M M N"
_symmetry_group_IT_number 59
_space_group.IT_coordinate_system_code '2'
_symmetry_cell_setting 'orthorhombic'
loop_
_space_group_symop_operation_xyz
x,y,z
1/2-x,1/2-y,z
1/2+x,-y,-z
-x,1/2+y,-z
-x,-y,-z
1/2+x,1/2+y,-z
1/2-x,y,z
x,1/2-y,z
loop_
_atom_site_type_symbol
_atom_site_label
_atom_site_fract_x
_atom_site_fract_y
_atom_site_fract_z
Si Si1 0.920213 0.931607 0.505761
Si Si2 0.018556 0.563752 0.628326
Si Si3 0.184091 0.441428 0.081655
Si Si4 0.548205 0.558902 0.938804
Si Si5 0.535061 0.064028 0.770176
Si Si6 0.816165 0.074368 0.584056
Si Si7 0.838906 0.565417 0.743221
O O1 0.935582 0.750000 0.490805
O O2 0.964427 0.989479 0.572844
O O3 0.927165 0.025991 0.427334
O O4 0.856307 0.950061 0.541308
O O5 0.013441 0.750000 0.642083
O O6 0.015428 0.474773 0.708672
O O7 0.250000 0.494427 0.053056
O O8 0.184279 0.250000 0.076186
O O9 0.118376 0.489970 0.050139
O O10 0.181339 0.481601 0.171987
O O11 0.547945 0.750000 0.936188
O O12 0.527129 0.490601 0.857130
O O13 0.500000 0.500000 0.000000
O O14 0.548631 0.250000 0.768430
O O15 0.590987 0.962323 0.742028
O O16 0.750000 0.071913 0.554640
O O17 0.841721 0.250000 0.573683
O O18 0.814796 0.034551 0.673589
O O19 0.824996 0.750000 0.732543
#
# Coordination Sequence:
#
# PCOD9446590 Si02
#       7
#     8   8   8   8   8   8   8
#     4  10  20  32  48  68  93 126 164 205 248 291
#     4  10  19  32  50  71  96 124 159 204 248 292
#     4   8  15  28  47  70  95 127 166 204 241 289
#     4  10  20  34  52  75 105 136 170 209 255 306
#     4  11  20  31  50  73 100 131 165 203 246 297
#     4  11  22  32  43  63  94 131 168 207 249 292
#     4  10  18  29  45  67  95 129 167 203 240 288
#
# _framework density 16.678515000000001
#
# number of rings (size 3 to 8) (size 9 to 14) (size 15 to 20)
#    0.000    2.000    1.429    4.714    0.000    2.857 
#    0.000    0.000    0.000    8.571    0.000    1.000 
#    0.000    5.714    0.000    0.000    0.000    0.000 
#
# Total GULP energy -311910.422789 kJ/mol
# GULP energy per Si atom -5569.828978 kJ/mol
# Density = 1.664055 g / cm^3
# Si number density = 16.678515 Si / 1000 Ang^3
#
#
#
# Elastic Constant Matrix: (Units=GPa)
#
#
# Indices 1 2 3 4 5 6 
#
# 1 76.7407 9.2625 39.6183 0.0000 0.0000 0.0000
# 2 9.2625 46.4572 12.5592 0.0000 0.0000 0.0000
# 3 39.6183 12.5592 71.2856 0.0000 0.0000 0.0000
# 4 0.0000 0.0000 0.0000 25.0318 0.0000 0.0000
# 5 0.0000 0.0000 0.0000 0.0000 12.4850 0.0000
# 6 0.0000 0.0000 0.0000 0.0000 0.0000 10.2333
#
#
#
# Elastic Compliance Matrix: (Units=1/GPa)
#
#
# Indices 1 2 3 4 5 6 
#
# 1 0.018314 -0.000945 -0.010012 0.000000 0.000000 0.000000
# 2 -0.000945 0.022650 -0.003466 0.000000 0.000000 0.000000
# 3 -0.010012 -0.003466 0.020203 0.000000 0.000000 0.000000
# 4 0.000000 0.000000 0.000000 0.039949 0.000000 0.000000
# 5 0.000000 0.000000 0.000000 0.000000 0.080096 0.000000
# 6 0.000000 0.000000 0.000000 0.000000 0.000000 0.097720
#
#
# Mechanical properties :
#
#
# Convention : Reuss Voigt Hill
#
# Bulk Modulus (GPa) = 30.93779 35.26261 33.10020
# Shear Modulus (GPa) = 15.69610 18.41958 17.05784
#
# Velocity S-wave (km/s) = 3.07106 3.32684 3.20151
# Velocity P-wave (km/s) = 5.58256 5.99546 5.79269
#
# Compressibility (1/GPa) = 0.03232293
#
# Stress axis : x y z
#
# Youngs Moduli (GPa) = 54.60440 44.14927 49.49810
#
# Poissons Ratio (x) = 0.04171 0.49556
# Poissons Ratio (y) = 0.05159 0.17154
# Poissons Ratio (z) = 0.54668 0.15300
#
# Static dielectric constant tensor:
#      x y z
#    x 1.622380 0.000000 0.000000 
#    y 0.000000 1.564770 0.000000 
#    z 0.000000 0.000000 1.557320 
# 
# From -- ./inp_files/28373.got.cif
#   From: 2010.05.17/outbox.cif.g08.bks.cpg/sg59_15_cif.got.tgz:28373.got - 2010.06.03 14:40:33.
