data_PCOD9446876
_publ_section_title
;
Structure prediction by ZEFSAII (Michael W. Deem and Ramdas Pophale) SiO2 
 PCOD9446876
Probable space group: P M M N
;
_chemical_formula_sum "Si O2"
_cell_formula_units_Z 40
_cell_length_a 26.981939
_cell_length_b 8.386580
_cell_length_c 9.292007
_cell_angle_alpha 90.000000
_cell_angle_beta 90.000000
_cell_angle_gamma 90.000000
_cell_volume 2102.652861
_symmetry_space_group_name_H-M "P M M N"
_symmetry_group_IT_number 59
_space_group.IT_coordinate_system_code '2'
_symmetry_cell_setting 'orthorhombic'
loop_
_space_group_symop_operation_xyz
x,y,z
1/2-x,1/2-y,z
1/2+x,-y,-z
-x,1/2+y,-z
-x,-y,-z
1/2+x,1/2+y,-z
1/2-x,y,z
x,1/2-y,z
loop_
_atom_site_type_symbol
_atom_site_label
_atom_site_fract_x
_atom_site_fract_y
_atom_site_fract_z
Si Si1 0.046907 0.941888 0.590485
Si Si2 0.142875 0.944692 0.413534
Si Si3 0.750000 0.438231 0.576738
Si Si4 0.354162 0.559177 0.078406
Si Si5 0.750000 0.562185 0.899559
Si Si6 0.548543 0.560414 0.083595
O O1 0.046967 0.750000 0.595167
O O2 0.096816 0.996347 0.508912
O O3 0.045087 0.007492 0.751234
O O4 0.000000 0.000000 0.500000
O O5 0.143627 0.750000 0.414745
O O6 0.196532 0.002553 0.470331
O O7 0.137753 0.991367 0.245717
O O8 0.750000 0.250000 0.545221
O O9 0.750000 0.463485 0.749623
O O10 0.349346 0.750000 0.075670
O O11 0.301920 0.484681 0.027329
O O12 0.401550 0.508740 0.987078
O O13 0.750000 0.750000 0.868286
O O14 0.550100 0.750000 0.074125
O O15 0.500000 0.500000 0.000000
#
# Coordination Sequence:
#
# PCOD9446876 Si02
#       6
#     8   8   4   8   4   8
#     4  11  22  38  58  83 113 148 188 234 284 341
#     4   8  16  31  56  83 108 139 183 230 274 324
#     4   8  14  30  53  78 107 144 186 230 272 320
#     4  10  19  36  60  86 114 150 192 236 282 335
#     4  10  18  30  51  84 119 152 188 230 278 334
#     4  12  25  41  59  83 113 149 191 240 293 349
#
# _framework density 19.023588
#
# number of rings (size 3 to 8) (size 9 to 14) (size 15 to 20)
#    0.000    2.000    0.000    6.300    0.000    1.600 
#    0.000   10.000    0.000    2.400    0.000    0.000 
#    0.000    0.000    0.000    0.000    0.000    0.000 
#
# Total GULP energy -223262.227777 kJ/mol
# GULP energy per Si atom -5581.555694 kJ/mol
# Density = 1.898029 g / cm^3
# Si number density = 19.023588 Si / 1000 Ang^3
#
#
#
# Elastic Constant Matrix: (Units=GPa)
#
#
# Indices 1 2 3 4 5 6 
#
# 1 216.6758 23.6717 86.6876 0.0000 0.0000 0.0000
# 2 23.6717 56.5482 18.4407 0.0000 0.0000 0.0000
# 3 86.6876 18.4407 101.8008 0.0000 0.0000 0.0000
# 4 0.0000 0.0000 0.0000 23.4432 0.0000 0.0000
# 5 0.0000 0.0000 0.0000 0.0000 33.9684 0.0000
# 6 0.0000 0.0000 0.0000 0.0000 0.0000 31.6839
#
#
#
# Elastic Compliance Matrix: (Units=1/GPa)
#
#
# Indices 1 2 3 4 5 6 
#
# 1 0.007059 -0.001057 -0.005819 0.000000 0.000000 0.000000
# 2 -0.001057 0.018953 -0.002533 0.000000 0.000000 0.000000
# 3 -0.005819 -0.002533 0.015237 0.000000 0.000000 0.000000
# 4 0.000000 0.000000 0.000000 0.042656 0.000000 0.000000
# 5 0.000000 0.000000 0.000000 0.000000 0.029439 0.000000
# 6 0.000000 0.000000 0.000000 0.000000 0.000000 0.031562
#
#
# Mechanical properties :
#
#
# Convention : Reuss Voigt Hill
#
# Bulk Modulus (GPa) = 44.58353 70.29165 57.43759
# Shear Modulus (GPa) = 29.20527 34.23408 31.71967
#
# Velocity S-wave (km/s) = 3.92243 4.24672 4.08779
# Velocity P-wave (km/s) = 6.63331 7.81512 7.24834
#
# Compressibility (1/GPa) = 0.02242981
#
# Stress axis : x y z
#
# Youngs Moduli (GPa) = 141.66434 52.76321 65.62778
#
# Poissons Ratio (x) = 0.05578 0.38192
# Poissons Ratio (y) = 0.14977 0.16623
# Poissons Ratio (z) = 0.82441 0.13365
#
# Static dielectric constant tensor:
#      x y z
#    x 1.684520 0.000000 0.000000 
#    y 0.000000 1.662080 0.000000 
#    z 0.000000 0.000000 1.630100 
# 
# From -- ./inp_files/12448.got.cif
#   From: 2010.05.17/outbox.cif.g08.bks.cpg/sg59_7_cif.got.tgz:12448.got - 2010.06.03 14:40:33.
