data_PCOD9446302
_publ_section_title
;
Structure prediction by ZEFSAII (Michael W. Deem and Ramdas Pophale) SiO2 
 PCOD9446302
Probable space group: P M M N
;
_chemical_formula_sum "Si O2"
_cell_formula_units_Z 64
_cell_length_a 21.258166
_cell_length_b 18.340934
_cell_length_c 10.199153
_cell_angle_alpha 90.000000
_cell_angle_beta 90.000000
_cell_angle_gamma 90.000000
_cell_volume 3976.594879
_symmetry_space_group_name_H-M "P M M N"
_symmetry_group_IT_number 59
_space_group.IT_coordinate_system_code '2'
_symmetry_cell_setting 'orthorhombic'
loop_
_space_group_symop_operation_xyz
x,y,z
1/2-x,1/2-y,z
1/2+x,-y,-z
-x,1/2+y,-z
-x,-y,-z
1/2+x,1/2+y,-z
1/2-x,y,z
x,1/2-y,z
loop_
_atom_site_type_symbol
_atom_site_label
_atom_site_fract_x
_atom_site_fract_y
_atom_site_fract_z
Si Si1 0.459421 0.664537 0.156933
Si Si2 0.324173 0.473323 0.813862
Si Si3 0.002661 0.081312 0.336906
Si Si4 0.444848 0.552063 0.937802
Si Si5 0.897915 0.667362 0.226591
Si Si6 0.320406 0.018509 0.502830
Si Si7 0.114361 0.334823 0.465513
Si Si8 0.933448 0.429445 0.599327
O O1 0.447353 0.750000 0.142116
O O2 0.535257 0.653271 0.158640
O O3 0.434889 0.633680 0.294806
O O4 0.431934 0.614532 0.043324
O O5 0.250000 0.484260 0.848026
O O6 0.379193 0.513008 0.896841
O O7 0.344726 0.388662 0.816642
O O8 0.331915 0.492483 0.658829
O O9 0.062297 0.132899 0.366654
O O10 0.973263 0.087177 0.194394
O O11 0.956160 0.096761 0.457305
O O12 0.021025 0.995536 0.352974
O O13 0.500000 0.500000 0.000000
O O14 0.878356 0.750000 0.201524
O O15 0.910416 0.661024 0.383596
O O16 0.250000 0.997760 0.473774
O O17 0.331488 0.103920 0.469122
O O18 0.367909 0.969775 0.421354
O O19 0.130098 0.250000 0.439881
#
# Coordination Sequence:
#
# PCOD9446302 Si02
#       8
#     8   8   8   8   8   8   8   8
#     4  11  22  35  55  82 111 140 176 226 282 328
#     4  10  19  33  53  80 109 147 189 225 271 328
#     4  10  18  29  53  79 104 142 179 217 271 312
#     4  12  21  35  55  81 112 148 183 232 275 321
#     4   9  16  29  49  80 115 142 171 216 269 324
#     4   9  18  31  52  79 107 141 185 227 267 325
#     4   9  17  28  48  79 113 141 169 214 268 323
#     4  10  17  32  53  77 105 134 180 227 271 312
#
# _framework density 16.094170999999999
#
# number of rings (size 3 to 8) (size 9 to 14) (size 15 to 20)
#    0.000    2.000    5.000    0.000    0.000    1.000 
#    0.000    3.125    0.000    1.500    0.000    1.750 
#    0.000    0.000    0.000    0.000    0.000    0.000 
#
# Total GULP energy -356441.690317 kJ/mol
# GULP energy per Si atom -5569.401411 kJ/mol
# Density = 1.605754 g / cm^3
# Si number density = 16.094171 Si / 1000 Ang^3
#
#
#
# Elastic Constant Matrix: (Units=GPa)
#
#
# Indices 1 2 3 4 5 6 
#
# 1 83.3506 39.6662 37.4051 0.0000 0.0000 0.0000
# 2 39.6662 77.4503 38.3164 0.0000 0.0000 0.0000
# 3 37.4051 38.3164 81.7203 0.0000 0.0000 0.0000
# 4 0.0000 0.0000 0.0000 23.8746 0.0000 0.0000
# 5 0.0000 0.0000 0.0000 0.0000 15.8192 0.0000
# 6 0.0000 0.0000 0.0000 0.0000 0.0000 11.3317
#
#
#
# Elastic Compliance Matrix: (Units=1/GPa)
#
#
# Indices 1 2 3 4 5 6 
#
# 1 0.017242 -0.006414 -0.004885 0.000000 0.000000 0.000000
# 2 -0.006414 0.019197 -0.006065 0.000000 0.000000 0.000000
# 3 -0.004885 -0.006065 0.017316 0.000000 0.000000 0.000000
# 4 0.000000 0.000000 0.000000 0.041886 0.000000 0.000000
# 5 0.000000 0.000000 0.000000 0.000000 0.063214 0.000000
# 6 0.000000 0.000000 0.000000 0.000000 0.000000 0.088248
#
#
# Mechanical properties :
#
#
# Convention : Reuss Voigt Hill
#
# Bulk Modulus (GPa) = 52.55445 52.58850 52.57148
# Shear Modulus (GPa) = 17.35064 18.68065 18.01564
#
# Velocity S-wave (km/s) = 3.28696 3.41061 3.34936
# Velocity P-wave (km/s) = 6.86518 6.94666 6.90604
#
# Compressibility (1/GPa) = 0.01902788
#
# Stress axis : x y z
#
# Youngs Moduli (GPa) = 57.99807 52.09161 57.74845
#
# Poissons Ratio (x) = 0.33411 0.28208
# Poissons Ratio (y) = 0.37199 0.35025
# Poissons Ratio (z) = 0.28330 0.31594
#
# Static dielectric constant tensor:
#      x y z
#    x 1.536430 0.000000 0.000000 
#    y 0.000000 1.541350 0.000000 
#    z 0.000000 0.000000 1.540880 
# 
# From -- ./inp_files/12291.got.cif
#   From: 2010.05.17/outbox.cif.g08.bks.cpg/sg59_7_cif.got.tgz:12291.got - 2010.06.03 14:40:33.
