data_PCOD9446780
_publ_section_title
;
Structure prediction by ZEFSAII (Michael W. Deem and Ramdas Pophale) SiO2 
 PCOD9446780
Probable space group: P M M N
;
_chemical_formula_sum "Si O2"
_cell_formula_units_Z 64
_cell_length_a 18.646666
_cell_length_b 7.339617
_cell_length_c 22.365883
_cell_angle_alpha 90.000000
_cell_angle_beta 90.000000
_cell_angle_gamma 90.000000
_cell_volume 3060.981032
_symmetry_space_group_name_H-M "P M M N"
_symmetry_group_IT_number 59
_space_group.IT_coordinate_system_code '2'
_symmetry_cell_setting 'orthorhombic'
loop_
_space_group_symop_operation_xyz
x,y,z
1/2-x,1/2-y,z
1/2+x,-y,-z
-x,1/2+y,-z
-x,-y,-z
1/2+x,1/2+y,-z
1/2-x,y,z
x,1/2-y,z
loop_
_atom_site_type_symbol
_atom_site_label
_atom_site_fract_x
_atom_site_fract_y
_atom_site_fract_z
Si Si1 0.451197 0.028623 0.814202
Si Si2 0.167933 0.027117 0.725632
Si Si3 0.409476 0.972886 0.380170
Si Si4 0.926895 0.963378 0.385505
Si Si5 0.331055 0.530370 0.499529
Si Si6 0.099652 0.529028 0.247078
Si Si7 0.829346 0.472300 0.874988
Si Si8 0.524678 0.467074 0.932927
O O1 0.449810 0.250000 0.814639
O O2 0.377643 0.970284 0.783618
O O3 0.518878 0.977036 0.772468
O O4 0.470642 0.966366 0.881057
O O5 0.250000 0.966479 0.724850
O O6 0.169406 0.250000 0.724629
O O7 0.123338 0.964518 0.667581
O O8 0.408489 0.750000 0.381150
O O9 0.492015 0.034370 0.388143
O O10 0.361312 0.032541 0.435684
O O11 0.384153 0.030379 0.314232
O O12 0.935694 0.750000 0.371662
O O13 0.885295 0.980568 0.447681
O O14 0.250000 0.465932 0.511022
O O15 0.328971 0.750000 0.498046
O O16 0.100942 0.750000 0.247485
O O17 0.151128 0.472651 0.192968
O O18 0.750000 0.533019 0.892196
O O19 0.828987 0.250000 0.875855
O O20 0.895367 0.533299 0.916448
O O21 0.527400 0.250000 0.925422
O O22 0.500000 0.500000 0.000000
#
# Coordination Sequence:
#
# PCOD9446780 Si02
#       8
#     8   8   8   8   8   8   8   8
#     4   8  13  24  40  61  87 111 137 174 218 259
#     4   9  15  23  40  66  89 108 138 184 229 261
#     4   9  16  27  44  65  88 115 146 185 229 270
#     4  10  18  30  49  68  85 111 152 192 225 266
#     4  10  21  33  42  59  91 124 149 179 225 275
#     4   8  12  21  39  62  86 110 137 176 225 266
#     4   8  14  24  41  67  94 118 148 187 226 262
#     4   9  17  29  47  68  92 123 154 182 216 261
#
# _framework density 20.908328999999998
#
# number of rings (size 3 to 8) (size 9 to 14) (size 15 to 20)
#    0.000    3.125    1.250    2.250    0.000    1.250 
#    0.000    3.125    0.000    1.875    0.000    0.875 
#    0.000    0.000    0.000    0.000    0.000    0.000 
#
# Total GULP energy -357132.849645 kJ/mol
# GULP energy per Si atom -5580.200776 kJ/mol
# Density = 2.086074 g / cm^3
# Si number density = 20.908329 Si / 1000 Ang^3
#
#
#
# Elastic Constant Matrix: (Units=GPa)
#
#
# Indices 1 2 3 4 5 6 
#
# 1 71.6140 -1.6767 30.6244 0.0000 0.0000 0.0000
# 2 -1.6767 76.0347 -10.9063 0.0000 0.0000 0.0000
# 3 30.6244 -10.9063 129.9630 0.0000 0.0000 0.0000
# 4 0.0000 0.0000 0.0000 7.8697 0.0000 0.0000
# 5 0.0000 0.0000 0.0000 0.0000 21.6302 0.0000
# 6 0.0000 0.0000 0.0000 0.0000 0.0000 -4.7351
#
#
#
# Elastic Compliance Matrix: (Units=1/GPa)
#
#
# Indices 1 2 3 4 5 6 
#
# 1 0.015531 -0.000185 -0.003675 0.000000 0.000000 0.000000
# 2 -0.000185 0.013314 0.001161 0.000000 0.000000 0.000000
# 3 -0.003675 0.001161 0.008658 0.000000 0.000000 0.000000
# 4 0.000000 0.000000 0.000000 0.127069 0.000000 0.000000
# 5 0.000000 0.000000 0.000000 0.000000 0.046232 0.000000
# 6 0.000000 0.000000 0.000000 0.000000 0.000000 -0.211191
#
#
# Mechanical properties :
#
#
# Convention : Reuss Voigt Hill
#
# Bulk Modulus (GPa) = 31.14762 34.85495 33.00128
# Shear Modulus (GPa) = 318.21258 22.25766 170.23512
#
# Velocity S-wave (km/s) = 12.35008 3.26626 9.03308
# Velocity P-wave (km/s) = 14.77483 5.56158 11.16304
#
# Compressibility (1/GPa) = 0.03210519
#
# Stress axis : x y z
#
# Youngs Moduli (GPa) = 64.38712 75.10703 115.50094
#
# Poissons Ratio (x) = 0.01387 0.42449
# Poissons Ratio (y) = 0.01189 -0.13408
# Poissons Ratio (z) = 0.23664 -0.08719
#
# Static dielectric constant tensor:
#      x y z
#    x 1.724170 0.000000 0.000000 
#    y 0.000000 1.844770 0.000000 
#    z 0.000000 0.000000 1.727120 
# 
# From -- ./inp_files/27942.got.cif
#   From: 2010.05.17/outbox.cif.g08.bks.cpg/sg59_14_cif.got.tgz:27942.got - 2010.06.03 14:40:33.
