data_PCOD9446267
_publ_section_title
;
Structure prediction by ZEFSAII (Michael W. Deem and Ramdas Pophale) SiO2 
 PCOD9446267
Probable space group: P M M N
;
_chemical_formula_sum "Si O2"
_cell_formula_units_Z 64
_cell_length_a 24.975046
_cell_length_b 13.255344
_cell_length_c 12.020766
_cell_angle_alpha 90.000000
_cell_angle_beta 90.000000
_cell_angle_gamma 90.000000
_cell_volume 3979.508557
_symmetry_space_group_name_H-M "P M M N"
_symmetry_group_IT_number 59
_space_group.IT_coordinate_system_code '2'
_symmetry_cell_setting 'orthorhombic'
loop_
_space_group_symop_operation_xyz
x,y,z
1/2-x,1/2-y,z
1/2+x,-y,-z
-x,1/2+y,-z
-x,-y,-z
1/2+x,1/2+y,-z
1/2-x,y,z
x,1/2-y,z
loop_
_atom_site_type_symbol
_atom_site_label
_atom_site_fract_x
_atom_site_fract_y
_atom_site_fract_z
Si Si1 0.033725 0.070650 0.836662
Si Si2 0.344294 0.132112 0.817989
Si Si3 0.687752 0.627863 0.427679
Si Si4 0.915451 0.955642 0.546561
Si Si5 0.690108 0.873026 0.942354
Si Si6 0.988788 0.131029 0.598765
Si Si7 0.903760 0.866401 0.787555
Si Si8 0.488090 0.862661 0.930561
O O1 0.091636 0.121529 0.823976
O O2 0.003000 0.087502 0.721146
O O3 0.999917 0.115792 0.939724
O O4 0.042973 0.954134 0.872146
O O5 0.329878 0.250000 0.818492
O O6 0.321929 0.094951 0.700578
O O7 0.320981 0.089344 0.932661
O O8 0.750000 0.611021 0.458159
O O9 0.677938 0.750000 0.436124
O O10 0.643154 0.568888 0.498502
O O11 0.915739 0.922221 0.674282
O O12 0.958874 0.891361 0.476503
O O13 0.939319 0.068917 0.546123
O O14 0.750000 0.897540 0.907712
O O15 0.685012 0.750000 0.945208
O O16 0.645977 0.909823 0.856134
O O17 0.979302 0.250000 0.605698
O O18 0.891999 0.750000 0.758457
O O19 0.954200 0.866582 0.869973
O O20 0.465931 0.750000 0.916070
#
# Coordination Sequence:
#
# PCOD9446267 Si02
#       8
#     8   8   8   8   8   8   8   8
#     4  11  19  32  53  75 100 138 172 206 254 309
#     4  10  17  29  49  73 102 130 162 207 254 305
#     4  10  20  33  52  76 102 134 172 215 263 313
#     4  11  22  35  50  74 104 139 172 216 256 302
#     4   9  17  28  44  68  97 130 164 197 243 303
#     4  11  22  36  54  76 101 137 179 215 256 308
#     4  10  18  30  45  66  98 133 161 194 244 297
#     4  10  20  32  48  74 105 134 163 203 252 305
#
# _framework density 16.082388000000002
#
# number of rings (size 3 to 8) (size 9 to 14) (size 15 to 20)
#    0.000    1.750    3.750    2.625    0.000    2.000 
#    0.000    1.250    0.000    0.375    0.000    0.000 
#    0.000    2.500    0.000    0.000    0.000    0.000 
#
# Total GULP energy -356722.010857 kJ/mol
# GULP energy per Si atom -5573.781420 kJ/mol
# Density = 1.604578 g / cm^3
# Si number density = 16.082388 Si / 1000 Ang^3
#
#
#
# Elastic Constant Matrix: (Units=GPa)
#
#
# Indices 1 2 3 4 5 6 
#
# 1 55.8708 2.2444 35.5387 0.0000 0.0000 0.0000
# 2 2.2444 52.1871 22.8776 0.0000 0.0000 0.0000
# 3 35.5387 22.8776 95.8610 0.0000 0.0000 0.0000
# 4 0.0000 0.0000 0.0000 13.2932 0.0000 0.0000
# 5 0.0000 0.0000 0.0000 0.0000 7.8851 0.0000
# 6 0.0000 0.0000 0.0000 0.0000 0.0000 17.6668
#
#
#
# Elastic Compliance Matrix: (Units=1/GPa)
#
#
# Indices 1 2 3 4 5 6 
#
# 1 0.023887 0.003188 -0.009617 0.000000 0.000000 0.000000
# 2 0.003188 0.021826 -0.006391 0.000000 0.000000 0.000000
# 3 -0.009617 -0.006391 0.015522 0.000000 0.000000 0.000000
# 4 0.000000 0.000000 0.000000 0.075227 0.000000 0.000000
# 5 0.000000 0.000000 0.000000 0.000000 0.126821 0.000000
# 6 0.000000 0.000000 0.000000 0.000000 0.000000 0.056603
#
#
# Mechanical properties :
#
#
# Convention : Reuss Voigt Hill
#
# Bulk Modulus (GPa) = 28.09190 36.13780 32.11485
# Shear Modulus (GPa) = 13.99025 17.31956 15.65491
#
# Velocity S-wave (km/s) = 2.95263 3.28522 3.12335
# Velocity P-wave (km/s) = 5.39717 6.07531 5.74625
#
# Compressibility (1/GPa) = 0.03559745
#
# Stress axis : x y z
#
# Youngs Moduli (GPa) = 41.86296 45.81611 64.42360
#
# Poissons Ratio (x) = -0.14608 0.61955
# Poissons Ratio (y) = -0.13348 0.41173
# Poissons Ratio (z) = 0.40259 0.29281
#
# Static dielectric constant tensor:
#      x y z
#    x 1.536950 0.000000 0.000000 
#    y 0.000000 1.551370 0.000000 
#    z 0.000000 0.000000 1.556020 
# 
# From -- ./inp_files/18762.got.cif
#   From: 2010.05.17/outbox.cif.g08.bks.cpg/sg59_10_cif.got.tgz:18762.got - 2010.06.03 14:40:33.
