data_PCOD9446994
_publ_section_title
;
Structure prediction by ZEFSAII (Michael W. Deem and Ramdas Pophale) SiO2 
 PCOD9446994
Probable space group: P M M N
;
_chemical_formula_sum "Si O2"
_cell_formula_units_Z 40
_cell_length_a 18.654044
_cell_length_b 7.378587
_cell_length_c 13.002969
_cell_angle_alpha 90.000000
_cell_angle_beta 90.000000
_cell_angle_gamma 90.000000
_cell_volume 1789.734980
_symmetry_space_group_name_H-M "P M M N"
_symmetry_group_IT_number 59
_space_group.IT_coordinate_system_code '2'
_symmetry_cell_setting 'orthorhombic'
loop_
_space_group_symop_operation_xyz
x,y,z
1/2-x,1/2-y,z
1/2+x,-y,-z
-x,1/2+y,-z
-x,-y,-z
1/2+x,1/2+y,-z
1/2-x,y,z
x,1/2-y,z
loop_
_atom_site_type_symbol
_atom_site_label
_atom_site_fract_x
_atom_site_fract_y
_atom_site_fract_z
Si Si1 0.831561 0.471259 0.854318
Si Si2 0.409120 0.539717 0.722839
Si Si3 0.421277 0.966851 0.953628
Si Si4 0.570036 0.469196 0.663350
Si Si5 0.168779 0.528264 0.524596
O O1 0.750000 0.529046 0.838185
O O2 0.831750 0.250000 0.853989
O O3 0.884014 0.527430 0.762507
O O4 0.863717 0.532142 0.963151
O O5 0.388725 0.750000 0.734752
O O6 0.412465 0.460968 0.837873
O O7 0.488839 0.532174 0.675444
O O8 0.355707 0.464107 0.637085
O O9 0.413904 0.750000 0.948044
O O10 0.500000 0.000000 0.000000
O O11 0.568170 0.250000 0.662927
O O12 0.611613 0.529169 0.561274
O O13 0.250000 0.474484 0.499544
O O14 0.167484 0.750000 0.524537
#
# Coordination Sequence:
#
# PCOD9446994 Si02
#       5
#     8   8   8   8   8
#     4   9  17  29  48  74  97 122 164 209 243 280
#     4  10  20  32  50  75 102 131 163 203 251 298
#     4  10  19  32  50  72  99 131 163 201 246 292
#     4  10  18  31  53  75  97 130 167 204 244 291
#     4   9  18  32  50  74 102 130 164 206 248 289
#
# _framework density 22.349678000000001
#
# number of rings (size 3 to 8) (size 9 to 14) (size 15 to 20)
#    0.000    2.400    2.000    1.200    0.000    3.200 
#    0.000    4.000    0.000    6.000    0.000    2.800 
#    0.000    0.000    0.000    0.000    0.000    0.000 
#
# Total GULP energy -223534.656857 kJ/mol
# GULP energy per Si atom -5588.366421 kJ/mol
# Density = 2.229881 g / cm^3
# Si number density = 22.349678 Si / 1000 Ang^3
#
#
#
# Elastic Constant Matrix: (Units=GPa)
#
#
# Indices 1 2 3 4 5 6 
#
# 1 23.8833 -13.4541 -16.9504 0.0000 0.0000 0.0000
# 2 -13.4541 80.3691 3.0937 0.0000 0.0000 0.0000
# 3 -16.9504 3.0937 121.1461 0.0000 0.0000 0.0000
# 4 0.0000 0.0000 0.0000 -1.1824 0.0000 0.0000
# 5 0.0000 0.0000 0.0000 0.0000 25.4720 0.0000
# 6 0.0000 0.0000 0.0000 0.0000 0.0000 16.1961
#
#
#
# Elastic Compliance Matrix: (Units=1/GPa)
#
#
# Indices 1 2 3 4 5 6 
#
# 1 0.051547 0.008360 0.006999 0.000000 0.000000 0.000000
# 2 0.008360 0.013811 0.000817 0.000000 0.000000 0.000000
# 3 0.006999 0.000817 0.009213 0.000000 0.000000 0.000000
# 4 0.000000 0.000000 0.000000 -0.845733 0.000000 0.000000
# 5 0.000000 0.000000 0.000000 0.000000 0.039259 0.000000
# 6 0.000000 0.000000 0.000000 0.000000 0.000000 0.061743
#
#
# Mechanical properties :
#
#
# Convention : Reuss Voigt Hill
#
# Bulk Modulus (GPa) = 9.35269 18.97523 14.16396
# Shear Modulus (GPa) = -7.49770 24.94443 8.72336
#
# Velocity S-wave (km/s) = -1.83358 3.34443 1.97778
# Velocity P-wave (km/s) = 0.53748 4.83965 3.40098
#
# Compressibility (1/GPa) = 0.10692112
#
# Stress axis : x y z
#
# Youngs Moduli (GPa) = 19.39987 72.40826 108.54368
#
# Poissons Ratio (x) = -0.60531 -0.75967
# Poissons Ratio (y) = -0.16218 -0.08868
# Poissons Ratio (z) = -0.13578 -0.05916
#
# Static dielectric constant tensor:
#      x y z
#    x 1.757450 0.000000 0.000000 
#    y 0.000000 1.900980 0.000000 
#    z 0.000000 0.000000 1.821210 
# 
# From -- ./inp_files/13841.got.cif
#   From: 2010.05.17/outbox.cif.g08.bks.cpg/sg59_7_cif.got.tgz:13841.got - 2010.06.03 14:40:33.
