data_PCOD9446632
_publ_section_title
;
Structure prediction by ZEFSAII (Michael W. Deem and Ramdas Pophale) SiO2 
 PCOD9446632
Probable space group: P M M N
;
_chemical_formula_sum "Si O2"
_cell_formula_units_Z 64
_cell_length_a 31.081522
_cell_length_b 7.784848
_cell_length_c 15.141917
_cell_angle_alpha 90.000000
_cell_angle_beta 90.000000
_cell_angle_gamma 90.000000
_cell_volume 3663.812802
_symmetry_space_group_name_H-M "P M M N"
_symmetry_group_IT_number 59
_space_group.IT_coordinate_system_code '2'
_symmetry_cell_setting 'orthorhombic'
loop_
_space_group_symop_operation_xyz
x,y,z
1/2-x,1/2-y,z
1/2+x,-y,-z
-x,1/2+y,-z
-x,-y,-z
1/2+x,1/2+y,-z
1/2-x,y,z
x,1/2-y,z
loop_
_atom_site_type_symbol
_atom_site_label
_atom_site_fract_x
_atom_site_fract_y
_atom_site_fract_z
Si Si1 0.382316 0.956131 0.704843
Si Si2 0.472369 0.451998 0.366449
Si Si3 0.797340 0.547281 0.992974
Si Si4 0.062398 0.958196 0.547210
Si Si5 0.538579 0.449286 0.831865
Si Si6 0.797866 0.458379 0.198204
Si Si7 0.890087 0.547840 0.963526
Si Si8 0.056730 0.042214 0.867813
O O1 0.378982 0.750000 0.698657
O O2 0.398986 0.017811 0.609946
O O3 0.336791 0.021166 0.741065
O O4 0.418255 0.995236 0.778571
O O5 0.476980 0.250000 0.349453
O O6 0.439354 0.480265 0.446731
O O7 0.518166 0.516610 0.404673
O O8 0.460683 0.535424 0.273803
O O9 0.750000 0.472959 0.970347
O O10 0.795187 0.750000 0.971799
O O11 0.802607 0.526944 0.098725
O O12 0.841850 0.475021 0.953596
O O13 0.061661 0.750000 0.545398
O O14 0.539810 0.250000 0.856733
O O15 0.579231 0.531662 0.879537
O O16 0.492445 0.521698 0.864353
O O17 0.750000 0.504978 0.229789
O O18 0.800006 0.250000 0.192912
O O19 0.884225 0.750000 0.982384
O O20 0.916062 0.476933 0.048385
O O21 0.054742 0.250000 0.872061
#
# Coordination Sequence:
#
# PCOD9446632 Si02
#       8
#     8   8   8   8   8   8   8   8
#     4  10  18  29  47  69  95 127 158 189 228 276
#     4  10  19  32  49  68  91 120 153 194 237 276
#     4   9  17  30  48  68  91 121 156 195 237 276
#     4   9  18  31  47  68  92 120 154 190 231 278
#     4  11  22  33  47  67  94 127 162 200 237 275
#     4   9  17  28  44  68  96 124 154 189 229 274
#     4  10  20  33  47  66  94 127 162 196 231 278
#     4  10  20  32  45  66  95 127 163 197 227 268
#
# _framework density 17.468140999999999
#
# number of rings (size 3 to 8) (size 9 to 14) (size 15 to 20)
#    0.000    2.250    2.500    1.125    0.000    2.500 
#    0.000    0.000    0.000    0.000    0.000    0.875 
#    0.000    3.000    0.000    0.000    0.000    0.000 
#
# Total GULP energy -356897.772391 kJ/mol
# GULP energy per Si atom -5576.527694 kJ/mol
# Density = 1.742838 g / cm^3
# Si number density = 17.468141 Si / 1000 Ang^3
#
#
#
# Elastic Constant Matrix: (Units=GPa)
#
#
# Indices 1 2 3 4 5 6 
#
# 1 150.5591 2.8774 44.0458 0.0000 0.0000 0.0000
# 2 2.8774 21.5301 -6.2590 0.0000 0.0000 0.0000
# 3 44.0458 -6.2590 55.9552 0.0000 0.0000 0.0000
# 4 0.0000 0.0000 0.0000 18.0600 0.0000 0.0000
# 5 0.0000 0.0000 0.0000 0.0000 20.9462 0.0000
# 6 0.0000 0.0000 0.0000 0.0000 0.0000 7.2348
#
#
#
# Elastic Compliance Matrix: (Units=1/GPa)
#
#
# Indices 1 2 3 4 5 6 
#
# 1 0.008852 -0.003317 -0.007339 0.000000 0.000000 0.000000
# 2 -0.003317 0.049250 0.008120 0.000000 0.000000 0.000000
# 3 -0.007339 0.008120 0.024557 0.000000 0.000000 0.000000
# 4 0.000000 0.000000 0.000000 0.055371 0.000000 0.000000
# 5 0.000000 0.000000 0.000000 0.000000 0.047741 0.000000
# 6 0.000000 0.000000 0.000000 0.000000 0.000000 0.138221
#
#
# Mechanical properties :
#
#
# Convention : Reuss Voigt Hill
#
# Bulk Modulus (GPa) = 12.88873 34.37476 23.63175
# Shear Modulus (GPa) = 14.08737 21.74021 17.91379
#
# Velocity S-wave (km/s) = 2.84291 3.53166 3.20584
# Velocity P-wave (km/s) = 4.26270 6.02922 5.22121
#
# Compressibility (1/GPa) = 0.07758715
#
# Stress axis : x y z
#
# Youngs Moduli (GPa) = 112.96397 20.30445 40.72183
#
# Poissons Ratio (x) = 0.06734 0.29887
# Poissons Ratio (y) = 0.37466 -0.33065
# Poissons Ratio (z) = 0.82907 -0.16487
#
# Static dielectric constant tensor:
#      x y z
#    x 1.637290 0.000000 0.000000 
#    y 0.000000 1.627380 0.000000 
#    z 0.000000 0.000000 1.565850 
# 
# From -- ./inp_files/21821.got.cif
#   From: 2010.05.17/outbox.cif.g08.bks.cpg/sg59_11_cif.got.tgz:21821.got - 2010.06.03 14:40:33.
