data_PCOD9446462
_publ_section_title
;
Structure prediction by ZEFSAII (Michael W. Deem and Ramdas Pophale) SiO2 
 PCOD9446462
Probable space group: P M M N
;
_chemical_formula_sum "Si O2"
_cell_formula_units_Z 64
_cell_length_a 17.084277
_cell_length_b 7.420727
_cell_length_c 24.133432
_cell_angle_alpha 90.000000
_cell_angle_beta 90.000000
_cell_angle_gamma 90.000000
_cell_volume 3059.582344
_symmetry_space_group_name_H-M "P M M N"
_symmetry_group_IT_number 59
_space_group.IT_coordinate_system_code '2'
_symmetry_cell_setting 'orthorhombic'
loop_
_space_group_symop_operation_xyz
x,y,z
1/2-x,1/2-y,z
1/2+x,-y,-z
-x,1/2+y,-z
-x,-y,-z
1/2+x,1/2+y,-z
1/2-x,y,z
x,1/2-y,z
loop_
_atom_site_type_symbol
_atom_site_label
_atom_site_fract_x
_atom_site_fract_y
_atom_site_fract_z
Si Si1 0.915815 0.047088 0.136941
Si Si2 0.500760 0.970901 0.632965
Si Si3 0.494736 0.029406 0.241057
Si Si4 0.662623 0.029162 0.030670
Si Si5 0.336859 0.032412 0.181271
Si Si6 0.070654 0.539879 0.074090
Si Si7 0.084166 0.536985 0.528261
Si Si8 0.835822 0.958477 0.580973
O O1 0.887960 0.250000 0.148671
O O2 0.856821 0.964866 0.092569
O O3 0.942603 0.965651 0.195280
O O4 0.996618 0.054736 0.101666
O O5 0.501815 0.750000 0.630602
O O6 0.489777 0.025085 0.696231
O O7 0.432239 0.028656 0.590635
O O8 0.586171 0.033344 0.610571
O O9 0.495540 0.250000 0.239148
O O10 0.408311 0.972831 0.220476
O O11 0.750000 0.977972 0.014089
O O12 0.659129 0.250000 0.031255
O O13 0.600265 0.969810 0.984770
O O14 0.250000 0.969820 0.196464
O O15 0.336621 0.250000 0.182772
O O16 0.359886 0.976770 0.119025
O O17 0.050237 0.750000 0.068735
O O18 0.098212 0.750000 0.530067
O O19 0.146663 0.461551 0.485020
O O20 0.000000 0.500000 0.500000
O O21 0.750000 0.037986 0.592392
O O22 0.832657 0.750000 0.598444
#
# Coordination Sequence:
#
# PCOD9446462 Si02
#       8
#     8   8   8   8   8   8   8   8
#     4   9  17  30  47  64  84 110 141 178 214 251
#     4   8  14  25  42  64  87 111 142 177 208 245
#     4   8  14  25  42  63  84 109 142 176 210 245
#     4   9  17  28  43  64  86 108 137 174 217 261
#     4   9  17  28  42  62  88 115 142 173 209 251
#     4  10  18  28  44  63  85 113 142 172 210 258
#     4   9  16  27  44  64  87 115 144 174 209 247
#     4   9  17  28  43  65  91 116 142 173 210 253
#
# _framework density 20.917888000000001
#
# number of rings (size 3 to 8) (size 9 to 14) (size 15 to 20)
#    0.000    3.125    0.000    3.000    0.000    1.500 
#    0.000    3.125    0.000   17.625    0.000   10.500 
#    0.000    0.000    0.000    0.000    0.000    0.000 
#
# Total GULP energy -356712.667305 kJ/mol
# GULP energy per Si atom -5573.635427 kJ/mol
# Density = 2.087028 g / cm^3
# Si number density = 20.917888 Si / 1000 Ang^3
#
#
#
# Elastic Constant Matrix: (Units=GPa)
#
#
# Indices 1 2 3 4 5 6 
#
# 1 17.3584 -5.7192 4.9222 0.0000 0.0000 0.0000
# 2 -5.7192 71.5365 -5.7488 0.0000 0.0000 0.0000
# 3 4.9222 -5.7488 136.2289 0.0000 0.0000 0.0000
# 4 0.0000 0.0000 0.0000 6.5865 0.0000 0.0000
# 5 0.0000 0.0000 0.0000 0.0000 16.8511 0.0000
# 6 0.0000 0.0000 0.0000 0.0000 0.0000 6.3395
#
#
#
# Elastic Compliance Matrix: (Units=1/GPa)
#
#
# Indices 1 2 3 4 5 6 
#
# 1 0.059685 0.004614 -0.001962 0.000000 0.000000 0.000000
# 2 0.004614 0.014383 0.000440 0.000000 0.000000 0.000000
# 3 -0.001962 0.000440 0.007430 0.000000 0.000000 0.000000
# 4 0.000000 0.000000 0.000000 0.151825 0.000000 0.000000
# 5 0.000000 0.000000 0.000000 0.000000 0.059343 0.000000
# 6 0.000000 0.000000 0.000000 0.000000 0.000000 0.157741
#
#
# Mechanical properties :
#
#
# Convention : Reuss Voigt Hill
#
# Bulk Modulus (GPa) = 11.40465 23.55915 17.48190
# Shear Modulus (GPa) = 10.56076 21.40006 15.98041
#
# Velocity S-wave (km/s) = 2.24936 3.20199 2.76698
# Velocity P-wave (km/s) = 3.49430 4.99574 4.31089
#
# Compressibility (1/GPa) = 0.08768353
#
# Stress axis : x y z
#
# Youngs Moduli (GPa) = 16.75451 69.52583 134.58857
#
# Poissons Ratio (x) = -0.32080 0.26404
# Poissons Ratio (y) = -0.07731 -0.05925
# Poissons Ratio (z) = 0.03287 -0.03061
#
# Static dielectric constant tensor:
#      x y z
#    x 1.743870 0.000000 0.000000 
#    y 0.000000 1.819090 0.000000 
#    z 0.000000 0.000000 1.766130 
# 
# From -- ./inp_files/32332.got.cif
#   From: 2010.05.17/outbox.cif.g08.bks.cpg/sg59_17_cif.got.tgz:32332.got - 2010.06.03 14:40:33.
