data_PCOD9446384
_publ_section_title
;
Structure prediction by ZEFSAII (Michael W. Deem and Ramdas Pophale) SiO2 
 PCOD9446384
Probable space group: P M M N
;
_chemical_formula_sum "Si O2"
_cell_formula_units_Z 64
_cell_length_a 7.504131
_cell_length_b 29.779614
_cell_length_c 16.124578
_cell_angle_alpha 90.000000
_cell_angle_beta 90.000000
_cell_angle_gamma 90.000000
_cell_volume 3603.361455
_symmetry_space_group_name_H-M "P M M N"
_symmetry_group_IT_number 59
_space_group.IT_coordinate_system_code '2'
_symmetry_cell_setting 'orthorhombic'
loop_
_space_group_symop_operation_xyz
x,y,z
1/2-x,1/2-y,z
1/2+x,-y,-z
-x,1/2+y,-z
-x,-y,-z
1/2+x,1/2+y,-z
1/2-x,y,z
x,1/2-y,z
loop_
_atom_site_type_symbol
_atom_site_label
_atom_site_fract_x
_atom_site_fract_y
_atom_site_fract_z
Si Si1 0.967067 0.299859 0.592887
Si Si2 0.531318 0.395087 0.343890
Si Si3 0.956605 0.044199 0.194249
Si Si4 0.539103 0.552996 0.987932
Si Si5 0.037751 0.056116 0.833803
Si Si6 0.033067 0.799809 0.600461
Si Si7 0.964730 0.392441 0.667396
Si Si8 0.536909 0.447417 0.508731
O O1 0.750000 0.299848 0.594534
O O2 0.025458 0.250000 0.619121
O O3 0.016783 0.306189 0.496296
O O4 0.028016 0.342240 0.646142
O O5 0.750000 0.394573 0.343251
O O6 0.468295 0.423281 0.264544
O O7 0.473917 0.343244 0.348684
O O8 0.473849 0.420284 0.428029
O O9 0.750000 0.037879 0.217203
O O10 0.963116 0.064857 0.101900
O O11 0.035221 0.993728 0.188595
O O12 0.750000 0.560191 0.980824
O O13 0.500000 0.500000 0.000000
O O14 0.471698 0.572442 0.075767
O O15 0.250000 0.050256 0.845413
O O16 0.010476 0.089046 0.757518
O O17 0.250000 0.799413 0.602094
O O18 0.973598 0.750000 0.626749
O O19 0.750000 0.391804 0.662885
O O20 0.030104 0.425850 0.594558
O O21 0.500000 0.500000 0.500000
O O22 0.750000 0.442000 0.509684
#
# Coordination Sequence:
#
# PCOD9446384 Si02
#       8
#     8   8   8   8   8   8   8   8
#     4   8  13  23  39  60  85 108 135 176 218 247
#     4   9  15  25  39  57  85 116 141 169 206 248
#     4   9  17  28  43  62  85 114 144 172 207 247
#     4   9  17  30  46  62  82 108 140 177 215 251
#     4   9  18  30  42  59  84 114 140 168 211 252
#     4   8  12  20  37  59  82 109 140 174 211 248
#     4  10  18  27  42  64  84 109 144 176 204 242
#     4  10  19  29  39  55  84 118 147 169 195 236
#
# _framework density 17.761192999999999
#
# number of rings (size 3 to 8) (size 9 to 14) (size 15 to 20)
#    0.000    3.000    1.250    2.625    0.000    4.000 
#    0.000    0.625    0.000    0.375    0.000    0.875 
#    0.000    7.000    0.000    0.000    0.000    0.000 
#
# Total GULP energy -356587.458950 kJ/mol
# GULP energy per Si atom -5571.679046 kJ/mol
# Density = 1.772077 g / cm^3
# Si number density = 17.761193 Si / 1000 Ang^3
#
#
#
# Elastic Constant Matrix: (Units=GPa)
#
#
# Indices 1 2 3 4 5 6 
#
# 1 42.1916 -4.2107 -9.2033 0.0000 0.0000 0.0000
# 2 -4.2107 96.7144 31.5113 0.0000 0.0000 0.0000
# 3 -9.2033 31.5113 80.3524 0.0000 0.0000 0.0000
# 4 0.0000 0.0000 0.0000 13.0120 0.0000 0.0000
# 5 0.0000 0.0000 0.0000 0.0000 8.4028 0.0000
# 6 0.0000 0.0000 0.0000 0.0000 0.0000 7.0330
#
#
#
# Elastic Compliance Matrix: (Units=1/GPa)
#
#
# Indices 1 2 3 4 5 6 
#
# 1 0.024311 0.000173 0.002717 0.000000 0.000000 0.000000
# 2 0.000173 0.011856 -0.004629 0.000000 0.000000 0.000000
# 3 0.002717 -0.004629 0.014572 0.000000 0.000000 0.000000
# 4 0.000000 0.000000 0.000000 0.076852 0.000000 0.000000
# 5 0.000000 0.000000 0.000000 0.000000 0.119008 0.000000
# 6 0.000000 0.000000 0.000000 0.000000 0.000000 0.142186
#
#
# Mechanical properties :
#
#
# Convention : Reuss Voigt Hill
#
# Bulk Modulus (GPa) = 21.15973 28.38365 24.77169
# Shear Modulus (GPa) = 12.25440 19.10032 15.67736
#
# Velocity S-wave (km/s) = 2.62955 3.28288 2.97421
# Velocity P-wave (km/s) = 4.59986 5.51227 5.07660
#
# Compressibility (1/GPa) = 0.04725959
#
# Stress axis : x y z
#
# Youngs Moduli (GPa) = 41.13317 84.34802 68.62548
#
# Poissons Ratio (x) = -0.01462 -0.18642
# Poissons Ratio (y) = -0.00713 0.31770
# Poissons Ratio (z) = -0.11174 0.39049
#
# Static dielectric constant tensor:
#      x y z
#    x 1.677770 0.000000 0.000000 
#    y 0.000000 1.603560 0.000000 
#    z 0.000000 0.000000 1.618280 
# 
# From -- ./inp_files/21824.got.cif
#   From: 2010.05.17/outbox.cif.g08.bks.cpg/sg59_11_cif.got.tgz:21824.got - 2010.06.03 14:40:33.
