data_PCOD9446918
_publ_section_title
;
Structure prediction by ZEFSAII (Michael W. Deem and Ramdas Pophale) SiO2 
 PCOD9446918
Probable space group: P M M N
;
_chemical_formula_sum "Si O2"
_cell_formula_units_Z 48
_cell_length_a 8.623466
_cell_length_b 26.742210
_cell_length_c 12.318458
_cell_angle_alpha 90.000000
_cell_angle_beta 90.000000
_cell_angle_gamma 90.000000
_cell_volume 2840.766235
_symmetry_space_group_name_H-M "P M M N"
_symmetry_group_IT_number 59
_space_group.IT_coordinate_system_code '2'
_symmetry_cell_setting 'orthorhombic'
loop_
_space_group_symop_operation_xyz
x,y,z
1/2-x,1/2-y,z
1/2+x,-y,-z
-x,1/2+y,-z
-x,-y,-z
1/2+x,1/2+y,-z
1/2-x,y,z
x,1/2-y,z
loop_
_atom_site_type_symbol
_atom_site_label
_atom_site_fract_x
_atom_site_fract_y
_atom_site_fract_z
Si Si1 0.061755 0.692012 0.346648
Si Si2 0.069852 0.616721 0.168792
Si Si3 0.561238 0.054949 0.031564
Si Si4 0.933935 0.429713 0.279470
Si Si5 0.070591 0.966638 0.356312
Si Si6 0.566167 0.885597 0.516203
O O1 0.250000 0.688279 0.347723
O O2 0.018564 0.750000 0.347562
O O3 0.004251 0.662927 0.238269
O O4 0.000546 0.661558 0.450309
O O5 0.250000 0.629260 0.146674
O O6 0.067174 0.570358 0.252779
O O7 0.003643 0.595469 0.056775
O O8 0.750000 0.052955 0.026664
O O9 0.516024 0.069699 0.153761
O O10 0.500000 0.000000 0.000000
O O11 0.750000 0.422388 0.283790
O O12 0.976871 0.484255 0.326109
O O13 0.013711 0.390168 0.359402
O O14 0.250000 0.979504 0.379057
O O15 0.001061 0.934335 0.453997
O O16 0.750000 0.885861 0.508058
#
# Coordination Sequence:
#
# PCOD9446918 Si02
#       6
#     8   8   8   8   8   8
#     4   9  18  35  59  81 100 124 159 208 266 317
#     4   8  15  29  49  74 101 130 163 204 250 297
#     4  10  19  31  48  71 103 140 177 210 242 294
#     4  11  21  31  46  70 103 141 178 210 246 296
#     4  10  18  31  50  70 100 135 170 211 253 302
#     4  11  22  34  49  71 101 133 170 211 255 308
#
# _framework density 16.896851000000002
#
# number of rings (size 3 to 8) (size 9 to 14) (size 15 to 20)
#    0.000    2.167    1.667    4.000    0.000    1.000 
#    0.000    0.000    0.000    1.000    0.000    4.667 
#    0.000    0.000    0.000    0.000    0.000    0.000 
#
# Total GULP energy -267690.883636 kJ/mol
# GULP energy per Si atom -5576.893409 kJ/mol
# Density = 1.685839 g / cm^3
# Si number density = 16.896851 Si / 1000 Ang^3
#
#
#
# Elastic Constant Matrix: (Units=GPa)
#
#
# Indices 1 2 3 4 5 6 
#
# 1 20.1544 3.9923 26.0264 0.0000 0.0000 0.0000
# 2 3.9923 83.9075 64.5136 0.0000 0.0000 0.0000
# 3 26.0264 64.5136 152.1666 0.0000 0.0000 0.0000
# 4 0.0000 0.0000 0.0000 7.9126 0.0000 0.0000
# 5 0.0000 0.0000 0.0000 0.0000 11.1545 0.0000
# 6 0.0000 0.0000 0.0000 0.0000 0.0000 19.6209
#
#
#
# Elastic Compliance Matrix: (Units=1/GPa)
#
#
# Indices 1 2 3 4 5 6 
#
# 1 0.067449 0.008398 -0.015097 0.000000 0.000000 0.000000
# 2 0.008398 0.018727 -0.009376 0.000000 0.000000 0.000000
# 3 -0.015097 -0.009376 0.013129 0.000000 0.000000 0.000000
# 4 0.000000 0.000000 0.000000 0.126380 0.000000 0.000000
# 5 0.000000 0.000000 0.000000 0.000000 0.089650 0.000000
# 6 0.000000 0.000000 0.000000 0.000000 0.000000 0.050966
#
#
# Mechanical properties :
#
#
# Convention : Reuss Voigt Hill
#
# Bulk Modulus (GPa) = 14.89083 49.47702 32.18393
# Shear Modulus (GPa) = 11.88112 18.51736 15.19924
#
# Velocity S-wave (km/s) = 2.65459 3.31404 3.00247
# Velocity P-wave (km/s) = 4.26939 6.63243 5.57749
#
# Compressibility (1/GPa) = 0.06715541
#
# Stress axis : x y z
#
# Youngs Moduli (GPa) = 14.82610 53.39782 76.16663
#
# Poissons Ratio (x) = -0.44845 1.14988
# Poissons Ratio (y) = -0.12451 0.71415
# Poissons Ratio (z) = 0.22383 0.50067
#
# Static dielectric constant tensor:
#      x y z
#    x 1.578380 0.000000 0.000000 
#    y 0.000000 1.552020 0.000000 
#    z 0.000000 0.000000 1.605320 
# 
# From -- ./inp_files/14462.got.cif
#   From: 2010.05.17/outbox.cif.g08.bks.cpg/sg59_8_cif.got.tgz:14462.got - 2010.06.03 14:40:33.
