data_PCOD9446776
_publ_section_title
;
Structure prediction by ZEFSAII (Michael W. Deem and Ramdas Pophale) SiO2 
 PCOD9446776
Probable space group: P M M N
;
_chemical_formula_sum "Si O2"
_cell_formula_units_Z 64
_cell_length_a 20.023496
_cell_length_b 20.252114
_cell_length_c 8.484723
_cell_angle_alpha 90.000000
_cell_angle_beta 90.000000
_cell_angle_gamma 90.000000
_cell_volume 3440.708951
_symmetry_space_group_name_H-M "P M M N"
_symmetry_group_IT_number 59
_space_group.IT_coordinate_system_code '2'
_symmetry_cell_setting 'orthorhombic'
loop_
_space_group_symop_operation_xyz
x,y,z
1/2-x,1/2-y,z
1/2+x,-y,-z
-x,1/2+y,-z
-x,-y,-z
1/2+x,1/2+y,-z
1/2-x,y,z
x,1/2-y,z
loop_
_atom_site_type_symbol
_atom_site_label
_atom_site_fract_x
_atom_site_fract_y
_atom_site_fract_z
Si Si1 0.451072 0.676503 0.867275
Si Si2 0.827470 0.525087 0.854257
Si Si3 0.885755 0.175798 0.480982
Si Si4 0.824886 0.388075 0.001255
Si Si5 0.177667 0.947420 0.649011
Si Si6 0.540373 0.568968 0.011908
Si Si7 0.007267 0.904797 0.351432
Si Si8 0.910431 0.967635 0.557841
O O1 0.476287 0.750000 0.900836
O O2 0.423462 0.675400 0.688617
O O3 0.387417 0.660202 0.980526
O O4 0.505475 0.619936 0.892379
O O5 0.750000 0.540996 0.885758
O O6 0.852030 0.546009 0.681210
O O7 0.833589 0.445251 0.871983
O O8 0.882650 0.555715 0.970934
O O9 0.861660 0.250000 0.510742
O O10 0.830861 0.119223 0.454020
O O11 0.937461 0.149878 0.611194
O O12 0.750000 0.358758 0.986426
O O13 0.826183 0.427102 0.168869
O O14 0.250000 0.977215 0.618818
O O15 0.119942 0.995975 0.594976
O O16 0.527628 0.599301 0.183818
O O17 0.500000 0.500000 0.000000
O O18 0.954036 0.907742 0.493799
O O19 0.042815 0.976910 0.361006
#
# Coordination Sequence:
#
# PCOD9446776 Si02
#       8
#     8   8   8   8   8   8   8   8
#     4  10  20  34  53  78 109 146 187 227 271 325
#     4  11  21  33  52  79 112 143 178 224 278 328
#     4   9  19  33  49  72 106 143 180 221 263 316
#     4   9  17  30  48  74 109 148 183 220 262 317
#     4   9  17  28  45  69 102 141 180 215 254 306
#     4  12  21  35  57  81 106 143 181 232 273 322
#     4  10  20  31  52  76  99 137 175 224 268 315
#     4  10  18  30  48  73 102 134 173 220 270 313
#
# _framework density 18.600819000000001
#
# number of rings (size 3 to 8) (size 9 to 14) (size 15 to 20)
#    0.000    2.000    2.500    1.875    3.500    1.000 
#    0.000    3.125    0.000    0.375    0.000    3.500 
#    0.000    3.500    0.000    0.000    0.000    0.000 
#
# Total GULP energy -357062.352633 kJ/mol
# GULP energy per Si atom -5579.099260 kJ/mol
# Density = 1.855848 g / cm^3
# Si number density = 18.600819 Si / 1000 Ang^3
#
#
#
# Elastic Constant Matrix: (Units=GPa)
#
#
# Indices 1 2 3 4 5 6 
#
# 1 90.1600 12.1445 12.8555 0.0000 0.0000 0.0000
# 2 12.1445 36.6475 -5.4244 0.0000 0.0000 0.0000
# 3 12.8555 -5.4244 50.5182 0.0000 0.0000 0.0000
# 4 0.0000 0.0000 0.0000 13.9483 0.0000 0.0000
# 5 0.0000 0.0000 0.0000 0.0000 23.6449 0.0000
# 6 0.0000 0.0000 0.0000 0.0000 0.0000 17.3908
#
#
#
# Elastic Compliance Matrix: (Units=1/GPa)
#
#
# Indices 1 2 3 4 5 6 
#
# 1 0.012222 -0.004584 -0.003602 0.000000 0.000000 0.000000
# 2 -0.004584 0.029447 0.004328 0.000000 0.000000 0.000000
# 3 -0.003602 0.004328 0.021176 0.000000 0.000000 0.000000
# 4 0.000000 0.000000 0.000000 0.071693 0.000000 0.000000
# 5 0.000000 0.000000 0.000000 0.000000 0.042292 0.000000
# 6 0.000000 0.000000 0.000000 0.000000 0.000000 0.057502
#
#
# Mechanical properties :
#
#
# Convention : Reuss Voigt Hill
#
# Bulk Modulus (GPa) = 18.13902 24.05299 21.09601
# Shear Modulus (GPa) = 19.19938 21.51346 20.35642
#
# Velocity S-wave (km/s) = 3.21624 3.40455 3.31173
# Velocity P-wave (km/s) = 4.85440 5.33046 5.09799
#
# Compressibility (1/GPa) = 0.05512976
#
# Stress axis : x y z
#
# Youngs Moduli (GPa) = 81.81657 33.95982 47.22252
#
# Poissons Ratio (x) = 0.15566 0.17012
# Poissons Ratio (y) = 0.37501 -0.20439
# Poissons Ratio (z) = 0.29474 -0.14699
#
# Static dielectric constant tensor:
#      x y z
#    x 1.661070 0.000000 0.000000 
#    y 0.000000 1.621110 0.000000 
#    z 0.000000 0.000000 1.707050 
# 
# From -- ./inp_files/10694.got.cif
#   From: 2010.05.17/outbox.cif.g08.bks.cpg/sg59_6_cif.got.tgz:10694.got - 2010.06.03 14:40:33.
