data_PCOD9446254
_publ_section_title
;
Structure prediction by ZEFSAII (Michael W. Deem and Ramdas Pophale) SiO2 
 PCOD9446254
Probable space group: P M M N
;
_chemical_formula_sum "Si O2"
_cell_formula_units_Z 48
_cell_length_a 22.037674
_cell_length_b 14.079294
_cell_length_c 8.192799
_cell_angle_alpha 90.000000
_cell_angle_beta 90.000000
_cell_angle_gamma 90.000000
_cell_volume 2542.019819
_symmetry_space_group_name_H-M "P M M N"
_symmetry_group_IT_number 59
_space_group.IT_coordinate_system_code '2'
_symmetry_cell_setting 'orthorhombic'
loop_
_space_group_symop_operation_xyz
x,y,z
1/2-x,1/2-y,z
1/2+x,-y,-z
-x,1/2+y,-z
-x,-y,-z
1/2+x,1/2+y,-z
1/2-x,y,z
x,1/2-y,z
loop_
_atom_site_type_symbol
_atom_site_label
_atom_site_fract_x
_atom_site_fract_y
_atom_site_fract_z
Si Si1 0.572527 0.567643 0.666943
Si Si2 0.822006 0.250000 0.335531
Si Si3 0.492616 0.114644 0.018803
Si Si4 0.384017 0.581913 0.850276
Si Si5 0.822527 0.459603 0.825047
Si Si6 0.676629 0.250000 0.702261
Si Si7 0.037775 0.422847 0.679460
O O1 0.550190 0.627316 0.824666
O O2 0.639193 0.527604 0.705578
O O3 0.560348 0.617023 0.493310
O O4 0.527510 0.475237 0.658813
O O5 0.750000 0.250000 0.344996
O O6 0.842662 0.343819 0.242434
O O7 0.847930 0.250000 0.518454
O O8 0.560546 0.140637 0.067708
O O9 0.500000 0.000000 0.000000
O O10 0.468928 0.142149 0.840668
O O11 0.414911 0.506486 0.728508
O O12 0.347701 0.527246 0.991794
O O13 0.750000 0.471577 0.813346
O O14 0.838730 0.349489 0.786104
O O15 0.750000 0.250000 0.696178
#
# Coordination Sequence:
#
# PCOD9446254 Si02
#       7
#     8   4   8   8   8   4   8
#     4   9  15  26  44  62  75  99 132 178 228 252
#     4  11  21  31  39  55  85 121 154 176 202 247
#     4   8  14  28  43  61  76  91 134 183 215 255
#     4  10  17  29  41  58  77 107 147 177 211 245
#     4  11  18  28  40  55  83 114 147 181 213 253
#     4   9  21  31  35  49  77 119 161 182 196 237
#     4   9  15  27  47  60  74  96 138 187 217 253
#
# _framework density 18.882621
#
# number of rings (size 3 to 8) (size 9 to 14) (size 15 to 20)
#    0.000    2.833    5.000    2.000    0.000    0.667 
#    0.000    0.833    0.000    0.000    0.000    0.000 
#    0.000    0.000    0.000   12.000    0.000   11.000 
#
# Total GULP energy -267269.690666 kJ/mol
# GULP energy per Si atom -5568.118556 kJ/mol
# Density = 1.883964 g / cm^3
# Si number density = 18.882621 Si / 1000 Ang^3
#
#
#
# Elastic Constant Matrix: (Units=GPa)
#
#
# Indices 1 2 3 4 5 6 
#
# 1 103.9912 11.2442 37.3809 0.0000 0.0000 0.0000
# 2 11.2442 29.3029 5.8177 0.0000 0.0000 0.0000
# 3 37.3809 5.8177 143.7508 0.0000 0.0000 0.0000
# 4 0.0000 0.0000 0.0000 -1.4763 0.0000 0.0000
# 5 0.0000 0.0000 0.0000 0.0000 26.5071 0.0000
# 6 0.0000 0.0000 0.0000 0.0000 0.0000 -715.1022
#
#
#
# Elastic Compliance Matrix: (Units=1/GPa)
#
#
# Indices 1 2 3 4 5 6 
#
# 1 0.010987 -0.003678 -0.002708 0.000000 0.000000 0.000000
# 2 -0.003678 0.035634 -0.000486 0.000000 0.000000 0.000000
# 3 -0.002708 -0.000486 0.007680 0.000000 0.000000 0.000000
# 4 0.000000 0.000000 0.000000 -0.677381 0.000000 0.000000
# 5 0.000000 0.000000 0.000000 0.000000 0.037726 0.000000
# 6 0.000000 0.000000 0.000000 0.000000 0.000000 -0.001398
#
#
# Mechanical properties :
#
#
# Convention : Reuss Voigt Hill
#
# Bulk Modulus (GPa) = 24.65644 42.88118 33.76881
# Shear Modulus (GPa) = -8.93674 -123.17414 -66.05544
#
# Velocity S-wave (km/s) = -2.17786 -8.08536 -5.92099
# Velocity P-wave (km/s) = 2.60039 8.02530 5.36859
#
# Compressibility (1/GPa) = 0.04055736
#
# Stress axis : x y z
#
# Youngs Moduli (GPa) = 91.01280 28.06291 130.20152
#
# Poissons Ratio (x) = 0.10323 0.35263
# Poissons Ratio (y) = 0.33479 0.06323
# Poissons Ratio (z) = 0.24649 0.01363
#
# Static dielectric constant tensor:
#      x y z
#    x 1.659160 0.000000 0.000000 
#    y 0.000000 1.619210 0.000000 
#    z 0.000000 0.000000 1.759490 
# 
# From -- ./inp_files/11515.got.cif
#   From: 2010.05.17/outbox.cif.g08.bks.cpg/sg59_6_cif.got.tgz:11515.got - 2010.06.03 14:40:33.
