data_PCOD9446768
_publ_section_title
;
Structure prediction by ZEFSAII (Michael W. Deem and Ramdas Pophale) SiO2 
 PCOD9446768
Probable space group: P M M N
;
_chemical_formula_sum "Si O2"
_cell_formula_units_Z 64
_cell_length_a 8.211704
_cell_length_b 20.759774
_cell_length_c 20.476013
_cell_angle_alpha 90.000000
_cell_angle_beta 90.000000
_cell_angle_gamma 90.000000
_cell_volume 3490.609805
_symmetry_space_group_name_H-M "P M M N"
_symmetry_group_IT_number 59
_space_group.IT_coordinate_system_code '2'
_symmetry_cell_setting 'orthorhombic'
loop_
_space_group_symop_operation_xyz
x,y,z
1/2-x,1/2-y,z
1/2+x,-y,-z
-x,1/2+y,-z
-x,-y,-z
1/2+x,1/2+y,-z
1/2-x,y,z
x,1/2-y,z
loop_
_atom_site_type_symbol
_atom_site_label
_atom_site_fract_x
_atom_site_fract_y
_atom_site_fract_z
Si Si1 0.556451 0.466216 0.159382
Si Si2 0.551103 0.677598 0.611636
Si Si3 0.553851 0.677566 0.461031
Si Si4 0.054115 0.056545 0.305215
Si Si5 0.448408 0.391774 0.888335
Si Si6 0.552846 0.678663 0.237928
Si Si7 0.443675 0.582080 0.349591
Si Si8 0.054894 0.070702 0.024650
O O1 0.750000 0.469572 0.165740
O O2 0.486040 0.445276 0.228573
O O3 0.497976 0.538443 0.139845
O O4 0.513860 0.421701 0.097208
O O5 0.750000 0.677339 0.612528
O O6 0.499837 0.750000 0.630735
O O7 0.502685 0.666908 0.536095
O O8 0.493069 0.620407 0.658191
O O9 0.750000 0.678997 0.459984
O O10 0.498285 0.750000 0.440994
O O11 0.500623 0.621345 0.412824
O O12 0.250000 0.056477 0.311254
O O13 0.991821 0.990412 0.338616
O O14 0.250000 0.393012 0.889099
O O15 0.498569 0.339093 0.835641
O O16 0.499321 0.384793 0.963798
O O17 0.750000 0.677967 0.240047
O O18 0.497325 0.750000 0.256784
O O19 0.492882 0.624731 0.287322
O O20 0.250000 0.578047 0.352400
O O21 0.250000 0.072315 0.028881
O O22 0.000000 0.000000 0.000000
#
# Coordination Sequence:
#
# PCOD9446768 Si02
#       8
#     8   8   8   8   8   8   8   8
#     4  10  18  30  48  71 100 131 163 202 249 298
#     4   8  16  34  58  78  95 121 164 211 252 300
#     4   9  18  34  55  74  94 129 173 209 241 289
#     4  10  20  33  51  76 103 130 161 206 257 302
#     4   8  15  28  45  67  93 122 161 206 243 279
#     4  10  19  32  50  69  94 134 178 211 241 287
#     4  11  22  32  45  72 107 134 160 202 253 301
#     4   9  16  27  45  69  97 127 163 206 249 297
#
# _framework density 18.334904999999999
#
# number of rings (size 3 to 8) (size 9 to 14) (size 15 to 20)
#    0.000    2.625    1.250    3.000    0.000    3.000 
#    0.000    1.250    0.000    1.875    0.000    3.500 
#    0.000    0.000    0.000    0.000    0.000    0.000 
#
# Total GULP energy -356648.241010 kJ/mol
# GULP energy per Si atom -5572.628766 kJ/mol
# Density = 1.829317 g / cm^3
# Si number density = 18.334905 Si / 1000 Ang^3
#
#
#
# Elastic Constant Matrix: (Units=GPa)
#
#
# Indices 1 2 3 4 5 6 
#
# 1 11.0036 13.3781 7.4523 0.0000 0.0000 0.0000
# 2 13.3781 120.1699 87.7519 0.0000 0.0000 0.0000
# 3 7.4523 87.7519 128.8717 0.0000 0.0000 0.0000
# 4 0.0000 0.0000 0.0000 18.8203 0.0000 0.0000
# 5 0.0000 0.0000 0.0000 0.0000 21.5167 0.0000
# 6 0.0000 0.0000 0.0000 0.0000 0.0000 13.2429
#
#
#
# Elastic Compliance Matrix: (Units=1/GPa)
#
#
# Indices 1 2 3 4 5 6 
#
# 1 0.106029 -0.014572 0.003791 0.000000 0.000000 0.000000
# 2 -0.014572 0.018554 -0.011791 0.000000 0.000000 0.000000
# 3 0.003791 -0.011791 0.015569 0.000000 0.000000 0.000000
# 4 0.000000 0.000000 0.000000 0.053134 0.000000 0.000000
# 5 0.000000 0.000000 0.000000 0.000000 0.046476 0.000000
# 6 0.000000 0.000000 0.000000 0.000000 0.000000 0.075512
#
#
# Mechanical properties :
#
#
# Convention : Reuss Voigt Hill
#
# Bulk Modulus (GPa) = 10.52547 53.02333 31.77440
# Shear Modulus (GPa) = 12.75223 20.81351 16.78287
#
# Velocity S-wave (km/s) = 2.64013 3.37291 3.02876
# Velocity P-wave (km/s) = 3.87902 6.64460 5.44048
#
# Compressibility (1/GPa) = 0.09500765
#
# Stress axis : x y z
#
# Youngs Moduli (GPa) = 9.43140 53.89583 64.22827
#
# Poissons Ratio (x) = 0.78539 -0.24351
# Poissons Ratio (y) = 0.13744 0.75734
# Poissons Ratio (z) = -0.03576 0.63551
#
# Static dielectric constant tensor:
#      x y z
#    x 1.654090 0.000000 0.000000 
#    y 0.000000 1.638090 0.000000 
#    z 0.000000 0.000000 1.643080 
# 
# From -- ./inp_files/29748.got.cif
#   From: 2010.05.17/outbox.cif.g08.bks.cpg/sg59_15_cif.got.tgz:29748.got - 2010.06.03 14:40:33.
