data_PCOD9446515
_publ_section_title
;
Structure prediction by ZEFSAII (Michael W. Deem and Ramdas Pophale) SiO2 
 PCOD9446515
Probable space group: P M M N
;
_chemical_formula_sum "Si O2"
_cell_formula_units_Z 56
_cell_length_a 19.178680
_cell_length_b 8.770655
_cell_length_c 19.555470
_cell_angle_alpha 90.000000
_cell_angle_beta 90.000000
_cell_angle_gamma 90.000000
_cell_volume 3289.417506
_symmetry_space_group_name_H-M "P M M N"
_symmetry_group_IT_number 59
_space_group.IT_coordinate_system_code '2'
_symmetry_cell_setting 'orthorhombic'
loop_
_space_group_symop_operation_xyz
x,y,z
1/2-x,1/2-y,z
1/2+x,-y,-z
-x,1/2+y,-z
-x,-y,-z
1/2+x,1/2+y,-z
1/2-x,y,z
x,1/2-y,z
loop_
_atom_site_type_symbol
_atom_site_label
_atom_site_fract_x
_atom_site_fract_y
_atom_site_fract_z
Si Si1 0.974673 0.432339 0.071133
Si Si2 0.169820 0.935661 0.466563
Si Si3 0.060703 0.935210 0.352958
Si Si4 0.411861 0.567104 0.603188
Si Si5 0.475162 0.575795 0.207019
Si Si6 0.675627 0.433359 0.121940
Si Si7 0.134887 0.424102 0.738856
O O1 0.975041 0.250000 0.067877
O O2 0.895072 0.486473 0.085546
O O3 0.020416 0.484441 0.136513
O O4 0.000000 0.500000 0.000000
O O5 0.250000 0.988553 0.467788
O O6 0.171563 0.750000 0.467533
O O7 0.126074 0.980133 0.399486
O O8 0.125444 0.982271 0.533193
O O9 0.055218 0.750000 0.352210
O O10 0.066302 0.984325 0.273378
O O11 0.989159 0.998437 0.385953
O O12 0.417120 0.750000 0.604083
O O13 0.365779 0.510903 0.667245
O O14 0.453880 0.750000 0.192284
O O15 0.554166 0.579066 0.236387
O O16 0.750000 0.481665 0.091152
O O17 0.673218 0.250000 0.122437
O O18 0.672810 0.491426 0.199655
O O19 0.158516 0.250000 0.731255
#
# Coordination Sequence:
#
# PCOD9446515 Si02
#       7
#     8   8   8   8   8   8   8
#     4  10  19  31  50  74  99 126 154 188 229 273
#     4   9  18  31  46  66  92 123 161 204 249 291
#     4   9  17  31  51  70  90 120 159 203 243 283
#     4  10  18  28  46  70  95 125 160 198 240 288
#     4   8  15  28  46  68  91 115 147 187 229 274
#     4   9  18  32  49  70  97 129 162 193 230 280
#     4   9  17  29  45  67  95 124 155 191 231 278
#
# _framework density 17.024290000000001
#
# number of rings (size 3 to 8) (size 9 to 14) (size 15 to 20)
#    0.000    2.857    0.000    2.571    0.000    4.857 
#    0.000    2.143    0.000    4.286    0.000    4.000 
#    0.000    0.000    0.000    0.000    0.000    0.000 
#
# Total GULP energy -311894.167081 kJ/mol
# GULP energy per Si atom -5569.538698 kJ/mol
# Density = 1.698554 g / cm^3
# Si number density = 17.024290 Si / 1000 Ang^3
#
#
#
# Elastic Constant Matrix: (Units=GPa)
#
#
# Indices 1 2 3 4 5 6 
#
# 1 75.6235 15.6875 59.8776 0.0000 0.0000 0.0000
# 2 15.6875 21.8064 33.6526 0.0000 0.0000 0.0000
# 3 59.8776 33.6526 149.3762 0.0000 0.0000 0.0000
# 4 0.0000 0.0000 0.0000 24.0673 0.0000 0.0000
# 5 0.0000 0.0000 0.0000 0.0000 7.5705 0.0000
# 6 0.0000 0.0000 0.0000 0.0000 0.0000 13.3542
#
#
#
# Elastic Compliance Matrix: (Units=1/GPa)
#
#
# Indices 1 2 3 4 5 6 
#
# 1 0.019500 -0.003013 -0.007138 0.000000 0.000000 0.000000
# 2 -0.003013 0.070765 -0.014735 0.000000 0.000000 0.000000
# 3 -0.007138 -0.014735 0.012875 0.000000 0.000000 0.000000
# 4 0.000000 0.000000 0.000000 0.041550 0.000000 0.000000
# 5 0.000000 0.000000 0.000000 0.000000 0.132092 0.000000
# 6 0.000000 0.000000 0.000000 0.000000 0.000000 0.074883
#
#
# Mechanical properties :
#
#
# Convention : Reuss Voigt Hill
#
# Bulk Modulus (GPa) = 18.73739 51.69349 35.21544
# Shear Modulus (GPa) = 11.92676 18.17097 15.04887
#
# Velocity S-wave (km/s) = 2.64971 3.27059 2.97638
# Velocity P-wave (km/s) = 4.51569 6.68527 5.70457
#
# Compressibility (1/GPa) = 0.05336922
#
# Stress axis : x y z
#
# Youngs Moduli (GPa) = 51.28192 14.13134 77.66826
#
# Poissons Ratio (x) = 0.04258 0.55439
# Poissons Ratio (y) = 0.15450 1.14442
# Poissons Ratio (z) = 0.36604 0.20822
#
# Static dielectric constant tensor:
#      x y z
#    x 1.599440 0.000000 0.000000 
#    y 0.000000 1.580520 0.000000 
#    z 0.000000 0.000000 1.573550 
# 
# From -- ./inp_files/28026.got.cif
#   From: 2010.05.17/outbox.cif.g08.bks.cpg/sg59_15_cif.got.tgz:28026.got - 2010.06.03 14:40:33.
