data_PCOD9446750
_publ_section_title
;
Structure prediction by ZEFSAII (Michael W. Deem and Ramdas Pophale) SiO2 
 PCOD9446750
Probable space group: P M M N
;
_chemical_formula_sum "Si O2"
_cell_formula_units_Z 56
_cell_length_a 8.522718
_cell_length_b 19.104777
_cell_length_c 21.417162
_cell_angle_alpha 90.000000
_cell_angle_beta 90.000000
_cell_angle_gamma 90.000000
_cell_volume 3487.241410
_symmetry_space_group_name_H-M "P M M N"
_symmetry_group_IT_number 59
_space_group.IT_coordinate_system_code '2'
_symmetry_cell_setting 'orthorhombic'
loop_
_space_group_symop_operation_xyz
x,y,z
1/2-x,1/2-y,z
1/2+x,-y,-z
-x,1/2+y,-z
-x,-y,-z
1/2+x,1/2+y,-z
1/2-x,y,z
x,1/2-y,z
loop_
_atom_site_type_symbol
_atom_site_label
_atom_site_fract_x
_atom_site_fract_y
_atom_site_fract_z
Si Si1 0.936883 0.539888 0.561626
Si Si2 0.561686 0.169000 0.502200
Si Si3 0.439906 0.171288 0.006079
Si Si4 0.060027 0.831427 0.254858
Si Si5 0.439141 0.033727 0.064271
Si Si6 0.563492 0.911030 0.375207
Si Si7 0.560137 0.395464 0.877340
O O1 0.750000 0.540070 0.561080
O O2 0.000000 0.500000 0.500000
O O3 0.999230 0.618500 0.552758
O O4 0.997833 0.489866 0.616560
O O5 0.750000 0.165730 0.502795
O O6 0.513234 0.250000 0.496462
O O7 0.501607 0.136224 0.567512
O O8 0.250000 0.171713 0.005077
O O9 0.495590 0.250000 0.017566
O O10 0.496300 0.144808 0.938167
O O11 0.490892 0.114258 0.058114
O O12 0.250000 0.835597 0.258176
O O13 0.015932 0.750000 0.260935
O O14 0.010069 0.860771 0.187367
O O15 0.989509 0.876151 0.310960
O O16 0.250000 0.033914 0.064257
O O17 0.488000 0.977363 0.116340
O O18 0.500000 0.000000 0.000000
O O19 0.750000 0.913102 0.380537
O O20 0.750000 0.391874 0.879951
#
# Coordination Sequence:
#
# PCOD9446750 Si02
#       7
#     8   8   8   8   8   8   8
#     4  10  18  30  48  67  90 118 149 184 221 262
#     4  10  19  31  48  70  96 122 147 179 220 262
#     4   9  16  25  39  61  88 113 136 169 215 261
#     4  10  20  32  44  60  84 114 148 183 218 257
#     4   8  14  25  40  58  80 107 139 173 210 254
#     4  11  21  32  46  64  89 119 152 185 218 262
#     4   9  17  29  44  60  81 112 148 181 212 253
#
# _framework density 16.058537999999999
#
# number of rings (size 3 to 8) (size 9 to 14) (size 15 to 20)
#    0.000    2.429    0.000    5.571    0.000    4.571 
#    0.000    0.000    0.000    0.000    0.000    1.000 
#    0.000    3.429    0.000    0.000    0.000    0.000 
#
# Total GULP energy -311928.583706 kJ/mol
# GULP energy per Si atom -5570.153280 kJ/mol
# Density = 1.602199 g / cm^3
# Si number density = 16.058538 Si / 1000 Ang^3
#
#
#
# Elastic Constant Matrix: (Units=GPa)
#
#
# Indices 1 2 3 4 5 6 
#
# 1 44.3908 23.6775 9.2420 0.0000 0.0000 0.0000
# 2 23.6775 115.8146 13.8997 0.0000 0.0000 0.0000
# 3 9.2420 13.8997 21.9579 0.0000 0.0000 0.0000
# 4 0.0000 0.0000 0.0000 29.6171 0.0000 0.0000
# 5 0.0000 0.0000 0.0000 0.0000 11.6824 0.0000
# 6 0.0000 0.0000 0.0000 0.0000 0.0000 21.4375
#
#
#
# Elastic Compliance Matrix: (Units=1/GPa)
#
#
# Indices 1 2 3 4 5 6 
#
# 1 0.026645 -0.004439 -0.008405 0.000000 0.000000 0.000000
# 2 -0.004439 0.010084 -0.004515 0.000000 0.000000 0.000000
# 3 -0.008405 -0.004515 0.051937 0.000000 0.000000 0.000000
# 4 0.000000 0.000000 0.000000 0.033764 0.000000 0.000000
# 5 0.000000 0.000000 0.000000 0.000000 0.085599 0.000000
# 6 0.000000 0.000000 0.000000 0.000000 0.000000 0.046647
#
#
# Mechanical properties :
#
#
# Convention : Reuss Voigt Hill
#
# Bulk Modulus (GPa) = 18.53611 30.64463 24.59037
# Shear Modulus (GPa) = 16.26672 21.57034 18.91853
#
# Velocity S-wave (km/s) = 3.18616 3.66899 3.43607
# Velocity P-wave (km/s) = 5.01033 6.08877 5.57569
#
# Compressibility (1/GPa) = 0.05394874
#
# Stress axis : x y z
#
# Youngs Moduli (GPa) = 37.53116 99.16898 19.25392
#
# Poissons Ratio (x) = 0.44017 0.16183
# Poissons Ratio (y) = 0.16658 0.08693
# Poissons Ratio (z) = 0.31545 0.44775
#
# Static dielectric constant tensor:
#      x y z
#    x 1.545020 0.000000 0.000000 
#    y 0.000000 1.588620 0.000000 
#    z 0.000000 0.000000 1.508610 
# 
# From -- ./inp_files/29300.got.cif
#   From: 2010.05.17/outbox.cif.g08.bks.cpg/sg59_15_cif.got.tgz:29300.got - 2010.06.03 14:40:33.
