data_PCOD9446285
_publ_section_title
;
Structure prediction by ZEFSAII (Michael W. Deem and Ramdas Pophale) SiO2 
 PCOD9446285
Probable space group: P M M N
;
_chemical_formula_sum "Si O2"
_cell_formula_units_Z 64
_cell_length_a 15.134150
_cell_length_b 20.678527
_cell_length_c 10.289445
_cell_angle_alpha 90.000000
_cell_angle_beta 90.000000
_cell_angle_gamma 90.000000
_cell_volume 3220.101665
_symmetry_space_group_name_H-M "P M M N"
_symmetry_group_IT_number 59
_space_group.IT_coordinate_system_code '2'
_symmetry_cell_setting 'orthorhombic'
loop_
_space_group_symop_operation_xyz
x,y,z
1/2-x,1/2-y,z
1/2+x,-y,-z
-x,1/2+y,-z
-x,-y,-z
1/2+x,1/2+y,-z
1/2-x,y,z
x,1/2-y,z
loop_
_atom_site_type_symbol
_atom_site_label
_atom_site_fract_x
_atom_site_fract_y
_atom_site_fract_z
Si Si1 0.107687 0.936071 0.500988
Si Si2 0.149784 0.568855 0.783542
Si Si3 0.096199 0.078384 0.427692
Si Si4 0.643792 0.403915 0.783241
Si Si5 0.358466 0.677478 0.976350
Si Si6 0.141661 0.427075 0.855003
Si Si7 0.642974 0.549150 0.853983
Si Si8 0.644318 0.823258 0.352811
O O1 0.152955 0.913015 0.632717
O O2 0.118817 0.897874 0.367131
O O3 0.005681 0.932759 0.539829
O O4 0.139256 0.009577 0.470172
O O5 0.250000 0.561624 0.833711
O O6 0.110784 0.496898 0.799664
O O7 0.109566 0.625087 0.870992
O O8 0.110388 0.085754 0.274279
O O9 0.128840 0.137589 0.514083
O O10 0.750000 0.405144 0.787311
O O11 0.614848 0.348688 0.882158
O O12 0.614127 0.474206 0.836688
O O13 0.250000 0.678969 0.971903
O O14 0.389294 0.750000 0.951256
O O15 0.250000 0.425607 0.849469
O O16 0.109340 0.369370 0.762996
O O17 0.115382 0.424241 0.005807
O O18 0.750000 0.549893 0.851461
O O19 0.750000 0.819016 0.335430
O O20 0.609081 0.750000 0.353512
#
# Coordination Sequence:
#
# PCOD9446285 Si02
#       8
#     8   8   8   8   8   8   8   8
#     4  10  20  32  50  75 103 134 174 215 258 301
#     4  10  17  30  52  77 103 133 170 214 258 305
#     4  10  20  34  49  74 106 135 168 216 260 309
#     4   9  16  29  49  74  99 129 170 211 249 301
#     4   9  17  30  49  74 103 131 163 208 257 303
#     4   9  16  29  51  78 102 127 167 218 263 307
#     4   9  16  29  52  77  99 126 166 214 261 305
#     4  10  20  35  56  79 103 135 174 217 268 319
#
# _framework density 19.875149
#
# number of rings (size 3 to 8) (size 9 to 14) (size 15 to 20)
#    0.000    2.500    2.500    0.750    0.000    1.000 
#    0.000    4.375    0.000    5.250    0.000    0.000 
#    0.000    0.000    0.000    0.000    0.000    0.000 
#
# Total GULP energy -356966.626806 kJ/mol
# GULP energy per Si atom -5577.603544 kJ/mol
# Density = 1.982991 g / cm^3
# Si number density = 19.875149 Si / 1000 Ang^3
#
#
#
# Elastic Constant Matrix: (Units=GPa)
#
#
# Indices 1 2 3 4 5 6 
#
# 1 22.9094 4.8468 -4.7817 0.0000 0.0000 0.0000
# 2 4.8468 128.6084 73.5972 0.0000 0.0000 0.0000
# 3 -4.7817 73.5972 145.2623 0.0000 0.0000 0.0000
# 4 0.0000 0.0000 0.0000 21.1233 0.0000 0.0000
# 5 0.0000 0.0000 0.0000 0.0000 -9.8438 0.0000
# 6 0.0000 0.0000 0.0000 0.0000 0.0000 3.6422
#
#
#
# Elastic Compliance Matrix: (Units=1/GPa)
#
#
# Indices 1 2 3 4 5 6 
#
# 1 0.045099 -0.003590 0.003303 0.000000 0.000000 0.000000
# 2 -0.003590 0.011236 -0.005811 0.000000 0.000000 0.000000
# 3 0.003303 -0.005811 0.009937 0.000000 0.000000 0.000000
# 4 0.000000 0.000000 0.000000 0.047341 0.000000 0.000000
# 5 0.000000 0.000000 0.000000 0.000000 -0.101587 0.000000
# 6 0.000000 0.000000 0.000000 0.000000 0.000000 0.274557
#
#
# Mechanical properties :
#
#
# Convention : Reuss Voigt Hill
#
# Bulk Modulus (GPa) = 18.49203 49.34496 33.91849
# Shear Modulus (GPa) = 15.78259 17.85887 16.82073
#
# Velocity S-wave (km/s) = 2.82101 3.00084 2.91231
# Velocity P-wave (km/s) = 4.46487 6.07356 5.33025
#
# Compressibility (1/GPa) = 0.05407735
#
# Stress axis : x y z
#
# Youngs Moduli (GPa) = 22.17327 88.99778 100.63409
#
# Poissons Ratio (x) = 0.31951 -0.33244
# Poissons Ratio (y) = 0.07960 0.58479
# Poissons Ratio (z) = -0.07325 0.51717
#
# Static dielectric constant tensor:
#      x y z
#    x 1.691510 0.000000 0.000000 
#    y 0.000000 1.693460 0.000000 
#    z 0.000000 0.000000 1.702630 
# 
# From -- ./inp_files/11605.got.cif
#   From: 2010.05.17/outbox.cif.g08.bks.cpg/sg59_6_cif.got.tgz:11605.got - 2010.06.03 14:40:33.
