data_PCOD9446394
_publ_section_title
;
Structure prediction by ZEFSAII (Michael W. Deem and Ramdas Pophale) SiO2 
 PCOD9446394
Probable space group: P M M N
;
_chemical_formula_sum "Si O2"
_cell_formula_units_Z 64
_cell_length_a 19.691073
_cell_length_b 7.593965
_cell_length_c 22.450134
_cell_angle_alpha 90.000000
_cell_angle_beta 90.000000
_cell_angle_gamma 90.000000
_cell_volume 3357.043053
_symmetry_space_group_name_H-M "P M M N"
_symmetry_group_IT_number 59
_space_group.IT_coordinate_system_code '2'
_symmetry_cell_setting 'orthorhombic'
loop_
_space_group_symop_operation_xyz
x,y,z
1/2-x,1/2-y,z
1/2+x,-y,-z
-x,1/2+y,-z
-x,-y,-z
1/2+x,1/2+y,-z
1/2-x,y,z
x,1/2-y,z
loop_
_atom_site_type_symbol
_atom_site_label
_atom_site_fract_x
_atom_site_fract_y
_atom_site_fract_z
Si Si1 0.910097 0.038868 0.649749
Si Si2 0.940187 0.966852 0.310265
Si Si3 0.827048 0.960723 0.402372
Si Si4 0.528838 0.949311 0.184035
Si Si5 0.880367 0.957312 0.776858
Si Si6 0.028790 0.962106 0.064777
Si Si7 0.672349 0.461867 0.536858
Si Si8 0.177128 0.959009 0.100843
O O1 0.914361 0.250000 0.645225
O O2 0.876101 0.971435 0.589342
O O3 0.986640 0.975708 0.663636
O O4 0.865397 0.996655 0.708213
O O5 0.941027 0.750000 0.308722
O O6 0.879917 0.025488 0.353267
O O7 0.933568 0.027790 0.241522
O O8 0.750000 0.030301 0.396383
O O9 0.823807 0.750000 0.395466
O O10 0.850544 0.995848 0.469896
O O11 0.554713 0.750000 0.176454
O O12 0.519464 0.030546 0.118504
O O13 0.450751 0.945535 0.207205
O O14 0.892427 0.750000 0.782948
O O15 0.828863 0.013430 0.828031
O O16 0.031182 0.750000 0.072616
O O17 0.106140 0.028781 0.074018
O O18 0.000000 0.000000 0.000000
O O19 0.750000 0.527087 0.543442
O O20 0.674531 0.250000 0.541703
O O21 0.250000 0.031281 0.080140
O O22 0.177539 0.750000 0.089223
#
# Coordination Sequence:
#
# PCOD9446394 Si02
#       8
#     8   8   8   8   8   8   8   8
#     4   9  17  30  45  60  83 118 154 181 212 263
#     4   8  14  27  47  65  82 109 145 183 218 258
#     4   9  17  29  45  64  84 107 138 180 231 276
#     4   8  15  30  48  64  87 119 151 177 208 260
#     4  10  18  27  42  67  95 116 140 182 231 267
#     4   9  17  29  48  72  94 121 154 187 225 266
#     4   9  18  31  44  58  79 110 146 181 218 266
#     4   9  18  33  50  66  89 126 167 194 215 260
#
# _framework density 19.064395999999999
#
# number of rings (size 3 to 8) (size 9 to 14) (size 15 to 20)
#    0.000    3.125    0.000    2.625    0.000    3.750 
#    0.000    3.750    0.000    0.750    0.000    1.750 
#    0.000    0.000    0.000    0.000    0.000    2.000 
#
# Total GULP energy -356399.522624 kJ/mol
# GULP energy per Si atom -5568.742541 kJ/mol
# Density = 1.902100 g / cm^3
# Si number density = 19.064396 Si / 1000 Ang^3
#
#
#
# Elastic Constant Matrix: (Units=GPa)
#
#
# Indices 1 2 3 4 5 6 
#
# 1 77.5523 -0.4542 80.2553 0.0000 0.0000 0.0000
# 2 -0.4542 44.5855 -5.2030 0.0000 0.0000 0.0000
# 3 80.2553 -5.2030 184.7393 0.0000 0.0000 0.0000
# 4 0.0000 0.0000 0.0000 19.4235 0.0000 0.0000
# 5 0.0000 0.0000 0.0000 0.0000 -8.7436 0.0000
# 6 0.0000 0.0000 0.0000 0.0000 0.0000 -1.0425
#
#
#
# Elastic Compliance Matrix: (Units=1/GPa)
#
#
# Indices 1 2 3 4 5 6 
#
# 1 0.023466 -0.000954 -0.010221 0.000000 0.000000 0.000000
# 2 -0.000954 0.022542 0.001049 0.000000 0.000000 0.000000
# 3 -0.010221 0.001049 0.009883 0.000000 0.000000 0.000000
# 4 0.000000 0.000000 0.000000 0.051484 0.000000 0.000000
# 5 0.000000 0.000000 0.000000 0.000000 -0.114369 0.000000
# 6 0.000000 0.000000 0.000000 0.000000 0.000000 -0.959225
#
#
# Mechanical properties :
#
#
# Convention : Reuss Voigt Hill
#
# Bulk Modulus (GPa) = 28.05893 50.67482 39.36687
# Shear Modulus (GPa) = -5.35282 17.41274 6.02996
#
# Velocity S-wave (km/s) = -1.67745 3.02547 1.78040
# Velocity P-wave (km/s) = 3.31634 6.23243 4.99206
#
# Compressibility (1/GPa) = 0.03563928
#
# Stress axis : x y z
#
# Youngs Moduli (GPa) = 42.61401 44.36257 101.18430
#
# Poissons Ratio (x) = 0.04231 1.03423
# Poissons Ratio (y) = 0.04064 -0.10616
# Poissons Ratio (z) = 0.43557 -0.04654
#
# Static dielectric constant tensor:
#      x y z
#    x 1.664360 0.000000 0.000000 
#    y 0.000000 1.720830 0.000000 
#    z 0.000000 0.000000 1.683430 
# 
# From -- ./inp_files/30931.got.cif
#   From: 2010.05.17/outbox.cif.g08.bks.cpg/sg59_16_cif.got.tgz:30931.got - 2010.06.03 14:40:33.
