data_PCOD9446307
_publ_section_title
;
Structure prediction by ZEFSAII (Michael W. Deem and Ramdas Pophale) SiO2 
 PCOD9446307
Probable space group: P M M N
;
_chemical_formula_sum "Si O2"
_cell_formula_units_Z 64
_cell_length_a 32.007053
_cell_length_b 7.690957
_cell_length_c 12.144643
_cell_angle_alpha 90.000000
_cell_angle_beta 90.000000
_cell_angle_gamma 90.000000
_cell_volume 2989.584445
_symmetry_space_group_name_H-M "P M M N"
_symmetry_group_IT_number 59
_space_group.IT_coordinate_system_code '2'
_symmetry_cell_setting 'orthorhombic'
loop_
_space_group_symop_operation_xyz
x,y,z
1/2-x,1/2-y,z
1/2+x,-y,-z
-x,1/2+y,-z
-x,-y,-z
1/2+x,1/2+y,-z
1/2-x,y,z
x,1/2-y,z
loop_
_atom_site_type_symbol
_atom_site_label
_atom_site_fract_x
_atom_site_fract_y
_atom_site_fract_z
Si Si1 0.296049 0.536984 0.261943
Si Si2 0.169941 0.540644 0.496185
Si Si3 0.628796 0.951659 0.109932
Si Si4 0.540023 0.039243 0.737535
Si Si5 0.296624 0.042273 0.737499
Si Si6 0.947593 0.454075 0.260598
Si Si7 0.622040 0.047901 0.861321
Si Si8 0.926731 0.461984 0.503881
O O1 0.250000 0.478880 0.226407
O O2 0.295623 0.750000 0.258831
O O3 0.305022 0.484430 0.388080
O O4 0.335033 0.474852 0.189021
O O5 0.169470 0.750000 0.494852
O O6 0.189767 0.487078 0.611565
O O7 0.121705 0.483566 0.487789
O O8 0.637467 0.750000 0.086639
O O9 0.667419 0.025763 0.181063
O O10 0.587259 0.962934 0.183568
O O11 0.622420 0.038368 0.992309
O O12 0.539126 0.250000 0.739279
O O13 0.579354 0.975734 0.809388
O O14 0.548170 0.980720 0.611583
O O15 0.494947 0.978628 0.777738
O O16 0.250000 0.972232 0.756696
O O17 0.295266 0.250000 0.753177
O O18 0.937602 0.250000 0.263002
O O19 0.944040 0.521337 0.386207
O O20 0.621918 0.250000 0.826816
O O21 0.927575 0.250000 0.505130
#
# Coordination Sequence:
#
# PCOD9446307 Si02
#       8
#     8   8   8   8   8   8   8   8
#     4   9  17  31  56  89 118 145 181 226 278 332
#     4  10  17  32  59  89 117 148 184 224 274 332
#     4  11  24  41  59  79 108 149 193 235 280 331
#     4  10  20  37  59  84 116 151 183 221 280 340
#     4  10  22  39  57  81 115 151 185 226 279 334
#     4  11  22  37  59  87 116 145 184 232 278 329
#     4  10  21  38  59  81 110 148 188 234 278 323
#     4   9  17  32  57  86 117 147 178 224 277 330
#
# _framework density 21.407658999999999
#
# number of rings (size 3 to 8) (size 9 to 14) (size 15 to 20)
#    0.000    2.000    2.500    1.500    0.000    2.750 
#    0.000    1.875    0.000    0.750    0.000    0.000 
#    0.000    0.000    0.000    0.000    0.000    0.000 
#
# Total GULP energy -357559.105539 kJ/mol
# GULP energy per Si atom -5586.861024 kJ/mol
# Density = 2.135893 g / cm^3
# Si number density = 21.407659 Si / 1000 Ang^3
#
#
#
# Elastic Constant Matrix: (Units=GPa)
#
#
# Indices 1 2 3 4 5 6 
#
# 1 159.4473 -10.6307 44.7685 0.0000 0.0000 0.0000
# 2 -10.6307 34.8016 -14.8461 0.0000 0.0000 0.0000
# 3 44.7685 -14.8461 96.4494 0.0000 0.0000 0.0000
# 4 0.0000 0.0000 0.0000 -46.9874 0.0000 0.0000
# 5 0.0000 0.0000 0.0000 0.0000 1.8116 0.0000
# 6 0.0000 0.0000 0.0000 0.0000 0.0000 4.8847
#
#
#
# Elastic Compliance Matrix: (Units=1/GPa)
#
#
# Indices 1 2 3 4 5 6 
#
# 1 0.007234 0.000832 -0.003230 0.000000 0.000000 0.000000
# 2 0.000832 0.030849 0.004362 0.000000 0.000000 0.000000
# 3 -0.003230 0.004362 0.012539 0.000000 0.000000 0.000000
# 4 0.000000 0.000000 0.000000 -0.021282 0.000000 0.000000
# 5 0.000000 0.000000 0.000000 0.000000 0.552000 0.000000
# 6 0.000000 0.000000 0.000000 0.000000 0.000000 0.204721
#
#
# Mechanical properties :
#
#
# Convention : Reuss Voigt Hill
#
# Bulk Modulus (GPa) = 18.33133 36.58686 27.45909
# Shear Modulus (GPa) = 6.24754 10.03554 8.14154
#
# Velocity S-wave (km/s) = 1.71018 2.16749 1.95227
# Velocity P-wave (km/s) = 3.53287 4.83649 4.23514
#
# Compressibility (1/GPa) = 0.05455142
#
# Stress axis : x y z
#
# Youngs Moduli (GPa) = 138.23715 32.41549 79.75287
#
# Poissons Ratio (x) = -0.02697 0.25758
# Poissons Ratio (y) = -0.11501 -0.34791
# Poissons Ratio (z) = 0.44646 -0.14141
#
# Static dielectric constant tensor:
#      x y z
#    x 1.775060 0.000000 0.000000 
#    y 0.000000 1.799960 0.000000 
#    z 0.000000 0.000000 1.731550 
# 
# From -- ./inp_files/19266.got.cif
#   From: 2010.05.17/outbox.cif.g08.bks.cpg/sg59_10_cif.got.tgz:19266.got - 2010.06.03 14:40:33.
