data_PCOD9446365
_publ_section_title
;
Structure prediction by ZEFSAII (Michael W. Deem and Ramdas Pophale) SiO2 
 PCOD9446365
Probable space group: P M M N
;
_chemical_formula_sum "Si O2"
_cell_formula_units_Z 64
_cell_length_a 8.891297
_cell_length_b 27.147316
_cell_length_c 18.967699
_cell_angle_alpha 90.000000
_cell_angle_beta 90.000000
_cell_angle_gamma 90.000000
_cell_volume 4578.325488
_symmetry_space_group_name_H-M "P M M N"
_symmetry_group_IT_number 59
_space_group.IT_coordinate_system_code '2'
_symmetry_cell_setting 'orthorhombic'
loop_
_space_group_symop_operation_xyz
x,y,z
1/2-x,1/2-y,z
1/2+x,-y,-z
-x,1/2+y,-z
-x,-y,-z
1/2+x,1/2+y,-z
1/2-x,y,z
x,1/2-y,z
loop_
_atom_site_type_symbol
_atom_site_label
_atom_site_fract_x
_atom_site_fract_y
_atom_site_fract_z
Si Si1 0.069120 0.306895 0.170729
Si Si2 0.930108 0.547431 0.461132
Si Si3 0.430529 0.953806 0.041220
Si Si4 0.570270 0.395469 0.419751
Si Si5 0.569833 0.008200 0.326201
Si Si6 0.069196 0.192731 0.334274
Si Si7 0.930366 0.510532 0.827179
Si Si8 0.930429 0.396458 0.089610
O O1 0.250000 0.311062 0.165602
O O2 0.028876 0.250000 0.156396
O O3 0.028838 0.317660 0.252466
O O4 0.992521 0.345574 0.119402
O O5 0.750000 0.546881 0.468448
O O6 0.965777 0.537022 0.379240
O O7 0.000000 0.500000 0.500000
O O8 0.998092 0.592903 0.504113
O O9 0.250000 0.957000 0.038185
O O10 0.472192 0.963993 0.122373
O O11 0.472951 0.907519 0.992255
O O12 0.500000 0.000000 0.000000
O O13 0.750000 0.395390 0.426013
O O14 0.529178 0.441059 0.367307
O O15 0.510829 0.345587 0.385205
O O16 0.750000 0.009209 0.315904
O O17 0.489527 0.005140 0.251648
O O18 0.250000 0.187559 0.340192
O O19 0.032227 0.250000 0.348500
O O20 0.750000 0.515805 0.827038
O O21 0.001224 0.559182 0.863296
O O22 0.750000 0.397781 0.095768
#
# Coordination Sequence:
#
# PCOD9446365 Si02
#       8
#     8   8   8   8   8   8   8   8
#     4   9  18  31  44  59  80 105 136 172 203 234
#     4   9  17  29  43  58  79 106 135 167 200 238
#     4   8  16  28  39  55  78 104 134 166 198 234
#     4  10  19  29  42  60  82 108 137 168 202 239
#     4   9  18  29  40  59  84 107 134 168 203 238
#     4   9  18  31  44  58  79 108 139 170 203 236
#     4  10  18  27  41  59  80 108 139 167 198 238
#     4  10  18  28  42  58  80 108 137 169 202 237
#
# _framework density 13.978911
#
# number of rings (size 3 to 8) (size 9 to 14) (size 15 to 20)
#    0.000    2.750    0.000    3.750    0.000    7.000 
#    0.000    1.250    0.000    0.000    0.000    0.000 
#    0.000    1.000    0.000    6.500    0.000    4.875 
#
# Total GULP energy -356294.945159 kJ/mol
# GULP energy per Si atom -5567.108518 kJ/mol
# Density = 1.394709 g / cm^3
# Si number density = 13.978911 Si / 1000 Ang^3
#
#
#
# Elastic Constant Matrix: (Units=GPa)
#
#
# Indices 1 2 3 4 5 6 
#
# 1 31.0281 29.4380 37.2891 0.0000 0.0000 0.0000
# 2 29.4380 72.9491 50.2995 0.0000 0.0000 0.0000
# 3 37.2891 50.2995 97.9184 0.0000 0.0000 0.0000
# 4 0.0000 0.0000 0.0000 28.8381 0.0000 0.0000
# 5 0.0000 0.0000 0.0000 0.0000 20.6262 0.0000
# 6 0.0000 0.0000 0.0000 0.0000 0.0000 21.7253
#
#
#
# Elastic Compliance Matrix: (Units=1/GPa)
#
#
# Indices 1 2 3 4 5 6 
#
# 1 0.068572 -0.014967 -0.018425 0.000000 0.000000 0.000000
# 2 -0.014967 0.024494 -0.006882 0.000000 0.000000 0.000000
# 3 -0.018425 -0.006882 0.020764 0.000000 0.000000 0.000000
# 4 0.000000 0.000000 0.000000 0.034676 0.000000 0.000000
# 5 0.000000 0.000000 0.000000 0.000000 0.048482 0.000000
# 6 0.000000 0.000000 0.000000 0.000000 0.000000 0.046029
#
#
# Mechanical properties :
#
#
# Convention : Reuss Voigt Hill
#
# Bulk Modulus (GPa) = 30.04725 48.43877 39.24301
# Shear Modulus (GPa) = 14.94054 19.89584 17.41819
#
# Velocity S-wave (km/s) = 3.27278 3.77673 3.53375
# Velocity P-wave (km/s) = 5.98522 7.33108 6.69207
#
# Compressibility (1/GPa) = 0.03328092
#
# Stress axis : x y z
#
# Youngs Moduli (GPa) = 14.58325 40.82713 48.15946
#
# Poissons Ratio (x) = 0.61108 0.88733
# Poissons Ratio (y) = 0.21827 0.33144
# Poissons Ratio (z) = 0.26869 0.28098
#
# Static dielectric constant tensor:
#      x y z
#    x 1.469550 0.000000 0.000000 
#    y 0.000000 1.453770 0.000000 
#    z 0.000000 0.000000 1.475170 
# 
# From -- ./inp_files/26448.got.cif
#   From: 2010.05.17/outbox.cif.g08.bks.cpg/sg59_14_cif.got.tgz:26448.got - 2010.06.03 14:40:33.
