data_PCOD9446097
_publ_section_title
;
Structure prediction by ZEFSAII (Michael W. Deem and Ramdas Pophale) SiO2 
 PCOD9446097
Probable space group: P N N M
;
_chemical_formula_sum "Si O2"
_cell_formula_units_Z 48
_cell_length_a 30.000000
_cell_length_b 9.000000
_cell_length_c 9.000000
_cell_angle_alpha 90.000000
_cell_angle_beta 90.000000
_cell_angle_gamma 90.000000
_cell_volume 2430.000000
_symmetry_space_group_name_H-M "P N N M"
_symmetry_group_IT_number 58
_symmetry_cell_setting 'orthorhombic'
loop_
_space_group_symop_operation_xyz
x,y,z
-x,-y,z
1/2+x,1/2-y,1/2-z
1/2-x,1/2+y,1/2-z
-x,-y,-z
x,y,-z
1/2-x,1/2+y,1/2+z
1/2+x,1/2-y,1/2+z
loop_
_atom_site_type_symbol
_atom_site_label
_atom_site_fract_x
_atom_site_fract_y
_atom_site_fract_z
Si Si1 0.701196 0.931552 0.673794
Si Si2 0.434882 0.903408 0.000000
Si Si3 0.361205 0.543664 0.335375
Si Si4 0.715500 0.618552 0.824578
Si Si5 0.042351 0.889421 0.826353
Si Si6 0.112436 0.383688 0.827402
Si Si7 0.972833 0.263749 0.500000
O O1 0.710505 0.907459 0.500000
O O2 0.738273 0.047157 0.730884
O O3 0.651710 0.996441 0.684941
O O4 0.706376 0.777657 0.755777
O O5 0.412837 0.889499 0.833239
O O6 0.473824 0.780840 0.000000
O O7 0.453142 0.070897 0.000000
O O8 0.344565 0.499678 0.500000
O O9 0.325844 0.485903 0.217962
O O10 0.410402 0.474234 0.318734
O O11 0.366434 0.719963 0.330684
O O12 0.718794 0.634947 0.000000
O O13 0.039531 0.804197 0.664829
O O14 0.041407 0.821010 0.000000
O O15 0.000000 0.000000 0.825470
O O16 0.092168 0.401642 0.000000
#
# Coordination Sequence:
#
# PCOD9446097 Si02
#       7
#     8   4   8   8   8   8   4
#     4  10  23  42  61  89 127 167 208 257 317 380
#     4  11  26  42  64  96 126 177 216 265 333 387
#     4  10  22  40  63  93 127 164 211 265 320 384
#     4  11  24  39  64  95 125 166 212 262 322 380
#     4  10  22  40  66  94 126 171 219 267 328 387
#     4  10  23  43  66  90 128 171 216 263 319 382
#     4  11  25  42  62  94 137 162 219 278 325 386
#
# _framework density 19.753086
#
# number of rings (size 3 to 8) (size 9 to 14) (size 15 to 20)
#    0.000    1.667    0.000    2.750    5.833    5.333 
#    0.000    1.667    0.000    0.000    0.000    0.000 
#    0.000    0.000    0.000    0.000    0.000    0.000 
#
# Total GULP energy -267320.781862 kJ/mol
# GULP energy per Si atom -5569.182955 kJ/mol
# Density = 1.970813 g / cm^3
# Si number density = 19.753086 Si / 1000 Ang^3
#
#
#
# Elastic Constant Matrix: (Units=GPa)
#
#
# Indices 1 2 3 4 5 6 
#
# 1 -19.0047 -23.7960 -16.7730 0.0000 0.0000 0.0000
# 2 -23.7960 53.7417 27.7023 0.0000 0.0000 0.0000
# 3 -16.7730 27.7023 102.1433 0.0000 0.0000 0.0000
# 4 0.0000 0.0000 0.0000 25.8587 0.0000 0.0000
# 5 0.0000 0.0000 0.0000 0.0000 32.1752 0.0000
# 6 0.0000 0.0000 0.0000 0.0000 0.0000 23.5668
#
#
#
# Elastic Compliance Matrix: (Units=1/GPa)
#
#
# Indices 1 2 3 4 5 6 
#
# 1 -0.033588 -0.013984 -0.001723 0.000000 0.000000 0.000000
# 2 -0.013984 0.015809 -0.006584 0.000000 0.000000 0.000000
# 3 -0.001723 -0.006584 0.011293 0.000000 0.000000 0.000000
# 4 0.000000 0.000000 0.000000 0.038672 0.000000 0.000000
# 5 0.000000 0.000000 0.000000 0.000000 0.031080 0.000000
# 6 0.000000 0.000000 0.000000 0.000000 0.000000 0.042433
#
#
# Mechanical properties :
#
#
# Convention : Reuss Voigt Hill
#
# Bulk Modulus (GPa) = -19.58169 12.34965 -3.61602
# Shear Modulus (GPa) = 37.52125 26.30327 31.91226
#
# Velocity S-wave (km/s) = 4.36307 3.65307 4.02376
# Velocity P-wave (km/s) = 3.93028 4.90498 4.44443
#
# Compressibility (1/GPa) = -0.05106812
#
# Stress axis : x y z
#
# Youngs Moduli (GPa) = -29.77239 63.25353 88.55117
#
# Poissons Ratio (x) = 0.88455 0.15256
# Poissons Ratio (y) = -0.41634 0.58302
# Poissons Ratio (z) = -0.05129 0.41646
#
# Static dielectric constant tensor:
#      x y z
#    x 1.693340 0.000000 0.000000 
#    y 0.000000 1.682890 0.000000 
#    z 0.000000 0.000000 1.736770 
# 
# From -- ./inp_files/3063.got.cif
#   From: 2010.05.17/outbox.ucp.g08.bks.cvg/sg58_2_cif.got.tgz:3063.got - 2010.06.11 16:41:41.
