data_PCOD9446397
_publ_section_title
;
Structure prediction by ZEFSAII (Michael W. Deem and Ramdas Pophale) SiO2 
 PCOD9446397
Probable space group: P M M N
;
_chemical_formula_sum "Si O2"
_cell_formula_units_Z 64
_cell_length_a 14.257278
_cell_length_b 8.930879
_cell_length_c 32.604861
_cell_angle_alpha 90.000000
_cell_angle_beta 90.000000
_cell_angle_gamma 90.000000
_cell_volume 4151.577756
_symmetry_space_group_name_H-M "P M M N"
_symmetry_group_IT_number 59
_space_group.IT_coordinate_system_code '2'
_symmetry_cell_setting 'orthorhombic'
loop_
_space_group_symop_operation_xyz
x,y,z
1/2-x,1/2-y,z
1/2+x,-y,-z
-x,1/2+y,-z
-x,-y,-z
1/2+x,1/2+y,-z
1/2-x,y,z
x,1/2-y,z
loop_
_atom_site_type_symbol
_atom_site_label
_atom_site_fract_x
_atom_site_fract_y
_atom_site_fract_z
Si Si1 0.857454 0.930026 0.483978
Si Si2 0.856384 0.067339 0.062524
Si Si3 0.044089 0.570879 0.437437
Si Si4 0.636879 0.423214 0.971140
Si Si5 0.639486 0.571010 0.640949
Si Si6 0.139526 0.069745 0.188286
Si Si7 0.636144 0.422297 0.726520
Si Si8 0.461571 0.430331 0.105700
O O1 0.750000 0.970060 0.473828
O O2 0.861046 0.750000 0.490158
O O3 0.936747 0.966989 0.450178
O O4 0.891092 0.008566 0.525765
O O5 0.750000 0.017041 0.069932
O O6 0.854538 0.250000 0.061099
O O7 0.931995 0.021653 0.096165
O O8 0.888237 0.019718 0.016791
O O9 0.052341 0.750000 0.435416
O O10 0.078776 0.499359 0.395309
O O11 0.750000 0.424742 0.970040
O O12 0.606256 0.250000 0.967416
O O13 0.597460 0.515175 0.933316
O O14 0.750000 0.530770 0.634985
O O15 0.633101 0.750000 0.640128
O O16 0.609091 0.509893 0.685399
O O17 0.250000 0.034109 0.182290
O O18 0.132518 0.250000 0.191583
O O19 0.082166 0.017371 0.148528
O O20 0.106391 0.997665 0.230865
O O21 0.750000 0.425604 0.727273
O O22 0.606256 0.250000 0.724310
O O23 0.458961 0.250000 0.106528
#
# Coordination Sequence:
#
# PCOD9446397 Si02
#       8
#     8   8   8   8   8   8   8   8
#     4   9  18  32  46  61  88 125 158 188 226 266
#     4   8  15  28  43  59  81 109 141 176 212 247
#     4  10  19  29  44  67  91 117 154 194 224 256
#     4   9  17  28  41  58  83 113 140 169 208 250
#     4  10  19  30  45  65  91 121 147 175 217 263
#     4   9  17  28  40  58  86 112 132 161 206 257
#     4   9  17  29  45  64  85 110 140 172 207 252
#     4  10  18  27  43  64  83 108 142 175 206 245
#
# _framework density 15.415825999999999
#
# number of rings (size 3 to 8) (size 9 to 14) (size 15 to 20)
#    0.000    2.750    0.000    3.000    0.000    5.750 
#    0.000    1.250    0.000    1.125    0.000    0.875 
#    0.000    3.000    0.000    0.000    0.000    0.000 
#
# Total GULP energy -356626.990035 kJ/mol
# GULP energy per Si atom -5572.296719 kJ/mol
# Density = 1.538074 g / cm^3
# Si number density = 15.415826 Si / 1000 Ang^3
#
#
#
# Elastic Constant Matrix: (Units=GPa)
#
#
# Indices 1 2 3 4 5 6 
#
# 1 82.3443 29.9784 71.0251 0.0000 0.0000 0.0000
# 2 29.9784 25.2450 43.4685 0.0000 0.0000 0.0000
# 3 71.0251 43.4685 151.9631 0.0000 0.0000 0.0000
# 4 0.0000 0.0000 0.0000 25.4629 0.0000 0.0000
# 5 0.0000 0.0000 0.0000 0.0000 25.2873 0.0000
# 6 0.0000 0.0000 0.0000 0.0000 0.0000 14.6825
#
#
#
# Elastic Compliance Matrix: (Units=1/GPa)
#
#
# Indices 1 2 3 4 5 6 
#
# 1 0.023888 -0.018016 -0.006012 0.000000 0.000000 0.000000
# 2 -0.018016 0.091646 -0.017794 0.000000 0.000000 0.000000
# 3 -0.006012 -0.017794 0.014480 0.000000 0.000000 0.000000
# 4 0.000000 0.000000 0.000000 0.039273 0.000000 0.000000
# 5 0.000000 0.000000 0.000000 0.000000 0.039546 0.000000
# 6 0.000000 0.000000 0.000000 0.000000 0.000000 0.068108
#
#
# Mechanical properties :
#
#
# Convention : Reuss Voigt Hill
#
# Bulk Modulus (GPa) = 21.56579 60.94406 41.25492
# Shear Modulus (GPa) = 13.29639 20.75855 17.02747
#
# Velocity S-wave (km/s) = 2.94005 3.67355 3.32707
# Velocity P-wave (km/s) = 5.05420 7.59029 6.44816
#
# Compressibility (1/GPa) = 0.04636974
#
# Stress axis : x y z
#
# Youngs Moduli (GPa) = 41.86137 10.91160 69.05954
#
# Poissons Ratio (x) = 0.19659 0.41515
# Poissons Ratio (y) = 0.75419 1.22887
# Poissons Ratio (z) = 0.25165 0.19416
#
# Static dielectric constant tensor:
#      x y z
#    x 1.520680 0.000000 0.000000 
#    y 0.000000 1.519050 0.000000 
#    z 0.000000 0.000000 1.497440 
# 
# From -- ./inp_files/33325.got.cif
#   From: 2010.05.17/outbox.cif.g08.bks.cpg/sg59_17_cif.got.tgz:33325.got - 2010.06.03 14:40:33.
