data_PCOD9446425
_publ_section_title
;
Structure prediction by ZEFSAII (Michael W. Deem and Ramdas Pophale) SiO2 
 PCOD9446425
Probable space group: P M M N
;
_chemical_formula_sum "Si O2"
_cell_formula_units_Z 64
_cell_length_a 27.227348
_cell_length_b 8.531188
_cell_length_c 19.100170
_cell_angle_alpha 90.000000
_cell_angle_beta 90.000000
_cell_angle_gamma 90.000000
_cell_volume 4436.618516
_symmetry_space_group_name_H-M "P M M N"
_symmetry_group_IT_number 59
_space_group.IT_coordinate_system_code '2'
_symmetry_cell_setting 'orthorhombic'
loop_
_space_group_symop_operation_xyz
x,y,z
1/2-x,1/2-y,z
1/2+x,-y,-z
-x,1/2+y,-z
-x,-y,-z
1/2+x,1/2+y,-z
1/2-x,y,z
x,1/2-y,z
loop_
_atom_site_type_symbol
_atom_site_label
_atom_site_fract_x
_atom_site_fract_y
_atom_site_fract_z
Si Si1 0.009252 0.560289 0.172199
Si Si2 0.952863 0.436713 0.457081
Si Si3 0.306851 0.562313 0.334484
Si Si4 0.008660 0.938348 0.333070
Si Si5 0.952655 0.939122 0.042299
Si Si6 0.603615 0.939611 0.912756
Si Si7 0.397479 0.063720 0.419051
Si Si8 0.306126 0.060396 0.179291
O O1 0.011571 0.750000 0.172008
O O2 0.005779 0.509401 0.252527
O O3 0.963633 0.511549 0.122052
O O4 0.058805 0.497930 0.135779
O O5 0.953276 0.250000 0.457148
O O6 0.963243 0.499880 0.379533
O O7 0.907580 0.498213 0.503009
O O8 0.000000 0.500000 0.500000
O O9 0.250000 0.516872 0.348009
O O10 0.310392 0.750000 0.337875
O O11 0.345697 0.488232 0.387331
O O12 0.318869 0.507179 0.255569
O O13 0.009110 0.750000 0.336025
O O14 0.059088 0.998037 0.368820
O O15 0.952665 0.750000 0.042181
O O16 0.907514 0.990268 0.992907
O O17 0.000000 0.000000 0.000000
O O18 0.603056 0.750000 0.911571
O O19 0.654539 0.991799 0.878322
O O20 0.401752 0.250000 0.420358
O O21 0.250000 0.014590 0.163073
O O22 0.307783 0.250000 0.183884
#
# Coordination Sequence:
#
# PCOD9446425 Si02
#       8
#     8   8   8   8   8   8   8   8
#     4   9  17  26  38  55  77 103 130 162 195 232
#     4  10  18  29  43  59  80 105 133 165 199 236
#     4  10  20  32  44  59  80 106 136 169 201 232
#     4  10  18  28  41  59  82 107 136 167 200 239
#     4   8  14  25  37  52  73  98 128 159 193 230
#     4   9  16  25  39  55  74 102 133 163 194 231
#     4  11  20  30  44  60  80 107 136 164 198 238
#     4   9  17  28  40  56  78 103 132 165 198 230
#
# _framework density 14.4254
#
# number of rings (size 3 to 8) (size 9 to 14) (size 15 to 20)
#    0.000    2.500    0.000    5.250    0.000    4.250 
#    0.000    0.000    0.000    0.000    0.000    0.000 
#    0.000    1.000    0.000    7.000    0.000    1.375 
#
# Total GULP energy -356412.192719 kJ/mol
# GULP energy per Si atom -5568.940511 kJ/mol
# Density = 1.439257 g / cm^3
# Si number density = 14.425400 Si / 1000 Ang^3
#
#
#
# Elastic Constant Matrix: (Units=GPa)
#
#
# Indices 1 2 3 4 5 6 
#
# 1 67.9732 18.2677 47.2117 0.0000 0.0000 0.0000
# 2 18.2677 44.4352 22.1720 0.0000 0.0000 0.0000
# 3 47.2117 22.1720 103.1737 0.0000 0.0000 0.0000
# 4 0.0000 0.0000 0.0000 15.1327 0.0000 0.0000
# 5 0.0000 0.0000 0.0000 0.0000 29.7796 0.0000
# 6 0.0000 0.0000 0.0000 0.0000 0.0000 16.7194
#
#
#
# Elastic Compliance Matrix: (Units=1/GPa)
#
#
# Indices 1 2 3 4 5 6 
#
# 1 0.022368 -0.004580 -0.009251 0.000000 0.000000 0.000000
# 2 -0.004580 0.026145 -0.003523 0.000000 0.000000 0.000000
# 3 -0.009251 -0.003523 0.014683 0.000000 0.000000 0.000000
# 4 0.000000 0.000000 0.000000 0.066082 0.000000 0.000000
# 5 0.000000 0.000000 0.000000 0.000000 0.033580 0.000000
# 6 0.000000 0.000000 0.000000 0.000000 0.000000 0.059811
#
#
# Mechanical properties :
#
#
# Convention : Reuss Voigt Hill
#
# Bulk Modulus (GPa) = 35.10207 43.43165 39.26686
# Shear Modulus (GPa) = 18.73551 20.85506 19.79528
#
# Velocity S-wave (km/s) = 3.60778 3.80638 3.70841
# Velocity P-wave (km/s) = 6.46073 7.03500 6.75397
#
# Compressibility (1/GPa) = 0.02848834
#
# Stress axis : x y z
#
# Youngs Moduli (GPa) = 44.70649 38.24780 68.10658
#
# Poissons Ratio (x) = 0.17516 0.63008
# Poissons Ratio (y) = 0.20474 0.23994
# Poissons Ratio (z) = 0.41360 0.13475
#
# Static dielectric constant tensor:
#      x y z
#    x 1.468850 0.000000 0.000000 
#    y 0.000000 1.488640 0.000000 
#    z 0.000000 0.000000 1.500900 
# 
# From -- ./inp_files/31051.got.cif
#   From: 2010.05.17/outbox.cif.g08.bks.cpg/sg59_16_cif.got.tgz:31051.got - 2010.06.03 14:40:33.
