data_PCOD9446630
_publ_section_title
;
Structure prediction by ZEFSAII (Michael W. Deem and Ramdas Pophale) SiO2 
 PCOD9446630
Probable space group: P M M N
;
_chemical_formula_sum "Si O2"
_cell_formula_units_Z 64
_cell_length_a 8.855370
_cell_length_b 29.214836
_cell_length_c 16.106006
_cell_angle_alpha 90.000000
_cell_angle_beta 90.000000
_cell_angle_gamma 90.000000
_cell_volume 4166.755536
_symmetry_space_group_name_H-M "P M M N"
_symmetry_group_IT_number 59
_space_group.IT_coordinate_system_code '2'
_symmetry_cell_setting 'orthorhombic'
loop_
_space_group_symop_operation_xyz
x,y,z
1/2-x,1/2-y,z
1/2+x,-y,-z
-x,1/2+y,-z
-x,-y,-z
1/2+x,1/2+y,-z
1/2-x,y,z
x,1/2-y,z
loop_
_atom_site_type_symbol
_atom_site_label
_atom_site_fract_x
_atom_site_fract_y
_atom_site_fract_z
Si Si1 0.567705 0.140252 0.163018
Si Si2 0.065572 0.697094 0.676196
Si Si3 0.069776 0.447973 0.090720
Si Si4 0.924556 0.194388 0.506256
Si Si5 0.068478 0.302855 0.678481
Si Si6 0.431344 0.357836 0.841176
Si Si7 0.930167 0.447307 0.907448
Si Si8 0.068219 0.803656 0.003339
O O1 0.750000 0.136045 0.164068
O O2 0.519454 0.165750 0.247058
O O3 0.494633 0.090779 0.150545
O O4 0.527970 0.171076 0.082634
O O5 0.250000 0.697518 0.674126
O O6 0.018693 0.750000 0.688796
O O7 0.016091 0.680513 0.584719
O O8 0.250000 0.443510 0.082127
O O9 0.036195 0.500222 0.117045
O O10 0.994155 0.440973 0.000549
O O11 0.750000 0.180337 0.513818
O O12 0.927666 0.250000 0.503889
O O13 0.011699 0.180436 0.588922
O O14 0.250000 0.302479 0.677790
O O15 0.017298 0.250000 0.689968
O O16 0.018822 0.333423 0.756018
O O17 0.250000 0.358802 0.843543
O O18 0.495581 0.408800 0.850747
O O19 0.491112 0.328706 0.919381
O O20 0.750000 0.441167 0.909511
O O21 0.250000 0.807110 0.012618
O O22 0.028557 0.750000 0.000374
#
# Coordination Sequence:
#
# PCOD9446630 Si02
#       8
#     8   8   8   8   8   8   8   8
#     4  10  18  29  47  69  94 125 157 188 225 271
#     4   8  14  26  45  69  96 124 155 190 225 264
#     4  10  20  33  49  68  91 118 150 193 238 276
#     4   8  14  26  45  67  89 117 155 194 226 259
#     4   9  18  31  45  64  93 125 153 184 228 277
#     4  11  21  32  47  67  92 123 156 192 234 275
#     4  10  20  34  50  67  88 117 154 194 236 278
#     4  10  20  31  43  63  93 128 162 189 216 261
#
# _framework density 15.359672
#
# number of rings (size 3 to 8) (size 9 to 14) (size 15 to 20)
#    0.000    2.500    1.250    2.625    0.000    4.750 
#    0.000    1.875    0.000    1.875    0.000    0.875 
#    0.000    0.000    0.000    0.000    0.000    0.000 
#
# Total GULP energy -356760.056750 kJ/mol
# GULP energy per Si atom -5574.375887 kJ/mol
# Density = 1.532471 g / cm^3
# Si number density = 15.359672 Si / 1000 Ang^3
#
#
#
# Elastic Constant Matrix: (Units=GPa)
#
#
# Indices 1 2 3 4 5 6 
#
# 1 22.8018 33.5093 35.5254 0.0000 0.0000 0.0000
# 2 33.5093 106.3909 75.1468 0.0000 0.0000 0.0000
# 3 35.5254 75.1468 146.3305 0.0000 0.0000 0.0000
# 4 0.0000 0.0000 0.0000 9.7104 0.0000 0.0000
# 5 0.0000 0.0000 0.0000 0.0000 10.0691 0.0000
# 6 0.0000 0.0000 0.0000 0.0000 0.0000 22.8510
#
#
#
# Elastic Compliance Matrix: (Units=1/GPa)
#
#
# Indices 1 2 3 4 5 6 
#
# 1 0.093110 -0.020964 -0.011839 0.000000 0.000000 0.000000
# 2 -0.020964 0.019470 -0.004909 0.000000 0.000000 0.000000
# 3 -0.011839 -0.004909 0.012229 0.000000 0.000000 0.000000
# 4 0.000000 0.000000 0.000000 0.102983 0.000000 0.000000
# 5 0.000000 0.000000 0.000000 0.000000 0.099313 0.000000
# 6 0.000000 0.000000 0.000000 0.000000 0.000000 0.043762
#
#
# Mechanical properties :
#
#
# Convention : Reuss Voigt Hill
#
# Bulk Modulus (GPa) = 20.24921 62.65404 41.45163
# Shear Modulus (GPa) = 10.80495 17.28221 14.04358
#
# Velocity S-wave (km/s) = 2.65516 3.35799 3.02704
# Velocity P-wave (km/s) = 4.75519 7.47761 6.26604
#
# Compressibility (1/GPa) = 0.04938463
#
# Stress axis : x y z
#
# Youngs Moduli (GPa) = 10.74001 51.36233 81.77371
#
# Poissons Ratio (x) = 1.07677 0.96809
# Poissons Ratio (y) = 0.22516 0.40141
# Poissons Ratio (z) = 0.12715 0.25213
#
# Static dielectric constant tensor:
#      x y z
#    x 1.517470 0.000000 0.000000 
#    y 0.000000 1.506470 0.000000 
#    z 0.000000 0.000000 1.505220 
# 
# From -- ./inp_files/21879.got.cif
#   From: 2010.05.17/outbox.cif.g08.bks.cpg/sg59_11_cif.got.tgz:21879.got - 2010.06.03 14:40:33.
