data_PCOD9446841
_publ_section_title
;
Structure prediction by ZEFSAII (Michael W. Deem and Ramdas Pophale) SiO2 
 PCOD9446841
Probable space group: P M M N
;
_chemical_formula_sum "Si O2"
_cell_formula_units_Z 64
_cell_length_a 9.094332
_cell_length_b 19.220947
_cell_length_c 21.940689
_cell_angle_alpha 90.000000
_cell_angle_beta 90.000000
_cell_angle_gamma 90.000000
_cell_volume 3835.269152
_symmetry_space_group_name_H-M "P M M N"
_symmetry_group_IT_number 59
_space_group.IT_coordinate_system_code '2'
_symmetry_cell_setting 'orthorhombic'
loop_
_space_group_symop_operation_xyz
x,y,z
1/2-x,1/2-y,z
1/2+x,-y,-z
-x,1/2+y,-z
-x,-y,-z
1/2+x,1/2+y,-z
1/2-x,y,z
x,1/2-y,z
loop_
_atom_site_type_symbol
_atom_site_label
_atom_site_fract_x
_atom_site_fract_y
_atom_site_fract_z
Si Si1 0.083056 0.632681 0.768263
Si Si2 0.927324 0.975378 0.937557
Si Si3 0.424792 0.571959 0.300235
Si Si4 0.573244 0.831387 0.399475
Si Si5 0.926231 0.675055 0.888446
Si Si6 0.918927 0.526165 0.181914
Si Si7 0.572890 0.926082 0.514610
Si Si8 0.924573 0.585748 0.652537
O O1 0.250000 0.657813 0.765985
O O2 0.084478 0.552111 0.790540
O O3 0.991878 0.670271 0.820737
O O4 0.008885 0.631405 0.702256
O O5 0.750000 0.980300 0.939548
O O6 0.969881 0.894600 0.924394
O O7 0.991021 0.019432 0.880708
O O8 0.000000 0.000000 0.000000
O O9 0.250000 0.580597 0.293943
O O10 0.493549 0.629278 0.344425
O O11 0.501606 0.570679 0.234182
O O12 0.450034 0.495807 0.331022
O O13 0.750000 0.837558 0.391656
O O14 0.536141 0.750000 0.402048
O O15 0.534655 0.870923 0.462267
O O16 0.750000 0.672731 0.884002
O O17 0.969159 0.750000 0.915679
O O18 0.750000 0.547805 0.171549
O O19 0.750000 0.934785 0.514826
O O20 0.530236 0.902875 0.582735
O O21 0.500000 0.000000 0.500000
O O22 0.750000 0.598015 0.658582
#
# Coordination Sequence:
#
# PCOD9446841 Si02
#       8
#     8   8   8   8   8   8   8   8
#     4   9  17  28  45  71  99 127 159 201 249 295
#     4  10  19  32  52  79 110 141 175 215 255 300
#     4  10  18  30  50  74  98 125 161 208 256 302
#     4  10  21  35  50  70  98 131 167 211 265 322
#     4   9  18  33  52  73 100 137 176 210 248 299
#     4   9  17  30  49  74 102 130 162 202 248 296
#     4  10  19  32  50  71  96 128 171 218 259 309
#     4   9  17  29  46  70  97 124 161 208 253 300
#
# _framework density 16.687225000000002
#
# number of rings (size 3 to 8) (size 9 to 14) (size 15 to 20)
#    0.000    2.500    1.250    1.500    0.000    5.000 
#    0.000    0.625    0.000    3.000    0.000    1.750 
#    0.000    0.000    0.000    0.000    0.000    0.000 
#
# Total GULP energy -356770.535377 kJ/mol
# GULP energy per Si atom -5574.539615 kJ/mol
# Density = 1.664924 g / cm^3
# Si number density = 16.687225 Si / 1000 Ang^3
#
#
#
# Elastic Constant Matrix: (Units=GPa)
#
#
# Indices 1 2 3 4 5 6 
#
# 1 49.4230 39.2481 58.7036 0.0000 0.0000 0.0000
# 2 39.2481 82.0296 58.9816 0.0000 0.0000 0.0000
# 3 58.7036 58.9816 159.0400 0.0000 0.0000 0.0000
# 4 0.0000 0.0000 0.0000 13.2378 0.0000 0.0000
# 5 0.0000 0.0000 0.0000 0.0000 30.1020 0.0000
# 6 0.0000 0.0000 0.0000 0.0000 0.0000 16.0345
#
#
#
# Elastic Compliance Matrix: (Units=1/GPa)
#
#
# Indices 1 2 3 4 5 6 
#
# 1 0.044097 -0.012812 -0.011525 0.000000 0.000000 0.000000
# 2 -0.012812 0.020346 -0.002816 0.000000 0.000000 0.000000
# 3 -0.011525 -0.002816 0.011586 0.000000 0.000000 0.000000
# 4 0.000000 0.000000 0.000000 0.075541 0.000000 0.000000
# 5 0.000000 0.000000 0.000000 0.000000 0.033220 0.000000
# 6 0.000000 0.000000 0.000000 0.000000 0.000000 0.062365
#
#
# Mechanical properties :
#
#
# Convention : Reuss Voigt Hill
#
# Bulk Modulus (GPa) = 46.03602 67.15101 56.59352
# Shear Modulus (GPa) = 16.19670 20.77881 18.48775
#
# Velocity S-wave (km/s) = 3.11883 3.53256 3.33212
# Velocity P-wave (km/s) = 6.37314 7.54764 6.98512
#
# Compressibility (1/GPa) = 0.02172212
#
# Stress axis : x y z
#
# Youngs Moduli (GPa) = 22.67711 49.15023 86.30787
#
# Poissons Ratio (x) = 0.62970 0.99474
# Poissons Ratio (y) = 0.29053 0.24308
# Poissons Ratio (z) = 0.26136 0.13843
#
# Static dielectric constant tensor:
#      x y z
#    x 1.561560 0.000000 0.000000 
#    y 0.000000 1.562440 0.000000 
#    z 0.000000 0.000000 1.543740 
# 
# From -- ./inp_files/29526.got.cif
#   From: 2010.05.17/outbox.cif.g08.bks.cpg/sg59_15_cif.got.tgz:29526.got - 2010.06.03 14:40:33.
