data_PCOD9446178
_publ_section_title
;
Structure prediction by ZEFSAII (Michael W. Deem and Ramdas Pophale) SiO2 
 PCOD9446178
Probable space group: P M M N
;
_chemical_formula_sum "Si O2"
_cell_formula_units_Z 56
_cell_length_a 7.358201
_cell_length_b 14.565890
_cell_length_c 27.119969
_cell_angle_alpha 90.000000
_cell_angle_beta 90.000000
_cell_angle_gamma 90.000000
_cell_volume 2906.684279
_symmetry_space_group_name_H-M "P M M N"
_symmetry_group_IT_number 59
_space_group.IT_coordinate_system_code '2'
_symmetry_cell_setting 'orthorhombic'
loop_
_space_group_symop_operation_xyz
x,y,z
1/2-x,1/2-y,z
1/2+x,-y,-z
-x,1/2+y,-z
-x,-y,-z
1/2+x,1/2+y,-z
1/2-x,y,z
x,1/2-y,z
loop_
_atom_site_type_symbol
_atom_site_label
_atom_site_fract_x
_atom_site_fract_y
_atom_site_fract_z
Si Si1 0.472053 0.855575 0.430974
Si Si2 0.042394 0.483495 0.367119
Si Si3 0.468789 0.854532 0.019148
Si Si4 0.969164 0.357126 0.458816
Si Si5 0.965303 0.971694 0.921736
Si Si6 0.971889 0.645667 0.718278
Si Si7 0.028446 0.145271 0.168922
O O1 0.250000 0.858375 0.431091
O O2 0.524706 0.750000 0.424234
O O3 0.528067 0.885704 0.486113
O O4 0.539067 0.923065 0.388577
O O5 0.250000 0.504844 0.352870
O O6 0.961789 0.427696 0.321485
O O7 0.043844 0.416633 0.414438
O O8 0.250000 0.851733 0.023149
O O9 0.535087 0.750000 0.024189
O O10 0.510363 0.898186 0.965786
O O11 0.536678 0.930486 0.058473
O O12 0.750000 0.363318 0.456907
O O13 0.017531 0.250000 0.452869
O O14 0.750000 0.984240 0.914819
O O15 0.036914 0.927088 0.871534
O O16 0.750000 0.645824 0.716794
O O17 0.027975 0.750000 0.705826
O O18 0.025208 0.626096 0.774668
O O19 0.250000 0.144738 0.168053
O O20 0.973630 0.250000 0.156649
#
# Coordination Sequence:
#
# PCOD9446178 Si02
#       7
#     8   8   8   8   8   8   8
#     4   8  15  27  40  55  77 104 130 155 189 232
#     4  10  17  25  42  62  77  98 129 163 193 224
#     4   9  17  27  38  57  86 110 125 155 205 239
#     4   9  17  28  40  55  79 107 127 148 188 239
#     4   9  16  26  42  60  76 103 142 167 180 221
#     4   8  14  23  35  56  82  99 117 156 204 233
#     4   8  13  22  37  56  77 100 127 160 193 224
#
# _framework density 19.265938999999999
#
# number of rings (size 3 to 8) (size 9 to 14) (size 15 to 20)
#    0.000    3.286    0.000    3.000    0.000    1.714 
#    0.000    0.000    0.000    3.000    0.000   10.000 
#    0.000    0.000    0.000    3.286    0.000    4.714 
#
# Total GULP energy -312318.519632 kJ/mol
# GULP energy per Si atom -5577.116422 kJ/mol
# Density = 1.922209 g / cm^3
# Si number density = 19.265939 Si / 1000 Ang^3
#
#
#
# Elastic Constant Matrix: (Units=GPa)
#
#
# Indices 1 2 3 4 5 6 
#
# 1 68.5575 -4.9658 -5.1863 0.0000 0.0000 0.0000
# 2 -4.9658 123.5087 78.4716 0.0000 0.0000 0.0000
# 3 -5.1863 78.4716 116.4489 0.0000 0.0000 0.0000
# 4 0.0000 0.0000 0.0000 35.6855 0.0000 0.0000
# 5 0.0000 0.0000 0.0000 0.0000 6.6579 0.0000
# 6 0.0000 0.0000 0.0000 0.0000 0.0000 1.2579
#
#
#
# Elastic Compliance Matrix: (Units=1/GPa)
#
#
# Indices 1 2 3 4 5 6 
#
# 1 0.014642 0.000305 0.000447 0.000000 0.000000 0.000000
# 2 0.000305 0.014165 -0.009532 0.000000 0.000000 0.000000
# 3 0.000447 -0.009532 0.015030 0.000000 0.000000 0.000000
# 4 0.000000 0.000000 0.000000 0.028023 0.000000 0.000000
# 5 0.000000 0.000000 0.000000 0.000000 0.150198 0.000000
# 6 0.000000 0.000000 0.000000 0.000000 0.000000 0.794954
#
#
# Mechanical properties :
#
#
# Convention : Reuss Voigt Hill
#
# Bulk Modulus (GPa) = 38.05575 49.46157 43.75866
# Shear Modulus (GPa) = 4.79234 24.73331 14.76282
#
# Velocity S-wave (km/s) = 1.57888 3.58688 2.77115
# Velocity P-wave (km/s) = 4.80828 6.54852 5.74468
#
# Compressibility (1/GPa) = 0.02627723
#
# Stress axis : x y z
#
# Youngs Moduli (GPa) = 68.29590 70.59734 66.53147
#
# Poissons Ratio (x) = -0.02153 -0.02972
# Poissons Ratio (y) = -0.02083 0.63416
# Poissons Ratio (z) = -0.03050 0.67291
#
# Static dielectric constant tensor:
#      x y z
#    x 1.767890 0.000000 0.000000 
#    y 0.000000 1.676900 0.000000 
#    z 0.000000 0.000000 1.650600 
# 
# From -- ./inp_files/32660.got.cif
#   From: 2010.05.17/outbox.cif.g08.bks.cpg/sg59_17_cif.got.tgz:32660.got - 2010.06.03 14:40:33.
