data_PCOD9446124
_publ_section_title
;
Structure prediction by ZEFSAII (Michael W. Deem and Ramdas Pophale) SiO2 
 PCOD9446124
Probable space group: P M M N
;
_chemical_formula_sum "Si O2"
_cell_formula_units_Z 48
_cell_length_a 20.242985
_cell_length_b 14.485898
_cell_length_c 9.364281
_cell_angle_alpha 90.000000
_cell_angle_beta 90.000000
_cell_angle_gamma 90.000000
_cell_volume 2745.961308
_symmetry_space_group_name_H-M "P M M N"
_symmetry_group_IT_number 59
_space_group.IT_coordinate_system_code '2'
_symmetry_cell_setting 'orthorhombic'
loop_
_space_group_symop_operation_xyz
x,y,z
1/2-x,1/2-y,z
1/2+x,-y,-z
-x,1/2+y,-z
-x,-y,-z
1/2+x,1/2+y,-z
1/2-x,y,z
x,1/2-y,z
loop_
_atom_site_type_symbol
_atom_site_label
_atom_site_fract_x
_atom_site_fract_y
_atom_site_fract_z
Si Si1 0.511768 0.600426 0.931776
Si Si2 0.035451 0.638141 0.329211
Si Si3 0.053511 0.861638 0.654733
Si Si4 0.602445 0.644647 0.170070
Si Si5 0.621440 0.353499 0.924879
Si Si6 0.174998 0.542782 0.812349
O O1 0.503965 0.603936 0.762422
O O2 0.500000 0.500000 0.000000
O O3 0.576675 0.639160 0.006263
O O4 0.448006 0.654716 0.989856
O O5 0.040213 0.750000 0.325475
O O6 0.041868 0.608480 0.492158
O O7 0.095666 0.607097 0.226419
O O8 0.963485 0.618600 0.261719
O O9 0.055213 0.750000 0.659561
O O10 0.121752 0.902906 0.715915
O O11 0.621362 0.750000 0.203747
O O12 0.655519 0.564919 0.192420
O O13 0.649679 0.250000 0.910019
O O14 0.664387 0.418753 0.026039
O O15 0.250000 0.558592 0.768114
#
# Coordination Sequence:
#
# PCOD9446124 Si02
#       6
#     8   8   8   8   8   8
#     4  10  15  28  49  76 102 123 154 203 252 297
#     4   8  17  32  53  80 104 127 161 206 268 321
#     4  10  19  33  53  80 108 130 161 212 264 314
#     4  10  19  34  52  72 102 135 167 211 258 305
#     4   9  17  32  51  72  99 128 160 204 254 306
#     4  11  22  34  49  72  99 137 181 209 243 299
#
# _framework density 17.480217
#
# number of rings (size 3 to 8) (size 9 to 14) (size 15 to 20)
#    0.000    2.333    3.333    4.000    0.000    2.333 
#    0.000    0.833    0.000    3.000    0.000    0.000 
#    0.000    6.667    0.000    0.000    0.000    0.000 
#
# Total GULP energy -267359.840340 kJ/mol
# GULP energy per Si atom -5569.996674 kJ/mol
# Density = 1.744043 g / cm^3
# Si number density = 17.480217 Si / 1000 Ang^3
#
#
#
# Elastic Constant Matrix: (Units=GPa)
#
#
# Indices 1 2 3 4 5 6 
#
# 1 43.6929 12.5306 19.3968 0.0000 0.0000 0.0000
# 2 12.5306 101.6024 19.3970 0.0000 0.0000 0.0000
# 3 19.3968 19.3970 136.4926 0.0000 0.0000 0.0000
# 4 0.0000 0.0000 0.0000 16.4945 0.0000 0.0000
# 5 0.0000 0.0000 0.0000 0.0000 10.2117 0.0000
# 6 0.0000 0.0000 0.0000 0.0000 0.0000 4.4953
#
#
#
# Elastic Compliance Matrix: (Units=1/GPa)
#
#
# Indices 1 2 3 4 5 6 
#
# 1 0.025019 -0.002474 -0.003204 0.000000 0.000000 0.000000
# 2 -0.002474 0.010361 -0.001121 0.000000 0.000000 0.000000
# 3 -0.003204 -0.001121 0.007941 0.000000 0.000000 0.000000
# 4 0.000000 0.000000 0.000000 0.060626 0.000000 0.000000
# 5 0.000000 0.000000 0.000000 0.000000 0.097927 0.000000
# 6 0.000000 0.000000 0.000000 0.000000 0.000000 0.222455
#
#
# Mechanical properties :
#
#
# Convention : Reuss Voigt Hill
#
# Bulk Modulus (GPa) = 33.64298 42.71518 38.17908
# Shear Modulus (GPa) = 11.16484 21.60453 16.38468
#
# Velocity S-wave (km/s) = 2.53002 3.51941 3.06490
# Velocity P-wave (km/s) = 5.27473 6.40346 5.86631
#
# Compressibility (1/GPa) = 0.02972388
#
# Stress axis : x y z
#
# Youngs Moduli (GPa) = 39.96999 96.51223 125.92893
#
# Poissons Ratio (x) = 0.23876 0.40345
# Poissons Ratio (y) = 0.09888 0.14115
# Poissons Ratio (z) = 0.12806 0.10818
#
# Static dielectric constant tensor:
#      x y z
#    x 1.571360 0.000000 0.000000 
#    y 0.000000 1.658660 0.000000 
#    z 0.000000 0.000000 1.654320 
# 
# From -- ./inp_files/11274.got.cif
#   From: 2010.05.17/outbox.cif.g08.bks.cpg/sg59_6_cif.got.tgz:11274.got - 2010.06.03 14:40:33.
