data_PCOD9446412
_publ_section_title
;
Structure prediction by ZEFSAII (Michael W. Deem and Ramdas Pophale) SiO2 
 PCOD9446412
Probable space group: P M M N
;
_chemical_formula_sum "Si O2"
_cell_formula_units_Z 64
_cell_length_a 8.870224
_cell_length_b 14.319556
_cell_length_c 32.410227
_cell_angle_alpha 90.000000
_cell_angle_beta 90.000000
_cell_angle_gamma 90.000000
_cell_volume 4116.671495
_symmetry_space_group_name_H-M "P M M N"
_symmetry_group_IT_number 59
_space_group.IT_coordinate_system_code '2'
_symmetry_cell_setting 'orthorhombic'
loop_
_space_group_symop_operation_xyz
x,y,z
1/2-x,1/2-y,z
1/2+x,-y,-z
-x,1/2+y,-z
-x,-y,-z
1/2+x,1/2+y,-z
1/2-x,y,z
x,1/2-y,z
loop_
_atom_site_type_symbol
_atom_site_label
_atom_site_fract_x
_atom_site_fract_y
_atom_site_fract_z
Si Si1 0.430728 0.640294 0.433974
Si Si2 0.576630 0.636693 0.773181
Si Si3 0.566752 0.358476 0.473749
Si Si4 0.069660 0.466170 0.063457
Si Si5 0.068089 0.527679 0.606206
Si Si6 0.068396 0.141761 0.979165
Si Si7 0.068294 0.640679 0.686988
Si Si8 0.569714 0.140394 0.140384
O O1 0.250000 0.628585 0.432421
O O2 0.462664 0.750000 0.429137
O O3 0.483870 0.612455 0.480392
O O4 0.507803 0.576107 0.400132
O O5 0.750000 0.606735 0.775442
O O6 0.573370 0.750000 0.772457
O O7 0.501496 0.607536 0.730163
O O8 0.488716 0.609777 0.814582
O O9 0.750000 0.362642 0.474268
O O10 0.526137 0.250000 0.468252
O O11 0.513987 0.416574 0.434531
O O12 0.250000 0.470271 0.066502
O O13 0.005426 0.568332 0.052302
O O14 0.000988 0.421854 0.104501
O O15 0.030822 0.398326 0.024728
O O16 0.250000 0.528155 0.605906
O O17 0.019565 0.579623 0.647838
O O18 0.250000 0.137623 0.974910
O O19 0.021931 0.250000 0.974761
O O20 0.250000 0.636735 0.689995
O O21 0.028122 0.750000 0.680382
O O22 0.750000 0.135212 0.139093
O O23 0.526296 0.250000 0.134514
#
# Coordination Sequence:
#
# PCOD9446412 Si02
#       8
#     8   8   8   8   8   8   8   8
#     4   9  18  31  44  58  81 114 147 179 216 255
#     4   9  17  29  45  65  90 119 148 179 217 261
#     4   8  14  26  43  62  85 113 143 173 209 255
#     4  10  19  30  46  69  95 123 159 200 237 274
#     4  10  18  27  44  67  86 109 143 180 214 250
#     4   9  18  32  47  64  92 129 164 198 236 275
#     4   9  17  29  44  64  91 118 142 170 210 264
#     4  10  19  30  46  68  94 124 156 189 226 270
#
# _framework density 15.546540999999999
#
# number of rings (size 3 to 8) (size 9 to 14) (size 15 to 20)
#    0.000    2.750    0.000    3.000    0.000    5.750 
#    0.000    0.000    0.000    1.875    0.000    0.875 
#    0.000    3.000    0.000    0.000    0.000    0.000 
#
# Total GULP energy -356677.102164 kJ/mol
# GULP energy per Si atom -5573.079721 kJ/mol
# Density = 1.551116 g / cm^3
# Si number density = 15.546541 Si / 1000 Ang^3
#
#
#
# Elastic Constant Matrix: (Units=GPa)
#
#
# Indices 1 2 3 4 5 6 
#
# 1 25.5462 32.0960 42.0544 0.0000 0.0000 0.0000
# 2 32.0960 88.1701 71.8623 0.0000 0.0000 0.0000
# 3 42.0544 71.8623 136.7305 0.0000 0.0000 0.0000
# 4 0.0000 0.0000 0.0000 25.9368 0.0000 0.0000
# 5 0.0000 0.0000 0.0000 0.0000 24.2319 0.0000
# 6 0.0000 0.0000 0.0000 0.0000 0.0000 21.2149
#
#
#
# Elastic Compliance Matrix: (Units=1/GPa)
#
#
# Indices 1 2 3 4 5 6 
#
# 1 0.094073 -0.018652 -0.019131 0.000000 0.000000 0.000000
# 2 -0.018652 0.023539 -0.006635 0.000000 0.000000 0.000000
# 3 -0.019131 -0.006635 0.016685 0.000000 0.000000 0.000000
# 4 0.000000 0.000000 0.000000 0.038555 0.000000 0.000000
# 5 0.000000 0.000000 0.000000 0.000000 0.041268 0.000000
# 6 0.000000 0.000000 0.000000 0.000000 0.000000 0.047137
#
#
# Mechanical properties :
#
#
# Convention : Reuss Voigt Hill
#
# Bulk Modulus (GPa) = 21.99688 60.27468 41.13578
# Shear Modulus (GPa) = 13.68941 21.23900 17.46420
#
# Velocity S-wave (km/s) = 2.97061 3.70016 3.35528
# Velocity P-wave (km/s) = 5.09371 7.55709 6.44420
#
# Compressibility (1/GPa) = 0.04546100
#
# Stress axis : x y z
#
# Youngs Moduli (GPa) = 10.63007 42.48246 59.93472
#
# Poissons Ratio (x) = 0.79239 1.14661
# Poissons Ratio (y) = 0.19827 0.39765
# Poissons Ratio (z) = 0.20336 0.28186
#
# Static dielectric constant tensor:
#      x y z
#    x 1.521840 0.000000 0.000000 
#    y 0.000000 1.508340 0.000000 
#    z 0.000000 0.000000 1.508840 
# 
# From -- ./inp_files/33231.got.cif
#   From: 2010.05.17/outbox.cif.g08.bks.cpg/sg59_17_cif.got.tgz:33231.got - 2010.06.03 14:40:33.
