data_PCOD9446843
_publ_section_title
;
Structure prediction by ZEFSAII (Michael W. Deem and Ramdas Pophale) SiO2 
 PCOD9446843
Probable space group: P M M N
;
_chemical_formula_sum "Si O2"
_cell_formula_units_Z 64
_cell_length_a 7.984755
_cell_length_b 20.551009
_cell_length_c 20.864748
_cell_angle_alpha 90.000000
_cell_angle_beta 90.000000
_cell_angle_gamma 90.000000
_cell_volume 3423.796063
_symmetry_space_group_name_H-M "P M M N"
_symmetry_group_IT_number 59
_space_group.IT_coordinate_system_code '2'
_symmetry_cell_setting 'orthorhombic'
loop_
_space_group_symop_operation_xyz
x,y,z
1/2-x,1/2-y,z
1/2+x,-y,-z
-x,1/2+y,-z
-x,-y,-z
1/2+x,1/2+y,-z
1/2-x,y,z
x,1/2-y,z
loop_
_atom_site_type_symbol
_atom_site_label
_atom_site_fract_x
_atom_site_fract_y
_atom_site_fract_z
Si Si1 0.547903 0.427898 0.476700
Si Si2 0.955432 0.175725 0.582481
Si Si3 0.449946 0.427787 0.977722
Si Si4 0.451081 0.908466 0.300081
Si Si5 0.952747 0.445204 0.334790
Si Si6 0.052409 0.593908 0.802796
Si Si7 0.050670 0.177029 0.079494
Si Si8 0.950256 0.051502 0.836473
O O1 0.500000 0.500000 0.500000
O O2 0.750000 0.424921 0.476177
O O3 0.488554 0.373119 0.526296
O O4 0.489052 0.419114 0.403446
O O5 0.750000 0.175155 0.582318
O O6 0.008622 0.250000 0.573550
O O7 0.012229 0.145816 0.650499
O O8 0.250000 0.425359 0.979789
O O9 0.505396 0.418390 0.904606
O O10 0.500000 0.500000 0.000000
O O11 0.518087 0.373567 0.026734
O O12 0.250000 0.902906 0.298323
O O13 0.510614 0.909318 0.226403
O O14 0.494642 0.979534 0.327983
O O15 0.750000 0.443414 0.333717
O O16 0.012690 0.408979 0.270399
O O17 0.250000 0.606076 0.800896
O O18 0.974741 0.645738 0.850730
O O19 0.022645 0.521441 0.830846
O O20 0.250000 0.180909 0.068807
O O21 0.981220 0.250000 0.075029
O O22 0.750000 0.044947 0.832572
#
# Coordination Sequence:
#
# PCOD9446843 Si02
#       8
#     8   8   8   8   8   8   8   8
#     4  10  18  30  50  75 102 134 172 214 258 304
#     4   9  17  30  49  73 101 135 175 214 256 308
#     4  11  21  34  55  80 106 136 172 216 259 308
#     4   9  17  30  49  73  98 130 171 210 251 301
#     4   9  18  30  47  75 105 128 162 213 262 301
#     4  10  19  32  51  76 104 134 170 214 261 309
#     4  10  22  39  56  75 103 140 177 213 259 314
#     4  10  19  31  50  77 106 132 167 214 260 306
#
# _framework density 18.692703000000002
#
# number of rings (size 3 to 8) (size 9 to 14) (size 15 to 20)
#    0.000    2.250    2.500    1.125    0.000    1.750 
#    0.000    1.250    0.000    4.500    0.000    0.000 
#    0.000    0.000    0.000    0.000    0.000    0.000 
#
# Total GULP energy -356975.133544 kJ/mol
# GULP energy per Si atom -5577.736462 kJ/mol
# Density = 1.865016 g / cm^3
# Si number density = 18.692703 Si / 1000 Ang^3
#
#
#
# Elastic Constant Matrix: (Units=GPa)
#
#
# Indices 1 2 3 4 5 6 
#
# 1 8.6911 -1.2190 1.6972 0.0000 0.0000 0.0000
# 2 -1.2190 134.6759 94.6388 0.0000 0.0000 0.0000
# 3 1.6972 94.6388 176.5019 0.0000 0.0000 0.0000
# 4 0.0000 0.0000 0.0000 23.7113 0.0000 0.0000
# 5 0.0000 0.0000 0.0000 0.0000 13.8287 0.0000
# 6 0.0000 0.0000 0.0000 0.0000 0.0000 14.3894
#
#
#
# Elastic Compliance Matrix: (Units=1/GPa)
#
#
# Indices 1 2 3 4 5 6 
#
# 1 0.115999 0.002942 -0.002693 0.000000 0.000000 0.000000
# 2 0.002942 0.011989 -0.006457 0.000000 0.000000 0.000000
# 3 -0.002693 -0.006457 0.009154 0.000000 0.000000 0.000000
# 4 0.000000 0.000000 0.000000 0.042174 0.000000 0.000000
# 5 0.000000 0.000000 0.000000 0.000000 0.072313 0.000000
# 6 0.000000 0.000000 0.000000 0.000000 0.000000 0.069496
#
#
# Mechanical properties :
#
#
# Convention : Reuss Voigt Hill
#
# Bulk Modulus (GPa) = 8.01751 56.67809 32.34780
# Shear Modulus (GPa) = 13.32923 25.36934 19.34929
#
# Velocity S-wave (km/s) = 2.67324 3.68799 3.22083
# Velocity P-wave (km/s) = 3.71842 6.96576 5.58339
#
# Compressibility (1/GPa) = 0.12472702
#
# Stress axis : x y z
#
# Youngs Moduli (GPa) = 8.62075 83.40885 109.24637
#
# Poissons Ratio (x) = -0.24543 0.29421
# Poissons Ratio (y) = -0.02537 0.70538
# Poissons Ratio (z) = 0.02322 0.53855
#
# Static dielectric constant tensor:
#      x y z
#    x 1.668330 0.000000 0.000000 
#    y 0.000000 1.613440 0.000000 
#    z 0.000000 0.000000 1.680450 
# 
# From -- ./inp_files/29419.got.cif
#   From: 2010.05.17/outbox.cif.g08.bks.cpg/sg59_15_cif.got.tgz:29419.got - 2010.06.03 14:40:33.
