data_PCOD9446008
_publ_section_title
;
Structure prediction by ZEFSAII (Michael W. Deem and Ramdas Pophale) SiO2 
 PCOD9446008
Probable space group: P N N M
;
_chemical_formula_sum "Si O2"
_cell_formula_units_Z 64
_cell_length_a 12.000000
_cell_length_b 30.000000
_cell_length_c 9.000000
_cell_angle_alpha 90.000000
_cell_angle_beta 90.000000
_cell_angle_gamma 90.000000
_cell_volume 3240.000000
_symmetry_space_group_name_H-M "P N N M"
_symmetry_group_IT_number 58
_symmetry_cell_setting 'orthorhombic'
loop_
_space_group_symop_operation_xyz
x,y,z
-x,-y,z
1/2+x,1/2-y,1/2-z
1/2-x,1/2+y,1/2-z
-x,-y,-z
x,y,-z
1/2-x,1/2+y,1/2+z
1/2+x,1/2-y,1/2+z
loop_
_atom_site_type_symbol
_atom_site_label
_atom_site_fract_x
_atom_site_fract_y
_atom_site_fract_z
Si Si1 0.628386 0.486666 0.669123
Si Si2 0.631580 0.123193 0.172528
Si Si3 0.942133 0.156682 0.821784
Si Si4 0.776563 0.713737 0.322131
Si Si5 0.054224 0.547879 0.672366
Si Si6 0.172232 0.186753 0.320126
Si Si7 0.261616 0.589995 0.175295
Si Si8 0.828454 0.075943 0.673295
O O1 0.500000 0.500000 0.669628
O O2 0.668985 0.487977 0.500000
O O3 0.645472 0.438104 0.737791
O O4 0.683451 0.526156 0.763990
O O5 0.627825 0.176172 0.207872
O O6 0.526891 0.090702 0.175161
O O7 0.714339 0.101243 0.290038
O O8 0.676152 0.120557 0.000000
O O9 0.838102 0.188897 0.779885
O O10 0.914867 0.107317 0.761761
O O11 0.051807 0.175863 0.746333
O O12 0.952427 0.155728 0.000000
O O13 0.773299 0.718518 0.500000
O O14 0.790352 0.764160 0.264508
O O15 0.090853 0.543229 0.500000
O O16 0.153029 0.562196 0.779628
O O17 0.000000 0.500000 0.712110
O O18 0.166907 0.188226 0.500000
O O19 0.243777 0.142296 0.281453
O O20 0.282307 0.587936 0.000000
O O21 0.855580 0.075024 0.500000
#
# Coordination Sequence:
#
# PCOD9446008 Si02
#       8
#     8   8   8   8   8   8   8   8
#     4  11  23  38  57  79 106 142 182 224 271 330
#     4   9  18  35  58  82 110 149 193 233 278 334
#     4  10  20  36  58  83 112 149 192 235 282 338
#     4   8  17  35  57  80 110 149 192 237 286 340
#     4  10  21  37  58  83 114 152 191 234 284 339
#     4  10  21  38  57  80 114 151 187 236 293 338
#     4  11  24  38  55  82 115 149 185 230 286 344
#     4  11  21  34  56  84 112 141 177 225 277 330
#
# _framework density 19.753086
#
# number of rings (size 3 to 8) (size 9 to 14) (size 15 to 20)
#    0.000    2.000    0.000    4.500    0.000    6.750 
#    0.000    3.125    0.000    0.000    0.000    0.000 
#    0.000    0.000    0.000    0.000    0.000    0.000 
#
# Total GULP energy -356759.784952 kJ/mol
# GULP energy per Si atom -5574.371640 kJ/mol
# Density = 1.970813 g / cm^3
# Si number density = 19.753086 Si / 1000 Ang^3
#
#
#
# Elastic Constant Matrix: (Units=GPa)
#
#
# Indices 1 2 3 4 5 6 
#
# 1 56.0285 38.7469 13.3182 0.0000 0.0000 0.0000
# 2 38.7469 164.6956 42.2055 0.0000 0.0000 0.0000
# 3 13.3182 42.2055 48.9553 0.0000 0.0000 0.0000
# 4 0.0000 0.0000 0.0000 -9.8405 0.0000 0.0000
# 5 0.0000 0.0000 0.0000 0.0000 22.1273 0.0000
# 6 0.0000 0.0000 0.0000 0.0000 0.0000 29.8456
#
#
#
# Elastic Compliance Matrix: (Units=1/GPa)
#
#
# Indices 1 2 3 4 5 6 
#
# 1 0.021454 -0.004559 -0.001906 0.000000 0.000000 0.000000
# 2 -0.004559 0.008762 -0.006314 0.000000 0.000000 0.000000
# 3 -0.001906 -0.006314 0.026389 0.000000 0.000000 0.000000
# 4 0.000000 0.000000 0.000000 -0.101621 0.000000 0.000000
# 5 0.000000 0.000000 0.000000 0.000000 0.045193 0.000000
# 6 0.000000 0.000000 0.000000 0.000000 0.000000 0.033506
#
#
# Mechanical properties :
#
#
# Convention : Reuss Voigt Hill
#
# Bulk Modulus (GPa) = 32.20926 50.91340 41.56133
# Shear Modulus (GPa) = 71.84925 20.12038 45.98482
#
# Velocity S-wave (km/s) = 6.03760 3.19501 4.83015
# Velocity P-wave (km/s) = 8.05884 6.28026 7.22449
#
# Compressibility (1/GPa) = 0.03104697
#
# Stress axis : x y z
#
# Youngs Moduli (GPa) = 46.61162 114.12392 37.89473
#
# Poissons Ratio (x) = 0.52027 0.07224
# Poissons Ratio (y) = 0.21249 0.23927
# Poissons Ratio (z) = 0.08885 0.72059
#
# Static dielectric constant tensor:
#      x y z
#    x 1.779040 0.000000 0.000000 
#    y 0.000000 1.717450 0.000000 
#    z 0.000000 0.000000 1.669250 
# 
# From -- ./inp_files/4705.got.cif
#   From: 2010.05.17/outbox.ucp.g08.bks.cvg/sg58_3_cif.got.tgz:4705.got - 2010.06.11 16:41:41.
