data_PCOD9446992
_publ_section_title
;
Structure prediction by ZEFSAII (Michael W. Deem and Ramdas Pophale) SiO2 
 PCOD9446992
Probable space group: P M M N
;
_chemical_formula_sum "Si O2"
_cell_formula_units_Z 64
_cell_length_a 14.817728
_cell_length_b 18.600161
_cell_length_c 12.376944
_cell_angle_alpha 90.000000
_cell_angle_beta 90.000000
_cell_angle_gamma 90.000000
_cell_volume 3411.235855
_symmetry_space_group_name_H-M "P M M N"
_symmetry_group_IT_number 59
_space_group.IT_coordinate_system_code '2'
_symmetry_cell_setting 'orthorhombic'
loop_
_space_group_symop_operation_xyz
x,y,z
1/2-x,1/2-y,z
1/2+x,-y,-z
-x,1/2+y,-z
-x,-y,-z
1/2+x,1/2+y,-z
1/2-x,y,z
x,1/2-y,z
loop_
_atom_site_type_symbol
_atom_site_label
_atom_site_fract_x
_atom_site_fract_y
_atom_site_fract_z
Si Si1 0.910454 0.671479 0.813600
Si Si2 0.349043 0.368721 0.958288
Si Si3 0.443520 0.947695 0.770245
Si Si4 0.519219 0.101221 0.835755
Si Si5 0.650735 0.459530 0.016436
Si Si6 0.530534 0.080380 0.471317
Si Si7 0.142891 0.835354 0.349676
Si Si8 0.348344 0.334067 0.425516
O O1 0.955630 0.750000 0.803539
O O2 0.859115 0.669023 0.926492
O O3 0.852092 0.662475 0.705334
O O4 0.979805 0.606302 0.812299
O O5 0.250000 0.354043 0.911296
O O6 0.432817 0.354701 0.879125
O O7 0.354614 0.453973 0.985589
O O8 0.365031 0.941100 0.858148
O O9 0.425843 0.924689 0.647919
O O10 0.481249 0.029282 0.776902
O O11 0.586072 0.143303 0.756847
O O12 0.574962 0.073983 0.940119
O O13 0.750000 0.437175 0.979361
O O14 0.598252 0.117462 0.555033
O O15 0.437126 0.125455 0.465699
O O16 0.500000 0.000000 0.500000
O O17 0.250000 0.850640 0.337640
O O18 0.132999 0.750000 0.371090
O O19 0.250000 0.362159 0.461613
O O20 0.354241 0.250000 0.455145
#
# Coordination Sequence:
#
# PCOD9446992 Si02
#       8
#     8   8   8   8   8   8   8   8
#     4  10  18  31  52  82 121 156 188 234 292 356
#     4  10  19  31  53  85 121 159 196 239 297 360
#     4  10  19  37  59  86 121 150 200 250 300 356
#     4  11  19  39  62  85 122 160 204 251 295 359
#     4  10  19  33  58  88 118 158 199 249 306 357
#     4  11  22  39  63  90 117 152 204 258 304 353
#     4  11  26  46  66  89 119 161 209 255 307 366
#     4   9  19  35  56  84 118 154 188 233 298 359
#
# _framework density 18.76153
#
# number of rings (size 3 to 8) (size 9 to 14) (size 15 to 20)
#    0.000    1.750    3.750    1.875    0.000    2.750 
#    0.000    0.625    0.000    1.125    0.000    0.000 
#    0.000    0.000    0.000    0.000    0.000    0.000 
#
# Total GULP energy -356934.354229 kJ/mol
# GULP energy per Si atom -5577.099285 kJ/mol
# Density = 1.871883 g / cm^3
# Si number density = 18.761530 Si / 1000 Ang^3
#
#
#
# Elastic Constant Matrix: (Units=GPa)
#
#
# Indices 1 2 3 4 5 6 
#
# 1 121.5012 32.0339 51.5006 0.0000 0.0000 0.0000
# 2 32.0339 57.7678 18.8487 0.0000 0.0000 0.0000
# 3 51.5006 18.8487 93.1899 0.0000 0.0000 0.0000
# 4 0.0000 0.0000 0.0000 21.1101 0.0000 0.0000
# 5 0.0000 0.0000 0.0000 0.0000 15.9704 0.0000
# 6 0.0000 0.0000 0.0000 0.0000 0.0000 16.4739
#
#
#
# Elastic Compliance Matrix: (Units=1/GPa)
#
#
# Indices 1 2 3 4 5 6 
#
# 1 0.011851 -0.004748 -0.005589 0.000000 0.000000 0.000000
# 2 -0.004748 0.020436 -0.001509 0.000000 0.000000 0.000000
# 3 -0.005589 -0.001509 0.014125 0.000000 0.000000 0.000000
# 4 0.000000 0.000000 0.000000 0.047371 0.000000 0.000000
# 5 0.000000 0.000000 0.000000 0.000000 0.062616 0.000000
# 6 0.000000 0.000000 0.000000 0.000000 0.000000 0.060702
#
#
# Mechanical properties :
#
#
# Convention : Reuss Voigt Hill
#
# Bulk Modulus (GPa) = 44.01630 53.02504 48.52067
# Shear Modulus (GPa) = 20.13145 22.04925 21.09035
#
# Velocity S-wave (km/s) = 3.27925 3.43189 3.35644
# Velocity P-wave (km/s) = 6.15222 6.63535 6.39835
#
# Compressibility (1/GPa) = 0.02271886
#
# Stress axis : x y z
#
# Youngs Moduli (GPa) = 84.37880 48.93275 70.79719
#
# Poissons Ratio (x) = 0.23234 0.39570
# Poissons Ratio (y) = 0.40065 0.10686
# Poissons Ratio (z) = 0.47161 0.07386
#
# Static dielectric constant tensor:
#      x y z
#    x 1.658450 0.000000 0.000000 
#    y 0.000000 1.666890 0.000000 
#    z 0.000000 0.000000 1.659630 
# 
# From -- ./inp_files/17215.got.cif
#   From: 2010.05.17/outbox.cif.g08.bks.cpg/sg59_9_cif.got.tgz:17215.got - 2010.06.03 14:40:33.
