data_PCOD9446140
_publ_section_title
;
Structure prediction by ZEFSAII (Michael W. Deem and Ramdas Pophale) SiO2 
 PCOD9446140
Probable space group: P M M N
;
_chemical_formula_sum "Si O2"
_cell_formula_units_Z 44
_cell_length_a 18.781114
_cell_length_b 12.234579
_cell_length_c 9.644068
_cell_angle_alpha 90.000000
_cell_angle_beta 90.000000
_cell_angle_gamma 90.000000
_cell_volume 2216.004522
_symmetry_space_group_name_H-M "P M M N"
_symmetry_group_IT_number 59
_space_group.IT_coordinate_system_code '2'
_symmetry_cell_setting 'orthorhombic'
loop_
_space_group_symop_operation_xyz
x,y,z
1/2-x,1/2-y,z
1/2+x,-y,-z
-x,1/2+y,-z
-x,-y,-z
1/2+x,1/2+y,-z
1/2-x,y,z
x,1/2-y,z
loop_
_atom_site_type_symbol
_atom_site_label
_atom_site_fract_x
_atom_site_fract_y
_atom_site_fract_z
Si Si1 0.335438 0.372688 0.691867
Si Si2 0.890655 0.035935 0.077234
Si Si3 0.250000 0.627443 0.368320
Si Si4 0.750000 0.634366 0.825937
Si Si5 0.042862 0.119770 0.158058
Si Si6 0.634706 0.944138 0.610984
Si Si7 0.750000 0.408522 0.956856
O O1 0.250000 0.383888 0.680308
O O2 0.351629 0.250000 0.741388
O O3 0.365547 0.462616 0.794607
O O4 0.366320 0.389365 0.537980
O O5 0.824538 0.112042 0.031061
O O6 0.912499 0.951746 0.953786
O O7 0.960831 0.102301 0.117336
O O8 0.250000 0.750000 0.424789
O O9 0.321039 0.557771 0.405114
O O10 0.250000 0.632018 0.200634
O O11 0.750000 0.750000 0.896821
O O12 0.815511 0.620628 0.720739
O O13 0.750000 0.540160 0.937997
O O14 0.058334 0.250000 0.157737
O O15 0.060716 0.063025 0.306675
#
# Coordination Sequence:
#
# PCOD9446140 Si02
#       7
#     8   8   4   4   8   8   4
#     4  11  21  35  62  94 126 156 192 256 316 355
#     4  11  23  39  58  90 127 155 206 251 308 366
#     4  10  20  37  60  90 122 164 206 250 303 361
#     4  10  16  27  55  87 113 146 190 239 295 351
#     4  11  23  41  62  84 121 166 207 252 305 363
#     4  10  20  37  59  91 119 155 204 254 291 368
#     4  10  20  36  55  87 117 154 200 257 292 360
#
# _framework density 19.855554999999999
#
# number of rings (size 3 to 8) (size 9 to 14) (size 15 to 20)
#    0.000    1.636    6.364    2.182    0.000    2.182 
#    0.000    1.818    0.000    0.000    0.000    0.000 
#    0.000    0.000    0.000    0.000    0.000    0.000 
#
# Total GULP energy -245473.864416 kJ/mol
# GULP energy per Si atom -5578.951464 kJ/mol
# Density = 1.981036 g / cm^3
# Si number density = 19.855555 Si / 1000 Ang^3
#
#
#
# Elastic Constant Matrix: (Units=GPa)
#
#
# Indices 1 2 3 4 5 6 
#
# 1 67.7930 -8.9153 14.6322 0.0000 0.0000 0.0000
# 2 -8.9153 93.3783 -9.1566 0.0000 0.0000 0.0000
# 3 14.6322 -9.1566 53.0763 0.0000 0.0000 0.0000
# 4 0.0000 0.0000 0.0000 -6.9733 0.0000 0.0000
# 5 0.0000 0.0000 0.0000 0.0000 17.6587 0.0000
# 6 0.0000 0.0000 0.0000 0.0000 0.0000 16.7504
#
#
#
# Elastic Compliance Matrix: (Units=1/GPa)
#
#
# Indices 1 2 3 4 5 6 
#
# 1 0.015794 0.001100 -0.004164 0.000000 0.000000 0.000000
# 2 0.001100 0.010970 0.001589 0.000000 0.000000 0.000000
# 3 -0.004164 0.001589 0.020263 0.000000 0.000000 0.000000
# 4 0.000000 0.000000 0.000000 -0.143404 0.000000 0.000000
# 5 0.000000 0.000000 0.000000 0.000000 0.056629 0.000000
# 6 0.000000 0.000000 0.000000 0.000000 0.000000 0.059700
#
#
# Mechanical properties :
#
#
# Convention : Reuss Voigt Hill
#
# Bulk Modulus (GPa) = 22.68798 23.04092 22.86445
# Shear Modulus (GPa) = 132.99422 19.99966 76.49694
#
# Velocity S-wave (km/s) = 8.19306 3.17718 6.21372
# Velocity P-wave (km/s) = 10.04754 5.00886 7.93857
#
# Compressibility (1/GPa) = 0.04407620
#
# Stress axis : x y z
#
# Youngs Moduli (GPa) = 63.31426 91.15802 49.35086
#
# Poissons Ratio (x) = -0.10024 0.20552
# Poissons Ratio (y) = -0.06962 -0.07844
# Poissons Ratio (z) = 0.26367 -0.14488
#
# Static dielectric constant tensor:
#      x y z
#    x 1.782550 0.000000 0.000000 
#    y 0.000000 1.718550 0.000000 
#    z 0.000000 0.000000 1.672990 
# 
# From -- ./inp_files/10230.got.cif
#   From: 2010.05.17/outbox.cif.g08.bks.cpg/sg59_6_cif.got.tgz:10230.got - 2010.06.03 14:40:33.
