data_PCOD9446903
_publ_section_title
;
Structure prediction by ZEFSAII (Michael W. Deem and Ramdas Pophale) SiO2 
 PCOD9446903
Probable space group: P M M N
;
_chemical_formula_sum "Si O2"
_cell_formula_units_Z 64
_cell_length_a 8.574342
_cell_length_b 29.346266
_cell_length_c 16.159508
_cell_angle_alpha 90.000000
_cell_angle_beta 90.000000
_cell_angle_gamma 90.000000
_cell_volume 4066.134926
_symmetry_space_group_name_H-M "P M M N"
_symmetry_group_IT_number 59
_space_group.IT_coordinate_system_code '2'
_symmetry_cell_setting 'orthorhombic'
loop_
_space_group_symop_operation_xyz
x,y,z
1/2-x,1/2-y,z
1/2+x,-y,-z
-x,1/2+y,-z
-x,-y,-z
1/2+x,1/2+y,-z
1/2-x,y,z
x,1/2-y,z
loop_
_atom_site_type_symbol
_atom_site_label
_atom_site_fract_x
_atom_site_fract_y
_atom_site_fract_z
Si Si1 0.061498 0.551236 0.003395
Si Si2 0.436601 0.444506 0.674930
Si Si3 0.060263 0.949510 0.680584
Si Si4 0.436995 0.551696 0.498879
Si Si5 0.563459 0.106950 0.833863
Si Si6 0.937966 0.698647 0.902391
Si Si7 0.938305 0.393618 0.160064
Si Si8 0.438113 0.301715 0.904935
O O1 0.250000 0.550279 0.003156
O O2 0.010056 0.579071 0.922108
O O3 0.010019 0.577007 0.086810
O O4 0.000000 0.500000 0.000000
O O5 0.250000 0.444769 0.673828
O O6 0.489583 0.497427 0.686880
O O7 0.496374 0.427688 0.585450
O O8 0.496353 0.414459 0.750441
O O9 0.250000 0.950149 0.683056
O O10 0.016456 0.930326 0.589876
O O11 0.005771 0.919707 0.757837
O O12 0.500000 0.500000 0.500000
O O13 0.250000 0.551364 0.494268
O O14 0.750000 0.105153 0.830988
O O15 0.509754 0.158462 0.850438
O O16 0.750000 0.697110 0.899907
O O17 0.986550 0.750000 0.878839
O O18 0.005346 0.658036 0.848271
O O19 0.984537 0.691407 0.998694
O O20 0.750000 0.393950 0.160671
O O21 0.250000 0.304442 0.901548
O O22 0.482944 0.250000 0.881717
#
# Coordination Sequence:
#
# PCOD9446903 Si02
#       8
#     8   8   8   8   8   8   8   8
#     4  10  21  32  43  63  94 130 163 192 224 268
#     4  10  19  32  49  68  93 130 164 196 238 283
#     4   8  16  29  47  68  94 126 157 191 235 278
#     4   9  16  29  47  69  95 124 158 199 241 282
#     4  11  21  32  46  70  97 124 159 199 238 278
#     4   9  18  32  48  67  91 119 154 196 239 278
#     4  10  18  31  47  67  93 123 159 193 227 275
#     4   9  18  33  51  68  89 121 159 197 239 286
#
# _framework density 15.739763
#
# number of rings (size 3 to 8) (size 9 to 14) (size 15 to 20)
#    0.000    2.500    1.250    3.375    0.000    3.000 
#    0.000    5.000    0.000    0.000    0.000    0.875 
#    0.000    5.000    0.000    0.000    0.000    0.000 
#
# Total GULP energy -356730.299928 kJ/mol
# GULP energy per Si atom -5573.910936 kJ/mol
# Density = 1.570394 g / cm^3
# Si number density = 15.739763 Si / 1000 Ang^3
#
#
#
# Elastic Constant Matrix: (Units=GPa)
#
#
# Indices 1 2 3 4 5 6 
#
# 1 22.8878 20.7804 29.9319 0.0000 0.0000 0.0000
# 2 20.7804 102.9953 66.7196 0.0000 0.0000 0.0000
# 3 29.9319 66.7196 141.6536 0.0000 0.0000 0.0000
# 4 0.0000 0.0000 0.0000 10.0923 0.0000 0.0000
# 5 0.0000 0.0000 0.0000 0.0000 16.0029 0.0000
# 6 0.0000 0.0000 0.0000 0.0000 0.0000 25.3229
#
#
#
# Elastic Compliance Matrix: (Units=1/GPa)
#
#
# Indices 1 2 3 4 5 6 
#
# 1 0.062738 -0.005858 -0.010498 0.000000 0.000000 0.000000
# 2 -0.005858 0.014519 -0.005601 0.000000 0.000000 0.000000
# 3 -0.010498 -0.005601 0.011916 0.000000 0.000000 0.000000
# 4 0.000000 0.000000 0.000000 0.099085 0.000000 0.000000
# 5 0.000000 0.000000 0.000000 0.000000 0.062489 0.000000
# 6 0.000000 0.000000 0.000000 0.000000 0.000000 0.039490
#
#
# Mechanical properties :
#
#
# Convention : Reuss Voigt Hill
#
# Bulk Modulus (GPa) = 22.09429 55.82226 38.95827
# Shear Modulus (GPa) = 14.31692 20.29061 17.30377
#
# Velocity S-wave (km/s) = 3.01923 3.59434 3.31927
# Velocity P-wave (km/s) = 5.12075 7.26419 6.28453
#
# Compressibility (1/GPa) = 0.04526057
#
# Stress axis : x y z
#
# Youngs Moduli (GPa) = 15.93919 68.87411 83.92259
#
# Poissons Ratio (x) = 0.40345 0.88100
# Poissons Ratio (y) = 0.09337 0.47004
# Poissons Ratio (z) = 0.16733 0.38576
#
# Static dielectric constant tensor:
#      x y z
#    x 1.533840 0.000000 0.000000 
#    y 0.000000 1.502030 0.000000 
#    z 0.000000 0.000000 1.538170 
# 
# From -- ./inp_files/21906.got.cif
#   From: 2010.05.17/outbox.cif.g08.bks.cpg/sg59_11_cif.got.tgz:21906.got - 2010.06.03 14:40:33.
