data_PCOD9446010
_publ_section_title
;
Structure prediction by ZEFSAII (Michael W. Deem and Ramdas Pophale) SiO2 
 PCOD9446010
Probable space group: P N N M
;
_chemical_formula_sum "Si O2"
_cell_formula_units_Z 48
_cell_length_a 15.000000
_cell_length_b 12.000000
_cell_length_c 15.000000
_cell_angle_alpha 90.000000
_cell_angle_beta 90.000000
_cell_angle_gamma 90.000000
_cell_volume 2700.000000
_symmetry_space_group_name_H-M "P N N M"
_symmetry_group_IT_number 58
_symmetry_cell_setting 'orthorhombic'
loop_
_space_group_symop_operation_xyz
x,y,z
-x,-y,z
1/2+x,1/2-y,1/2-z
1/2-x,1/2+y,1/2-z
-x,-y,-z
x,y,-z
1/2-x,1/2+y,1/2+z
1/2+x,1/2-y,1/2+z
loop_
_atom_site_type_symbol
_atom_site_label
_atom_site_fract_x
_atom_site_fract_y
_atom_site_fract_z
Si Si1 0.220101 0.557554 0.900158
Si Si2 0.955632 0.727361 0.262460
Si Si3 0.602726 0.039402 0.102315
Si Si4 0.820966 0.700528 0.892806
Si Si5 0.834434 0.333007 0.286084
Si Si6 0.925164 0.907493 0.595126
O O1 0.181024 0.433974 0.889850
O O2 0.198044 0.631298 0.813158
O O3 0.326539 0.543826 0.902762
O O4 0.193767 0.601020 0.000000
O O5 0.903031 0.637687 0.324795
O O6 0.909355 0.731737 0.165251
O O7 0.939289 0.839322 0.316206
O O8 0.062292 0.705042 0.269546
O O9 0.500000 0.000000 0.095430
O O10 0.657978 0.939913 0.148140
O O11 0.632012 0.065304 0.000000
O O12 0.735192 0.750619 0.837634
O O13 0.819979 0.731095 0.000000
O O14 0.933288 0.841976 0.500000
O O15 0.000000 0.000000 0.592379
#
# Coordination Sequence:
#
# PCOD9446010 Si02
#       6
#     8   8   8   8   8   8
#     4  10  21  37  58  85 117 152 194 240 292 354
#     4  11  21  35  59  86 115 152 195 241 294 353
#     4   9  18  32  53  82 111 140 181 234 290 344
#     4  11  23  39  60  88 120 156 198 245 300 360
#     4  11  21  37  58  84 116 155 195 241 295 350
#     4  10  20  36  59  86 114 148 194 247 298 347
#
# _framework density 17.777778000000001
#
# number of rings (size 3 to 8) (size 9 to 14) (size 15 to 20)
#    0.000    1.667    3.333    2.000    0.000    4.000 
#    0.000    1.667    0.000    0.500    0.000    0.000 
#    0.000    0.000    0.000    0.000    0.000    0.000 
#
# Total GULP energy -267228.500609 kJ/mol
# GULP energy per Si atom -5567.260429 kJ/mol
# Density = 1.773731 g / cm^3
# Si number density = 17.777778 Si / 1000 Ang^3
#
#
#
# Elastic Constant Matrix: (Units=GPa)
#
#
# Indices 1 2 3 4 5 6 
#
# 1 74.0298 3.6380 35.7711 0.0000 0.0000 0.0000
# 2 3.6380 28.9900 26.4084 0.0000 0.0000 0.0000
# 3 35.7711 26.4084 170.2985 0.0000 0.0000 0.0000
# 4 0.0000 0.0000 0.0000 30.6274 0.0000 0.0000
# 5 0.0000 0.0000 0.0000 0.0000 39.6515 0.0000
# 6 0.0000 0.0000 0.0000 0.0000 0.0000 23.7547
#
#
#
# Elastic Compliance Matrix: (Units=1/GPa)
#
#
# Indices 1 2 3 4 5 6 
#
# 1 0.015067 0.001155 -0.003344 0.000000 0.000000 0.000000
# 2 0.001155 0.040258 -0.006485 0.000000 0.000000 0.000000
# 3 -0.003344 -0.006485 0.007580 0.000000 0.000000 0.000000
# 4 0.000000 0.000000 0.000000 0.032651 0.000000 0.000000
# 5 0.000000 0.000000 0.000000 0.000000 0.025220 0.000000
# 6 0.000000 0.000000 0.000000 0.000000 0.000000 0.042097
#
#
# Mechanical properties :
#
#
# Convention : Reuss Voigt Hill
#
# Bulk Modulus (GPa) = 21.95063 44.99479 33.47271
# Shear Modulus (GPa) = 25.58777 32.64010 29.11393
#
# Velocity S-wave (km/s) = 3.79794 4.28951 4.05119
# Velocity P-wave (km/s) = 5.62197 7.06383 6.38374
#
# Compressibility (1/GPa) = 0.04555678
#
# Stress axis : x y z
#
# Youngs Moduli (GPa) = 66.36971 24.84000 131.92322
#
# Poissons Ratio (x) = -0.02870 0.44115
# Poissons Ratio (y) = -0.07669 0.85559
# Poissons Ratio (z) = 0.22194 0.16110
#
# Static dielectric constant tensor:
#      x y z
#    x 1.654740 0.000000 0.000000 
#    y 0.000000 1.639420 0.000000 
#    z 0.000000 0.000000 1.663020 
# 
# From -- ./inp_files/15595.got.cif
#   From: 2010.05.17/outbox.ucp.g08.bks.cvg/sg58_8_cif.got.tgz:15595.got - 2010.06.11 16:41:41.
