data_PCOD9446047
_publ_section_title
;
Structure prediction by ZEFSAII (Michael W. Deem and Ramdas Pophale) SiO2 
 PCOD9446047
Probable space group: P N N M
;
_chemical_formula_sum "Si O2"
_cell_formula_units_Z 58
_cell_length_a 27.000000
_cell_length_b 12.000000
_cell_length_c 9.000000
_cell_angle_alpha 90.000000
_cell_angle_beta 90.000000
_cell_angle_gamma 90.000000
_cell_volume 2916.000000
_symmetry_space_group_name_H-M "P N N M"
_symmetry_group_IT_number 58
_symmetry_cell_setting 'orthorhombic'
loop_
_space_group_symop_operation_xyz
x,y,z
-x,-y,z
1/2+x,1/2-y,1/2-z
1/2-x,1/2+y,1/2-z
-x,-y,-z
x,y,-z
1/2-x,1/2+y,1/2+z
1/2+x,1/2-y,1/2+z
loop_
_atom_site_type_symbol
_atom_site_label
_atom_site_fract_x
_atom_site_fract_y
_atom_site_fract_z
Si Si1 0.904395 0.176177 0.675036
Si Si2 0.684934 0.813601 0.677865
Si Si3 0.950733 0.562227 0.169784
Si Si4 0.982625 0.807029 0.759714
Si Si5 0.152799 0.463849 0.323447
Si Si6 0.115230 0.072961 0.328712
Si Si7 0.000000 0.000000 0.000000
Si Si8 0.202689 0.228249 0.319733
O O1 0.893519 0.181545 0.500000
O O2 0.862785 0.248960 0.757095
O O3 0.962371 0.209696 0.690841
O O4 0.897692 0.048938 0.734143
O O5 0.683070 0.805229 0.500000
O O6 0.740038 0.775805 0.729184
O O7 0.679226 0.939329 0.733089
O O8 0.964583 0.691604 0.172037
O O9 0.904166 0.539690 0.273277
O O10 0.000000 0.500000 0.221384
O O11 0.939535 0.526279 0.000000
O O12 0.934237 0.851268 0.671229
O O13 0.991306 0.904754 0.874366
O O14 0.156414 0.482914 0.500000
O O15 0.178003 0.346477 0.286183
O O16 0.127825 0.052758 0.500000
O O17 0.163384 0.135240 0.262191
O O18 0.203720 0.218207 0.500000
#
# Coordination Sequence:
#
# PCOD9446047 Si02
#       8
#     8   8   8   8   8   8   2   8
#     4  11  24  39  64  97 129 168 216 263 315 382
#     4  11  25  43  66  92 130 171 210 264 328 382
#     4  11  24  40  61  91 128 174 217 258 317 386
#     4  12  22  38  63  90 135 168 214 261 325 380
#     4  11  23  43  68  93 126 163 217 270 316 379
#     4  10  20  39  65  92 123 162 208 264 321 378
#     4  12  24  36  56  96 136 176 210 274 316 394
#     4   9  21  41  65  92 121 162 208 262 321 378
#
# _framework density 19.890260999999999
#
# number of rings (size 3 to 8) (size 9 to 14) (size 15 to 20)
#    0.000    1.241    3.448    2.069    2.897    3.034 
#    0.000    2.069    3.034    0.000    0.000    0.000 
#    0.000    0.000    0.000    0.000    0.000    0.000 
#
# Total GULP energy -322946.980628 kJ/mol
# GULP energy per Si atom -5568.051390 kJ/mol
# Density = 1.984499 g / cm^3
# Si number density = 19.890261 Si / 1000 Ang^3
#
#
#
# Elastic Constant Matrix: (Units=GPa)
#
#
# Indices 1 2 3 4 5 6 
#
# 1 117.8400 6.3787 26.2644 0.0000 0.0000 0.0000
# 2 6.3787 19.5912 2.6207 0.0000 0.0000 0.0000
# 3 26.2644 2.6207 48.9287 0.0000 0.0000 0.0000
# 4 0.0000 0.0000 0.0000 28.0787 0.0000 0.0000
# 5 0.0000 0.0000 0.0000 0.0000 42.7366 0.0000
# 6 0.0000 0.0000 0.0000 0.0000 0.0000 30.2656
#
#
#
# Elastic Compliance Matrix: (Units=1/GPa)
#
#
# Indices 1 2 3 4 5 6 
#
# 1 0.009759 -0.002495 -0.005105 0.000000 0.000000 0.000000
# 2 -0.002495 0.052049 -0.001449 0.000000 0.000000 0.000000
# 3 -0.005105 -0.001449 0.023256 0.000000 0.000000 0.000000
# 4 0.000000 0.000000 0.000000 0.035614 0.000000 0.000000
# 5 0.000000 0.000000 0.000000 0.000000 0.023399 0.000000
# 6 0.000000 0.000000 0.000000 0.000000 0.000000 0.033041
#
#
# Mechanical properties :
#
#
# Convention : Reuss Voigt Hill
#
# Bulk Modulus (GPa) = 14.93258 28.54304 21.73781
# Shear Modulus (GPa) = 22.98459 30.28926 26.63693
#
# Velocity S-wave (km/s) = 3.40306 3.90656 3.66347
# Velocity P-wave (km/s) = 4.79216 5.89319 5.37097
#
# Compressibility (1/GPa) = 0.06696766
#
# Stress axis : x y z
#
# Youngs Moduli (GPa) = 102.47069 19.21252 43.00017
#
# Poissons Ratio (x) = 0.04793 0.21951
# Poissons Ratio (y) = 0.25562 0.06230
# Poissons Ratio (z) = 0.52310 0.02783
#
# Static dielectric constant tensor:
#      x y z
#    x 1.706710 0.000000 0.000000 
#    y 0.000000 1.720380 0.000000 
#    z 0.000000 0.000000 1.695230 
# 
# From -- ./inp_files/10413.got.cif
#   From: 2010.05.17/outbox.ucp.g08.bks.cvg/sg58_6_cif.got.tgz:10413.got - 2010.06.11 16:41:41.
