data_PCOD9446975
_publ_section_title
;
Structure prediction by ZEFSAII (Michael W. Deem and Ramdas Pophale) SiO2 
 PCOD9446975
Probable space group: P M M N
;
_chemical_formula_sum "Si O2"
_cell_formula_units_Z 64
_cell_length_a 7.761738
_cell_length_b 20.204217
_cell_length_c 21.026667
_cell_angle_alpha 90.000000
_cell_angle_beta 90.000000
_cell_angle_gamma 90.000000
_cell_volume 3297.398530
_symmetry_space_group_name_H-M "P M M N"
_symmetry_group_IT_number 59
_space_group.IT_coordinate_system_code '2'
_symmetry_cell_setting 'orthorhombic'
loop_
_space_group_symop_operation_xyz
x,y,z
1/2-x,1/2-y,z
1/2+x,-y,-z
-x,1/2+y,-z
-x,-y,-z
1/2+x,1/2+y,-z
1/2-x,y,z
x,1/2-y,z
loop_
_atom_site_type_symbol
_atom_site_label
_atom_site_fract_x
_atom_site_fract_y
_atom_site_fract_z
Si Si1 0.951546 0.675386 0.825660
Si Si2 0.451794 0.579846 0.221650
Si Si3 0.451684 0.937410 0.728314
Si Si4 0.453192 0.938240 0.587767
Si Si5 0.540284 0.412486 0.549799
Si Si6 0.538877 0.325449 0.666792
Si Si7 0.454265 0.905595 0.946375
Si Si8 0.459387 0.557308 0.083324
O O1 0.750000 0.677534 0.810208
O O2 0.021964 0.750000 0.821889
O O3 0.031816 0.623405 0.776496
O O4 0.969459 0.645697 0.896449
O O5 0.250000 0.596581 0.216534
O O6 0.464534 0.503659 0.243624
O O7 0.523648 0.627478 0.276129
O O8 0.524427 0.584897 0.150422
O O9 0.250000 0.953701 0.721429
O O10 0.522973 0.921920 0.657721
O O11 0.250000 0.922849 0.589225
O O12 0.522223 0.905282 0.522925
O O13 0.478380 0.016641 0.576138
O O14 0.750000 0.415067 0.548906
O O15 0.486365 0.356674 0.599388
O O16 0.750000 0.326670 0.667173
O O17 0.484272 0.250000 0.674429
O O18 0.250000 0.894692 0.946906
O O19 0.488373 0.980426 0.922411
O O20 0.518326 0.905622 0.019306
O O21 0.250000 0.558395 0.083246
#
# Coordination Sequence:
#
# PCOD9446975 Si02
#       8
#     8   8   8   8   8   8   8   8
#     4  11  24  40  56  75 103 141 181 222 271 326
#     4  10  18  31  52  77 105 139 176 214 259 309
#     4  11  21  33  52  79 107 135 173 222 273 319
#     4   9  18  30  47  75 106 129 165 219 266 308
#     4   9  16  29  49  73 100 135 174 211 256 309
#     4   9  17  29  48  75 104 136 177 217 253 302
#     4  10  19  32  52  79 106 135 170 214 262 309
#     4   9  18  31  50  78 109 136 168 211 258 308
#
# _framework density 19.409241000000002
#
# number of rings (size 3 to 8) (size 9 to 14) (size 15 to 20)
#    0.000    2.250    2.500    1.125    0.000    2.000 
#    0.000    1.250    0.000    6.000    0.000    0.000 
#    0.000    0.000    0.000    0.000    0.000    0.000 
#
# Total GULP energy -356962.734675 kJ/mol
# GULP energy per Si atom -5577.542729 kJ/mol
# Density = 1.936506 g / cm^3
# Si number density = 19.409241 Si / 1000 Ang^3
#
#
#
# Elastic Constant Matrix: (Units=GPa)
#
#
# Indices 1 2 3 4 5 6 
#
# 1 25.1852 -15.2702 -4.6490 0.0000 0.0000 0.0000
# 2 -15.2702 93.6855 67.4729 0.0000 0.0000 0.0000
# 3 -4.6490 67.4729 181.0935 0.0000 0.0000 0.0000
# 4 0.0000 0.0000 0.0000 22.5525 0.0000 0.0000
# 5 0.0000 0.0000 0.0000 0.0000 11.4833 0.0000
# 6 0.0000 0.0000 0.0000 0.0000 0.0000 9.5058
#
#
#
# Elastic Compliance Matrix: (Units=1/GPa)
#
#
# Indices 1 2 3 4 5 6 
#
# 1 0.044659 0.008820 -0.002140 0.000000 0.000000 0.000000
# 2 0.008820 0.016331 -0.005858 0.000000 0.000000 0.000000
# 3 -0.002140 -0.005858 0.007650 0.000000 0.000000 0.000000
# 4 0.000000 0.000000 0.000000 0.044341 0.000000 0.000000
# 5 0.000000 0.000000 0.000000 0.000000 0.087083 0.000000
# 6 0.000000 0.000000 0.000000 0.000000 0.000000 0.105199
#
#
# Mechanical properties :
#
#
# Convention : Reuss Voigt Hill
#
# Bulk Modulus (GPa) = 14.22805 43.89686 29.06245
# Shear Modulus (GPa) = 15.28838 25.53569 20.41203
#
# Velocity S-wave (km/s) = 2.80962 3.63112 3.24646
# Velocity P-wave (km/s) = 4.22750 6.34394 5.39061
#
# Compressibility (1/GPa) = 0.07028369
#
# Stress axis : x y z
#
# Youngs Moduli (GPa) = 22.39203 61.23413 130.72316
#
# Poissons Ratio (x) = -0.54010 0.27972
# Poissons Ratio (y) = -0.19750 0.76580
# Poissons Ratio (z) = 0.04791 0.35872
#
# Static dielectric constant tensor:
#      x y z
#    x 1.706170 0.000000 0.000000 
#    y 0.000000 1.628930 0.000000 
#    z 0.000000 0.000000 1.725730 
# 
# From -- ./inp_files/29573.got.cif
#   From: 2010.05.17/outbox.cif.g08.bks.cpg/sg59_15_cif.got.tgz:29573.got - 2010.06.03 14:40:33.
