data_PCOD9446041
_publ_section_title
;
Structure prediction by ZEFSAII (Michael W. Deem and Ramdas Pophale) SiO2 
 PCOD9446041
Probable space group: P N N M
;
_chemical_formula_sum "Si O2"
_cell_formula_units_Z 48
_cell_length_a 12.000000
_cell_length_b 24.000000
_cell_length_c 9.000000
_cell_angle_alpha 90.000000
_cell_angle_beta 90.000000
_cell_angle_gamma 90.000000
_cell_volume 2592.000000
_symmetry_space_group_name_H-M "P N N M"
_symmetry_group_IT_number 58
_symmetry_cell_setting 'orthorhombic'
loop_
_space_group_symop_operation_xyz
x,y,z
-x,-y,z
1/2+x,1/2-y,1/2-z
1/2-x,1/2+y,1/2-z
-x,-y,-z
x,y,-z
1/2-x,1/2+y,1/2+z
1/2+x,1/2-y,1/2+z
loop_
_atom_site_type_symbol
_atom_site_label
_atom_site_fract_x
_atom_site_fract_y
_atom_site_fract_z
Si Si1 0.264946 0.905001 0.175366
Si Si2 0.085714 0.300750 0.679269
Si Si3 0.005080 0.933151 0.175525
Si Si4 0.869397 0.486431 0.169795
Si Si5 0.370854 0.671556 0.820263
Si Si6 0.856185 0.365640 0.320959
O O1 0.316753 0.845160 0.226250
O O2 0.132119 0.911542 0.188870
O O3 0.313929 0.958721 0.259633
O O4 0.293768 0.910365 0.000000
O O5 0.092380 0.298059 0.500000
O O6 0.089953 0.235065 0.726658
O O7 0.970676 0.332906 0.717280
O O8 0.933863 0.884344 0.257617
O O9 0.972882 0.933235 0.000000
O O10 0.000000 0.000000 0.222203
O O11 0.855066 0.429485 0.262545
O O12 0.000000 0.500000 0.165705
O O13 0.829329 0.477747 0.000000
O O14 0.246144 0.665199 0.757715
O O15 0.374763 0.669266 0.000000
O O16 0.844665 0.365610 0.500000
#
# Coordination Sequence:
#
# PCOD9446041 Si02
#       6
#     8   8   8   8   8   8
#     4  10  20  38  63  87 121 166 206 248 299 364
#     4   9  21  39  59  87 120 161 203 245 301 363
#     4  10  22  40  63  92 121 157 209 254 300 370
#     4  11  22  36  57  92 128 156 195 250 307 354
#     4  11  24  41  62  90 125 159 201 255 310 360
#     4  11  22  40  64  87 118 161 209 247 294 364
#
# _framework density 18.518519000000001
#
# number of rings (size 3 to 8) (size 9 to 14) (size 15 to 20)
#    0.000    1.667    1.667    2.500    2.333    3.000 
#    0.000    4.167    0.000    0.000    0.000    0.000 
#    0.000    0.000    0.000    0.000    0.000    0.000 
#
# Total GULP energy -267649.618036 kJ/mol
# GULP energy per Si atom -5576.033709 kJ/mol
# Density = 1.847637 g / cm^3
# Si number density = 18.518519 Si / 1000 Ang^3
#
#
#
# Elastic Constant Matrix: (Units=GPa)
#
#
# Indices 1 2 3 4 5 6 
#
# 1 85.7539 57.8217 33.2700 0.0000 0.0000 0.0000
# 2 57.8217 196.4286 45.4807 0.0000 0.0000 0.0000
# 3 33.2700 45.4807 68.9761 0.0000 0.0000 0.0000
# 4 0.0000 0.0000 0.0000 32.6883 0.0000 0.0000
# 5 0.0000 0.0000 0.0000 0.0000 23.8470 0.0000
# 6 0.0000 0.0000 0.0000 0.0000 0.0000 35.9454
#
#
#
# Elastic Compliance Matrix: (Units=1/GPa)
#
#
# Indices 1 2 3 4 5 6 
#
# 1 0.016137 -0.003479 -0.005489 0.000000 0.000000 0.000000
# 2 -0.003479 0.006758 -0.002778 0.000000 0.000000 0.000000
# 3 -0.005489 -0.002778 0.018977 0.000000 0.000000 0.000000
# 4 0.000000 0.000000 0.000000 0.030592 0.000000 0.000000
# 5 0.000000 0.000000 0.000000 0.000000 0.041934 0.000000
# 6 0.000000 0.000000 0.000000 0.000000 0.000000 0.027820
#
#
# Mechanical properties :
#
#
# Convention : Reuss Voigt Hill
#
# Bulk Modulus (GPa) = 54.40933 69.36705 61.88819
# Shear Modulus (GPa) = 29.09715 32.80190 30.94953
#
# Velocity S-wave (km/s) = 3.96820 4.21325 4.09256
# Velocity P-wave (km/s) = 7.10213 7.82356 7.47156
#
# Compressibility (1/GPa) = 0.01837920
#
# Stress axis : x y z
#
# Youngs Moduli (GPa) = 61.96971 147.96692 52.69447
#
# Poissons Ratio (x) = 0.51480 0.28926
# Poissons Ratio (y) = 0.21560 0.14639
# Poissons Ratio (z) = 0.34018 0.41106
#
# Static dielectric constant tensor:
#      x y z
#    x 1.667420 0.000000 0.000000 
#    y 0.000000 1.634920 0.000000 
#    z 0.000000 0.000000 1.642630 
# 
# From -- ./inp_files/4256.got.cif
#   From: 2010.05.17/outbox.ucp.g08.bks.cvg/sg58_3_cif.got.tgz:4256.got - 2010.06.11 16:41:41.
