data_PCOD9446245
_publ_section_title
;
Structure prediction by ZEFSAII (Michael W. Deem and Ramdas Pophale) SiO2 
 PCOD9446245
Probable space group: P M M N
;
_chemical_formula_sum "Si O2"
_cell_formula_units_Z 56
_cell_length_a 29.820528
_cell_length_b 13.661804
_cell_length_c 7.168991
_cell_angle_alpha 90.000000
_cell_angle_beta 90.000000
_cell_angle_gamma 90.000000
_cell_volume 2920.662768
_symmetry_space_group_name_H-M "P M M N"
_symmetry_group_IT_number 59
_space_group.IT_coordinate_system_code '2'
_symmetry_cell_setting 'orthorhombic'
loop_
_space_group_symop_operation_xyz
x,y,z
1/2-x,1/2-y,z
1/2+x,-y,-z
-x,1/2+y,-z
-x,-y,-z
1/2+x,1/2+y,-z
1/2-x,y,z
x,1/2-y,z
loop_
_atom_site_type_symbol
_atom_site_label
_atom_site_fract_x
_atom_site_fract_y
_atom_site_fract_z
Si Si1 0.039823 0.462425 0.130533
Si Si2 0.567365 0.861207 0.225175
Si Si3 0.604184 0.437629 0.357059
Si Si4 0.796971 0.365523 0.954552
Si Si5 0.395093 0.634792 0.066614
Si Si6 0.300076 0.865160 0.595407
Si Si7 0.009047 0.635925 0.522601
O O1 0.020096 0.418139 0.318663
O O2 0.062952 0.382149 0.995386
O O3 0.071867 0.555459 0.150700
O O4 0.000000 0.500000 0.000000
O O5 0.582340 0.750000 0.259957
O O6 0.519188 0.872291 0.330954
O O7 0.597958 0.947806 0.308225
O O8 0.601826 0.379186 0.158667
O O9 0.652299 0.415288 0.449730
O O10 0.559664 0.403229 0.464520
O O11 0.750000 0.410591 0.890982
O O12 0.795676 0.250000 0.912973
O O13 0.844706 0.397655 0.881161
O O14 0.798264 0.372962 0.178878
O O15 0.402868 0.750000 0.111411
O O16 0.250000 0.898027 0.531202
O O17 0.303767 0.750000 0.547677
O O18 0.011023 0.750000 0.569181
#
# Coordination Sequence:
#
# PCOD9446245 Si02
#       7
#     8   8   8   8   8   8   8
#     4  11  21  32  50  70 100 135 168 205 244 295
#     4  10  22  36  50  71 101 133 170 210 246 291
#     4  10  17  28  47  68  97 130 166 203 244 296
#     4   7  10  18  34  58  89 121 152 188 234 287
#     4   9  16  26  42  67  97 129 162 200 244 293
#     4   8  13  22  40  68  98 126 158 199 247 298
#     4  11  21  35  52  71 101 135 166 205 249 292
#
# _framework density 19.173729999999999
#
# number of rings (size 3 to 8) (size 9 to 14) (size 15 to 20)
#    0.000    2.571    2.857    3.857    0.000    0.571 
#    0.000    0.000    0.000    1.286    0.000    1.000 
#    0.000    6.286    0.000    9.429    0.000    1.000 
#
# Total GULP energy -312303.441912 kJ/mol
# GULP energy per Si atom -5576.847177 kJ/mol
# Density = 1.913009 g / cm^3
# Si number density = 19.173730 Si / 1000 Ang^3
#
#
#
# Elastic Constant Matrix: (Units=GPa)
#
#
# Indices 1 2 3 4 5 6 
#
# 1 177.4523 63.0066 33.5852 0.0000 0.0000 0.0000
# 2 63.0066 120.0654 19.6715 0.0000 0.0000 0.0000
# 3 33.5852 19.6715 93.5442 0.0000 0.0000 0.0000
# 4 0.0000 0.0000 0.0000 10.9778 0.0000 0.0000
# 5 0.0000 0.0000 0.0000 0.0000 -1.4214 0.0000
# 6 0.0000 0.0000 0.0000 0.0000 0.0000 27.3262
#
#
#
# Elastic Compliance Matrix: (Units=1/GPa)
#
#
# Indices 1 2 3 4 5 6 
#
# 1 0.007226 -0.003487 -0.001861 0.000000 0.000000 0.000000
# 2 -0.003487 0.010309 -0.000916 0.000000 0.000000 0.000000
# 3 -0.001861 -0.000916 0.011551 0.000000 0.000000 0.000000
# 4 0.000000 0.000000 0.000000 0.091093 0.000000 0.000000
# 5 0.000000 0.000000 0.000000 0.000000 -0.703517 0.000000
# 6 0.000000 0.000000 0.000000 0.000000 0.000000 0.036595
#
#
# Mechanical properties :
#
#
# Convention : Reuss Voigt Hill
#
# Bulk Modulus (GPa) = 60.39505 69.28761 64.84133
# Shear Modulus (GPa) = -9.45721 25.69642 8.11961
#
# Velocity S-wave (km/s) = -2.22331 3.66483 2.06008
# Velocity P-wave (km/s) = 4.99764 7.35685 6.28886
#
# Compressibility (1/GPa) = 0.01655765
#
# Stress axis : x y z
#
# Youngs Moduli (GPa) = 138.39712 97.00582 86.57343
#
# Poissons Ratio (x) = 0.33825 0.16111
# Poissons Ratio (y) = 0.48257 0.07929
# Poissons Ratio (z) = 0.25755 0.08885
#
# Static dielectric constant tensor:
#      x y z
#    x 1.716920 0.000000 0.000000 
#    y 0.000000 1.654970 0.000000 
#    z 0.000000 0.000000 1.754200 
# 
# From -- ./inp_files/13243.got.cif
#   From: 2010.05.17/outbox.cif.g08.bks.cpg/sg59_7_cif.got.tgz:13243.got - 2010.06.03 14:40:33.
