data_PCOD9446747
_publ_section_title
;
Structure prediction by ZEFSAII (Michael W. Deem and Ramdas Pophale) SiO2 
 PCOD9446747
Probable space group: P M M N
;
_chemical_formula_sum "Si O2"
_cell_formula_units_Z 56
_cell_length_a 18.339734
_cell_length_b 19.788518
_cell_length_c 9.022333
_cell_angle_alpha 90.000000
_cell_angle_beta 90.000000
_cell_angle_gamma 90.000000
_cell_volume 3274.350414
_symmetry_space_group_name_H-M "P M M N"
_symmetry_group_IT_number 59
_space_group.IT_coordinate_system_code '2'
_symmetry_cell_setting 'orthorhombic'
loop_
_space_group_symop_operation_xyz
x,y,z
1/2-x,1/2-y,z
1/2+x,-y,-z
-x,1/2+y,-z
-x,-y,-z
1/2+x,1/2+y,-z
1/2-x,y,z
x,1/2-y,z
loop_
_atom_site_type_symbol
_atom_site_label
_atom_site_fract_x
_atom_site_fract_y
_atom_site_fract_z
Si Si1 0.836857 0.975799 0.120180
Si Si2 0.336173 0.175470 0.845919
Si Si3 0.832804 0.464185 0.439221
Si Si4 0.897134 0.673943 0.480279
Si Si5 0.526983 0.429787 0.575381
Si Si6 0.934609 0.009806 0.884211
Si Si7 0.331536 0.422111 0.303033
O O1 0.750000 0.974069 0.115005
O O2 0.863879 0.897933 0.098962
O O3 0.856270 0.002433 0.283736
O O4 0.868142 0.025748 0.995706
O O5 0.250000 0.176499 0.876708
O O6 0.365687 0.250000 0.894599
O O7 0.349122 0.171838 0.669174
O O8 0.750000 0.437663 0.424598
O O9 0.895524 0.414658 0.497216
O O10 0.830100 0.523017 0.563491
O O11 0.921932 0.750000 0.503299
O O12 0.850127 0.647629 0.617910
O O13 0.965597 0.625045 0.455060
O O14 0.500000 0.500000 0.500000
O O15 0.541139 0.441850 0.750353
O O16 0.898604 0.945803 0.798595
O O17 0.000000 0.000000 0.000000
O O18 0.250000 0.421967 0.234450
#
# Coordination Sequence:
#
# PCOD9446747 Si02
#       7
#     8   8   8   8   8   8   8
#     4  10  18  30  47  76 105 132 174 219 260 316
#     4   9  16  27  45  68 100 142 180 209 248 309
#     4   9  17  30  53  75 100 132 174 221 269 318
#     4  11  20  31  52  79 104 137 180 225 267 314
#     4  11  19  35  53  75 102 136 179 225 270 313
#     4  11  21  30  50  74 105 143 178 220 270 307
#     4  10  19  33  50  75 108 143 177 218 262 320
#
# _framework density 17.102629
#
# number of rings (size 3 to 8) (size 9 to 14) (size 15 to 20)
#    0.000    1.857    4.286    2.571    0.000    1.429 
#    0.000    0.714    0.000    3.000    0.000    0.000 
#    0.000    0.000    0.000    0.000    0.000    0.000 
#
# Total GULP energy -311742.120995 kJ/mol
# GULP energy per Si atom -5566.823589 kJ/mol
# Density = 1.706370 g / cm^3
# Si number density = 17.102629 Si / 1000 Ang^3
#
#
#
# Elastic Constant Matrix: (Units=GPa)
#
#
# Indices 1 2 3 4 5 6 
#
# 1 53.6512 19.1475 16.2162 0.0000 0.0000 0.0000
# 2 19.1475 41.3373 10.9741 0.0000 0.0000 0.0000
# 3 16.2162 10.9741 76.5510 0.0000 0.0000 0.0000
# 4 0.0000 0.0000 0.0000 16.9244 0.0000 0.0000
# 5 0.0000 0.0000 0.0000 0.0000 31.9182 0.0000
# 6 0.0000 0.0000 0.0000 0.0000 0.0000 17.5404
#
#
#
# Elastic Compliance Matrix: (Units=1/GPa)
#
#
# Indices 1 2 3 4 5 6 
#
# 1 0.023202 -0.009816 -0.003508 0.000000 0.000000 0.000000
# 2 -0.009816 0.029301 -0.002121 0.000000 0.000000 0.000000
# 3 -0.003508 -0.002121 0.014110 0.000000 0.000000 0.000000
# 4 0.000000 0.000000 0.000000 0.059086 0.000000 0.000000
# 5 0.000000 0.000000 0.000000 0.000000 0.031330 0.000000
# 6 0.000000 0.000000 0.000000 0.000000 0.000000 0.057011
#
#
# Mechanical properties :
#
#
# Convention : Reuss Voigt Hill
#
# Bulk Modulus (GPa) = 27.99264 29.35725 28.67494
# Shear Modulus (GPa) = 19.46740 21.62339 20.54539
#
# Velocity S-wave (km/s) = 3.37749 3.55960 3.46974
# Velocity P-wave (km/s) = 5.62253 5.83926 5.73192
#
# Compressibility (1/GPa) = 0.03572368
#
# Stress axis : x y z
#
# Youngs Moduli (GPa) = 43.09887 34.12829 70.86991
#
# Poissons Ratio (x) = 0.33501 0.24860
# Poissons Ratio (y) = 0.42307 0.15032
# Poissons Ratio (z) = 0.15119 0.07239
#
# Static dielectric constant tensor:
#      x y z
#    x 1.635020 0.000000 0.000000 
#    y 0.000000 1.585960 0.000000 
#    z 0.000000 0.000000 1.637280 
# 
# From -- ./inp_files/10592.got.cif
#   From: 2010.05.17/outbox.cif.g08.bks.cpg/sg59_6_cif.got.tgz:10592.got - 2010.06.03 14:40:33.
