data_PCOD9446726
_publ_section_title
;
Structure prediction by ZEFSAII (Michael W. Deem and Ramdas Pophale) SiO2 
 PCOD9446726
Probable space group: P M M N
;
_chemical_formula_sum "Si O2"
_cell_formula_units_Z 64
_cell_length_a 7.579828
_cell_length_b 29.609918
_cell_length_c 16.016294
_cell_angle_alpha 90.000000
_cell_angle_beta 90.000000
_cell_angle_gamma 90.000000
_cell_volume 3594.666363
_symmetry_space_group_name_H-M "P M M N"
_symmetry_group_IT_number 59
_space_group.IT_coordinate_system_code '2'
_symmetry_cell_setting 'orthorhombic'
loop_
_space_group_symop_operation_xyz
x,y,z
1/2-x,1/2-y,z
1/2+x,-y,-z
-x,1/2+y,-z
-x,-y,-z
1/2+x,1/2+y,-z
1/2-x,y,z
x,1/2-y,z
loop_
_atom_site_type_symbol
_atom_site_label
_atom_site_fract_x
_atom_site_fract_y
_atom_site_fract_z
Si Si1 0.044199 0.541238 0.805011
Si Si2 0.957969 0.299482 0.380138
Si Si3 0.040855 0.446922 0.012869
Si Si4 0.040262 0.947431 0.486221
Si Si5 0.956123 0.612017 0.329887
Si Si6 0.536075 0.699672 0.424275
Si Si7 0.967118 0.397168 0.345388
Si Si8 0.032697 0.438742 0.831477
O O1 0.250000 0.535221 0.785295
O O2 0.970839 0.571787 0.730955
O O3 0.972142 0.490241 0.812725
O O4 0.031831 0.564391 0.895979
O O5 0.750000 0.297790 0.360863
O O6 0.034038 0.250000 0.359127
O O7 0.028637 0.345396 0.340046
O O8 0.975981 0.305386 0.480082
O O9 0.250000 0.440957 0.017767
O O10 0.977930 0.425487 0.925585
O O11 0.000000 0.500000 0.000000
O O12 0.250000 0.942173 0.481578
O O13 0.977455 0.919118 0.566632
O O14 0.967184 0.926538 0.400881
O O15 0.000000 0.000000 0.500000
O O16 0.750000 0.620956 0.314158
O O17 0.030828 0.658099 0.368952
O O18 0.029195 0.593278 0.242982
O O19 0.750000 0.698034 0.425786
O O20 0.483787 0.750000 0.395731
O O21 0.750000 0.396634 0.345335
O O22 0.250000 0.439555 0.831838
#
# Coordination Sequence:
#
# PCOD9446726 Si02
#       8
#     8   8   8   8   8   8   8   8
#     4   9  16  28  44  60  82 111 142 176 214 254
#     4   9  16  28  46  64  83 111 148 184 216 255
#     4   9  16  28  44  62  83 107 139 177 217 256
#     4  11  21  32  43  59  87 120 151 178 210 250
#     4  10  18  30  46  63  85 116 149 176 210 258
#     4   9  17  28  43  64  88 111 139 181 224 254
#     4   9  17  29  44  62  86 116 146 176 214 257
#     4   8  15  27  43  60  81 112 142 170 211 257
#
# _framework density 17.804155000000002
#
# number of rings (size 3 to 8) (size 9 to 14) (size 15 to 20)
#    0.000    2.750    1.250    2.250    0.000    2.000 
#    0.000    7.500    0.000    0.000    0.000    0.875 
#    0.000    1.000    0.000    0.000    0.000    0.000 
#
# Total GULP energy -356653.581928 kJ/mol
# GULP energy per Si atom -5572.712218 kJ/mol
# Density = 1.776363 g / cm^3
# Si number density = 17.804155 Si / 1000 Ang^3
#
#
#
# Elastic Constant Matrix: (Units=GPa)
#
#
# Indices 1 2 3 4 5 6 
#
# 1 38.5880 -4.4741 -11.3352 0.0000 0.0000 0.0000
# 2 -4.4741 61.7533 -8.5294 0.0000 0.0000 0.0000
# 3 -11.3352 -8.5294 44.3295 0.0000 0.0000 0.0000
# 4 0.0000 0.0000 0.0000 14.7667 0.0000 0.0000
# 5 0.0000 0.0000 0.0000 0.0000 14.5133 0.0000
# 6 0.0000 0.0000 0.0000 0.0000 0.0000 6.3619
#
#
#
# Elastic Compliance Matrix: (Units=1/GPa)
#
#
# Indices 1 2 3 4 5 6 
#
# 1 0.028610 0.003167 0.007925 0.000000 0.000000 0.000000
# 2 0.003167 0.016986 0.004078 0.000000 0.000000 0.000000
# 3 0.007925 0.004078 0.025370 0.000000 0.000000 0.000000
# 4 0.000000 0.000000 0.000000 0.067720 0.000000 0.000000
# 5 0.000000 0.000000 0.000000 0.000000 0.068902 0.000000
# 6 0.000000 0.000000 0.000000 0.000000 0.000000 0.157186
#
#
# Mechanical properties :
#
#
# Convention : Reuss Voigt Hill
#
# Bulk Modulus (GPa) = 9.87097 10.66596 10.26846
# Shear Modulus (GPa) = 13.57950 18.39567 15.98758
#
# Velocity S-wave (km/s) = 2.76473 3.21787 2.99986
# Velocity P-wave (km/s) = 3.96836 4.45084 4.21650
#
# Compressibility (1/GPa) = 0.10130720
#
# Stress axis : x y z
#
# Youngs Moduli (GPa) = 34.95283 58.87124 39.41739
#
# Poissons Ratio (x) = -0.18647 -0.31239
# Poissons Ratio (y) = -0.11071 -0.16075
# Poissons Ratio (z) = -0.27700 -0.24009
#
# Static dielectric constant tensor:
#      x y z
#    x 1.680220 0.000000 0.000000 
#    y 0.000000 1.625050 0.000000 
#    z 0.000000 0.000000 1.615030 
# 
# From -- ./inp_files/21803.got.cif
#   From: 2010.05.17/outbox.cif.g08.bks.cpg/sg59_11_cif.got.tgz:21803.got - 2010.06.03 14:40:33.
