data_PCOD9446088
_publ_section_title
;
Structure prediction by ZEFSAII (Michael W. Deem and Ramdas Pophale) SiO2 
 PCOD9446088
Probable space group: P N N M
;
_chemical_formula_sum "Si O2"
_cell_formula_units_Z 48
_cell_length_a 18.000000
_cell_length_b 9.000000
_cell_length_c 15.000000
_cell_angle_alpha 90.000000
_cell_angle_beta 90.000000
_cell_angle_gamma 90.000000
_cell_volume 2430.000000
_symmetry_space_group_name_H-M "P N N M"
_symmetry_group_IT_number 58
_symmetry_cell_setting 'orthorhombic'
loop_
_space_group_symop_operation_xyz
x,y,z
-x,-y,z
1/2+x,1/2-y,1/2-z
1/2-x,1/2+y,1/2-z
-x,-y,-z
x,y,-z
1/2-x,1/2+y,1/2+z
1/2+x,1/2-y,1/2+z
loop_
_atom_site_type_symbol
_atom_site_label
_atom_site_fract_x
_atom_site_fract_y
_atom_site_fract_z
Si Si1 0.950303 0.745165 0.394071
Si Si2 0.688404 0.778974 0.738018
Si Si3 0.893686 0.407065 0.604299
Si Si4 0.059456 0.130739 0.100821
Si Si5 0.343720 0.572143 0.766195
Si Si6 0.054763 0.640975 0.894776
O O1 0.944456 0.782812 0.500000
O O2 0.914483 0.580311 0.381714
O O3 0.908888 0.869013 0.333723
O O4 0.036797 0.704114 0.375196
O O5 0.671005 0.864971 0.829307
O O6 0.676414 0.603968 0.761308
O O7 0.771437 0.828068 0.711439
O O8 0.628832 0.840257 0.664226
O O9 0.876596 0.389156 0.500000
O O10 0.126838 0.102494 0.166075
O O11 0.005136 0.247606 0.146180
O O12 0.082236 0.175458 0.000000
O O13 0.000000 0.000000 0.091508
O O14 0.000000 0.500000 0.896030
O O15 0.071695 0.675069 0.000000
#
# Coordination Sequence:
#
# PCOD9446088 Si02
#       6
#     8   8   8   8   8   8
#     4   9  20  40  66  91 120 160 206 256 308 369
#     4  12  26  40  61  93 130 169 207 258 316 376
#     4   9  20  40  65  91 119 161 207 252 313 373
#     4  10  21  42  68  92 120 161 213 263 313 371
#     4  12  26  40  60  94 129 170 210 256 320 371
#     4  10  23  42  68  96 122 161 211 263 315 372
#
# _framework density 19.753086
#
# number of rings (size 3 to 8) (size 9 to 14) (size 15 to 20)
#    0.000    1.667    1.667    3.000    7.000    2.000 
#    0.000    1.667    0.000    0.000    0.000    0.000 
#    0.000    0.000    0.000    0.000    0.000    0.000 
#
# Total GULP energy -267372.845657 kJ/mol
# GULP energy per Si atom -5570.267618 kJ/mol
# Density = 1.970813 g / cm^3
# Si number density = 19.753086 Si / 1000 Ang^3
#
#
#
# Elastic Constant Matrix: (Units=GPa)
#
#
# Indices 1 2 3 4 5 6 
#
# 1 50.1389 17.3519 16.5040 0.0000 0.0000 0.0000
# 2 17.3519 40.7687 12.3644 0.0000 0.0000 0.0000
# 3 16.5040 12.3644 70.8365 0.0000 0.0000 0.0000
# 4 0.0000 0.0000 0.0000 23.7272 0.0000 0.0000
# 5 0.0000 0.0000 0.0000 0.0000 29.9630 0.0000
# 6 0.0000 0.0000 0.0000 0.0000 0.0000 31.6030
#
#
#
# Elastic Compliance Matrix: (Units=1/GPa)
#
#
# Indices 1 2 3 4 5 6 
#
# 1 0.024468 -0.009171 -0.004100 0.000000 0.000000 0.000000
# 2 -0.009171 0.029337 -0.002984 0.000000 0.000000 0.000000
# 3 -0.004100 -0.002984 0.015593 0.000000 0.000000 0.000000
# 4 0.000000 0.000000 0.000000 0.042146 0.000000 0.000000
# 5 0.000000 0.000000 0.000000 0.000000 0.033375 0.000000
# 6 0.000000 0.000000 0.000000 0.000000 0.000000 0.031643
#
#
# Mechanical properties :
#
#
# Convention : Reuss Voigt Hill
#
# Bulk Modulus (GPa) = 27.10864 28.24274 27.67569
# Shear Modulus (GPa) = 22.58702 24.76020 23.67361
#
# Velocity S-wave (km/s) = 3.38519 3.54430 3.46566
# Velocity P-wave (km/s) = 5.38822 5.57480 5.48230
#
# Compressibility (1/GPa) = 0.03688861
#
# Stress axis : x y z
#
# Youngs Moduli (GPa) = 40.86993 34.08688 64.13081
#
# Poissons Ratio (x) = 0.31259 0.26294
# Poissons Ratio (y) = 0.37480 0.19137
# Poissons Ratio (z) = 0.16757 0.10172
#
# Static dielectric constant tensor:
#      x y z
#    x 1.679800 0.000000 0.000000 
#    y 0.000000 1.222340 0.000000 
#    z 0.000000 0.000000 1.692290 
# 
# From -- ./inp_files/19839.got.cif
#   From: 2010.05.17/outbox.ucp.g08.bks.cvg/sg58_10_cif.got.tgz:19839.got - 2010.06.11 16:41:41.
