data_PCOD9446159
_publ_section_title
;
Structure prediction by ZEFSAII (Michael W. Deem and Ramdas Pophale) SiO2 
 PCOD9446159
Probable space group: P M M N
;
_chemical_formula_sum "Si O2"
_cell_formula_units_Z 30
_cell_length_a 10.920694
_cell_length_b 15.794830
_cell_length_c 8.864873
_cell_angle_alpha 90.000000
_cell_angle_beta 90.000000
_cell_angle_gamma 90.000000
_cell_volume 1529.106422
_symmetry_space_group_name_H-M "P M M N"
_symmetry_group_IT_number 59
_space_group.IT_coordinate_system_code '2'
_symmetry_cell_setting 'orthorhombic'
loop_
_space_group_symop_operation_xyz
x,y,z
1/2-x,1/2-y,z
1/2+x,-y,-z
-x,1/2+y,-z
-x,-y,-z
1/2+x,1/2+y,-z
1/2-x,y,z
x,1/2-y,z
loop_
_atom_site_type_symbol
_atom_site_label
_atom_site_fract_x
_atom_site_fract_y
_atom_site_fract_z
Si Si1 0.607942 0.920927 0.821975
Si Si2 0.392866 0.250000 0.680429
Si Si3 0.250000 0.654517 0.017897
Si Si4 0.750000 0.250000 0.279179
Si Si5 0.524191 0.750000 0.658380
Si Si6 0.996196 0.910805 0.146678
O O1 0.750000 0.934210 0.780827
O O2 0.562001 0.832811 0.752982
O O3 0.520601 0.999100 0.774416
O O4 0.594234 0.917555 0.003909
O O5 0.250000 0.250000 0.720777
O O6 0.409471 0.250000 0.501307
O O7 0.454315 0.165796 0.748835
O O8 0.250000 0.750000 0.082258
O O9 0.372153 0.610576 0.073025
O O10 0.250000 0.670709 0.838243
O O11 0.877481 0.250000 0.365454
#
# Coordination Sequence:
#
# PCOD9446159 Si02
#       6
#     8   4   4   2   4   8
#     4  11  22  39  66  95 123 162 211 261 311 365
#     4  12  26  45  62  90 131 169 205 253 308 377
#     4  10  16  37  66  92 127 148 208 279 295 370
#     4  10  20  40  64  88 122 162 212 256 316 368
#     4  12  25  43  62  88 130 173 207 251 310 371
#     4  11  22  38  67  95 123 162 209 260 315 362
#
# _framework density 19.619301
#
# number of rings (size 3 to 8) (size 9 to 14) (size 15 to 20)
#    0.400    0.533    5.333    2.800    0.000    2.133 
#    2.400    0.000    0.000    0.000    0.000    0.000 
#    0.000    0.000    0.000    0.000    0.000    0.000 
#
# Total GULP energy -167534.061522 kJ/mol
# GULP energy per Si atom -5584.468717 kJ/mol
# Density = 1.957465 g / cm^3
# Si number density = 19.619301 Si / 1000 Ang^3
#
#
#
# Elastic Constant Matrix: (Units=GPa)
#
#
# Indices 1 2 3 4 5 6 
#
# 1 102.1264 33.2071 14.5063 0.0000 0.0000 0.0000
# 2 33.2071 185.3311 48.3978 0.0000 0.0000 0.0000
# 3 14.5063 48.3978 40.3941 0.0000 0.0000 0.0000
# 4 0.0000 0.0000 0.0000 -3.9908 0.0000 0.0000
# 5 0.0000 0.0000 0.0000 0.0000 22.3570 0.0000
# 6 0.0000 0.0000 0.0000 0.0000 0.0000 14.6031
#
#
#
# Elastic Compliance Matrix: (Units=1/GPa)
#
#
# Indices 1 2 3 4 5 6 
#
# 1 0.010532 -0.001309 -0.002214 0.000000 0.000000 0.000000
# 2 -0.001309 0.008015 -0.009134 0.000000 0.000000 0.000000
# 3 -0.002214 -0.009134 0.036494 0.000000 0.000000 0.000000
# 4 0.000000 0.000000 0.000000 -0.250575 0.000000 0.000000
# 5 0.000000 0.000000 0.000000 0.000000 0.044729 0.000000
# 6 0.000000 0.000000 0.000000 0.000000 0.000000 0.068479
#
#
# Mechanical properties :
#
#
# Convention : Reuss Voigt Hill
#
# Bulk Modulus (GPa) = 33.63727 57.78601 45.71164
# Shear Modulus (GPa) = -106.15047 22.04320 -42.05364
#
# Velocity S-wave (km/s) = -7.36360 3.35557 -4.63480
# Velocity P-wave (km/s) = 7.42392 6.67314 2.30042
#
# Compressibility (1/GPa) = 0.02972893
#
# Stress axis : x y z
#
# Youngs Moduli (GPa) = 94.94991 124.75934 27.40143
#
# Poissons Ratio (x) = 0.16330 0.06066
# Poissons Ratio (y) = 0.12428 0.25027
# Poissons Ratio (z) = 0.21021 1.13950
#
# Static dielectric constant tensor:
#      x y z
#    x 1.686150 0.000000 0.000000 
#    y 0.000000 1.734370 0.000000 
#    z 0.000000 0.000000 1.645780 
# 
# From -- ./inp_files/6778.got.cif
#   From: 2010.05.17/outbox.cif.g08.bks.cpg/sg59_4_cif.got.tgz:6778.got - 2010.06.03 14:40:33.
