data_PCOD9446986
_publ_section_title
;
Structure prediction by ZEFSAII (Michael W. Deem and Ramdas Pophale) SiO2 
 PCOD9446986
Probable space group: P M M N
;
_chemical_formula_sum "Si O2"
_cell_formula_units_Z 56
_cell_length_a 21.499025
_cell_length_b 14.475105
_cell_length_c 10.534177
_cell_angle_alpha 90.000000
_cell_angle_beta 90.000000
_cell_angle_gamma 90.000000
_cell_volume 3278.242669
_symmetry_space_group_name_H-M "P M M N"
_symmetry_group_IT_number 59
_space_group.IT_coordinate_system_code '2'
_symmetry_cell_setting 'orthorhombic'
loop_
_space_group_symop_operation_xyz
x,y,z
1/2-x,1/2-y,z
1/2+x,-y,-z
-x,1/2+y,-z
-x,-y,-z
1/2+x,1/2+y,-z
1/2-x,y,z
x,1/2-y,z
loop_
_atom_site_type_symbol
_atom_site_label
_atom_site_fract_x
_atom_site_fract_y
_atom_site_fract_z
Si Si1 0.862114 0.854292 0.740004
Si Si2 0.593682 0.041384 0.057243
Si Si3 0.675801 0.466431 0.305478
Si Si4 0.325502 0.855685 0.442436
Si Si5 0.463181 0.142752 0.050289
Si Si6 0.679278 0.452971 0.817733
Si Si7 0.822573 0.855091 0.462542
O O1 0.837494 0.750000 0.759831
O O2 0.927290 0.860299 0.814341
O O3 0.863330 0.868692 0.588686
O O4 0.821732 0.936595 0.797546
O O5 0.635901 0.051170 0.181206
O O6 0.533051 0.105705 0.064009
O O7 0.634332 0.067933 0.934227
O O8 0.571253 0.934638 0.036373
O O9 0.750000 0.453359 0.282568
O O10 0.656479 0.404063 0.426102
O O11 0.665829 0.570818 0.354475
O O12 0.250000 0.857811 0.441921
O O13 0.346133 0.750000 0.438112
O O14 0.344085 0.908984 0.314525
O O15 0.460445 0.250000 0.006777
O O16 0.750000 0.421770 0.841228
O O17 0.750000 0.868137 0.503275
O O18 0.829573 0.750000 0.418639
#
# Coordination Sequence:
#
# PCOD9446986 Si02
#       7
#     8   8   8   8   8   8   8
#     4   9  16  29  52  77 101 134 175 213 254 308
#     4  10  21  35  55  79 102 138 178 217 260 312
#     4  10  19  33  52  81 114 139 163 206 266 322
#     4   9  18  32  49  71 104 142 173 204 250 305
#     4   9  20  38  55  71 100 141 182 222 261 297
#     4  10  18  31  52  79 107 135 171 216 260 311
#     4   9  16  27  48  78 109 138 165 200 256 321
#
# _framework density 17.082322999999999
#
# number of rings (size 3 to 8) (size 9 to 14) (size 15 to 20)
#    0.000    2.571    1.429    0.857    0.000    2.571 
#    0.000    0.714    0.000    6.857    0.000    0.000 
#    0.000    0.000    0.000    0.000    0.000    0.000 
#
# Total GULP energy -311919.360480 kJ/mol
# GULP energy per Si atom -5569.988580 kJ/mol
# Density = 1.704344 g / cm^3
# Si number density = 17.082323 Si / 1000 Ang^3
#
#
#
# Elastic Constant Matrix: (Units=GPa)
#
#
# Indices 1 2 3 4 5 6 
#
# 1 67.2474 31.7250 58.0301 0.0000 0.0000 0.0000
# 2 31.7250 80.3448 49.1875 0.0000 0.0000 0.0000
# 3 58.0301 49.1875 127.8910 0.0000 0.0000 0.0000
# 4 0.0000 0.0000 0.0000 8.6038 0.0000 0.0000
# 5 0.0000 0.0000 0.0000 0.0000 10.7258 0.0000
# 6 0.0000 0.0000 0.0000 0.0000 0.0000 16.0525
#
#
#
# Elastic Compliance Matrix: (Units=1/GPa)
#
#
# Indices 1 2 3 4 5 6 
#
# 1 0.025332 -0.003879 -0.010002 0.000000 0.000000 0.000000
# 2 -0.003879 0.016873 -0.004729 0.000000 0.000000 0.000000
# 3 -0.010002 -0.004729 0.014177 0.000000 0.000000 0.000000
# 4 0.000000 0.000000 0.000000 0.116228 0.000000 0.000000
# 5 0.000000 0.000000 0.000000 0.000000 0.093233 0.000000
# 6 0.000000 0.000000 0.000000 0.000000 0.000000 0.062296
#
#
# Mechanical properties :
#
#
# Convention : Reuss Voigt Hill
#
# Bulk Modulus (GPa) = 52.19160 61.48538 56.83849
# Shear Modulus (GPa) = 13.44999 16.17911 14.81455
#
# Velocity S-wave (km/s) = 2.80904 3.08088 2.94810
# Velocity P-wave (km/s) = 6.41407 6.98051 6.70327
#
# Compressibility (1/GPa) = 0.01916017
#
# Stress axis : x y z
#
# Youngs Moduli (GPa) = 39.47601 59.26457 70.53846
#
# Poissons Ratio (x) = 0.22989 0.70555
# Poissons Ratio (y) = 0.15313 0.33361
# Poissons Ratio (z) = 0.39485 0.28029
#
# Static dielectric constant tensor:
#      x y z
#    x 1.566660 0.000000 0.000000 
#    y 0.000000 1.604040 0.000000 
#    z 0.000000 0.000000 1.556450 
# 
# From -- ./inp_files/11461.got.cif
#   From: 2010.05.17/outbox.cif.g08.bks.cpg/sg59_6_cif.got.tgz:11461.got - 2010.06.03 14:40:33.
