data_PCOD9446808
_publ_section_title
;
Structure prediction by ZEFSAII (Michael W. Deem and Ramdas Pophale) SiO2 
 PCOD9446808
Probable space group: P M M N
;
_chemical_formula_sum "Si O2"
_cell_formula_units_Z 64
_cell_length_a 7.834652
_cell_length_b 20.309798
_cell_length_c 21.067180
_cell_angle_alpha 90.000000
_cell_angle_beta 90.000000
_cell_angle_gamma 90.000000
_cell_volume 3352.213885
_symmetry_space_group_name_H-M "P M M N"
_symmetry_group_IT_number 59
_space_group.IT_coordinate_system_code '2'
_symmetry_cell_setting 'orthorhombic'
loop_
_space_group_symop_operation_xyz
x,y,z
1/2-x,1/2-y,z
1/2+x,-y,-z
-x,1/2+y,-z
-x,-y,-z
1/2+x,1/2+y,-z
1/2-x,y,z
x,1/2-y,z
loop_
_atom_site_type_symbol
_atom_site_label
_atom_site_fract_x
_atom_site_fract_y
_atom_site_fract_z
Si Si1 0.543738 0.426974 0.475863
Si Si2 0.958855 0.175090 0.582675
Si Si3 0.545855 0.426627 0.976947
Si Si4 0.457518 0.912722 0.301209
Si Si5 0.547411 0.438624 0.335636
Si Si6 0.048385 0.581215 0.802682
Si Si7 0.047201 0.175636 0.086282
Si Si8 0.949712 0.064156 0.837391
O O1 0.500000 0.500000 0.500000
O O2 0.750000 0.422962 0.474242
O O3 0.483118 0.372743 0.526080
O O4 0.477369 0.417519 0.404022
O O5 0.750000 0.174911 0.581906
O O6 0.015443 0.250000 0.575323
O O7 0.010754 0.143404 0.649844
O O8 0.750000 0.424210 0.973984
O O9 0.475589 0.416594 0.905541
O O10 0.500000 0.500000 0.000000
O O11 0.489721 0.371884 0.026985
O O12 0.250000 0.914554 0.299858
O O13 0.520587 0.907165 0.228634
O O14 0.516987 0.983261 0.327733
O O15 0.750000 0.426084 0.337676
O O16 0.483091 0.408041 0.269266
O O17 0.250000 0.566446 0.798931
O O18 0.022871 0.640878 0.850545
O O19 0.963519 0.515048 0.830278
O O20 0.250000 0.178530 0.093541
O O21 0.981447 0.250000 0.077481
O O22 0.750000 0.081969 0.838651
#
# Coordination Sequence:
#
# PCOD9446808 Si02
#       8
#     8   8   8   8   8   8   8   8
#     4  10  18  30  49  74 103 134 173 215 258 307
#     4   9  17  29  47  72 101 134 172 211 254 304
#     4  11  21  34  55  82 111 141 176 219 267 321
#     4   9  16  29  49  73  98 130 169 207 251 304
#     4   9  18  30  47  75 105 128 163 215 264 307
#     4  10  19  32  52  77 103 134 171 216 268 321
#     4  11  24  40  56  76 106 144 183 225 273 323
#     4   9  18  31  50  77 106 131 165 212 260 309
#
# _framework density 19.091861999999999
#
# number of rings (size 3 to 8) (size 9 to 14) (size 15 to 20)
#    0.000    2.250    2.500    1.125    0.000    2.000 
#    0.000    1.250    0.000    6.000    0.000    0.000 
#    0.000    0.000    0.000    0.000    0.000    0.000 
#
# Total GULP energy -356946.231823 kJ/mol
# GULP energy per Si atom -5577.284872 kJ/mol
# Density = 1.904841 g / cm^3
# Si number density = 19.091862 Si / 1000 Ang^3
#
#
#
# Elastic Constant Matrix: (Units=GPa)
#
#
# Indices 1 2 3 4 5 6 
#
# 1 21.7789 -10.8166 1.3372 0.0000 0.0000 0.0000
# 2 -10.8166 117.2671 90.5473 0.0000 0.0000 0.0000
# 3 1.3372 90.5473 200.9235 0.0000 0.0000 0.0000
# 4 0.0000 0.0000 0.0000 24.8186 0.0000 0.0000
# 5 0.0000 0.0000 0.0000 0.0000 12.7553 0.0000
# 6 0.0000 0.0000 0.0000 0.0000 0.0000 17.0905
#
#
#
# Elastic Compliance Matrix: (Units=1/GPa)
#
#
# Indices 1 2 3 4 5 6 
#
# 1 0.049839 0.007443 -0.003686 0.000000 0.000000 0.000000
# 2 0.007443 0.014190 -0.006444 0.000000 0.000000 0.000000
# 3 -0.003686 -0.006444 0.007906 0.000000 0.000000 0.000000
# 4 0.000000 0.000000 0.000000 0.040292 0.000000 0.000000
# 5 0.000000 0.000000 0.000000 0.000000 0.078399 0.000000
# 6 0.000000 0.000000 0.000000 0.000000 0.000000 0.058512
#
#
# Mechanical properties :
#
#
# Convention : Reuss Voigt Hill
#
# Bulk Modulus (GPa) = 15.02390 55.78948 35.40669
# Shear Modulus (GPa) = 18.07014 28.19298 23.13156
#
# Velocity S-wave (km/s) = 3.07984 3.84696 3.48457
# Velocity P-wave (km/s) = 4.53139 7.00122 5.89706
#
# Compressibility (1/GPa) = 0.06656060
#
# Stress axis : x y z
#
# Youngs Moduli (GPa) = 20.06458 70.47167 126.49030
#
# Poissons Ratio (x) = -0.52454 0.46625
# Poissons Ratio (y) = -0.14935 0.81515
# Poissons Ratio (z) = 0.07396 0.45415
#
# Static dielectric constant tensor:
#      x y z
#    x 1.698980 0.000000 0.000000 
#    y 0.000000 1.615680 0.000000 
#    z 0.000000 0.000000 1.709950 
# 
# From -- ./inp_files/29418.got.cif
#   From: 2010.05.17/outbox.cif.g08.bks.cpg/sg59_15_cif.got.tgz:29418.got - 2010.06.03 14:40:33.
