data_PCOD9446536
_publ_section_title
;
Structure prediction by ZEFSAII (Michael W. Deem and Ramdas Pophale) SiO2 
 PCOD9446536
Probable space group: P M M N
;
_chemical_formula_sum "Si O2"
_cell_formula_units_Z 40
_cell_length_a 7.663033
_cell_length_b 17.038793
_cell_length_c 13.640173
_cell_angle_alpha 90.000000
_cell_angle_beta 90.000000
_cell_angle_gamma 90.000000
_cell_volume 1780.981471
_symmetry_space_group_name_H-M "P M M N"
_symmetry_group_IT_number 59
_space_group.IT_coordinate_system_code '2'
_symmetry_cell_setting 'orthorhombic'
loop_
_space_group_symop_operation_xyz
x,y,z
1/2-x,1/2-y,z
1/2+x,-y,-z
-x,1/2+y,-z
-x,-y,-z
1/2+x,1/2+y,-z
1/2-x,y,z
x,1/2-y,z
loop_
_atom_site_type_symbol
_atom_site_label
_atom_site_fract_x
_atom_site_fract_y
_atom_site_fract_z
Si Si1 0.460121 0.899210 0.089503
Si Si2 0.046333 0.951344 0.674742
Si Si3 0.449714 0.628139 0.295912
Si Si4 0.042818 0.078624 0.119335
Si Si5 0.036499 0.664138 0.509106
O O1 0.250000 0.900688 0.096526
O O2 0.525299 0.855767 0.187656
O O3 0.525967 0.989481 0.099745
O O4 0.502940 0.873259 0.979337
O O5 0.250000 0.969776 0.659778
O O6 0.977509 0.904536 0.581045
O O7 0.030019 0.900147 0.774194
O O8 0.950888 0.033497 0.692751
O O9 0.250000 0.656553 0.294471
O O10 0.528674 0.657407 0.397530
O O11 0.250000 0.075072 0.128758
O O12 0.250000 0.658899 0.506401
O O13 0.991247 0.750000 0.548197
#
# Coordination Sequence:
#
# PCOD9446536 Si02
#       5
#     8   8   8   8   8
#     4   8  14  24  40  65  93 119 148 183 226 272
#     4  10  18  28  47  72  96 122 153 191 229 269
#     4   9  17  30  49  71  95 122 152 189 230 274
#     4   9  16  26  42  65  94 124 151 184 227 272
#     4   9  18  32  49  69  93 122 156 193 232 272
#
# _framework density 22.459527000000001
#
# number of rings (size 3 to 8) (size 9 to 14) (size 15 to 20)
#    0.000    3.000    0.000    3.000    0.000    4.800 
#    0.000    1.000    0.000    6.600    0.000    5.600 
#    0.000    0.000    0.000    0.000    0.000    0.000 
#
# Total GULP energy -222889.548300 kJ/mol
# GULP energy per Si atom -5572.238707 kJ/mol
# Density = 2.240841 g / cm^3
# Si number density = 22.459527 Si / 1000 Ang^3
#
#
#
# Elastic Constant Matrix: (Units=GPa)
#
#
# Indices 1 2 3 4 5 6 
#
# 1 55.2401 0.4390 -0.9193 0.0000 0.0000 0.0000
# 2 0.4390 42.6998 28.8886 0.0000 0.0000 0.0000
# 3 -0.9193 28.8886 131.5111 0.0000 0.0000 0.0000
# 4 0.0000 0.0000 0.0000 -4.4890 0.0000 0.0000
# 5 0.0000 0.0000 0.0000 0.0000 14.8460 0.0000
# 6 0.0000 0.0000 0.0000 0.0000 0.0000 -1.9253
#
#
#
# Elastic Compliance Matrix: (Units=1/GPa)
#
#
# Indices 1 2 3 4 5 6 
#
# 1 0.018109 -0.000319 0.000197 0.000000 0.000000 0.000000
# 2 -0.000319 0.027513 -0.006046 0.000000 0.000000 0.000000
# 3 0.000197 -0.006046 0.008933 0.000000 0.000000 0.000000
# 4 0.000000 0.000000 0.000000 -0.222768 0.000000 0.000000
# 5 0.000000 0.000000 0.000000 0.000000 0.067358 0.000000
# 6 0.000000 0.000000 0.000000 0.000000 0.000000 -0.519399
#
#
# Mechanical properties :
#
#
# Convention : Reuss Voigt Hill
#
# Bulk Modulus (GPa) = 23.68655 31.80748 27.74701
# Shear Modulus (GPa) = -8.41972 15.08920 3.33474
#
# Velocity S-wave (km/s) = -1.93829 2.59480 1.21984
# Velocity P-wave (km/s) = 2.35795 4.81354 3.79013
#
# Compressibility (1/GPa) = 0.04221806
#
# Stress axis : x y z
#
# Youngs Moduli (GPa) = 55.22236 36.34656 111.93976
#
# Poissons Ratio (x) = 0.01160 -0.02202
# Poissons Ratio (y) = 0.01763 0.67678
# Poissons Ratio (z) = -0.01086 0.21975
#
# Static dielectric constant tensor:
#      x y z
#    x 1.814840 0.000000 0.000000 
#    y 0.000000 1.838440 0.000000 
#    z 0.000000 0.000000 1.914790 
# 
# From -- ./inp_files/18140.got.cif
#   From: 2010.05.17/outbox.cif.g08.bks.cpg/sg59_10_cif.got.tgz:18140.got - 2010.06.03 14:40:33.
