data_PCOD9446719
_publ_section_title
;
Structure prediction by ZEFSAII (Michael W. Deem and Ramdas Pophale) SiO2 
 PCOD9446719
Probable space group: P M M N
;
_chemical_formula_sum "Si O2"
_cell_formula_units_Z 64
_cell_length_a 7.557367
_cell_length_b 23.807887
_cell_length_c 20.026039
_cell_angle_alpha 90.000000
_cell_angle_beta 90.000000
_cell_angle_gamma 90.000000
_cell_volume 3603.183857
_symmetry_space_group_name_H-M "P M M N"
_symmetry_group_IT_number 59
_space_group.IT_coordinate_system_code '2'
_symmetry_cell_setting 'orthorhombic'
loop_
_space_group_symop_operation_xyz
x,y,z
1/2-x,1/2-y,z
1/2+x,-y,-z
-x,1/2+y,-z
-x,-y,-z
1/2+x,1/2+y,-z
1/2-x,y,z
x,1/2-y,z
loop_
_atom_site_type_symbol
_atom_site_label
_atom_site_fract_x
_atom_site_fract_y
_atom_site_fract_z
Si Si1 0.461349 0.977152 0.604249
Si Si2 0.965031 0.020544 0.103650
Si Si3 0.459331 0.620807 0.248298
Si Si4 0.459604 0.909632 0.019794
Si Si5 0.037152 0.086855 0.524163
Si Si6 0.533128 0.185588 0.885005
Si Si7 0.463615 0.186229 0.615311
Si Si8 0.046124 0.508489 0.749174
O O1 0.250000 0.984462 0.610575
O O2 0.492351 0.927215 0.552100
O O3 0.533351 0.970973 0.679045
O O4 0.529826 0.034166 0.568713
O O5 0.750000 0.021804 0.104613
O O6 0.031735 0.025610 0.179248
O O7 0.029611 0.067029 0.050642
O O8 0.014942 0.960197 0.072709
O O9 0.250000 0.611230 0.240617
O O10 0.522020 0.655233 0.183631
O O11 0.490392 0.656893 0.314677
O O12 0.543725 0.559404 0.253606
O O13 0.250000 0.901894 0.010715
O O14 0.528430 0.852950 0.053420
O O15 0.250000 0.086519 0.528782
O O16 0.973716 0.144756 0.556479
O O17 0.750000 0.185617 0.884948
O O18 0.475770 0.250000 0.887754
O O19 0.250000 0.188319 0.611794
O O20 0.529905 0.250000 0.611832
O O21 0.250000 0.527693 0.750702
#
# Coordination Sequence:
#
# PCOD9446719 Si02
#       8
#     8   8   8   8   8   8   8   8
#     4   9  17  29  45  62  85 114 142 178 222 263
#     4   9  17  27  44  64  85 112 143 180 218 259
#     4  11  20  29  43  64  91 120 153 184 212 250
#     4   9  16  28  43  62  85 112 146 181 218 256
#     4   9  17  30  45  64  86 110 145 181 213 258
#     4   9  17  28  41  59  87 119 148 179 213 249
#     4  10  20  34  49  64  88 122 152 180 216 256
#     4  10  18  30  45  64  90 118 148 178 220 270
#
# _framework density 17.762067999999999
#
# number of rings (size 3 to 8) (size 9 to 14) (size 15 to 20)
#    0.000    2.500    2.500    0.750    0.000    1.750 
#    0.000    0.000    0.000    1.125    0.000    0.875 
#    0.000    3.000    0.000    0.000    0.000    0.000 
#
# Total GULP energy -356929.734739 kJ/mol
# GULP energy per Si atom -5577.027105 kJ/mol
# Density = 1.772164 g / cm^3
# Si number density = 17.762068 Si / 1000 Ang^3
#
#
#
# Elastic Constant Matrix: (Units=GPa)
#
#
# Indices 1 2 3 4 5 6 
#
# 1 41.7141 -4.8943 -3.3907 0.0000 0.0000 0.0000
# 2 -4.8943 71.8084 63.9500 0.0000 0.0000 0.0000
# 3 -3.3907 63.9500 173.6532 0.0000 0.0000 0.0000
# 4 0.0000 0.0000 0.0000 20.5851 0.0000 0.0000
# 5 0.0000 0.0000 0.0000 0.0000 5.1732 0.0000
# 6 0.0000 0.0000 0.0000 0.0000 0.0000 6.2182
#
#
#
# Elastic Compliance Matrix: (Units=1/GPa)
#
#
# Indices 1 2 3 4 5 6 
#
# 1 0.024171 0.001826 -0.000200 0.000000 0.000000 0.000000
# 2 0.001826 0.020860 -0.007646 0.000000 0.000000 0.000000
# 3 -0.000200 -0.007646 0.008571 0.000000 0.000000 0.000000
# 4 0.000000 0.000000 0.000000 0.048579 0.000000 0.000000
# 5 0.000000 0.000000 0.000000 0.000000 0.193304 0.000000
# 6 0.000000 0.000000 0.000000 0.000000 0.000000 0.160819
#
#
# Mechanical properties :
#
#
# Convention : Reuss Voigt Hill
#
# Bulk Modulus (GPa) = 24.06187 44.27838 34.17012
# Shear Modulus (GPa) = 10.36919 21.82935 16.09927
#
# Velocity S-wave (km/s) = 2.41878 3.50949 3.01389
# Velocity P-wave (km/s) = 4.62351 6.43466 5.60275
#
# Compressibility (1/GPa) = 0.04155953
#
# Stress axis : x y z
#
# Youngs Moduli (GPa) = 41.37247 47.93889 116.67899
#
# Poissons Ratio (x) = -0.08754 0.02339
# Poissons Ratio (y) = -0.07554 0.89216
# Poissons Ratio (z) = 0.00829 0.36655
#
# Static dielectric constant tensor:
#      x y z
#    x 1.661500 0.000000 0.000000 
#    y 0.000000 1.581550 0.000000 
#    z 0.000000 0.000000 1.635260 
# 
# From -- ./inp_files/29860.got.cif
#   From: 2010.05.17/outbox.cif.g08.bks.cpg/sg59_15_cif.got.tgz:29860.got - 2010.06.03 14:40:33.
