data_PCOD9446201
_publ_section_title
;
Structure prediction by ZEFSAII (Michael W. Deem and Ramdas Pophale) SiO2 
 PCOD9446201
Probable space group: P M M N
;
_chemical_formula_sum "Si O2"
_cell_formula_units_Z 56
_cell_length_a 25.435305
_cell_length_b 8.573173
_cell_length_c 16.672910
_cell_angle_alpha 90.000000
_cell_angle_beta 90.000000
_cell_angle_gamma 90.000000
_cell_volume 3635.715930
_symmetry_space_group_name_H-M "P M M N"
_symmetry_group_IT_number 59
_space_group.IT_coordinate_system_code '2'
_symmetry_cell_setting 'orthorhombic'
loop_
_space_group_symop_operation_xyz
x,y,z
1/2-x,1/2-y,z
1/2+x,-y,-z
-x,1/2+y,-z
-x,-y,-z
1/2+x,1/2+y,-z
1/2-x,y,z
x,1/2-y,z
loop_
_atom_site_type_symbol
_atom_site_label
_atom_site_fract_x
_atom_site_fract_y
_atom_site_fract_z
Si Si1 0.510282 0.562507 0.808785
Si Si2 0.402172 0.062310 0.884841
Si Si3 0.584439 0.063520 0.485104
Si Si4 0.190885 0.439826 0.769433
Si Si5 0.809947 0.938292 0.415009
Si Si6 0.054414 0.564051 0.038279
Si Si7 0.987304 0.938263 0.624235
O O1 0.509016 0.750000 0.813128
O O2 0.454512 0.497389 0.839974
O O3 0.553678 0.499988 0.871373
O O4 0.517874 0.513926 0.716673
O O5 0.403857 0.250000 0.887934
O O6 0.352662 0.009006 0.832362
O O7 0.402738 0.997284 0.975337
O O8 0.585600 0.250000 0.485639
O O9 0.543245 0.012819 0.415002
O O10 0.642569 0.001092 0.468162
O O11 0.558164 0.003693 0.567052
O O12 0.250000 0.489449 0.790359
O O13 0.190280 0.250000 0.769274
O O14 0.180205 0.487823 0.677580
O O15 0.750000 0.986409 0.436266
O O16 0.811002 0.750000 0.417083
O O17 0.053226 0.750000 0.038714
O O18 0.000000 0.500000 0.000000
O O19 0.985463 0.750000 0.621286
#
# Coordination Sequence:
#
# PCOD9446201 Si02
#       7
#     8   8   8   8   8   8   8
#     4  10  18  29  44  62  86 113 144 178 212 252
#     4  10  17  26  43  64  87 115 144 175 213 252
#     4  10  19  30  45  66  91 117 147 182 220 263
#     4   8  15  27  43  64  87 113 147 180 207 244
#     4   9  17  30  47  65  88 119 151 182 217 257
#     4  10  18  28  41  59  85 112 141 173 207 250
#     4   9  19  32  45  63  89 120 148 179 221 267
#
# _framework density 15.402742999999999
#
# number of rings (size 3 to 8) (size 9 to 14) (size 15 to 20)
#    0.000    2.571    0.000    6.000    0.000    2.000 
#    0.000    0.714    0.000    3.429    0.000    1.000 
#    0.000    3.429    0.000    0.000    0.000    0.000 
#
# Total GULP energy -312053.376326 kJ/mol
# GULP energy per Si atom -5572.381720 kJ/mol
# Density = 1.536769 g / cm^3
# Si number density = 15.402743 Si / 1000 Ang^3
#
#
#
# Elastic Constant Matrix: (Units=GPa)
#
#
# Indices 1 2 3 4 5 6 
#
# 1 99.6016 21.2002 64.8660 0.0000 0.0000 0.0000
# 2 21.2002 45.3655 33.8731 0.0000 0.0000 0.0000
# 3 64.8660 33.8731 133.1237 0.0000 0.0000 0.0000
# 4 0.0000 0.0000 0.0000 19.7332 0.0000 0.0000
# 5 0.0000 0.0000 0.0000 0.0000 26.7824 0.0000
# 6 0.0000 0.0000 0.0000 0.0000 0.0000 17.7531
#
#
#
# Elastic Compliance Matrix: (Units=1/GPa)
#
#
# Indices 1 2 3 4 5 6 
#
# 1 0.014838 -0.001896 -0.006748 0.000000 0.000000 0.000000
# 2 -0.001896 0.027456 -0.006062 0.000000 0.000000 0.000000
# 3 -0.006748 -0.006062 0.012342 0.000000 0.000000 0.000000
# 4 0.000000 0.000000 0.000000 0.050676 0.000000 0.000000
# 5 0.000000 0.000000 0.000000 0.000000 0.037338 0.000000
# 6 0.000000 0.000000 0.000000 0.000000 0.000000 0.056328
#
#
# Mechanical properties :
#
#
# Convention : Reuss Voigt Hill
#
# Bulk Modulus (GPa) = 39.64412 57.55215 48.59814
# Shear Modulus (GPa) = 21.11510 23.39718 22.25614
#
# Velocity S-wave (km/s) = 3.70654 3.90170 3.80537
# Velocity P-wave (km/s) = 6.64170 7.59892 7.13638
#
# Compressibility (1/GPa) = 0.02522442
#
# Stress axis : x y z
#
# Youngs Moduli (GPa) = 67.39496 36.42232 81.02306
#
# Poissons Ratio (x) = 0.06905 0.54671
# Poissons Ratio (y) = 0.12777 0.49118
# Poissons Ratio (z) = 0.45475 0.22080
#
# Static dielectric constant tensor:
#      x y z
#    x 1.507030 0.000000 0.000000 
#    y 0.000000 1.529010 0.000000 
#    z 0.000000 0.000000 1.526770 
# 
# From -- ./inp_files/28085.got.cif
#   From: 2010.05.17/outbox.cif.g08.bks.cpg/sg59_15_cif.got.tgz:28085.got - 2010.06.03 14:40:33.
