data_PCOD9446119
_publ_section_title
;
Structure prediction by ZEFSAII (Michael W. Deem and Ramdas Pophale) SiO2 
 PCOD9446119
Probable space group: P N N M
;
_chemical_formula_sum "Si O2"
_cell_formula_units_Z 56
_cell_length_a 9.000000
_cell_length_b 15.000000
_cell_length_c 21.000000
_cell_angle_alpha 90.000000
_cell_angle_beta 90.000000
_cell_angle_gamma 90.000000
_cell_volume 2835.000000
_symmetry_space_group_name_H-M "P N N M"
_symmetry_group_IT_number 58
_symmetry_cell_setting 'orthorhombic'
loop_
_space_group_symop_operation_xyz
x,y,z
-x,-y,z
1/2+x,1/2-y,1/2-z
1/2-x,1/2+y,1/2-z
-x,-y,-z
x,y,-z
1/2-x,1/2+y,1/2+z
1/2+x,1/2-y,1/2+z
loop_
_atom_site_type_symbol
_atom_site_label
_atom_site_fract_x
_atom_site_fract_y
_atom_site_fract_z
Si Si1 0.536387 0.247661 0.843345
Si Si2 0.024339 0.253068 0.146043
Si Si3 0.772562 0.187436 0.926448
Si Si4 0.568451 0.400810 0.750470
Si Si5 0.214133 0.702121 0.574388
Si Si6 0.572772 0.900712 0.741820
Si Si7 0.668363 0.490875 0.423647
O O1 0.704185 0.239880 0.866966
O O2 0.515513 0.344053 0.812180
O O3 0.452748 0.226623 0.908932
O O4 0.490330 0.167643 0.795793
O O5 0.943512 0.215583 0.082737
O O6 0.968994 0.344122 0.178221
O O7 0.021757 0.169737 0.195310
O O8 0.192299 0.263537 0.122074
O O9 0.749643 0.083215 0.910115
O O10 0.731118 0.202569 0.000000
O O11 0.500000 0.500000 0.746681
O O12 0.748405 0.407820 0.751333
O O13 0.244502 0.712695 0.500000
O O14 0.250411 0.599881 0.594202
O O15 0.500000 0.000000 0.744280
O O16 0.500000 0.500000 0.398761
O O17 0.657171 0.487749 0.500000
#
# Coordination Sequence:
#
# PCOD9446119 Si02
#       7
#     8   8   8   8   8   8   8
#     4  11  25  42  62  94 128 160 206 253 314 372
#     4  11  23  40  65  93 125 164 212 248 306 376
#     4  11  22  38  63  91 128 169 201 250 309 375
#     4  11  26  43  66  91 122 165 210 263 312 355
#     4  11  22  38  62  94 130 165 201 250 310 378
#     4  11  26  43  65  93 122 162 213 265 305 358
#     4   9  18  31  51  86 124 163 200 231 284 360
#
# _framework density 19.753086
#
# number of rings (size 3 to 8) (size 9 to 14) (size 15 to 20)
#    0.000    1.286    4.286    0.857    8.000    0.000 
#    0.000    2.143    0.000    5.143    0.000    0.000 
#    0.000    0.000    0.000    0.000    0.000    0.000 
#
# Total GULP energy -312118.212162 kJ/mol
# GULP energy per Si atom -5573.539503 kJ/mol
# Density = 1.970813 g / cm^3
# Si number density = 19.753086 Si / 1000 Ang^3
#
#
#
# Elastic Constant Matrix: (Units=GPa)
#
#
# Indices 1 2 3 4 5 6 
#
# 1 28.1576 34.4435 12.3196 0.0000 0.0000 0.0000
# 2 34.4435 131.5910 45.4494 0.0000 0.0000 0.0000
# 3 12.3196 45.4494 81.5632 0.0000 0.0000 0.0000
# 4 0.0000 0.0000 0.0000 29.6254 0.0000 0.0000
# 5 0.0000 0.0000 0.0000 0.0000 36.9873 0.0000
# 6 0.0000 0.0000 0.0000 0.0000 0.0000 29.2443
#
#
#
# Elastic Compliance Matrix: (Units=1/GPa)
#
#
# Indices 1 2 3 4 5 6 
#
# 1 0.052248 -0.013560 -0.000336 0.000000 0.000000 0.000000
# 2 -0.013560 0.012930 -0.005157 0.000000 0.000000 0.000000
# 3 -0.000336 -0.005157 0.015185 0.000000 0.000000 0.000000
# 4 0.000000 0.000000 0.000000 0.033755 0.000000 0.000000
# 5 0.000000 0.000000 0.000000 0.000000 0.027036 0.000000
# 6 0.000000 0.000000 0.000000 0.000000 0.000000 0.034195
#
#
# Mechanical properties :
#
#
# Convention : Reuss Voigt Hill
#
# Bulk Modulus (GPa) = 23.66421 47.30409 35.48415
# Shear Modulus (GPa) = 21.97427 29.11134 25.54280
#
# Velocity S-wave (km/s) = 3.33896 3.84313 3.59988
# Velocity P-wave (km/s) = 5.18371 6.61003 5.93984
#
# Compressibility (1/GPa) = 0.04225791
#
# Stress axis : x y z
#
# Youngs Moduli (GPa) = 19.13936 77.34220 65.85633
#
# Poissons Ratio (x) = 1.04875 0.02212
# Poissons Ratio (y) = 0.25953 0.33959
# Poissons Ratio (z) = 0.00643 0.39882
#
# Static dielectric constant tensor:
#      x y z
#    x 1.714860 0.000000 0.000000 
#    y 0.000000 1.645640 0.000000 
#    z 0.000000 0.000000 1.708030 
# 
# From -- ./inp_files/28967.got.cif
#   From: 2010.05.17/outbox.ucp.g08.bks.cvg/sg58_15_cif.got.tgz:28967.got - 2010.06.11 16:41:41.
