data_PCOD9446548
_publ_section_title
;
Structure prediction by ZEFSAII (Michael W. Deem and Ramdas Pophale) SiO2 
 PCOD9446548
Probable space group: P M M N
;
_chemical_formula_sum "Si O2"
_cell_formula_units_Z 64
_cell_length_a 15.037197
_cell_length_b 8.037463
_cell_length_c 29.188211
_cell_angle_alpha 90.000000
_cell_angle_beta 90.000000
_cell_angle_gamma 90.000000
_cell_volume 3527.713874
_symmetry_space_group_name_H-M "P M M N"
_symmetry_group_IT_number 59
_space_group.IT_coordinate_system_code '2'
_symmetry_cell_setting 'orthorhombic'
loop_
_space_group_symop_operation_xyz
x,y,z
1/2-x,1/2-y,z
1/2+x,-y,-z
-x,1/2+y,-z
-x,-y,-z
1/2+x,1/2+y,-z
1/2-x,y,z
x,1/2-y,z
loop_
_atom_site_type_symbol
_atom_site_label
_atom_site_fract_x
_atom_site_fract_y
_atom_site_fract_z
Si Si1 0.147506 0.547370 0.528818
Si Si2 0.030464 0.950346 0.613693
Si Si3 0.149380 0.950502 0.425091
Si Si4 0.098177 0.950020 0.983874
Si Si5 0.149114 0.051953 0.799857
Si Si6 0.654660 0.451255 0.918928
Si Si7 0.541305 0.051790 0.112025
Si Si8 0.851386 0.449898 0.302250
O O1 0.250000 0.502512 0.539090
O O2 0.144093 0.750000 0.528557
O O3 0.081747 0.487048 0.568206
O O4 0.126952 0.491153 0.477041
O O5 0.036986 0.750000 0.613500
O O6 0.081524 0.012138 0.658834
O O7 0.927534 0.995199 0.609009
O O8 0.250000 0.006683 0.414435
O O9 0.150798 0.750000 0.426239
O O10 0.109021 0.750000 0.982148
O O11 0.100242 0.012594 0.931521
O O12 0.153663 0.008468 0.027686
O O13 0.000000 0.000000 0.000000
O O14 0.250000 0.987118 0.808549
O O15 0.153481 0.250000 0.797955
O O16 0.083128 0.004564 0.840465
O O17 0.121367 0.990634 0.749571
O O18 0.750000 0.504397 0.898450
O O19 0.652789 0.250000 0.918979
O O20 0.562180 0.504952 0.895761
O O21 0.545432 0.250000 0.110391
O O22 0.750000 0.512642 0.309099
O O23 0.847924 0.250000 0.306346
#
# Coordination Sequence:
#
# PCOD9446548 Si02
#       8
#     8   8   8   8   8   8   8   8
#     4   8  14  26  44  67  96 128 160 192 228 275
#     4  10  18  28  48  74  95 120 156 197 238 277
#     4   9  18  31  45  63  93 133 168 194 225 270
#     4   8  15  27  43  65  93 126 162 197 233 273
#     4  10  21  36  53  73  97 125 157 195 241 292
#     4   9  17  30  48  70 100 137 171 202 237 279
#     4  10  19  31  50  74 100 130 164 203 243 285
#     4   9  18  33  52  74  98 121 148 187 239 296
#
# _framework density 18.142061999999999
#
# number of rings (size 3 to 8) (size 9 to 14) (size 15 to 20)
#    0.000    2.875    0.000    2.250    0.000    4.250 
#    0.000    1.250    0.000    2.625    0.000    3.500 
#    0.000    0.000    0.000    0.000    0.000    0.000 
#
# Total GULP energy -356459.230592 kJ/mol
# GULP energy per Si atom -5569.675478 kJ/mol
# Density = 1.810077 g / cm^3
# Si number density = 18.142062 Si / 1000 Ang^3
#
#
#
# Elastic Constant Matrix: (Units=GPa)
#
#
# Indices 1 2 3 4 5 6 
#
# 1 111.2085 7.4598 90.6177 0.0000 0.0000 0.0000
# 2 7.4598 14.6869 11.2069 0.0000 0.0000 0.0000
# 3 90.6177 11.2069 132.1522 0.0000 0.0000 0.0000
# 4 0.0000 0.0000 0.0000 14.1168 0.0000 0.0000
# 5 0.0000 0.0000 0.0000 0.0000 9.5785 0.0000
# 6 0.0000 0.0000 0.0000 0.0000 0.0000 16.4140
#
#
#
# Elastic Compliance Matrix: (Units=1/GPa)
#
#
# Indices 1 2 3 4 5 6 
#
# 1 0.020380 0.000334 -0.014003 0.000000 0.000000 0.000000
# 2 0.000334 0.072804 -0.006403 0.000000 0.000000 0.000000
# 3 -0.014003 -0.006403 0.017712 0.000000 0.000000 0.000000
# 4 0.000000 0.000000 0.000000 0.070838 0.000000 0.000000
# 5 0.000000 0.000000 0.000000 0.000000 0.104400 0.000000
# 6 0.000000 0.000000 0.000000 0.000000 0.000000 0.060924
#
#
# Mechanical properties :
#
#
# Convention : Reuss Voigt Hill
#
# Bulk Modulus (GPa) = 14.13396 52.95738 33.54567
# Shear Modulus (GPa) = 12.17180 17.93940 15.05560
#
# Velocity S-wave (km/s) = 2.59301 3.14798 2.88388
# Velocity P-wave (km/s) = 4.09544 6.51665 5.44240
#
# Compressibility (1/GPa) = 0.07075157
#
# Stress axis : x y z
#
# Youngs Moduli (GPa) = 49.06763 13.73553 56.45893
#
# Poissons Ratio (x) = -0.00458 0.79060
# Poissons Ratio (y) = -0.01637 0.36150
# Poissons Ratio (z) = 0.68710 0.08795
#
# Static dielectric constant tensor:
#      x y z
#    x 1.641780 0.000000 0.000000 
#    y 0.000000 1.649910 0.000000 
#    z 0.000000 0.000000 1.627950 
# 
# From -- ./inp_files/32238.got.cif
#   From: 2010.05.17/outbox.cif.g08.bks.cpg/sg59_17_cif.got.tgz:32238.got - 2010.06.03 14:40:33.
