data_PCOD9446054
_publ_section_title
;
Structure prediction by ZEFSAII (Michael W. Deem and Ramdas Pophale) SiO2 
 PCOD9446054
Probable space group: P N N M
;
_chemical_formula_sum "Si O2"
_cell_formula_units_Z 64
_cell_length_a 15.000000
_cell_length_b 24.000000
_cell_length_c 9.000000
_cell_angle_alpha 90.000000
_cell_angle_beta 90.000000
_cell_angle_gamma 90.000000
_cell_volume 3240.000000
_symmetry_space_group_name_H-M "P N N M"
_symmetry_group_IT_number 58
_symmetry_cell_setting 'orthorhombic'
loop_
_space_group_symop_operation_xyz
x,y,z
-x,-y,z
1/2+x,1/2-y,1/2-z
1/2-x,1/2+y,1/2-z
-x,-y,-z
x,y,-z
1/2-x,1/2+y,1/2+z
1/2+x,1/2-y,1/2+z
loop_
_atom_site_type_symbol
_atom_site_label
_atom_site_fract_x
_atom_site_fract_y
_atom_site_fract_z
Si Si1 0.647234 0.640660 0.674367
Si Si2 0.996775 0.659407 0.834975
Si Si3 0.981389 0.787912 0.834505
Si Si4 0.666383 0.872790 0.168037
Si Si5 0.103413 0.500085 0.327655
Si Si6 0.850273 0.860784 0.672990
Si Si7 0.321977 0.898735 0.322363
Si Si8 0.009565 0.934912 0.329106
O O1 0.665654 0.639182 0.500000
O O2 0.581615 0.692766 0.705293
O O3 0.738993 0.635480 0.761042
O O4 0.586641 0.588765 0.726226
O O5 0.970370 0.722966 0.846851
O O6 0.915189 0.626445 0.765381
O O7 0.086595 0.657913 0.746669
O O8 0.012893 0.635819 0.000000
O O9 0.911747 0.809135 0.715435
O O10 0.964030 0.812871 0.000000
O O11 0.639944 0.937589 0.176322
O O12 0.758955 0.861269 0.243578
O O13 0.671744 0.854960 0.000000
O O14 0.101593 0.481049 0.500000
O O15 0.170404 0.461624 0.235078
O O16 0.000000 0.500000 0.273623
O O17 0.832923 0.864312 0.500000
O O18 0.914652 0.911046 0.719540
O O19 0.320329 0.896631 0.500000
O O20 0.026485 0.915688 0.500000
O O21 0.000000 0.000000 0.328909
#
# Coordination Sequence:
#
# PCOD9446054 Si02
#       8
#     8   8   8   8   8   8   8   8
#     4  10  21  37  58  83 114 151 190 235 284 340
#     4  10  22  40  61  86 115 150 196 243 289 342
#     4   9  20  41  63  84 115 152 192 241 291 339
#     4  11  23  38  59  86 118 154 192 237 287 344
#     4  10  21  39  59  82 116 153 191 236 286 344
#     4  10  21  37  58  85 118 152 191 237 286 343
#     4  11  23  37  58  86 117 152 191 238 288 343
#     4   9  19  36  56  81 112 147 188 235 285 338
#
# _framework density 19.753086
#
# number of rings (size 3 to 8) (size 9 to 14) (size 15 to 20)
#    0.000    2.000    1.250    1.500    1.750    4.500 
#    0.000    2.500    0.000    0.000    0.000    0.000 
#    0.000    0.000    0.000    0.000    0.000    0.000 
#
# Total GULP energy -356684.698253 kJ/mol
# GULP energy per Si atom -5573.198410 kJ/mol
# Density = 1.970813 g / cm^3
# Si number density = 19.753086 Si / 1000 Ang^3
#
#
#
# Elastic Constant Matrix: (Units=GPa)
#
#
# Indices 1 2 3 4 5 6 
#
# 1 89.2868 -9.5327 27.8492 0.0000 0.0000 0.0000
# 2 -9.5327 19.6954 -2.2141 0.0000 0.0000 0.0000
# 3 27.8492 -2.2141 10.6177 0.0000 0.0000 0.0000
# 4 0.0000 0.0000 0.0000 14.9155 0.0000 0.0000
# 5 0.0000 0.0000 0.0000 0.0000 46.8768 0.0000
# 6 0.0000 0.0000 0.0000 0.0000 0.0000 -18.8343
#
#
#
# Elastic Compliance Matrix: (Units=1/GPa)
#
#
# Indices 1 2 3 4 5 6 
#
# 1 0.064434 0.012480 -0.166400 0.000000 0.000000 0.000000
# 2 0.012480 0.054409 -0.021388 0.000000 0.000000 0.000000
# 3 -0.166400 -0.021388 0.526173 0.000000 0.000000 0.000000
# 4 0.000000 0.000000 0.000000 0.067044 0.000000 0.000000
# 5 0.000000 0.000000 0.000000 0.000000 0.021333 0.000000
# 6 0.000000 0.000000 0.000000 0.000000 0.000000 -0.053095
#
#
# Mechanical properties :
#
#
# Convention : Reuss Voigt Hill
#
# Bulk Modulus (GPa) = 3.39674 16.86719 10.13196
# Shear Modulus (GPa) = 4.42851 15.49142 9.95997
#
# Velocity S-wave (km/s) = 1.49893 2.80349 2.24793
# Velocity P-wave (km/s) = 2.17234 4.36314 3.44645
#
# Compressibility (1/GPa) = 0.29440010
#
# Stress axis : x y z
#
# Youngs Moduli (GPa) = 15.51985 18.37920 1.90052
#
# Poissons Ratio (x) = -0.22937 0.31625
# Poissons Ratio (y) = -0.19369 0.04065
# Poissons Ratio (z) = 2.58251 0.39309
#
# Static dielectric constant tensor:
#      x y z
#    x 1.645440 0.000000 0.000000 
#    y 0.000000 1.691250 0.000000 
#    z 0.000000 0.000000 1.707690 
# 
# From -- ./inp_files/6945.got.cif
#   From: 2010.05.17/outbox.ucp.g08.bks.cvg/sg58_4_cif.got.tgz:6945.got - 2010.06.11 16:41:41.
