data_PCOD9446156
_publ_section_title
;
Structure prediction by ZEFSAII (Michael W. Deem and Ramdas Pophale) SiO2 
 PCOD9446156
Probable space group: P M M N
;
_chemical_formula_sum "Si O2"
_cell_formula_units_Z 38
_cell_length_a 9.271263
_cell_length_b 23.466724
_cell_length_c 7.233530
_cell_angle_alpha 90.000000
_cell_angle_beta 90.000000
_cell_angle_gamma 90.000000
_cell_volume 1573.771417
_symmetry_space_group_name_H-M "P M M N"
_symmetry_group_IT_number 59
_space_group.IT_coordinate_system_code '2'
_symmetry_cell_setting 'orthorhombic'
loop_
_space_group_symop_operation_xyz
x,y,z
1/2-x,1/2-y,z
1/2+x,-y,-z
-x,1/2+y,-z
-x,-y,-z
1/2+x,1/2+y,-z
1/2-x,y,z
x,1/2-y,z
loop_
_atom_site_type_symbol
_atom_site_label
_atom_site_fract_x
_atom_site_fract_y
_atom_site_fract_z
Si Si1 0.503870 0.407801 0.242196
Si Si2 0.250000 0.005936 0.139837
Si Si3 0.250000 0.053008 0.768814
Si Si4 0.583215 0.686781 0.485023
Si Si5 0.750000 0.750000 0.026826
Si Si6 0.024101 0.351657 0.883713
Si Si7 0.750000 0.458628 0.492696
O O1 0.392005 0.456761 0.184188
O O2 0.423619 0.358370 0.354330
O O3 0.613730 0.432246 0.391204
O O4 0.563489 0.378060 0.055047
O O5 0.250000 0.001325 0.918319
O O6 0.250000 0.955024 0.286465
O O7 0.384125 0.093518 0.811471
O O8 0.250000 0.025445 0.568002
O O9 0.750000 0.687445 0.411645
O O10 0.556310 0.750000 0.557322
O O11 0.476627 0.673715 0.314119
O O12 0.624523 0.698999 0.035366
#
# Coordination Sequence:
#
# PCOD9446156 Si02
#       7
#     8   4   4   8   2   8   4
#     4  11  25  38  62  92 123 161 205 245 304 360
#     4  10  21  41  63  90 113 155 207 257 294 345
#     4   9  20  35  61  86 120 157 196 247 307 352
#     4  11  20  34  63  94 119 154 199 261 314 350
#     4  10  16  32  62  94 120 144 184 272 314 340
#     4  10  19  36  59  95 123 145 198 259 309 358
#     4  12  25  43  58  85 131 171 199 245 298 363
#
# _framework density 24.145817999999998
#
# number of rings (size 3 to 8) (size 9 to 14) (size 15 to 20)
#    0.000    1.474    4.211    2.526    1.474    5.053 
#    0.000    0.526    0.000    0.000    0.000    0.000 
#    0.000    0.000    0.000    0.000    0.000    0.000 
#
# Total GULP energy -211718.207927 kJ/mol
# GULP energy per Si atom -5571.531788 kJ/mol
# Density = 2.409086 g / cm^3
# Si number density = 24.145818 Si / 1000 Ang^3
#
#
#
# Elastic Constant Matrix: (Units=GPa)
#
#
# Indices 1 2 3 4 5 6 
#
# 1 32.7712 4.7573 -2.7774 0.0000 0.0000 0.0000
# 2 4.7573 86.2371 13.5894 0.0000 0.0000 0.0000
# 3 -2.7774 13.5894 89.2803 0.0000 0.0000 0.0000
# 4 0.0000 0.0000 0.0000 23.1743 0.0000 0.0000
# 5 0.0000 0.0000 0.0000 0.0000 16.3459 0.0000
# 6 0.0000 0.0000 0.0000 0.0000 0.0000 17.8657
#
#
#
# Elastic Compliance Matrix: (Units=1/GPa)
#
#
# Indices 1 2 3 4 5 6 
#
# 1 0.030897 -0.001901 0.001251 0.000000 0.000000 0.000000
# 2 -0.001901 0.011998 -0.001885 0.000000 0.000000 0.000000
# 3 0.001251 -0.001885 0.011527 0.000000 0.000000 0.000000
# 4 0.000000 0.000000 0.000000 0.043151 0.000000 0.000000
# 5 0.000000 0.000000 0.000000 0.000000 0.061178 0.000000
# 6 0.000000 0.000000 0.000000 0.000000 0.000000 0.055973
#
#
# Mechanical properties :
#
#
# Convention : Reuss Voigt Hill
#
# Bulk Modulus (GPa) = 20.26399 26.60299 23.43349
# Shear Modulus (GPa) = 21.16445 24.32512 22.74479
#
# Velocity S-wave (km/s) = 2.96383 3.17744 3.07249
# Velocity P-wave (km/s) = 4.48586 4.95006 4.72366
#
# Compressibility (1/GPa) = 0.04934861
#
# Stress axis : x y z
#
# Youngs Moduli (GPa) = 32.36599 83.34767 86.75616
#
# Poissons Ratio (x) = 0.15848 -0.10850
# Poissons Ratio (y) = 0.06154 0.16357
# Poissons Ratio (z) = -0.04048 0.15714
#
# Static dielectric constant tensor:
#      x y z
#    x 2.121470 0.000000 0.000000 
#    y 0.000000 1.928930 0.000000 
#    z 0.000000 0.000000 1.991700 
# 
# From -- ./inp_files/5732.got.cif
#   From: 2010.05.17/outbox.cif.g08.bks.cpg/sg59_3_cif.got.tgz:5732.got - 2010.06.03 14:40:33.
