data_PCOD9446859
_publ_section_title
;
Structure prediction by ZEFSAII (Michael W. Deem and Ramdas Pophale) SiO2 
 PCOD9446859
Probable space group: P M M N
;
_chemical_formula_sum "Si O2"
_cell_formula_units_Z 56
_cell_length_a 17.965551
_cell_length_b 14.715999
_cell_length_c 13.166819
_cell_angle_alpha 90.000000
_cell_angle_beta 90.000000
_cell_angle_gamma 90.000000
_cell_volume 3481.057176
_symmetry_space_group_name_H-M "P M M N"
_symmetry_group_IT_number 59
_space_group.IT_coordinate_system_code '2'
_symmetry_cell_setting 'orthorhombic'
loop_
_space_group_symop_operation_xyz
x,y,z
1/2-x,1/2-y,z
1/2+x,-y,-z
-x,1/2+y,-z
-x,-y,-z
1/2+x,1/2+y,-z
1/2-x,y,z
x,1/2-y,z
loop_
_atom_site_type_symbol
_atom_site_label
_atom_site_fract_x
_atom_site_fract_y
_atom_site_fract_z
Si Si1 0.660255 0.038728 0.433851
Si Si2 0.590094 0.853731 0.753994
Si Si3 0.159532 0.645576 0.361300
Si Si4 0.160957 0.643802 0.966209
Si Si5 0.839856 0.470324 0.835906
Si Si6 0.412373 0.856153 0.750902
Si Si7 0.660739 0.852609 0.531597
O O1 0.750000 0.045110 0.423474
O O2 0.638185 0.095341 0.534700
O O3 0.622219 0.081497 0.336030
O O4 0.640413 0.933830 0.456005
O O5 0.608278 0.750000 0.784587
O O6 0.501316 0.863362 0.751734
O O7 0.622162 0.866726 0.640307
O O8 0.625921 0.930221 0.824234
O O9 0.250000 0.646792 0.359726
O O10 0.134090 0.750000 0.358792
O O11 0.136267 0.589148 0.262122
O O12 0.250000 0.635374 0.951471
O O13 0.145862 0.750000 0.990139
O O14 0.139203 0.581242 0.060890
O O15 0.120146 0.620796 0.861534
O O16 0.750000 0.476503 0.832882
O O17 0.392724 0.750000 0.730552
O O18 0.750000 0.858684 0.547866
O O19 0.643543 0.750000 0.496443
#
# Coordination Sequence:
#
# PCOD9446859 Si02
#       7
#     8   8   8   8   8   8   8
#     4  10  18  30  51  74  96 127 163 202 245 288
#     4  10  20  33  49  71  99 132 165 202 244 287
#     4   9  16  26  43  71 100 121 148 195 252 295
#     4   9  18  33  53  74  97 127 161 197 239 294
#     4  10  18  31  51  73  95 123 162 206 247 286
#     4  10  21  34  48  71 102 135 166 195 237 293
#     4   9  17  31  50  71  96 127 166 206 243 287
#
# _framework density 16.087067000000001
#
# number of rings (size 3 to 8) (size 9 to 14) (size 15 to 20)
#    0.000    2.429    1.429    1.714    0.000    5.143 
#    0.000    0.000    0.000    1.714    0.000    2.000 
#    0.000    0.000    0.000    0.000    0.000    0.000 
#
# Total GULP energy -312262.698734 kJ/mol
# GULP energy per Si atom -5576.119620 kJ/mol
# Density = 1.605045 g / cm^3
# Si number density = 16.087067 Si / 1000 Ang^3
#
#
#
# Elastic Constant Matrix: (Units=GPa)
#
#
# Indices 1 2 3 4 5 6 
#
# 1 21.9179 44.1127 41.1249 0.0000 0.0000 0.0000
# 2 44.1127 145.6829 96.9333 0.0000 0.0000 0.0000
# 3 41.1249 96.9333 129.6752 0.0000 0.0000 0.0000
# 4 0.0000 0.0000 0.0000 24.9173 0.0000 0.0000
# 5 0.0000 0.0000 0.0000 0.0000 13.8653 0.0000
# 6 0.0000 0.0000 0.0000 0.0000 0.0000 12.9772
#
#
#
# Elastic Compliance Matrix: (Units=1/GPa)
#
#
# Indices 1 2 3 4 5 6 
#
# 1 0.155426 -0.028382 -0.028076 0.000000 0.000000 0.000000
# 2 -0.028382 0.018840 -0.005082 0.000000 0.000000 0.000000
# 3 -0.028076 -0.005082 0.020414 0.000000 0.000000 0.000000
# 4 0.000000 0.000000 0.000000 0.040133 0.000000 0.000000
# 5 0.000000 0.000000 0.000000 0.000000 0.072122 0.000000
# 6 0.000000 0.000000 0.000000 0.000000 0.000000 0.077058
#
#
# Mechanical properties :
#
#
# Convention : Reuss Voigt Hill
#
# Bulk Modulus (GPa) = 13.96632 73.51310 43.73971
# Shear Modulus (GPa) = 9.41728 18.02563 13.72145
#
# Velocity S-wave (km/s) = 2.42212 3.35102 2.92370
# Velocity P-wave (km/s) = 4.06482 7.79543 6.21657
#
# Compressibility (1/GPa) = 0.07160080
#
# Stress axis : x y z
#
# Youngs Moduli (GPa) = 6.43392 53.07993 48.98608
#
# Poissons Ratio (x) = 1.50653 1.37531
# Poissons Ratio (y) = 0.18261 0.24893
# Poissons Ratio (z) = 0.18064 0.26973
#
# Static dielectric constant tensor:
#      x y z
#    x 1.524520 0.000000 0.000000 
#    y 0.000000 1.553180 0.000000 
#    z 0.000000 0.000000 1.508320 
# 
# From -- ./inp_files/16937.got.cif
#   From: 2010.05.17/outbox.cif.g08.bks.cpg/sg59_9_cif.got.tgz:16937.got - 2010.06.03 14:40:33.
