data_PCOD9446589
_publ_section_title
;
Structure prediction by ZEFSAII (Michael W. Deem and Ramdas Pophale) SiO2 
 PCOD9446589
Probable space group: P M M N
;
_chemical_formula_sum "Si O2"
_cell_formula_units_Z 64
_cell_length_a 23.622932
_cell_length_b 7.785033
_cell_length_c 19.991407
_cell_angle_alpha 90.000000
_cell_angle_beta 90.000000
_cell_angle_gamma 90.000000
_cell_volume 3676.525805
_symmetry_space_group_name_H-M "P M M N"
_symmetry_group_IT_number 59
_space_group.IT_coordinate_system_code '2'
_symmetry_cell_setting 'orthorhombic'
loop_
_space_group_symop_operation_xyz
x,y,z
1/2-x,1/2-y,z
1/2+x,-y,-z
-x,1/2+y,-z
-x,-y,-z
1/2+x,1/2+y,-z
1/2-x,y,z
x,1/2-y,z
loop_
_atom_site_type_symbol
_atom_site_label
_atom_site_fract_x
_atom_site_fract_y
_atom_site_fract_z
Si Si1 0.975966 0.958049 0.104604
Si Si2 0.088443 0.043833 0.023614
Si Si3 0.616223 0.949308 0.751977
Si Si4 0.909787 0.954279 0.525854
Si Si5 0.011836 0.449264 0.748403
Si Si6 0.185444 0.039557 0.117894
Si Si7 0.975410 0.541610 0.397527
Si Si8 0.314509 0.951504 0.376785
O O1 0.973296 0.750000 0.106695
O O2 0.969797 0.024469 0.180113
O O3 0.931185 0.020900 0.049093
O O4 0.037537 0.003632 0.074982
O O5 0.092130 0.250000 0.018758
O O6 0.146667 0.981750 0.055988
O O7 0.602107 0.750000 0.764733
O O8 0.654035 0.012911 0.813809
O O9 0.556535 0.044021 0.746406
O O10 0.652326 0.961567 0.684343
O O11 0.903485 0.750000 0.522158
O O12 0.930484 0.018420 0.453202
O O13 0.852581 0.026296 0.557241
O O14 0.962394 0.993251 0.575298
O O15 0.029569 0.250000 0.748739
O O16 0.032402 0.524545 0.677808
O O17 0.250000 0.980929 0.115508
O O18 0.186270 0.250000 0.118062
O O19 0.973751 0.750000 0.396277
O O20 0.250000 0.014392 0.383711
O O21 0.312671 0.750000 0.360788
#
# Coordination Sequence:
#
# PCOD9446589 Si02
#       8
#     8   8   8   8   8   8   8   8
#     4   9  17  27  43  64  87 115 147 183 221 266
#     4   9  16  28  43  61  85 115 151 188 223 259
#     4  11  20  30  45  66  91 120 156 189 218 258
#     4  10  19  31  48  69  89 116 154 193 228 267
#     4  10  18  29  45  66  93 122 148 177 226 279
#     4   9  17  28  42  61  87 118 151 187 223 256
#     4   9  18  31  47  66  92 121 148 185 233 279
#     4  11  23  36  48  64  91 126 157 188 228 270
#
# _framework density 17.407737999999998
#
# number of rings (size 3 to 8) (size 9 to 14) (size 15 to 20)
#    0.000    2.250    2.500    1.500    0.000    2.000 
#    0.000    0.000    0.000    1.125    0.000    0.875 
#    0.000    5.000    0.000    0.000    0.000    0.500 
#
# Total GULP energy -356936.648874 kJ/mol
# GULP energy per Si atom -5577.135139 kJ/mol
# Density = 1.736812 g / cm^3
# Si number density = 17.407738 Si / 1000 Ang^3
#
#
#
# Elastic Constant Matrix: (Units=GPa)
#
#
# Indices 1 2 3 4 5 6 
#
# 1 59.1322 -5.8262 41.1138 0.0000 0.0000 0.0000
# 2 -5.8262 26.7577 -2.9388 0.0000 0.0000 0.0000
# 3 41.1138 -2.9388 149.2081 0.0000 0.0000 0.0000
# 4 0.0000 0.0000 0.0000 9.0082 0.0000 0.0000
# 5 0.0000 0.0000 0.0000 0.0000 19.6853 0.0000
# 6 0.0000 0.0000 0.0000 0.0000 0.0000 10.9329
#
#
#
# Elastic Compliance Matrix: (Units=1/GPa)
#
#
# Indices 1 2 3 4 5 6 
#
# 1 0.021340 0.004009 -0.005801 0.000000 0.000000 0.000000
# 2 0.004009 0.038207 -0.000352 0.000000 0.000000 0.000000
# 3 -0.005801 -0.000352 0.008294 0.000000 0.000000 0.000000
# 4 0.000000 0.000000 0.000000 0.111010 0.000000 0.000000
# 5 0.000000 0.000000 0.000000 0.000000 0.050799 0.000000
# 6 0.000000 0.000000 0.000000 0.000000 0.000000 0.091467
#
#
# Mechanical properties :
#
#
# Convention : Reuss Voigt Hill
#
# Bulk Modulus (GPa) = 15.73511 33.31059 24.52285
# Shear Modulus (GPa) = 14.42632 21.44189 17.93411
#
# Velocity S-wave (km/s) = 2.88189 3.51343 3.21321
# Velocity P-wave (km/s) = 4.48692 5.96959 5.28055
#
# Compressibility (1/GPa) = 0.06355216
#
# Stress axis : x y z
#
# Youngs Moduli (GPa) = 46.86094 26.17336 120.57503
#
# Poissons Ratio (x) = -0.10494 0.69947
# Poissons Ratio (y) = -0.18788 0.04247
# Poissons Ratio (z) = 0.27185 0.00922
#
# Static dielectric constant tensor:
#      x y z
#    x 1.562590 0.000000 0.000000 
#    y 0.000000 1.639720 0.000000 
#    z 0.000000 0.000000 1.635180 
# 
# From -- ./inp_files/31079.got.cif
#   From: 2010.05.17/outbox.cif.g08.bks.cpg/sg59_16_cif.got.tgz:31079.got - 2010.06.03 14:40:33.
