data_PCOD9446878
_publ_section_title
;
Structure prediction by ZEFSAII (Michael W. Deem and Ramdas Pophale) SiO2 
 PCOD9446878
Probable space group: P M M N
;
_chemical_formula_sum "Si O2"
_cell_formula_units_Z 48
_cell_length_a 7.434593
_cell_length_b 15.263831
_cell_length_c 20.265060
_cell_angle_alpha 90.000000
_cell_angle_beta 90.000000
_cell_angle_gamma 90.000000
_cell_volume 2299.686529
_symmetry_space_group_name_H-M "P M M N"
_symmetry_group_IT_number 59
_space_group.IT_coordinate_system_code '2'
_symmetry_cell_setting 'orthorhombic'
loop_
_space_group_symop_operation_xyz
x,y,z
1/2-x,1/2-y,z
1/2+x,-y,-z
-x,1/2+y,-z
-x,-y,-z
1/2+x,1/2+y,-z
1/2-x,y,z
x,1/2-y,z
loop_
_atom_site_type_symbol
_atom_site_label
_atom_site_fract_x
_atom_site_fract_y
_atom_site_fract_z
Si Si1 0.033032 0.250000 0.627698
Si Si2 0.463649 0.848598 0.907876
Si Si3 0.470491 0.484932 0.831053
Si Si4 0.462496 0.750000 0.528083
Si Si5 0.033906 0.349809 0.942485
Si Si6 0.029897 0.436544 0.683745
Si Si7 0.965538 0.058775 0.435314
O O1 0.250000 0.250000 0.630488
O O2 0.971407 0.339370 0.662238
O O3 0.982554 0.250000 0.550928
O O4 0.250000 0.842749 0.897541
O O5 0.538190 0.750000 0.902308
O O6 0.531964 0.920436 0.856894
O O7 0.489734 0.879462 0.983313
O O8 0.250000 0.484860 0.831370
O O9 0.529723 0.413512 0.884977
O O10 0.526838 0.461386 0.757325
O O11 0.250000 0.750000 0.543000
O O12 0.536189 0.842400 0.555004
O O13 0.250000 0.347260 0.938096
O O14 0.967199 0.250000 0.935153
O O15 0.250000 0.436282 0.683066
O O16 0.969506 0.506395 0.628841
O O17 0.750000 0.065189 0.429298
O O18 0.000000 0.000000 0.500000
#
# Coordination Sequence:
#
# PCOD9446878 Si02
#       7
#     4   8   8   4   8   8   8
#     4  10  18  30  52  76  94 121 158 196 238 283
#     4   9  17  30  47  66  90 121 155 189 226 271
#     4   9  17  29  45  68  95 120 150 190 233 273
#     4  10  20  32  50  74 100 127 156 198 244 285
#     4   9  17  28  46  70  91 115 149 189 230 271
#     4   9  18  30  47  72  98 122 154 196 236 278
#     4  10  19  33  51  73  99 127 161 198 238 284
#
# _framework density 20.872409000000001
#
# number of rings (size 3 to 8) (size 9 to 14) (size 15 to 20)
#    0.000    2.667    1.667    0.500    1.167    0.000 
#    1.500    0.000    0.000    4.000    0.000    0.000 
#    0.000    0.000    0.000    0.000    0.000    0.000 
#
# Total GULP energy -268018.201152 kJ/mol
# GULP energy per Si atom -5583.712524 kJ/mol
# Density = 2.082490 g / cm^3
# Si number density = 20.872409 Si / 1000 Ang^3
#
#
#
# Elastic Constant Matrix: (Units=GPa)
#
#
# Indices 1 2 3 4 5 6 
#
# 1 66.8906 8.4297 -1.6789 0.0000 0.0000 0.0000
# 2 8.4297 199.7936 126.3397 0.0000 0.0000 0.0000
# 3 -1.6789 126.3397 157.6584 0.0000 0.0000 0.0000
# 4 0.0000 0.0000 0.0000 -9.0258 0.0000 0.0000
# 5 0.0000 0.0000 0.0000 0.0000 18.9511 0.0000
# 6 0.0000 0.0000 0.0000 0.0000 0.0000 -1.9757
#
#
#
# Elastic Compliance Matrix: (Units=1/GPa)
#
#
# Indices 1 2 3 4 5 6 
#
# 1 0.015174 -0.001505 0.001368 0.000000 0.000000 0.000000
# 2 -0.001505 0.010296 -0.008267 0.000000 0.000000 0.000000
# 3 0.001368 -0.008267 0.012982 0.000000 0.000000 0.000000
# 4 0.000000 0.000000 0.000000 -0.110793 0.000000 0.000000
# 5 0.000000 0.000000 0.000000 0.000000 0.052767 0.000000
# 6 0.000000 0.000000 0.000000 0.000000 0.000000 -0.506149
#
#
# Mechanical properties :
#
#
# Convention : Reuss Voigt Hill
#
# Bulk Modulus (GPa) = 46.20329 76.72485 61.46407
# Shear Modulus (GPa) = -9.96613 21.00672 5.52029
#
# Velocity S-wave (km/s) = -2.18750 3.17588 1.62804
# Velocity P-wave (km/s) = 3.97541 7.09134 5.74852
#
# Compressibility (1/GPa) = 0.02164348
#
# Stress axis : x y z
#
# Youngs Moduli (GPa) = 65.90315 97.12231 77.02894
#
# Poissons Ratio (x) = 0.14617 -0.10535
# Poissons Ratio (y) = 0.09919 0.63680
# Poissons Ratio (z) = -0.09013 0.80291
#
# Static dielectric constant tensor:
#      x y z
#    x 1.811140 0.000000 0.000000 
#    y 0.000000 1.754210 0.000000 
#    z 0.000000 0.000000 1.684910 
# 
# From -- ./inp_files/25564.got.cif
#   From: 2010.05.17/outbox.cif.g08.bks.cpg/sg59_13_cif.got.tgz:25564.got - 2010.06.03 14:40:33.
