data_PCOD9446359
_publ_section_title
;
Structure prediction by ZEFSAII (Michael W. Deem and Ramdas Pophale) SiO2 
 PCOD9446359
Probable space group: P M M N
;
_chemical_formula_sum "Si O2"
_cell_formula_units_Z 64
_cell_length_a 31.621007
_cell_length_b 8.088885
_cell_length_c 12.605559
_cell_angle_alpha 90.000000
_cell_angle_beta 90.000000
_cell_angle_gamma 90.000000
_cell_volume 3224.233358
_symmetry_space_group_name_H-M "P M M N"
_symmetry_group_IT_number 59
_space_group.IT_coordinate_system_code '2'
_symmetry_cell_setting 'orthorhombic'
loop_
_space_group_symop_operation_xyz
x,y,z
1/2-x,1/2-y,z
1/2+x,-y,-z
-x,1/2+y,-z
-x,-y,-z
1/2+x,1/2+y,-z
1/2-x,y,z
x,1/2-y,z
loop_
_atom_site_type_symbol
_atom_site_label
_atom_site_fract_x
_atom_site_fract_y
_atom_site_fract_z
Si Si1 0.202397 0.555729 0.282771
Si Si2 0.848689 0.945052 0.528897
Si Si3 0.883260 0.054122 0.318776
Si Si4 0.519524 0.563781 0.107869
Si Si5 0.931078 0.952690 0.659558
Si Si6 0.978396 0.060604 0.334598
Si Si7 0.623799 0.554731 0.853275
Si Si8 0.620265 0.937416 0.086188
O O1 0.250000 0.494553 0.266004
O O2 0.200888 0.750000 0.257597
O O3 0.187904 0.531411 0.404290
O O4 0.166815 0.467210 0.212593
O O5 0.844954 0.750000 0.547954
O O6 0.893673 0.000758 0.579575
O O7 0.851820 0.980998 0.405207
O O8 0.885863 0.250000 0.332729
O O9 0.931261 0.984560 0.341553
O O10 0.869299 0.020466 0.198217
O O11 0.504900 0.750000 0.133356
O O12 0.512323 0.446390 0.207961
O O13 0.569522 0.570236 0.089165
O O14 0.500000 0.500000 0.000000
O O15 0.933008 0.750000 0.661168
O O16 0.913882 0.007765 0.775921
O O17 0.977403 0.013768 0.623294
O O18 0.975685 0.250000 0.370929
O O19 0.615138 0.750000 0.868287
O O20 0.629540 0.483316 0.971372
O O21 0.637494 0.750000 0.088730
#
# Coordination Sequence:
#
# PCOD9446359 Si02
#       8
#     8   8   8   8   8   8   8   8
#     4  10  21  37  58  84 110 130 151 191 250 308
#     4  10  20  35  55  75  99 134 173 211 251 301
#     4  10  20  32  48  72 102 138 179 220 258 296
#     4  10  18  27  40  60  89 126 169 213 253 292
#     4   8  15  29  48  70  97 131 170 213 259 299
#     4   9  17  30  45  63  93 132 173 215 257 298
#     4   9  17  31  53  78 103 133 168 205 247 298
#     4   9  18  32  49  69  97 135 173 208 248 295
#
# _framework density 19.849681
#
# number of rings (size 3 to 8) (size 9 to 14) (size 15 to 20)
#    0.000    2.625    0.000    3.000    0.000    5.000 
#    0.000    5.625    0.000    0.750    0.000    3.500 
#    0.000    0.000    0.000    0.000    0.000    0.000 
#
# Total GULP energy -356676.188945 kJ/mol
# GULP energy per Si atom -5573.065452 kJ/mol
# Density = 1.980450 g / cm^3
# Si number density = 19.849681 Si / 1000 Ang^3
#
#
#
# Elastic Constant Matrix: (Units=GPa)
#
#
# Indices 1 2 3 4 5 6 
#
# 1 52.3838 -3.6492 12.6658 0.0000 0.0000 0.0000
# 2 -3.6492 28.2166 -0.8681 0.0000 0.0000 0.0000
# 3 12.6658 -0.8681 71.8715 0.0000 0.0000 0.0000
# 4 0.0000 0.0000 0.0000 17.8787 0.0000 0.0000
# 5 0.0000 0.0000 0.0000 0.0000 14.0171 0.0000
# 6 0.0000 0.0000 0.0000 0.0000 0.0000 12.5304
#
#
#
# Elastic Compliance Matrix: (Units=1/GPa)
#
#
# Indices 1 2 3 4 5 6 
#
# 1 0.020113 0.002493 -0.003514 0.000000 0.000000 0.000000
# 2 0.002493 0.035762 -0.000007 0.000000 0.000000 0.000000
# 3 -0.003514 -0.000007 0.014533 0.000000 0.000000 0.000000
# 4 0.000000 0.000000 0.000000 0.055932 0.000000 0.000000
# 5 0.000000 0.000000 0.000000 0.000000 0.071342 0.000000
# 6 0.000000 0.000000 0.000000 0.000000 0.000000 0.079806
#
#
# Mechanical properties :
#
#
# Convention : Reuss Voigt Hill
#
# Bulk Modulus (GPa) = 14.63034 18.75211 16.69123
# Shear Modulus (GPa) = 16.53823 18.50679 17.52251
#
# Velocity S-wave (km/s) = 2.88961 3.05675 2.97435
# Velocity P-wave (km/s) = 4.30345 4.68250 4.49697
#
# Compressibility (1/GPa) = 0.06835110
#
# Stress axis : x y z
#
# Youngs Moduli (GPa) = 49.71833 27.96238 68.80904
#
# Poissons Ratio (x) = -0.06971 0.24182
# Poissons Ratio (y) = -0.12395 0.00051
# Poissons Ratio (z) = 0.17473 0.00021
#
# Static dielectric constant tensor:
#      x y z
#    x 1.709410 0.000000 0.000000 
#    y 0.000000 1.724320 0.000000 
#    z 0.000000 0.000000 1.746960 
# 
# From -- ./inp_files/19211.got.cif
#   From: 2010.05.17/outbox.cif.g08.bks.cpg/sg59_10_cif.got.tgz:19211.got - 2010.06.03 14:40:33.
