data_PCOD9446689
_publ_section_title
;
Structure prediction by ZEFSAII (Michael W. Deem and Ramdas Pophale) SiO2 
 PCOD9446689
Probable space group: P M M N
;
_chemical_formula_sum "Si O2"
_cell_formula_units_Z 64
_cell_length_a 8.620039
_cell_length_b 30.600156
_cell_length_c 15.160683
_cell_angle_alpha 90.000000
_cell_angle_beta 90.000000
_cell_angle_gamma 90.000000
_cell_volume 3999.002156
_symmetry_space_group_name_H-M "P M M N"
_symmetry_group_IT_number 59
_space_group.IT_coordinate_system_code '2'
_symmetry_cell_setting 'orthorhombic'
loop_
_space_group_symop_operation_xyz
x,y,z
1/2-x,1/2-y,z
1/2+x,-y,-z
-x,1/2+y,-z
-x,-y,-z
1/2+x,1/2+y,-z
1/2-x,y,z
x,1/2-y,z
loop_
_atom_site_type_symbol
_atom_site_label
_atom_site_fract_x
_atom_site_fract_y
_atom_site_fract_z
Si Si1 0.938683 0.798031 0.795410
Si Si2 0.562826 0.885243 0.701587
Si Si3 0.064873 0.563921 0.544686
Si Si4 0.563295 0.970943 0.372800
Si Si5 0.065252 0.891405 0.039671
Si Si6 0.563362 0.963529 0.169436
Si Si7 0.062686 0.200633 0.998153
Si Si8 0.936428 0.557500 0.870426
O O1 0.750000 0.798562 0.793931
O O2 0.990076 0.750000 0.765757
O O3 0.991778 0.838355 0.737066
O O4 0.980977 0.803355 0.898160
O O5 0.750000 0.885282 0.696818
O O6 0.495361 0.898096 0.607599
O O7 0.518583 0.920394 0.777098
O O8 0.250000 0.563914 0.541846
O O9 0.012176 0.518849 0.593024
O O10 0.000055 0.562382 0.445797
O O11 0.750000 0.970036 0.374803
O O12 0.514191 0.963439 0.272272
O O13 0.250000 0.892970 0.035901
O O14 0.003552 0.922376 0.117405
O O15 0.009357 0.841351 0.048670
O O16 0.997026 0.912285 0.949577
O O17 0.750000 0.962940 0.165210
O O18 0.503914 0.008751 0.126692
O O19 0.250000 0.197889 0.992956
O O20 0.018210 0.250000 0.969380
O O21 0.750000 0.555899 0.875391
#
# Coordination Sequence:
#
# PCOD9446689 Si02
#       8
#     8   8   8   8   8   8   8   8
#     4   8  14  27  48  72  96 125 163 203 242 287
#     4  10  18  29  49  73  99 131 166 202 242 293
#     4  10  19  31  49  72  98 126 159 198 244 293
#     4   9  19  34  50  70  94 124 162 204 246 289
#     4  12  24  35  49  72 103 137 172 208 251 302
#     4  11  22  37  53  70  98 133 173 214 253 296
#     4   9  17  33  55  75  97 128 168 210 252 297
#     4  11  21  34  50  71 100 136 176 209 246 292
#
# _framework density 16.003990999999999
#
# number of rings (size 3 to 8) (size 9 to 14) (size 15 to 20)
#    0.000    2.000    2.500    3.375    0.000    2.250 
#    0.000    0.000    0.000    0.375    0.000    0.875 
#    0.000    3.000    0.000    0.000    0.000    0.000 
#
# Total GULP energy -357067.419467 kJ/mol
# GULP energy per Si atom -5579.178429 kJ/mol
# Density = 1.596757 g / cm^3
# Si number density = 16.003991 Si / 1000 Ang^3
#
#
#
# Elastic Constant Matrix: (Units=GPa)
#
#
# Indices 1 2 3 4 5 6 
#
# 1 32.2308 26.9401 16.7015 0.0000 0.0000 0.0000
# 2 26.9401 128.5464 37.8467 0.0000 0.0000 0.0000
# 3 16.7015 37.8467 60.5847 0.0000 0.0000 0.0000
# 4 0.0000 0.0000 0.0000 23.9809 0.0000 0.0000
# 5 0.0000 0.0000 0.0000 0.0000 18.6622 0.0000
# 6 0.0000 0.0000 0.0000 0.0000 0.0000 21.0975
#
#
#
# Elastic Compliance Matrix: (Units=1/GPa)
#
#
# Indices 1 2 3 4 5 6 
#
# 1 0.039953 -0.006287 -0.007087 0.000000 0.000000 0.000000
# 2 -0.006287 0.010522 -0.004840 0.000000 0.000000 0.000000
# 3 -0.007087 -0.004840 0.021483 0.000000 0.000000 0.000000
# 4 0.000000 0.000000 0.000000 0.041700 0.000000 0.000000
# 5 0.000000 0.000000 0.000000 0.000000 0.053584 0.000000
# 6 0.000000 0.000000 0.000000 0.000000 0.000000 0.047399
#
#
# Mechanical properties :
#
#
# Convention : Reuss Voigt Hill
#
# Bulk Modulus (GPa) = 28.14417 42.70428 35.42423
# Shear Modulus (GPa) = 19.01786 22.07304 20.54545
#
# Velocity S-wave (km/s) = 3.45094 3.71782 3.58686
# Velocity P-wave (km/s) = 5.78814 6.72094 6.27190
#
# Compressibility (1/GPa) = 0.03553133
#
# Stress axis : x y z
#
# Youngs Moduli (GPa) = 25.02929 95.04118 46.54889
#
# Poissons Ratio (x) = 0.59750 0.32988
# Poissons Ratio (y) = 0.15735 0.22529
# Poissons Ratio (z) = 0.17738 0.45998
#
# Static dielectric constant tensor:
#      x y z
#    x 1.536740 0.000000 0.000000 
#    y 0.000000 1.542650 0.000000 
#    z 0.000000 0.000000 1.522410 
# 
# From -- ./inp_files/21937.got.cif
#   From: 2010.05.17/outbox.cif.g08.bks.cpg/sg59_11_cif.got.tgz:21937.got - 2010.06.03 14:40:33.
