data_PCOD9446716
_publ_section_title
;
Structure prediction by ZEFSAII (Michael W. Deem and Ramdas Pophale) SiO2 
 PCOD9446716
Probable space group: P M M N
;
_chemical_formula_sum "Si O2"
_cell_formula_units_Z 44
_cell_length_a 14.397008
_cell_length_b 13.723814
_cell_length_c 9.274575
_cell_angle_alpha 90.000000
_cell_angle_beta 90.000000
_cell_angle_gamma 90.000000
_cell_volume 1832.487779
_symmetry_space_group_name_H-M "P M M N"
_symmetry_group_IT_number 59
_space_group.IT_coordinate_system_code '2'
_symmetry_cell_setting 'orthorhombic'
loop_
_space_group_symop_operation_xyz
x,y,z
1/2-x,1/2-y,z
1/2+x,-y,-z
-x,1/2+y,-z
-x,-y,-z
1/2+x,1/2+y,-z
1/2-x,y,z
x,1/2-y,z
loop_
_atom_site_type_symbol
_atom_site_label
_atom_site_fract_x
_atom_site_fract_y
_atom_site_fract_z
Si Si1 0.250000 0.367587 0.182944
Si Si2 0.064935 0.867321 0.415210
Si Si3 0.558120 0.633337 0.661657
Si Si4 0.427377 0.977432 0.875205
Si Si5 0.855030 0.138302 0.873258
Si Si6 0.250000 0.867727 0.600941
Si Si7 0.750000 0.520937 0.129206
O O1 0.250000 0.250000 0.156723
O O2 0.158575 0.392605 0.276287
O O3 0.250000 0.428654 0.035797
O O4 0.064544 0.750000 0.402539
O O5 0.078072 0.902946 0.251217
O O6 0.157603 0.889619 0.506778
O O7 0.972522 0.896574 0.500874
O O8 0.552044 0.750000 0.668390
O O9 0.477842 0.589548 0.761868
O O10 0.355698 0.059553 0.825543
O O11 0.353495 0.916466 0.975110
O O12 0.500000 0.000000 0.000000
O O13 0.750000 0.137821 0.814372
O O14 0.881146 0.250000 0.903103
O O15 0.250000 0.750000 0.631333
O O16 0.250000 0.932606 0.744084
#
# Coordination Sequence:
#
# PCOD9446716 Si02
#       7
#     4   8   8   8   8   4   4
#     4  10  22  40  59  80 112 163 220 262 292 330
#     4   9  17  32  56  88 124 157 188 229 298 374
#     4  10  20  36  60  85 113 157 207 249 293 354
#     4  12  23  36  55  83 121 154 197 246 301 356
#     4  10  20  35  58  91 128 157 184 238 307 371
#     4  10  18  29  56  95 128 153 181 232 309 387
#     4  12  22  35  59  87 124 152 201 256 301 355
#
# _framework density 24.011074000000001
#
# number of rings (size 3 to 8) (size 9 to 14) (size 15 to 20)
#    0.000    1.636    5.455    0.545    0.000    0.727 
#    0.000    0.909    0.000    2.182    0.000    6.364 
#    0.000    0.000    0.000    0.000    0.000    0.000 
#
# Total GULP energy -245270.725984 kJ/mol
# GULP energy per Si atom -5574.334681 kJ/mol
# Density = 2.395642 g / cm^3
# Si number density = 24.011074 Si / 1000 Ang^3
#
#
#
# Elastic Constant Matrix: (Units=GPa)
#
#
# Indices 1 2 3 4 5 6 
#
# 1 86.9599 -4.9311 -9.2902 0.0000 0.0000 0.0000
# 2 -4.9311 86.0450 12.0721 0.0000 0.0000 0.0000
# 3 -9.2902 12.0721 112.5345 0.0000 0.0000 0.0000
# 4 0.0000 0.0000 0.0000 48.3999 0.0000 0.0000
# 5 0.0000 0.0000 0.0000 0.0000 23.6277 0.0000
# 6 0.0000 0.0000 0.0000 0.0000 0.0000 21.3100
#
#
#
# Elastic Compliance Matrix: (Units=1/GPa)
#
#
# Indices 1 2 3 4 5 6 
#
# 1 0.011627 0.000540 0.000902 0.000000 0.000000 0.000000
# 2 0.000540 0.011824 -0.001224 0.000000 0.000000 0.000000
# 3 0.000902 -0.001224 0.009092 0.000000 0.000000 0.000000
# 4 0.000000 0.000000 0.000000 0.020661 0.000000 0.000000
# 5 0.000000 0.000000 0.000000 0.000000 0.042323 0.000000
# 6 0.000000 0.000000 0.000000 0.000000 0.000000 0.046926
#
#
# Mechanical properties :
#
#
# Convention : Reuss Voigt Hill
#
# Bulk Modulus (GPa) = 30.32286 31.24901 30.78594
# Shear Modulus (GPa) = 32.67739 37.84674 35.26207
#
# Velocity S-wave (km/s) = 3.69308 3.97447 3.83636
# Velocity P-wave (km/s) = 5.55349 5.83991 5.69850
#
# Compressibility (1/GPa) = 0.03297842
#
# Stress axis : x y z
#
# Youngs Moduli (GPa) = 86.01029 84.57039 109.98781
#
# Poissons Ratio (x) = -0.04565 -0.09920
# Poissons Ratio (y) = -0.04642 0.13462
# Poissons Ratio (z) = -0.07757 0.10351
#
# Static dielectric constant tensor:
#      x y z
#    x 2.190340 0.000000 0.000000 
#    y 0.000000 2.233320 0.000000 
#    z 0.000000 0.000000 1.984980 
# 
# From -- ./inp_files/8932.got.cif
#   From: 2010.05.17/outbox.cif.g08.bks.cpg/sg59_5_cif.got.tgz:8932.got - 2010.06.03 14:40:33.
