data_PCOD9446021
_publ_section_title
;
Structure prediction by ZEFSAII (Michael W. Deem and Ramdas Pophale) SiO2 
 PCOD9446021
Probable space group: P N N M
;
_chemical_formula_sum "Si O2"
_cell_formula_units_Z 64
_cell_length_a 18.000000
_cell_length_b 21.000000
_cell_length_c 9.000000
_cell_angle_alpha 90.000000
_cell_angle_beta 90.000000
_cell_angle_gamma 90.000000
_cell_volume 3402.000000
_symmetry_space_group_name_H-M "P N N M"
_symmetry_group_IT_number 58
_symmetry_cell_setting 'orthorhombic'
loop_
_space_group_symop_operation_xyz
x,y,z
-x,-y,z
1/2+x,1/2-y,1/2-z
1/2-x,1/2+y,1/2-z
-x,-y,-z
x,y,-z
1/2-x,1/2+y,1/2+z
1/2+x,1/2-y,1/2+z
loop_
_atom_site_type_symbol
_atom_site_label
_atom_site_fract_x
_atom_site_fract_y
_atom_site_fract_z
Si Si1 0.706091 0.855386 0.322972
Si Si2 0.554202 0.818666 0.826217
Si Si3 0.306251 0.753148 0.323935
Si Si4 0.207700 0.019596 0.679018
Si Si5 0.797295 0.600172 0.820853
Si Si6 0.946775 0.940928 0.178592
Si Si7 0.025229 0.203661 0.824280
Si Si8 0.551130 0.059807 0.824495
O O1 0.708694 0.852327 0.500000
O O2 0.624765 0.842021 0.263815
O O3 0.758347 0.800139 0.257796
O O4 0.732990 0.925971 0.277848
O O5 0.527389 0.750659 0.766196
O O6 0.492295 0.873483 0.807732
O O7 0.572148 0.814176 0.000000
O O8 0.289028 0.751023 0.500000
O O9 0.293052 0.825990 0.270821
O O10 0.391995 0.732534 0.306623
O O11 0.202070 0.019352 0.500000
O O12 0.131361 0.043087 0.748124
O O13 0.232496 0.948724 0.726224
O O14 0.873045 0.568135 0.764280
O O15 0.798732 0.601853 0.000000
O O16 0.974591 0.870389 0.223665
O O17 0.938254 0.938395 0.000000
O O18 0.000000 0.000000 0.215363
O O19 0.006712 0.206280 0.000000
O O20 0.500000 0.000000 0.776777
O O21 0.567078 0.050550 0.000000
#
# Coordination Sequence:
#
# PCOD9446021 Si02
#       8
#     8   8   8   8   8   8   8   8
#     4  11  23  38  59  86 117 154 197 240 289 349
#     4  11  23  37  58  87 119 153 195 242 291 347
#     4  10  20  37  61  85 113 153 195 239 292 347
#     4  10  22  39  59  86 119 155 195 241 291 348
#     4  10  21  37  58  85 116 150 191 236 287 346
#     4  10  22  40  63  89 117 153 198 244 295 352
#     4  10  20  38  62  86 116 154 195 242 295 351
#     4  10  21  36  54  81 116 153 192 235 283 339
#
# _framework density 18.812463000000001
#
# number of rings (size 3 to 8) (size 9 to 14) (size 15 to 20)
#    0.000    1.750    2.500    1.500    0.000    4.500 
#    0.000    2.500    0.000    0.000    0.000    0.000 
#    0.000    0.000    0.000    0.000    0.000    0.000 
#
# Total GULP energy -357313.239658 kJ/mol
# GULP energy per Si atom -5583.019370 kJ/mol
# Density = 1.876965 g / cm^3
# Si number density = 18.812463 Si / 1000 Ang^3
#
#
#
# Elastic Constant Matrix: (Units=GPa)
#
#
# Indices 1 2 3 4 5 6 
#
# 1 21.1892 11.7700 14.8795 0.0000 0.0000 0.0000
# 2 11.7700 150.2657 27.1268 0.0000 0.0000 0.0000
# 3 14.8795 27.1268 6.4042 0.0000 0.0000 0.0000
# 4 0.0000 0.0000 0.0000 20.7320 0.0000 0.0000
# 5 0.0000 0.0000 0.0000 0.0000 24.5590 0.0000
# 6 0.0000 0.0000 0.0000 0.0000 0.0000 33.4519
#
#
#
# Elastic Compliance Matrix: (Units=1/GPa)
#
#
# Indices 1 2 3 4 5 6 
#
# 1 -0.011405 -0.016532 0.096525 0.000000 0.000000 0.000000
# 2 -0.016532 0.004316 0.020128 0.000000 0.000000 0.000000
# 3 0.096525 0.020128 -0.153379 0.000000 0.000000 0.000000
# 4 0.000000 0.000000 0.000000 0.048235 0.000000 0.000000
# 5 0.000000 0.000000 0.000000 0.000000 0.040718 0.000000
# 6 0.000000 0.000000 0.000000 0.000000 0.000000 0.029894
#
#
# Mechanical properties :
#
#
# Convention : Reuss Voigt Hill
#
# Bulk Modulus (GPa) = 25.14132 31.71241 28.42686
# Shear Modulus (GPa) = -21.87170 24.02076 1.07453
#
# Velocity S-wave (km/s) = -3.41342 3.57719 0.75659
# Velocity P-wave (km/s) = 1.46356 5.82713 3.98832
#
# Compressibility (1/GPa) = 0.03977516
#
# Stress axis : x y z
#
# Youngs Moduli (GPa) = -87.67890 231.68814 -6.51981
#
# Poissons Ratio (x) = 3.83025 0.62933
# Poissons Ratio (y) = -1.44950 0.13123
# Poissons Ratio (z) = 8.46323 -4.66345
#
# Static dielectric constant tensor:
#      x y z
#    x 1.650150 0.000000 0.000000 
#    y 0.000000 1.660960 0.000000 
#    z 0.000000 0.000000 1.627660 
# 
# From -- ./inp_files/8282.got.cif
#   From: 2010.05.17/outbox.ucp.g08.bks.cvg/sg58_5_cif.got.tgz:8282.got - 2010.06.11 16:41:41.
