data_PCOD9446463
_publ_section_title
;
Structure prediction by ZEFSAII (Michael W. Deem and Ramdas Pophale) SiO2 
 PCOD9446463
Probable space group: P M M N
;
_chemical_formula_sum "Si O2"
_cell_formula_units_Z 56
_cell_length_a 22.489026
_cell_length_b 9.017493
_cell_length_c 18.109464
_cell_angle_alpha 90.000000
_cell_angle_beta 90.000000
_cell_angle_gamma 90.000000
_cell_volume 3672.502133
_symmetry_space_group_name_H-M "P M M N"
_symmetry_group_IT_number 59
_space_group.IT_coordinate_system_code '2'
_symmetry_cell_setting 'orthorhombic'
loop_
_space_group_symop_operation_xyz
x,y,z
1/2-x,1/2-y,z
1/2+x,-y,-z
-x,1/2+y,-z
-x,-y,-z
1/2+x,1/2+y,-z
1/2-x,y,z
x,1/2-y,z
loop_
_atom_site_type_symbol
_atom_site_label
_atom_site_fract_x
_atom_site_fract_y
_atom_site_fract_z
Si Si1 0.398486 0.571577 0.787040
Si Si2 0.557239 0.919885 0.906580
Si Si3 0.027541 0.926496 0.239871
Si Si4 0.080366 0.426214 0.548820
Si Si5 0.181085 0.072636 0.663743
Si Si6 0.916594 0.079498 0.050688
Si Si7 0.961490 0.574139 0.610303
O O1 0.405117 0.750000 0.783275
O O2 0.461187 0.496622 0.765201
O O3 0.348825 0.513401 0.731564
O O4 0.385903 0.532319 0.872814
O O5 0.572693 0.750000 0.890911
O O6 0.487072 0.923373 0.928835
O O7 0.561601 0.017821 0.833141
O O8 0.591255 0.981840 0.977999
O O9 0.023085 0.750000 0.240907
O O10 0.055026 0.988374 0.315459
O O11 0.067098 0.250000 0.558207
O O12 0.141098 0.458514 0.591552
O O13 0.079421 0.455625 0.461289
O O14 0.026874 0.518142 0.585456
O O15 0.250000 0.034358 0.654076
O O16 0.176865 0.250000 0.677491
O O17 0.901169 0.250000 0.034400
O O18 0.962912 0.750000 0.624181
#
# Coordination Sequence:
#
# PCOD9446463 Si02
#       7
#     8   8   8   8   8   8   8
#     4  10  19  30  44  62  84 114 151 186 220 260
#     4   9  16  25  38  58  83 112 145 175 208 251
#     4  11  19  27  41  61  88 118 147 180 222 267
#     4   9  18  31  45  63  86 115 147 182 227 271
#     4  10  20  33  48  66  89 117 150 187 226 269
#     4   8  15  26  38  55  81 111 143 176 210 250
#     4  10  18  28  44  64  87 114 148 186 221 269
#
# _framework density 15.248459
#
# number of rings (size 3 to 8) (size 9 to 14) (size 15 to 20)
#    0.000    2.429    1.429    3.429    0.000    4.857 
#    0.000    0.000    0.000    0.000    0.000    0.000 
#    0.000    1.143    0.000    6.000    0.000    3.286 
#
# Total GULP energy -312041.830793 kJ/mol
# GULP energy per Si atom -5572.175550 kJ/mol
# Density = 1.521375 g / cm^3
# Si number density = 15.248459 Si / 1000 Ang^3
#
#
#
# Elastic Constant Matrix: (Units=GPa)
#
#
# Indices 1 2 3 4 5 6 
#
# 1 48.9253 27.0493 44.7637 0.0000 0.0000 0.0000
# 2 27.0493 77.6248 71.0787 0.0000 0.0000 0.0000
# 3 44.7637 71.0787 145.7501 0.0000 0.0000 0.0000
# 4 0.0000 0.0000 0.0000 29.7400 0.0000 0.0000
# 5 0.0000 0.0000 0.0000 0.0000 11.3201 0.0000
# 6 0.0000 0.0000 0.0000 0.0000 0.0000 10.5925
#
#
#
# Elastic Compliance Matrix: (Units=1/GPa)
#
#
# Indices 1 2 3 4 5 6 
#
# 1 0.028949 -0.003517 -0.007176 0.000000 0.000000 0.000000
# 2 -0.003517 0.023704 -0.010480 0.000000 0.000000 0.000000
# 3 -0.007176 -0.010480 0.014176 0.000000 0.000000 0.000000
# 4 0.000000 0.000000 0.000000 0.033625 0.000000 0.000000
# 5 0.000000 0.000000 0.000000 0.000000 0.088339 0.000000
# 6 0.000000 0.000000 0.000000 0.000000 0.000000 0.094406
#
#
# Mechanical properties :
#
#
# Convention : Reuss Voigt Hill
#
# Bulk Modulus (GPa) = 40.84341 62.00931 51.42636
# Shear Modulus (GPa) = 14.98329 18.95776 16.97053
#
# Velocity S-wave (km/s) = 3.13806 3.52981 3.33969
# Velocity P-wave (km/s) = 6.32245 7.57410 6.97640
#
# Compressibility (1/GPa) = 0.02448375
#
# Stress axis : x y z
#
# Youngs Moduli (GPa) = 34.54316 42.18712 70.54338
#
# Poissons Ratio (x) = 0.14837 0.50622
# Poissons Ratio (y) = 0.12148 0.73927
# Poissons Ratio (z) = 0.24788 0.44211
#
# Static dielectric constant tensor:
#      x y z
#    x 1.468380 0.000000 0.000000 
#    y 0.000000 1.513080 0.000000 
#    z 0.000000 0.000000 1.539770 
# 
# From -- ./inp_files/26378.got.cif
#   From: 2010.05.17/outbox.cif.g08.bks.cpg/sg59_14_cif.got.tgz:26378.got - 2010.06.03 14:40:33.
