data_PCOD9446881
_publ_section_title
;
Structure prediction by ZEFSAII (Michael W. Deem and Ramdas Pophale) SiO2 
 PCOD9446881
Probable space group: P M M N
;
_chemical_formula_sum "Si O2"
_cell_formula_units_Z 56
_cell_length_a 14.842930
_cell_length_b 8.137284
_cell_length_c 23.081048
_cell_angle_alpha 90.000000
_cell_angle_beta 90.000000
_cell_angle_gamma 90.000000
_cell_volume 2787.755216
_symmetry_space_group_name_H-M "P M M N"
_symmetry_group_IT_number 59
_space_group.IT_coordinate_system_code '2'
_symmetry_cell_setting 'orthorhombic'
loop_
_space_group_symop_operation_xyz
x,y,z
1/2-x,1/2-y,z
1/2+x,-y,-z
-x,1/2+y,-z
-x,-y,-z
1/2+x,1/2+y,-z
1/2-x,y,z
x,1/2-y,z
loop_
_atom_site_type_symbol
_atom_site_label
_atom_site_fract_x
_atom_site_fract_y
_atom_site_fract_z
Si Si1 0.035336 0.947679 0.357995
Si Si2 0.851116 0.058321 0.106390
Si Si3 0.645903 0.451259 0.754131
Si Si4 0.852396 0.941325 0.978093
Si Si5 0.958607 0.056797 0.868282
Si Si6 0.646142 0.050086 0.532067
Si Si7 0.148012 0.948273 0.599409
O O1 0.042301 0.750000 0.358708
O O2 0.090859 0.006213 0.302366
O O3 0.080988 0.010727 0.417487
O O4 0.930775 0.993500 0.358902
O O5 0.750000 0.992998 0.117982
O O6 0.852688 0.250000 0.121382
O O7 0.934917 0.972584 0.136899
O O8 0.866193 0.040420 0.037154
O O9 0.750000 0.502705 0.752511
O O10 0.645194 0.250000 0.754011
O O11 0.595924 0.505696 0.812591
O O12 0.750000 0.975229 0.957318
O O13 0.858314 0.750000 0.994348
O O14 0.921195 0.977302 0.926988
O O15 0.941379 0.250000 0.873562
O O16 0.750000 0.007844 0.545473
O O17 0.641460 0.250000 0.531256
O O18 0.626688 0.993995 0.466542
O O19 0.250000 0.001909 0.613452
O O20 0.148225 0.750000 0.598605
#
# Coordination Sequence:
#
# PCOD9446881 Si02
#       7
#     8   8   8   8   8   8   8
#     4  10  18  30  52  77  98 126 168 215 253 288
#     4  10  21  37  56  78 105 136 171 212 256 303
#     4   9  19  35  54  77 103 131 166 207 251 300
#     4  10  20  34  54  81 111 140 171 209 253 303
#     4  11  21  34  54  77 104 138 173 211 255 303
#     4   8  14  26  47  74 101 130 164 202 249 305
#     4   9  18  32  48  69 101 137 167 199 248 308
#
# _framework density 20.087845999999999
#
# number of rings (size 3 to 8) (size 9 to 14) (size 15 to 20)
#    0.000    2.429    0.000    3.857    0.000    4.286 
#    0.000    2.143    0.000    8.571    0.000    0.000 
#    0.000    0.000    0.000    0.000    0.000    0.000 
#
# Total GULP energy -312602.833398 kJ/mol
# GULP energy per Si atom -5582.193454 kJ/mol
# Density = 2.004213 g / cm^3
# Si number density = 20.087846 Si / 1000 Ang^3
#
#
#
# Elastic Constant Matrix: (Units=GPa)
#
#
# Indices 1 2 3 4 5 6 
#
# 1 134.4686 -4.1297 59.4615 0.0000 0.0000 0.0000
# 2 -4.1297 12.5420 -2.0290 0.0000 0.0000 0.0000
# 3 59.4615 -2.0290 48.3141 0.0000 0.0000 0.0000
# 4 0.0000 0.0000 0.0000 3.7012 0.0000 0.0000
# 5 0.0000 0.0000 0.0000 0.0000 36.0498 0.0000
# 6 0.0000 0.0000 0.0000 0.0000 0.0000 25.4827
#
#
#
# Elastic Compliance Matrix: (Units=1/GPa)
#
#
# Indices 1 2 3 4 5 6 
#
# 1 0.016374 0.002146 -0.020061 0.000000 0.000000 0.000000
# 2 0.002146 0.080559 0.000742 0.000000 0.000000 0.000000
# 3 -0.020061 0.000742 0.045419 0.000000 0.000000 0.000000
# 4 0.000000 0.000000 0.000000 0.270185 0.000000 0.000000
# 5 0.000000 0.000000 0.000000 0.000000 0.027739 0.000000
# 6 0.000000 0.000000 0.000000 0.000000 0.000000 0.039242
#
#
# Mechanical properties :
#
#
# Convention : Reuss Voigt Hill
#
# Bulk Modulus (GPa) = 9.25884 33.54783 21.40333
# Shear Modulus (GPa) = 9.09312 22.51485 15.80399
#
# Velocity S-wave (km/s) = 2.12991 3.35150 2.80794
# Velocity P-wave (km/s) = 3.26617 5.63148 4.60333
#
# Compressibility (1/GPa) = 0.10800491
#
# Stress axis : x y z
#
# Youngs Moduli (GPa) = 61.07371 12.41331 22.01714
#
# Poissons Ratio (x) = -0.02664 0.44169
# Poissons Ratio (y) = -0.13105 -0.01634
# Poissons Ratio (z) = 1.22522 -0.00921
#
# Static dielectric constant tensor:
#      x y z
#    x 1.716440 0.000000 0.000000 
#    y 0.000000 1.819680 0.000000 
#    z 0.000000 0.000000 1.691970 
# 
# From -- ./inp_files/29043.got.cif
#   From: 2010.05.17/outbox.cif.g08.bks.cpg/sg59_15_cif.got.tgz:29043.got - 2010.06.03 14:40:33.
