data_PCOD9446281
_publ_section_title
;
Structure prediction by ZEFSAII (Michael W. Deem and Ramdas Pophale) SiO2 
 PCOD9446281
Probable space group: P M M N
;
_chemical_formula_sum "Si O2"
_cell_formula_units_Z 48
_cell_length_a 17.920559
_cell_length_b 14.044721
_cell_length_c 12.385138
_cell_angle_alpha 90.000000
_cell_angle_beta 90.000000
_cell_angle_gamma 90.000000
_cell_volume 3117.206111
_symmetry_space_group_name_H-M "P M M N"
_symmetry_group_IT_number 59
_space_group.IT_coordinate_system_code '2'
_symmetry_cell_setting 'orthorhombic'
loop_
_space_group_symop_operation_xyz
x,y,z
1/2-x,1/2-y,z
1/2+x,-y,-z
-x,1/2+y,-z
-x,-y,-z
1/2+x,1/2+y,-z
1/2-x,y,z
x,1/2-y,z
loop_
_atom_site_type_symbol
_atom_site_label
_atom_site_fract_x
_atom_site_fract_y
_atom_site_fract_z
Si Si1 0.250000 0.857247 0.329001
Si Si2 0.893678 0.023480 0.927530
Si Si3 0.455741 0.138174 0.675077
Si Si4 0.750000 0.358088 0.933084
Si Si5 0.838194 0.637019 0.511236
Si Si6 0.546852 0.862168 0.071785
Si Si7 0.605774 0.480825 0.670664
O O1 0.250000 0.750000 0.370402
O O2 0.250000 0.853538 0.198021
O O3 0.325509 0.911424 0.359727
O O4 0.822466 0.083020 0.963951
O O5 0.889266 0.002115 0.799577
O O6 0.964575 0.092866 0.942756
O O7 0.902616 0.927376 0.995483
O O8 0.477640 0.250000 0.662078
O O9 0.385483 0.119362 0.597876
O O10 0.435364 0.125786 0.801142
O O11 0.526700 0.071042 0.649714
O O12 0.750000 0.250000 0.973247
O O13 0.750000 0.612259 0.502799
O O14 0.842202 0.750000 0.533595
O O15 0.878666 0.576000 0.603760
O O16 0.548715 0.750000 0.046693
#
# Coordination Sequence:
#
# PCOD9446281 Si02
#       7
#     4   8   8   4   8   8   8
#     4   9  16  26  45  72  97 118 143 190 247 285
#     4   9  18  29  48  73  97 122 154 191 238 290
#     4   9  18  32  51  71  92 123 163 199 228 273
#     4   9  16  28  45  68  95 122 153 190 233 281
#     4  10  20  33  47  66  95 130 163 192 231 281
#     4   9  17  32  49  69  97 126 156 195 234 273
#     4  10  17  30  49  72  98 120 153 196 242 282
#
# _framework density 15.398403999999999
#
# number of rings (size 3 to 8) (size 9 to 14) (size 15 to 20)
#    0.000    2.667    0.833    1.500    0.000    4.667 
#    1.500    0.417    0.000    0.000    0.000    1.167 
#    0.000    0.000    0.000    0.000    0.000    0.000 
#
# Total GULP energy -267310.857914 kJ/mol
# GULP energy per Si atom -5568.976207 kJ/mol
# Density = 1.536336 g / cm^3
# Si number density = 15.398404 Si / 1000 Ang^3
#
#
#
# Elastic Constant Matrix: (Units=GPa)
#
#
# Indices 1 2 3 4 5 6 
#
# 1 90.4789 60.6014 51.7344 0.0000 0.0000 0.0000
# 2 60.6014 116.6966 62.4823 0.0000 0.0000 0.0000
# 3 51.7344 62.4823 55.0158 0.0000 0.0000 0.0000
# 4 0.0000 0.0000 0.0000 26.1817 0.0000 0.0000
# 5 0.0000 0.0000 0.0000 0.0000 19.8250 0.0000
# 6 0.0000 0.0000 0.0000 0.0000 0.0000 24.7832
#
#
#
# Elastic Compliance Matrix: (Units=1/GPa)
#
#
# Indices 1 2 3 4 5 6 
#
# 1 0.023949 -0.000967 -0.021423 0.000000 0.000000 0.000000
# 2 -0.000967 0.021904 -0.023968 0.000000 0.000000 0.000000
# 3 -0.021423 -0.023968 0.065543 0.000000 0.000000 0.000000
# 4 0.000000 0.000000 0.000000 0.038195 0.000000 0.000000
# 5 0.000000 0.000000 0.000000 0.000000 0.050441 0.000000
# 6 0.000000 0.000000 0.000000 0.000000 0.000000 0.040350
#
#
# Mechanical properties :
#
#
# Convention : Reuss Voigt Hill
#
# Bulk Modulus (GPa) = 53.53063 67.98083 60.75573
# Shear Modulus (GPa) = 14.73521 19.98287 17.35904
#
# Velocity S-wave (km/s) = 3.09679 3.60630 3.36121
# Velocity P-wave (km/s) = 6.90116 7.84757 7.38953
#
# Compressibility (1/GPa) = 0.01868089
#
# Stress axis : x y z
#
# Youngs Moduli (GPa) = 41.75573 45.65297 15.25727
#
# Poissons Ratio (x) = 0.04413 0.32685
# Poissons Ratio (y) = 0.04036 0.36569
# Poissons Ratio (z) = 0.89452 1.09422
#
# Static dielectric constant tensor:
#      x y z
#    x 1.509670 0.000000 0.000000 
#    y 0.000000 1.503590 0.000000 
#    z 0.000000 0.000000 1.498050 
# 
# From -- ./inp_files/10288.got.cif
#   From: 2010.05.17/outbox.cif.g08.bks.cpg/sg59_6_cif.got.tgz:10288.got - 2010.06.03 14:40:33.
