data_PCOD9446030
_publ_section_title
;
Structure prediction by ZEFSAII (Michael W. Deem and Ramdas Pophale) SiO2 
 PCOD9446030
Probable space group: P N N M
;
_chemical_formula_sum "Si O2"
_cell_formula_units_Z 64
_cell_length_a 24.000000
_cell_length_b 15.000000
_cell_length_c 9.000000
_cell_angle_alpha 90.000000
_cell_angle_beta 90.000000
_cell_angle_gamma 90.000000
_cell_volume 3240.000000
_symmetry_space_group_name_H-M "P N N M"
_symmetry_group_IT_number 58
_symmetry_cell_setting 'orthorhombic'
loop_
_space_group_symop_operation_xyz
x,y,z
-x,-y,z
1/2+x,1/2-y,1/2-z
1/2-x,1/2+y,1/2-z
-x,-y,-z
x,y,-z
1/2-x,1/2+y,1/2+z
1/2+x,1/2-y,1/2+z
loop_
_atom_site_type_symbol
_atom_site_label
_atom_site_fract_x
_atom_site_fract_y
_atom_site_fract_z
Si Si1 0.440495 0.240441 0.329509
Si Si2 0.483961 0.898898 0.172580
Si Si3 0.771558 0.838494 0.323577
Si Si4 0.170610 0.977401 0.679345
Si Si5 0.344854 0.150566 0.169888
Si Si6 0.768590 0.650634 0.174797
Si Si7 0.552463 0.554388 0.674459
Si Si8 0.860678 0.551196 0.333207
O O1 0.424373 0.223316 0.500000
O O2 0.486957 0.171680 0.276913
O O3 0.387531 0.223898 0.225379
O O4 0.460342 0.341103 0.316031
O O5 0.417419 0.894684 0.180629
O O6 0.500000 0.000000 0.211889
O O7 0.501024 0.884384 0.000000
O O8 0.776957 0.832079 0.500000
O O9 0.708151 0.853859 0.274541
O O10 0.785063 0.742925 0.252472
O O11 0.805510 0.925907 0.272905
O O12 0.170884 0.976223 0.500000
O O13 0.211592 0.896873 0.728713
O O14 0.109286 0.964753 0.740989
O O15 0.373705 0.053749 0.176683
O O16 0.327613 0.166757 0.000000
O O17 0.816486 0.580007 0.212432
O O18 0.763948 0.665639 0.000000
O O19 0.500000 0.500000 0.733167
O O20 0.560351 0.531839 0.500000
O O21 0.837220 0.565666 0.500000
#
# Coordination Sequence:
#
# PCOD9446030 Si02
#       8
#     8   8   8   8   8   8   8   8
#     4  11  23  38  61  92 122 161 207 258 312 363
#     4  10  20  38  59  85 121 161 201 245 299 365
#     4  11  23  40  61  91 127 161 202 254 306 362
#     4  10  23  42  64  91 123 157 201 252 302 359
#     4  11  21  37  61  89 122 162 205 249 303 367
#     4  11  23  40  61  91 126 161 204 250 301 365
#     4  10  24  45  65  87 119 157 204 256 305 358
#     4  10  21  37  59  86 121 162 201 245 303 361
#
# _framework density 19.753086
#
# number of rings (size 3 to 8) (size 9 to 14) (size 15 to 20)
#    0.000    1.500    2.500    2.250    0.000    7.500 
#    0.000    2.500    0.000    0.000    0.000    0.000 
#    0.000    0.000    0.000    0.000    0.000    0.000 
#
# Total GULP energy -357390.216799 kJ/mol
# GULP energy per Si atom -5584.222137 kJ/mol
# Density = 1.970813 g / cm^3
# Si number density = 19.753086 Si / 1000 Ang^3
#
#
#
# Elastic Constant Matrix: (Units=GPa)
#
#
# Indices 1 2 3 4 5 6 
#
# 1 51.2766 10.4585 14.2267 0.0000 0.0000 0.0000
# 2 10.4585 60.4525 35.9569 0.0000 0.0000 0.0000
# 3 14.2267 35.9569 27.7711 0.0000 0.0000 0.0000
# 4 0.0000 0.0000 0.0000 29.6609 0.0000 0.0000
# 5 0.0000 0.0000 0.0000 0.0000 30.3027 0.0000
# 6 0.0000 0.0000 0.0000 0.0000 0.0000 26.1853
#
#
#
# Elastic Compliance Matrix: (Units=1/GPa)
#
#
# Indices 1 2 3 4 5 6 
#
# 1 0.025363 0.014530 -0.031806 0.000000 0.000000 0.000000
# 2 0.014530 0.080282 -0.111389 0.000000 0.000000 0.000000
# 3 -0.031806 -0.111389 0.196524 0.000000 0.000000 0.000000
# 4 0.000000 0.000000 0.000000 0.033714 0.000000 0.000000
# 5 0.000000 0.000000 0.000000 0.000000 0.033000 0.000000
# 6 0.000000 0.000000 0.000000 0.000000 0.000000 0.038189
#
#
# Mechanical properties :
#
#
# Convention : Reuss Voigt Hill
#
# Bulk Modulus (GPa) = 22.30202 28.97603 25.63903
# Shear Modulus (GPa) = 7.35997 22.48702 14.92350
#
# Velocity S-wave (km/s) = 1.93238 3.37769 2.75162
# Velocity P-wave (km/s) = 4.03654 5.46925 4.80658
#
# Compressibility (1/GPa) = 0.04483899
#
# Stress axis : x y z
#
# Youngs Moduli (GPa) = 39.42736 12.45611 5.08842
#
# Poissons Ratio (x) = -0.18099 0.16184
# Poissons Ratio (y) = -0.57290 0.56680
# Poissons Ratio (z) = 1.25404 1.38748
#
# Static dielectric constant tensor:
#      x y z
#    x 1.694110 0.000000 0.000000 
#    y 0.000000 1.706780 0.000000 
#    z 0.000000 0.000000 1.679780 
# 
# From -- ./inp_files/6736.got.cif
#   From: 2010.05.17/outbox.ucp.g08.bks.cvg/sg58_4_cif.got.tgz:6736.got - 2010.06.11 16:41:41.
