data_PCOD9446377
_publ_section_title
;
Structure prediction by ZEFSAII (Michael W. Deem and Ramdas Pophale) SiO2 
 PCOD9446377
Probable space group: P M M N
;
_chemical_formula_sum "Si O2"
_cell_formula_units_Z 64
_cell_length_a 7.694983
_cell_length_b 14.509227
_cell_length_c 32.739558
_cell_angle_alpha 90.000000
_cell_angle_beta 90.000000
_cell_angle_gamma 90.000000
_cell_volume 3655.314524
_symmetry_space_group_name_H-M "P M M N"
_symmetry_group_IT_number 59
_space_group.IT_coordinate_system_code '2'
_symmetry_cell_setting 'orthorhombic'
loop_
_space_group_symop_operation_xyz
x,y,z
1/2-x,1/2-y,z
1/2+x,-y,-z
-x,1/2+y,-z
-x,-y,-z
1/2+x,1/2+y,-z
1/2-x,y,z
x,1/2-y,z
loop_
_atom_site_type_symbol
_atom_site_label
_atom_site_fract_x
_atom_site_fract_y
_atom_site_fract_z
Si Si1 0.545573 0.354396 0.319675
Si Si2 0.958641 0.640910 0.533289
Si Si3 0.045625 0.147059 0.977389
Si Si4 0.960140 0.856114 0.859183
Si Si5 0.451972 0.361555 0.229613
Si Si6 0.549227 0.019799 0.390560
Si Si7 0.962947 0.644250 0.441856
Si Si8 0.043532 0.543314 0.942003
O O1 0.750000 0.346269 0.329202
O O2 0.471523 0.250000 0.322431
O O3 0.531844 0.387891 0.272955
O O4 0.469223 0.424833 0.352661
O O5 0.750000 0.628018 0.535953
O O6 0.992663 0.750000 0.537568
O O7 0.016572 0.614008 0.487552
O O8 0.043734 0.585639 0.569885
O O9 0.250000 0.153125 0.967578
O O10 0.971113 0.250000 0.971840
O O11 0.974325 0.059765 0.951726
O O12 0.030033 0.113997 0.024362
O O13 0.750000 0.853003 0.856754
O O14 0.019232 0.750000 0.865942
O O15 0.023585 0.890441 0.814632
O O16 0.008959 0.919908 0.896891
O O17 0.250000 0.387733 0.231690
O O18 0.462093 0.250000 0.228040
O O19 0.750000 0.999907 0.379776
O O20 0.472041 0.924498 0.407148
O O21 0.750000 0.642106 0.442205
O O22 0.014484 0.750000 0.435896
O O23 0.250000 0.541436 0.948892
#
# Coordination Sequence:
#
# PCOD9446377 Si02
#       8
#     8   8   8   8   8   8   8   8
#     4   9  17  27  38  57  85 108 126 157 202 245
#     4   9  17  28  41  58  81 108 136 165 197 235
#     4   9  18  32  45  57  83 122 152 175 210 250
#     4   9  17  29  44  62  86 114 140 168 206 250
#     4   8  15  28  44  60  79 107 139 163 190 240
#     4  10  18  27  42  62  82 106 135 166 201 241
#     4   8  15  28  43  58  78 105 137 171 203 234
#     4  10  19  28  42  66  88 109 145 185 213 243
#
# _framework density 17.508752999999999
#
# number of rings (size 3 to 8) (size 9 to 14) (size 15 to 20)
#    0.000    3.000    0.000    3.000    0.000    4.250 
#    0.000    2.500    0.000    1.125    0.000    0.875 
#    0.000    5.000    0.000    0.000    0.000    0.000 
#
# Total GULP energy -356527.578759 kJ/mol
# GULP energy per Si atom -5570.743418 kJ/mol
# Density = 1.746890 g / cm^3
# Si number density = 17.508753 Si / 1000 Ang^3
#
#
#
# Elastic Constant Matrix: (Units=GPa)
#
#
# Indices 1 2 3 4 5 6 
#
# 1 25.7500 1.6386 -5.0462 0.0000 0.0000 0.0000
# 2 1.6386 89.0643 64.1303 0.0000 0.0000 0.0000
# 3 -5.0462 64.1303 130.2879 0.0000 0.0000 0.0000
# 4 0.0000 0.0000 0.0000 26.8531 0.0000 0.0000
# 5 0.0000 0.0000 0.0000 0.0000 15.5891 0.0000
# 6 0.0000 0.0000 0.0000 0.0000 0.0000 8.0277
#
#
#
# Elastic Compliance Matrix: (Units=1/GPa)
#
#
# Indices 1 2 3 4 5 6 
#
# 1 0.039590 -0.002839 0.002931 0.000000 0.000000 0.000000
# 2 -0.002839 0.017595 -0.008771 0.000000 0.000000 0.000000
# 3 0.002931 -0.008771 0.012106 0.000000 0.000000 0.000000
# 4 0.000000 0.000000 0.000000 0.037240 0.000000 0.000000
# 5 0.000000 0.000000 0.000000 0.000000 0.064148 0.000000
# 6 0.000000 0.000000 0.000000 0.000000 0.000000 0.124569
#
#
# Mechanical properties :
#
#
# Convention : Reuss Voigt Hill
#
# Bulk Modulus (GPa) = 19.25530 40.72751 29.99141
# Shear Modulus (GPa) = 15.15535 22.38593 18.77064
#
# Velocity S-wave (km/s) = 2.94528 3.57957 3.27780
# Velocity P-wave (km/s) = 4.75264 6.35580 5.61176
#
# Compressibility (1/GPa) = 0.05193374
#
# Stress axis : x y z
#
# Youngs Moduli (GPa) = 25.25902 56.83303 82.60404
#
# Poissons Ratio (x) = 0.16132 -0.24207
# Poissons Ratio (y) = 0.07170 0.72450
# Poissons Ratio (z) = -0.07402 0.49847
#
# Static dielectric constant tensor:
#      x y z
#    x 1.646700 0.000000 0.000000 
#    y 0.000000 1.614160 0.000000 
#    z 0.000000 0.000000 1.603250 
# 
# From -- ./inp_files/33210.got.cif
#   From: 2010.05.17/outbox.cif.g08.bks.cpg/sg59_17_cif.got.tgz:33210.got - 2010.06.03 14:40:33.
