data_PCOD9446639
_publ_section_title
;
Structure prediction by ZEFSAII (Michael W. Deem and Ramdas Pophale) SiO2 
 PCOD9446639
Probable space group: P M M N
;
_chemical_formula_sum "Si O2"
_cell_formula_units_Z 48
_cell_length_a 26.806220
_cell_length_b 8.758780
_cell_length_c 12.208579
_cell_angle_alpha 90.000000
_cell_angle_beta 90.000000
_cell_angle_gamma 90.000000
_cell_volume 2866.449622
_symmetry_space_group_name_H-M "P M M N"
_symmetry_group_IT_number 59
_space_group.IT_coordinate_system_code '2'
_symmetry_cell_setting 'orthorhombic'
loop_
_space_group_symop_operation_xyz
x,y,z
1/2-x,1/2-y,z
1/2+x,-y,-z
-x,1/2+y,-z
-x,-y,-z
1/2+x,1/2+y,-z
1/2-x,y,z
x,1/2-y,z
loop_
_atom_site_type_symbol
_atom_site_label
_atom_site_fract_x
_atom_site_fract_y
_atom_site_fract_z
Si Si1 0.068845 0.931885 0.213058
Si Si2 0.103983 0.067102 0.668615
Si Si3 0.533582 0.069457 0.154357
Si Si4 0.875982 0.066424 0.993178
Si Si5 0.448596 0.431418 0.451417
Si Si6 0.806632 0.566252 0.174458
O O1 0.071036 0.750000 0.223640
O O2 0.113507 0.981648 0.131769
O O3 0.065633 0.003806 0.333077
O O4 0.017409 0.977324 0.152920
O O5 0.096626 0.250000 0.686617
O O6 0.094781 0.038368 0.540897
O O7 0.156347 0.023898 0.725251
O O8 0.061575 0.975692 0.733689
O O9 0.523516 0.250000 0.149938
O O10 0.573759 0.028871 0.061557
O O11 0.870509 0.250000 0.995864
O O12 0.831370 0.993692 0.062314
O O13 0.500000 0.500000 0.500000
O O14 0.455452 0.250000 0.442390
O O15 0.750000 0.511621 0.188392
O O16 0.806037 0.750000 0.170429
#
# Coordination Sequence:
#
# PCOD9446639 Si02
#       6
#     8   8   8   8   8   8
#     4  11  21  32  46  67 101 139 171 202 242 293
#     4   9  18  32  49  71 100 131 163 203 251 297
#     4  10  18  29  47  70  97 130 169 207 243 290
#     4   9  20  34  48  71 100 131 166 204 249 300
#     4  11  21  32  48  70 100 138 176 209 241 291
#     4   9  18  34  57  80  98 120 156 206 261 310
#
# _framework density 16.745453999999999
#
# number of rings (size 3 to 8) (size 9 to 14) (size 15 to 20)
#    0.000    2.167    1.667    2.000    0.000    3.000 
#    0.000    0.000    0.000    1.000    0.000    2.333 
#    0.000    0.000    0.000    0.000    0.000    0.000 
#
# Total GULP energy -267616.957238 kJ/mol
# GULP energy per Si atom -5575.353276 kJ/mol
# Density = 1.670734 g / cm^3
# Si number density = 16.745454 Si / 1000 Ang^3
#
#
#
# Elastic Constant Matrix: (Units=GPa)
#
#
# Indices 1 2 3 4 5 6 
#
# 1 91.1833 18.5934 39.6027 0.0000 0.0000 0.0000
# 2 18.5934 25.8969 30.7786 0.0000 0.0000 0.0000
# 3 39.6027 30.7786 89.1932 0.0000 0.0000 0.0000
# 4 0.0000 0.0000 0.0000 23.7946 0.0000 0.0000
# 5 0.0000 0.0000 0.0000 0.0000 12.5943 0.0000
# 6 0.0000 0.0000 0.0000 0.0000 0.0000 19.1108
#
#
#
# Elastic Compliance Matrix: (Units=1/GPa)
#
#
# Indices 1 2 3 4 5 6 
#
# 1 0.013887 -0.004479 -0.004620 0.000000 0.000000 0.000000
# 2 -0.004479 0.066907 -0.021099 0.000000 0.000000 0.000000
# 3 -0.004620 -0.021099 0.020544 0.000000 0.000000 0.000000
# 4 0.000000 0.000000 0.000000 0.042026 0.000000 0.000000
# 5 0.000000 0.000000 0.000000 0.000000 0.079401 0.000000
# 6 0.000000 0.000000 0.000000 0.000000 0.000000 0.052326
#
#
# Mechanical properties :
#
#
# Convention : Reuss Voigt Hill
#
# Bulk Modulus (GPa) = 24.42576 42.69143 33.55859
# Shear Modulus (GPa) = 14.32104 18.91987 16.62046
#
# Velocity S-wave (km/s) = 2.92759 3.36497 3.15387
# Velocity P-wave (km/s) = 5.10351 6.37551 5.77464
#
# Compressibility (1/GPa) = 0.04094039
#
# Stress axis : x y z
#
# Youngs Moduli (GPa) = 72.01000 14.94604 48.67609
#
# Poissons Ratio (x) = 0.06695 0.22489
# Poissons Ratio (y) = 0.32256 1.02704
# Poissons Ratio (z) = 0.33270 0.31535
#
# Static dielectric constant tensor:
#      x y z
#    x 1.559680 0.000000 0.000000 
#    y 0.000000 1.563850 0.000000 
#    z 0.000000 0.000000 1.596200 
# 
# From -- ./inp_files/14396.got.cif
#   From: 2010.05.17/outbox.cif.g08.bks.cpg/sg59_8_cif.got.tgz:14396.got - 2010.06.03 14:40:33.
