data_PCOD9446866
_publ_section_title
;
Structure prediction by ZEFSAII (Michael W. Deem and Ramdas Pophale) SiO2 
 PCOD9446866
Probable space group: P M M N
;
_chemical_formula_sum "Si O2"
_cell_formula_units_Z 64
_cell_length_a 8.429264
_cell_length_b 15.233899
_cell_length_c 25.257926
_cell_angle_alpha 90.000000
_cell_angle_beta 90.000000
_cell_angle_gamma 90.000000
_cell_volume 3243.384332
_symmetry_space_group_name_H-M "P M M N"
_symmetry_group_IT_number 59
_space_group.IT_coordinate_system_code '2'
_symmetry_cell_setting 'orthorhombic'
loop_
_space_group_symop_operation_xyz
x,y,z
1/2-x,1/2-y,z
1/2+x,-y,-z
-x,1/2+y,-z
-x,-y,-z
1/2+x,1/2+y,-z
1/2-x,y,z
x,1/2-y,z
loop_
_atom_site_type_symbol
_atom_site_label
_atom_site_fract_x
_atom_site_fract_y
_atom_site_fract_z
Si Si1 0.442976 0.909058 0.614362
Si Si2 0.058583 0.352041 0.004590
Si Si3 0.435781 0.501929 0.200637
Si Si4 0.438698 0.891152 0.385346
Si Si5 0.059532 0.655261 0.728936
Si Si6 0.558634 0.399134 0.500182
Si Si7 0.942269 0.489203 0.919499
Si Si8 0.568580 0.849736 0.272132
O O1 0.250000 0.919106 0.614747
O O2 0.490711 0.861322 0.668159
O O3 0.486036 0.864580 0.558061
O O4 0.521377 0.005124 0.615919
O O5 0.250000 0.349219 0.004995
O O6 0.003164 0.250000 0.007726
O O7 0.004125 0.405662 0.952583
O O8 0.009247 0.419132 0.051864
O O9 0.250000 0.485269 0.195935
O O10 0.508627 0.421652 0.232731
O O11 0.498775 0.512580 0.141085
O O12 0.464302 0.587221 0.236385
O O13 0.250000 0.877101 0.381113
O O14 0.494648 0.859370 0.443640
O O15 0.519846 0.852628 0.333601
O O16 0.250000 0.656532 0.727924
O O17 0.000039 0.750000 0.746956
O O18 0.500000 0.500000 0.500000
O O19 0.750000 0.398497 0.502500
O O20 0.750000 0.485671 0.920822
O O21 0.750000 0.880916 0.268178
O O22 0.557989 0.750000 0.253508
#
# Coordination Sequence:
#
# PCOD9446866 Si02
#       8
#     8   8   8   8   8   8   8   8
#     4   9  16  30  51  73 104 144 180 219 274 337
#     4   9  18  35  60  88 119 154 188 221 260 312
#     4  11  23  39  60  84 113 149 189 236 282 324
#     4  10  18  30  51  78 106 135 174 227 283 336
#     4  10  21  36  55  80 111 148 189 231 276 331
#     4   8  15  26  44  73 102 133 172 216 271 336
#     4   9  20  37  57  85 118 151 186 226 274 321
#     4  11  24  40  57  77 105 145 189 233 286 345
#
# _framework density 19.732474
#
# number of rings (size 3 to 8) (size 9 to 14) (size 15 to 20)
#    0.000    2.375    1.250    1.125    0.000    4.000 
#    0.000    4.375    0.000    2.250    0.000    0.000 
#    0.000    0.000    0.000    0.000    0.000    0.000 
#
# Total GULP energy -356843.898965 kJ/mol
# GULP energy per Si atom -5575.685921 kJ/mol
# Density = 1.968756 g / cm^3
# Si number density = 19.732474 Si / 1000 Ang^3
#
#
#
# Elastic Constant Matrix: (Units=GPa)
#
#
# Indices 1 2 3 4 5 6 
#
# 1 5.3087 6.8601 4.5840 0.0000 0.0000 0.0000
# 2 6.8601 92.5983 43.1387 0.0000 0.0000 0.0000
# 3 4.5840 43.1387 139.2631 0.0000 0.0000 0.0000
# 4 0.0000 0.0000 0.0000 -88.7714 0.0000 0.0000
# 5 0.0000 0.0000 0.0000 0.0000 20.6867 0.0000
# 6 0.0000 0.0000 0.0000 0.0000 0.0000 -24.9992
#
#
#
# Elastic Compliance Matrix: (Units=1/GPa)
#
#
# Indices 1 2 3 4 5 6 
#
# 1 0.209016 -0.014351 -0.002435 0.000000 0.000000 0.000000
# 2 -0.014351 0.013606 -0.003742 0.000000 0.000000 0.000000
# 3 -0.002435 -0.003742 0.008420 0.000000 0.000000 0.000000
# 4 0.000000 0.000000 0.000000 -0.011265 0.000000 0.000000
# 5 0.000000 0.000000 0.000000 0.000000 0.048340 0.000000
# 6 0.000000 0.000000 0.000000 0.000000 0.000000 -0.040001
#
#
# Mechanical properties :
#
#
# Convention : Reuss Voigt Hill
#
# Bulk Modulus (GPa) = 5.26354 38.48174 21.87264
# Shear Modulus (GPa) = 15.03762 -6.44429 4.29667
#
# Velocity S-wave (km/s) = 2.76357 -1.80912 1.47722
# Velocity P-wave (km/s) = 3.58557 3.89617 3.74409
#
# Compressibility (1/GPa) = 0.18998636
#
# Stress axis : x y z
#
# Youngs Moduli (GPa) = 4.78433 73.49761 118.76472
#
# Poissons Ratio (x) = 1.05473 0.28916
# Poissons Ratio (y) = 0.06866 0.44445
# Poissons Ratio (z) = 0.01165 0.27505
#
# Static dielectric constant tensor:
#      x y z
#    x 1.682490 0.000000 0.000000 
#    y 0.000000 1.690270 0.000000 
#    z 0.000000 0.000000 1.717970 
# 
# From -- ./inp_files/31642.got.cif
#   From: 2010.05.17/outbox.cif.g08.bks.cpg/sg59_16_cif.got.tgz:31642.got - 2010.06.03 14:40:33.
