data_PCOD9446058
_publ_section_title
;
Structure prediction by ZEFSAII (Michael W. Deem and Ramdas Pophale) SiO2 
 PCOD9446058
Probable space group: P N N M
;
_chemical_formula_sum "Si O2"
_cell_formula_units_Z 64
_cell_length_a 12.000000
_cell_length_b 30.000000
_cell_length_c 9.000000
_cell_angle_alpha 90.000000
_cell_angle_beta 90.000000
_cell_angle_gamma 90.000000
_cell_volume 3240.000000
_symmetry_space_group_name_H-M "P N N M"
_symmetry_group_IT_number 58
_symmetry_cell_setting 'orthorhombic'
loop_
_space_group_symop_operation_xyz
x,y,z
-x,-y,z
1/2+x,1/2-y,1/2-z
1/2-x,1/2+y,1/2-z
-x,-y,-z
x,y,-z
1/2-x,1/2+y,1/2+z
1/2+x,1/2-y,1/2+z
loop_
_atom_site_type_symbol
_atom_site_label
_atom_site_fract_x
_atom_site_fract_y
_atom_site_fract_z
Si Si1 0.862676 0.873945 0.833937
Si Si2 0.756096 0.700907 0.821782
Si Si3 0.976262 0.647502 0.820828
Si Si4 0.376810 0.377231 0.669250
Si Si5 0.682044 0.799680 0.824094
Si Si6 0.262403 0.054178 0.330647
Si Si7 0.392631 0.471425 0.825907
Si Si8 0.488492 0.052940 0.175469
O O1 0.793773 0.829038 0.812289
O O2 0.831042 0.909893 0.710013
O O3 0.992886 0.865942 0.832017
O O4 0.834574 0.891666 0.000000
O O5 0.879209 0.683005 0.779935
O O6 0.680640 0.660593 0.765320
O O7 0.710977 0.749417 0.769710
O O8 0.754814 0.703517 0.000000
O O9 0.088459 0.671289 0.760608
O O10 0.956643 0.597141 0.753630
O O11 0.980305 0.643006 0.000000
O O12 0.334046 0.376933 0.500000
O O13 0.368874 0.426749 0.736599
O O14 0.651521 0.797524 0.000000
O O15 0.302398 0.060498 0.500000
O O16 0.359733 0.061588 0.213916
O O17 0.210624 0.005240 0.317464
O O18 0.500000 0.500000 0.772454
O O19 0.412719 0.460584 0.000000
O O20 0.500000 0.000000 0.224245
O O21 0.513623 0.054362 0.000000
#
# Coordination Sequence:
#
# PCOD9446058 Si02
#       8
#     8   8   8   8   8   8   8   8
#     4  10  21  38  62  91 124 160 202 257 313 368
#     4  10  25  45  65  91 127 169 206 256 319 373
#     4  11  24  43  68  97 128 163 213 265 313 375
#     4  11  24  39  62  93 126 166 212 260 309 372
#     4  10  22  43  68  91 122 164 205 254 320 375
#     4  11  22  37  61  90 120 161 210 255 308 370
#     4  10  21  38  58  85 125 165 201 249 304 365
#     4  11  25  43  63  89 126 168 210 260 318 378
#
# _framework density 19.753086
#
# number of rings (size 3 to 8) (size 9 to 14) (size 15 to 20)
#    0.000    1.500    2.500    1.500    3.500    4.250 
#    0.000    0.000    0.000    0.000    0.000    0.000 
#    0.000    0.000    0.000    0.000    0.000    0.000 
#
# Total GULP energy -357040.157940 kJ/mol
# GULP energy per Si atom -5578.752468 kJ/mol
# Density = 1.970813 g / cm^3
# Si number density = 19.753086 Si / 1000 Ang^3
#
#
#
# Elastic Constant Matrix: (Units=GPa)
#
#
# Indices 1 2 3 4 5 6 
#
# 1 39.1005 23.5311 7.4013 0.0000 0.0000 0.0000
# 2 23.5311 134.4620 24.6607 0.0000 0.0000 0.0000
# 3 7.4013 24.6607 18.1187 0.0000 0.0000 0.0000
# 4 0.0000 0.0000 0.0000 32.1115 0.0000 0.0000
# 5 0.0000 0.0000 0.0000 0.0000 12.9179 0.0000
# 6 0.0000 0.0000 0.0000 0.0000 0.0000 27.5728
#
#
#
# Elastic Compliance Matrix: (Units=1/GPa)
#
#
# Indices 1 2 3 4 5 6 
#
# 1 0.029170 -0.003891 -0.006620 0.000000 0.000000 0.000000
# 2 -0.003891 0.010430 -0.012607 0.000000 0.000000 0.000000
# 3 -0.006620 -0.012607 0.075054 0.000000 0.000000 0.000000
# 4 0.000000 0.000000 0.000000 0.031141 0.000000 0.000000
# 5 0.000000 0.000000 0.000000 0.000000 0.077412 0.000000
# 6 0.000000 0.000000 0.000000 0.000000 0.000000 0.036268
#
#
# Mechanical properties :
#
#
# Convention : Reuss Voigt Hill
#
# Bulk Modulus (GPa) = 14.61578 33.65194 24.13386
# Shear Modulus (GPa) = 15.21996 23.59297 19.40646
#
# Velocity S-wave (km/s) = 2.77882 3.45975 3.13781
# Velocity P-wave (km/s) = 4.20845 5.74744 5.03707
#
# Compressibility (1/GPa) = 0.06841918
#
# Stress axis : x y z
#
# Youngs Moduli (GPa) = 34.28219 95.87726 13.32370
#
# Poissons Ratio (x) = 0.37302 0.08820
# Poissons Ratio (y) = 0.13338 0.16797
# Poissons Ratio (z) = 0.22695 1.20869
#
# Static dielectric constant tensor:
#      x y z
#    x 1.729390 0.000000 0.000000 
#    y 0.000000 1.679820 0.000000 
#    z 0.000000 0.000000 1.696460 
# 
# From -- ./inp_files/4825.got.cif
#   From: 2010.05.17/outbox.ucp.g08.bks.cvg/sg58_3_cif.got.tgz:4825.got - 2010.06.11 16:41:41.
