data_PCOD9446197
_publ_section_title
;
Structure prediction by ZEFSAII (Michael W. Deem and Ramdas Pophale) SiO2 
 PCOD9446197
Probable space group: P M M N
;
_chemical_formula_sum "Si O2"
_cell_formula_units_Z 56
_cell_length_a 8.798917
_cell_length_b 22.768968
_cell_length_c 18.450165
_cell_angle_alpha 90.000000
_cell_angle_beta 90.000000
_cell_angle_gamma 90.000000
_cell_volume 3696.347746
_symmetry_space_group_name_H-M "P M M N"
_symmetry_group_IT_number 59
_space_group.IT_coordinate_system_code '2'
_symmetry_cell_setting 'orthorhombic'
loop_
_space_group_symop_operation_xyz
x,y,z
1/2-x,1/2-y,z
1/2+x,-y,-z
-x,1/2+y,-z
-x,-y,-z
1/2+x,1/2+y,-z
1/2-x,y,z
x,1/2-y,z
loop_
_atom_site_type_symbol
_atom_site_label
_atom_site_fract_x
_atom_site_fract_y
_atom_site_fract_z
Si Si1 0.432076 0.437535 0.024908
Si Si2 0.932040 0.600739 0.128662
Si Si3 0.068384 0.681822 0.250436
Si Si4 0.432694 0.402661 0.631007
Si Si5 0.931601 0.034701 0.170561
Si Si6 0.567565 0.562878 0.522033
Si Si7 0.067255 0.029793 0.324497
O O1 0.250000 0.441877 0.029363
O O2 0.500693 0.427729 0.104178
O O3 0.500000 0.500000 0.000000
O O4 0.469015 0.395470 0.956984
O O5 0.750000 0.607009 0.136934
O O6 0.970288 0.534281 0.155084
O O7 0.014579 0.647233 0.179020
O O8 0.250000 0.678024 0.256225
O O9 0.023759 0.750000 0.247694
O O10 0.994520 0.648598 0.318531
O O11 0.250000 0.406338 0.637607
O O12 0.474319 0.395791 0.545676
O O13 0.502509 0.464547 0.658523
O O14 0.750000 0.039047 0.170458
O O15 0.999090 0.050183 0.248502
O O16 0.500000 0.500000 0.500000
O O17 0.750000 0.558884 0.521221
O O18 0.524064 0.570361 0.606123
O O19 0.250000 0.026461 0.319626
#
# Coordination Sequence:
#
# PCOD9446197 Si02
#       7
#     8   8   8   8   8   8   8
#     4   9  17  28  42  61  84 111 144 177 214 260
#     4   9  18  31  45  60  82 112 146 182 219 257
#     4  11  23  34  45  63  85 113 152 190 222 258
#     4  10  18  30  45  60  83 113 146 183 220 259
#     4  10  18  27  41  64  90 116 147 176 209 258
#     4   8  16  27  40  60  83 110 143 175 211 257
#     4  10  17  26  42  63  88 117 145 175 213 256
#
# _framework density 15.150090000000001
#
# number of rings (size 3 to 8) (size 9 to 14) (size 15 to 20)
#    0.000    2.429    1.429    3.000    0.000    5.143 
#    0.000    0.000    0.000    0.000    0.000    0.000 
#    0.000    1.143    0.000   10.857    0.000    6.286 
#
# Total GULP energy -311811.452595 kJ/mol
# GULP energy per Si atom -5568.061653 kJ/mol
# Density = 1.511561 g / cm^3
# Si number density = 15.150090 Si / 1000 Ang^3
#
#
#
# Elastic Constant Matrix: (Units=GPa)
#
#
# Indices 1 2 3 4 5 6 
#
# 1 42.8063 24.1657 52.4561 0.0000 0.0000 0.0000
# 2 24.1657 44.8537 44.2166 0.0000 0.0000 0.0000
# 3 52.4561 44.2166 184.1576 0.0000 0.0000 0.0000
# 4 0.0000 0.0000 0.0000 11.5324 0.0000 0.0000
# 5 0.0000 0.0000 0.0000 0.0000 25.7684 0.0000
# 6 0.0000 0.0000 0.0000 0.0000 0.0000 13.9641
#
#
#
# Elastic Compliance Matrix: (Units=1/GPa)
#
#
# Indices 1 2 3 4 5 6 
#
# 1 0.041747 -0.014109 -0.008504 0.000000 0.000000 0.000000
# 2 -0.014109 0.033976 -0.004139 0.000000 0.000000 0.000000
# 3 -0.008504 -0.004139 0.008846 0.000000 0.000000 0.000000
# 4 0.000000 0.000000 0.000000 0.086712 0.000000 0.000000
# 5 0.000000 0.000000 0.000000 0.000000 0.038807 0.000000
# 6 0.000000 0.000000 0.000000 0.000000 0.000000 0.071612
#
#
# Mechanical properties :
#
#
# Convention : Reuss Voigt Hill
#
# Bulk Modulus (GPa) = 32.18944 57.05495 44.62219
# Shear Modulus (GPa) = 14.46931 20.31826 17.39379
#
# Velocity S-wave (km/s) = 3.09376 3.66612 3.39204
# Velocity P-wave (km/s) = 5.83567 7.46071 6.69765
#
# Compressibility (1/GPa) = 0.03106609
#
# Stress axis : x y z
#
# Youngs Moduli (GPa) = 23.95395 29.43231 113.04365
#
# Poissons Ratio (x) = 0.41526 0.96129
# Poissons Ratio (y) = 0.33796 0.46788
# Poissons Ratio (z) = 0.20370 0.12182
#
# Static dielectric constant tensor:
#      x y z
#    x 1.503510 0.000000 0.000000 
#    y 0.000000 1.455930 0.000000 
#    z 0.000000 0.000000 1.569710 
# 
# From -- ./inp_files/26140.got.cif
#   From: 2010.05.17/outbox.cif.g08.bks.cpg/sg59_14_cif.got.tgz:26140.got - 2010.06.03 14:40:33.
