data_PCOD9446955
_publ_section_title
;
Structure prediction by ZEFSAII (Michael W. Deem and Ramdas Pophale) SiO2 
 PCOD9446955
Probable space group: P M M N
;
_chemical_formula_sum "Si O2"
_cell_formula_units_Z 48
_cell_length_a 8.259994
_cell_length_b 15.474410
_cell_length_c 18.880857
_cell_angle_alpha 90.000000
_cell_angle_beta 90.000000
_cell_angle_gamma 90.000000
_cell_volume 2413.323458
_symmetry_space_group_name_H-M "P M M N"
_symmetry_group_IT_number 59
_space_group.IT_coordinate_system_code '2'
_symmetry_cell_setting 'orthorhombic'
loop_
_space_group_symop_operation_xyz
x,y,z
1/2-x,1/2-y,z
1/2+x,-y,-z
-x,1/2+y,-z
-x,-y,-z
1/2+x,1/2+y,-z
1/2-x,y,z
x,1/2-y,z
loop_
_atom_site_type_symbol
_atom_site_label
_atom_site_fract_x
_atom_site_fract_y
_atom_site_fract_z
Si Si1 0.057638 0.031512 0.666094
Si Si2 0.055208 0.019153 0.823043
Si Si3 0.052380 0.847430 0.895341
Si Si4 0.945201 0.151066 0.942257
Si Si5 0.059179 0.905256 0.476194
Si Si6 0.058739 0.156314 0.382054
O O1 0.250000 0.043918 0.662084
O O2 0.022730 0.930209 0.648530
O O3 0.996661 0.047219 0.745614
O O4 0.980646 0.093575 0.606814
O O5 0.250000 0.014512 0.818505
O O6 0.011249 0.084743 0.885230
O O7 0.995564 0.923516 0.844338
O O8 0.250000 0.846764 0.894314
O O9 0.999099 0.750000 0.877719
O O10 0.004376 0.867648 0.976619
O O11 0.750000 0.147527 0.940845
O O12 0.993912 0.250000 0.926503
O O13 0.250000 0.896037 0.486575
O O14 0.970998 0.845605 0.533107
O O15 0.000000 0.000000 0.500000
O O16 0.250000 0.149261 0.368958
O O17 0.000297 0.250000 0.354797
#
# Coordination Sequence:
#
# PCOD9446955 Si02
#       6
#     8   8   8   8   8   8
#     4  10  20  33  49  72 103 135 167 202 246 301
#     4  10  20  32  51  78 104 136 173 211 258 305
#     4   8  15  30  51  75 103 134 171 213 256 306
#     4   9  18  33  53  74  98 133 174 216 262 309
#     4  10  18  31  52  72  93 124 161 198 237 284
#     4  10  20  34  53  76 101 129 162 203 250 297
#
# _framework density 19.889583999999999
#
# number of rings (size 3 to 8) (size 9 to 14) (size 15 to 20)
#    0.000    2.500    0.000    6.000    0.000    3.667 
#    0.000    2.500    0.000    2.500    0.000    0.000 
#    0.000    0.000    0.000    0.000    0.000    0.000 
#
# Total GULP energy -267654.115029 kJ/mol
# GULP energy per Si atom -5576.127396 kJ/mol
# Density = 1.984431 g / cm^3
# Si number density = 19.889584 Si / 1000 Ang^3
#
#
#
# Elastic Constant Matrix: (Units=GPa)
#
#
# Indices 1 2 3 4 5 6 
#
# 1 17.4180 -9.2566 -4.7781 0.0000 0.0000 0.0000
# 2 -9.2566 17.7174 -6.6586 0.0000 0.0000 0.0000
# 3 -4.7781 -6.6586 55.1442 0.0000 0.0000 0.0000
# 4 0.0000 0.0000 0.0000 9.1462 0.0000 0.0000
# 5 0.0000 0.0000 0.0000 0.0000 18.0304 0.0000
# 6 0.0000 0.0000 0.0000 0.0000 0.0000 20.2435
#
#
#
# Elastic Compliance Matrix: (Units=1/GPa)
#
#
# Indices 1 2 3 4 5 6 
#
# 1 0.088599 0.051512 0.013897 0.000000 0.000000 0.000000
# 2 0.051512 0.089074 0.015219 0.000000 0.000000 0.000000
# 3 0.013897 0.015219 0.021176 0.000000 0.000000 0.000000
# 4 0.000000 0.000000 0.000000 0.109335 0.000000 0.000000
# 5 0.000000 0.000000 0.000000 0.000000 0.055462 0.000000
# 6 0.000000 0.000000 0.000000 0.000000 0.000000 0.049399
#
#
# Mechanical properties :
#
#
# Convention : Reuss Voigt Hill
#
# Bulk Modulus (GPa) = 2.77696 5.43256 4.10476
# Shear Modulus (GPa) = 13.44723 16.88222 15.16472
#
# Velocity S-wave (km/s) = 2.60300 2.91657 2.76424
# Velocity P-wave (km/s) = 3.23007 3.75222 3.50089
#
# Compressibility (1/GPa) = 0.36010550
#
# Stress axis : x y z
#
# Youngs Moduli (GPa) = 11.28675 11.22662 47.22304
#
# Poissons Ratio (x) = -0.57831 -0.65626
# Poissons Ratio (y) = -0.58140 -0.71869
# Poissons Ratio (z) = -0.15685 -0.17086
#
# Static dielectric constant tensor:
#      x y z
#    x 1.669630 0.000000 0.000000 
#    y 0.000000 1.695030 0.000000 
#    z 0.000000 0.000000 1.733640 
# 
# From -- ./inp_files/25507.got.cif
#   From: 2010.05.17/outbox.cif.g08.bks.cpg/sg59_13_cif.got.tgz:25507.got - 2010.06.03 14:40:33.
