data_PCOD9446877
_publ_section_title
;
Structure prediction by ZEFSAII (Michael W. Deem and Ramdas Pophale) SiO2 
 PCOD9446877
Probable space group: P M M N
;
_chemical_formula_sum "Si O2"
_cell_formula_units_Z 40
_cell_length_a 14.690015
_cell_length_b 20.231743
_cell_length_c 7.989077
_cell_angle_alpha 90.000000
_cell_angle_beta 90.000000
_cell_angle_gamma 90.000000
_cell_volume 2374.390499
_symmetry_space_group_name_H-M "P M M N"
_symmetry_group_IT_number 59
_space_group.IT_coordinate_system_code '2'
_symmetry_cell_setting 'orthorhombic'
loop_
_space_group_symop_operation_xyz
x,y,z
1/2-x,1/2-y,z
1/2+x,-y,-z
-x,1/2+y,-z
-x,-y,-z
1/2+x,1/2+y,-z
1/2-x,y,z
x,1/2-y,z
loop_
_atom_site_type_symbol
_atom_site_label
_atom_site_fract_x
_atom_site_fract_y
_atom_site_fract_z
Si Si1 0.986112 0.088856 0.171157
Si Si2 0.647986 0.585597 0.367225
Si Si3 0.464347 0.935049 0.192994
Si Si4 0.644742 0.067724 0.473934
Si Si5 0.646809 0.828593 0.699700
O O1 0.068388 0.139908 0.187939
O O2 0.916249 0.096958 0.324417
O O3 0.028096 0.014872 0.186250
O O4 0.938712 0.090618 0.990149
O O5 0.750000 0.592006 0.295778
O O6 0.565873 0.590216 0.237497
O O7 0.640697 0.511964 0.446564
O O8 0.637243 0.637595 0.517183
O O9 0.399248 0.916990 0.346581
O O10 0.750000 0.087433 0.464518
O O11 0.750000 0.844178 0.757864
O O12 0.637901 0.750000 0.688035
#
# Coordination Sequence:
#
# PCOD9446877 Si02
#       5
#     8   8   8   8   8
#     4  10  19  32  50  76 104 134 171 209 256 309
#     4   9  16  30  49  73 104 133 166 207 252 303
#     4  10  18  30  52  76 102 133 167 212 265 304
#     4  10  18  31  51  75 104 131 162 213 264 301
#     4  10  19  32  52  75 104 142 173 200 245 305
#
# _framework density 16.846428
#
# number of rings (size 3 to 8) (size 9 to 14) (size 15 to 20)
#    0.000    2.200    4.000    1.200    0.000    1.600 
#    0.000    5.000    0.000    3.000    0.000    0.000 
#    0.000    0.000    0.000    0.000    0.000    0.000 
#
# Total GULP energy -222960.662568 kJ/mol
# GULP energy per Si atom -5574.016564 kJ/mol
# Density = 1.680809 g / cm^3
# Si number density = 16.846428 Si / 1000 Ang^3
#
#
#
# Elastic Constant Matrix: (Units=GPa)
#
#
# Indices 1 2 3 4 5 6 
#
# 1 97.3427 35.6188 54.2847 0.0000 0.0000 0.0000
# 2 35.6188 33.7122 15.1757 0.0000 0.0000 0.0000
# 3 54.2847 15.1757 110.0938 0.0000 0.0000 0.0000
# 4 0.0000 0.0000 0.0000 6.6936 0.0000 0.0000
# 5 0.0000 0.0000 0.0000 0.0000 7.1829 0.0000
# 6 0.0000 0.0000 0.0000 0.0000 0.0000 21.0402
#
#
#
# Elastic Compliance Matrix: (Units=1/GPa)
#
#
# Indices 1 2 3 4 5 6 
#
# 1 0.021958 -0.019539 -0.008134 0.000000 0.000000 0.000000
# 2 -0.019539 0.049011 0.002878 0.000000 0.000000 0.000000
# 3 -0.008134 0.002878 0.012697 0.000000 0.000000 0.000000
# 4 0.000000 0.000000 0.000000 0.149397 0.000000 0.000000
# 5 0.000000 0.000000 0.000000 0.000000 0.139220 0.000000
# 6 0.000000 0.000000 0.000000 0.000000 0.000000 0.047528
#
#
# Mechanical properties :
#
#
# Convention : Reuss Voigt Hill
#
# Bulk Modulus (GPa) = 29.34476 50.14522 39.74499
# Shear Modulus (GPa) = 10.40023 16.05464 13.22743
#
# Velocity S-wave (km/s) = 2.48736 3.09042 2.80514
# Velocity P-wave (km/s) = 5.07011 6.52418 5.84256
#
# Compressibility (1/GPa) = 0.03407763
#
# Stress axis : x y z
#
# Youngs Moduli (GPa) = 45.54051 20.40363 78.75830
#
# Poissons Ratio (x) = 0.39866 0.64062
# Poissons Ratio (y) = 0.88981 -0.22669
# Poissons Ratio (z) = 0.37042 -0.05873
#
# Static dielectric constant tensor:
#      x y z
#    x 1.578070 0.000000 0.000000 
#    y 0.000000 1.540820 0.000000 
#    z 0.000000 0.000000 1.583220 
# 
# From -- ./inp_files/8799.got.cif
#   From: 2010.05.17/outbox.cif.g08.bks.cpg/sg59_5_cif.got.tgz:8799.got - 2010.06.03 14:40:33.
