data_PCOD9446676
_publ_section_title
;
Structure prediction by ZEFSAII (Michael W. Deem and Ramdas Pophale) SiO2 
 PCOD9446676
Probable space group: P M M N
;
_chemical_formula_sum "Si O2"
_cell_formula_units_Z 48
_cell_length_a 8.766951
_cell_length_b 21.301136
_cell_length_c 15.307379
_cell_angle_alpha 90.000000
_cell_angle_beta 90.000000
_cell_angle_gamma 90.000000
_cell_volume 2858.592037
_symmetry_space_group_name_H-M "P M M N"
_symmetry_group_IT_number 59
_space_group.IT_coordinate_system_code '2'
_symmetry_cell_setting 'orthorhombic'
loop_
_space_group_symop_operation_xyz
x,y,z
1/2-x,1/2-y,z
1/2+x,-y,-z
-x,1/2+y,-z
-x,-y,-z
1/2+x,1/2+y,-z
1/2-x,y,z
x,1/2-y,z
loop_
_atom_site_type_symbol
_atom_site_label
_atom_site_fract_x
_atom_site_fract_y
_atom_site_fract_z
Si Si1 0.067682 0.051103 0.567549
Si Si2 0.433284 0.044943 0.074278
Si Si3 0.069300 0.488540 0.270449
Si Si4 0.569799 0.356608 0.307850
Si Si5 0.432606 0.317523 0.484707
Si Si6 0.932470 0.319854 0.109616
O O1 0.250000 0.046132 0.563724
O O2 0.020919 0.120770 0.537637
O O3 0.000000 0.000000 0.500000
O O4 0.012216 0.036842 0.665406
O O5 0.250000 0.045770 0.070274
O O6 0.478878 0.016351 0.169130
O O7 0.492231 0.117129 0.070653
O O8 0.500000 0.000000 0.000000
O O9 0.250000 0.498277 0.273915
O O10 0.026084 0.420520 0.308496
O O11 0.750000 0.370614 0.313010
O O12 0.516244 0.319230 0.391860
O O13 0.542064 0.324346 0.214386
O O14 0.250000 0.321824 0.470128
O O15 0.463458 0.250000 0.527760
O O16 0.750000 0.323849 0.095462
O O17 0.983653 0.250000 0.080092
#
# Coordination Sequence:
#
# PCOD9446676 Si02
#       6
#     8   8   8   8   8   8
#     4  11  21  33  52  75 102 137 177 217 256 303
#     4  10  21  36  56  80 106 136 174 220 268 318
#     4  10  20  34  52  76 104 135 173 215 260 311
#     4  10  18  29  48  74 103 136 172 208 252 306
#     4  10  21  34  47  67 100 139 175 214 260 306
#     4   9  18  32  50  75 108 140 169 207 258 317
#
# _framework density 16.791484000000001
#
# number of rings (size 3 to 8) (size 9 to 14) (size 15 to 20)
#    0.000    2.000    1.667    2.500    0.000    4.667 
#    0.000    0.000    0.000    1.000    0.000    4.667 
#    0.000    0.000    0.000    0.000    0.000    0.000 
#
# Total GULP energy -267658.685117 kJ/mol
# GULP energy per Si atom -5576.222607 kJ/mol
# Density = 1.675327 g / cm^3
# Si number density = 16.791484 Si / 1000 Ang^3
#
#
#
# Elastic Constant Matrix: (Units=GPa)
#
#
# Indices 1 2 3 4 5 6 
#
# 1 31.6902 41.0797 28.5473 0.0000 0.0000 0.0000
# 2 41.0797 145.2382 71.4262 0.0000 0.0000 0.0000
# 3 28.5473 71.4262 80.5173 0.0000 0.0000 0.0000
# 4 0.0000 0.0000 0.0000 20.3267 0.0000 0.0000
# 5 0.0000 0.0000 0.0000 0.0000 24.9944 0.0000
# 6 0.0000 0.0000 0.0000 0.0000 0.0000 21.9396
#
#
#
# Elastic Compliance Matrix: (Units=1/GPa)
#
#
# Indices 1 2 3 4 5 6 
#
# 1 0.053947 -0.010381 -0.009918 0.000000 0.000000 0.000000
# 2 -0.010381 0.014211 -0.008926 0.000000 0.000000 0.000000
# 3 -0.009918 -0.008926 0.023854 0.000000 0.000000 0.000000
# 4 0.000000 0.000000 0.000000 0.049196 0.000000 0.000000
# 5 0.000000 0.000000 0.000000 0.000000 0.040009 0.000000
# 6 0.000000 0.000000 0.000000 0.000000 0.000000 0.045580
#
#
# Mechanical properties :
#
#
# Convention : Reuss Voigt Hill
#
# Bulk Modulus (GPa) = 29.79531 59.95025 44.87278
# Shear Modulus (GPa) = 16.86715 21.21162 19.03939
#
# Velocity S-wave (km/s) = 3.17283 3.55806 3.37095
# Velocity P-wave (km/s) = 5.58617 7.25672 6.47554
#
# Compressibility (1/GPa) = 0.03356233
#
# Stress axis : x y z
#
# Youngs Moduli (GPa) = 18.53685 70.36731 41.92138
#
# Poissons Ratio (x) = 0.73049 0.41577
# Poissons Ratio (y) = 0.19243 0.37419
# Poissons Ratio (z) = 0.18384 0.62810
#
# Static dielectric constant tensor:
#      x y z
#    x 1.563520 0.000000 0.000000 
#    y 0.000000 1.592650 0.000000 
#    z 0.000000 0.000000 1.560090 
# 
# From -- ./inp_files/14307.got.cif
#   From: 2010.05.17/outbox.cif.g08.bks.cpg/sg59_8_cif.got.tgz:14307.got - 2010.06.03 14:40:33.
