data_PCOD9446015
_publ_section_title
;
Structure prediction by ZEFSAII (Michael W. Deem and Ramdas Pophale) SiO2 
 PCOD9446015
Probable space group: P N N M
;
_chemical_formula_sum "Si O2"
_cell_formula_units_Z 48
_cell_length_a 9.000000
_cell_length_b 12.000000
_cell_length_c 24.000000
_cell_angle_alpha 90.000000
_cell_angle_beta 90.000000
_cell_angle_gamma 90.000000
_cell_volume 2592.000000
_symmetry_space_group_name_H-M "P N N M"
_symmetry_group_IT_number 58
_symmetry_cell_setting 'orthorhombic'
loop_
_space_group_symop_operation_xyz
x,y,z
-x,-y,z
1/2+x,1/2-y,1/2-z
1/2-x,1/2+y,1/2-z
-x,-y,-z
x,y,-z
1/2-x,1/2+y,1/2+z
1/2+x,1/2-y,1/2+z
loop_
_atom_site_type_symbol
_atom_site_label
_atom_site_fract_x
_atom_site_fract_y
_atom_site_fract_z
Si Si1 0.679676 0.727204 0.131406
Si Si2 0.165247 0.551113 0.288899
Si Si3 0.822492 0.984131 0.670556
Si Si4 0.366813 0.688637 0.930536
Si Si5 0.391936 0.633235 0.436326
Si Si6 0.203382 0.913588 0.109365
O O1 0.661228 0.830107 0.176383
O O2 0.728357 0.611459 0.159739
O O3 0.532707 0.703798 0.094384
O O4 0.800148 0.764740 0.086427
O O5 0.245178 0.560240 0.227960
O O6 0.246670 0.461680 0.330533
O O7 0.000000 0.500000 0.281425
O O8 0.804340 0.907520 0.613625
O O9 0.000000 0.000000 0.680396
O O10 0.289295 0.806649 0.914674
O O11 0.361130 0.669889 0.000000
O O12 0.442601 0.643570 0.500000
O O13 0.530652 0.618804 0.395023
O O14 0.289923 0.522839 0.430252
#
# Coordination Sequence:
#
# PCOD9446015 Si02
#       6
#     8   8   8   8   8   8
#     4  10  23  40  61  96 122 170 211 260 316 372
#     4  11  23  41  63  92 128 157 217 269 315 382
#     4  10  26  41  62  94 124 175 209 256 324 376
#     4  11  22  42  66  93 132 170 216 262 315 388
#     4  10  20  36  61  93 128 162 204 258 320 375
#     4  10  21  37  60  94 123 165 206 259 321 370
#
# _framework density 18.518519000000001
#
# number of rings (size 3 to 8) (size 9 to 14) (size 15 to 20)
#    0.000    1.667    1.667    2.500    7.000    5.000 
#    0.000    2.500    0.000    2.500    0.000    0.000 
#    0.000    0.000    0.000    0.000    0.000    0.000 
#
# Total GULP energy -267241.156422 kJ/mol
# GULP energy per Si atom -5567.524092 kJ/mol
# Density = 1.847637 g / cm^3
# Si number density = 18.518519 Si / 1000 Ang^3
#
#
#
# Elastic Constant Matrix: (Units=GPa)
#
#
# Indices 1 2 3 4 5 6 
#
# 1 58.0260 23.7165 41.5989 0.0000 0.0000 0.0000
# 2 23.7165 108.9872 54.7435 0.0000 0.0000 0.0000
# 3 41.5989 54.7435 165.0103 0.0000 0.0000 0.0000
# 4 0.0000 0.0000 0.0000 31.9218 0.0000 0.0000
# 5 0.0000 0.0000 0.0000 0.0000 32.7625 0.0000
# 6 0.0000 0.0000 0.0000 0.0000 0.0000 25.8970
#
#
#
# Elastic Compliance Matrix: (Units=1/GPa)
#
#
# Indices 1 2 3 4 5 6 
#
# 1 0.021526 -0.002350 -0.004647 0.000000 0.000000 0.000000
# 2 -0.002350 0.011267 -0.003145 0.000000 0.000000 0.000000
# 3 -0.004647 -0.003145 0.008275 0.000000 0.000000 0.000000
# 4 0.000000 0.000000 0.000000 0.031327 0.000000 0.000000
# 5 0.000000 0.000000 0.000000 0.000000 0.030523 0.000000
# 6 0.000000 0.000000 0.000000 0.000000 0.000000 0.038615
#
#
# Mechanical properties :
#
#
# Convention : Reuss Voigt Hill
#
# Bulk Modulus (GPa) = 48.11669 63.57124 55.84396
# Shear Modulus (GPa) = 29.63077 32.24722 30.93900
#
# Velocity S-wave (km/s) = 4.00442 4.17748 4.09186
# Velocity P-wave (km/s) = 6.88621 7.59417 7.24884
#
# Compressibility (1/GPa) = 0.02078281
#
# Stress axis : x y z
#
# Youngs Moduli (GPa) = 46.45640 88.75741 120.84279
#
# Poissons Ratio (x) = 0.20858 0.56155
# Poissons Ratio (y) = 0.10917 0.38010
# Poissons Ratio (z) = 0.21588 0.27917
#
# Static dielectric constant tensor:
#      x y z
#    x 1.692520 0.000000 0.000000 
#    y 0.000000 1.678100 0.000000 
#    z 0.000000 0.000000 1.635640 
# 
# From -- ./inp_files/31485.got.cif
#   From: 2010.05.17/outbox.ucp.g08.bks.cvg/sg58_16_cif.got.tgz:31485.got - 2010.06.11 16:41:41.
