data_PCOD9446686
_publ_section_title
;
Structure prediction by ZEFSAII (Michael W. Deem and Ramdas Pophale) SiO2 
 PCOD9446686
Probable space group: P M M N
;
_chemical_formula_sum "Si O2"
_cell_formula_units_Z 40
_cell_length_a 22.055381
_cell_length_b 8.883227
_cell_length_c 11.829457
_cell_angle_alpha 90.000000
_cell_angle_beta 90.000000
_cell_angle_gamma 90.000000
_cell_volume 2317.662183
_symmetry_space_group_name_H-M "P M M N"
_symmetry_group_IT_number 59
_space_group.IT_coordinate_system_code '2'
_symmetry_cell_setting 'orthorhombic'
loop_
_space_group_symop_operation_xyz
x,y,z
1/2-x,1/2-y,z
1/2+x,-y,-z
-x,1/2+y,-z
-x,-y,-z
1/2+x,1/2+y,-z
1/2-x,y,z
x,1/2-y,z
loop_
_atom_site_type_symbol
_atom_site_label
_atom_site_fract_x
_atom_site_fract_y
_atom_site_fract_z
Si Si1 0.404910 0.425990 0.019420
Si Si2 0.009839 0.571353 0.832852
Si Si3 0.446868 0.928804 0.576326
Si Si4 0.820825 0.570483 0.371175
Si Si5 0.321181 0.583124 0.867051
O O1 0.390590 0.250000 0.016259
O O2 0.450783 0.470236 0.917508
O O3 0.348014 0.523695 0.983601
O O4 0.440090 0.462155 0.134949
O O5 0.017216 0.750000 0.860613
O O6 0.030537 0.547476 0.705542
O O7 0.443401 0.750000 0.556208
O O8 0.500000 0.000000 0.500000
O O9 0.378787 0.997873 0.564858
O O10 0.750000 0.522927 0.397541
O O11 0.823177 0.750000 0.383704
O O12 0.831949 0.524334 0.240112
O O13 0.250000 0.592670 0.878243
O O14 0.345514 0.750000 0.839108
#
# Coordination Sequence:
#
# PCOD9446686 Si02
#       5
#     8   8   8   8   8
#     4  10  18  29  49  73 100 131 166 206 248 303
#     4   9  19  33  48  71 101 134 167 204 254 306
#     4  11  22  36  55  78 108 141 179 223 268 318
#     4  10  20  34  53  78 106 135 173 220 268 318
#     4  10  19  30  46  71 104 138 169 206 257 312
#
# _framework density 17.258769999999998
#
# number of rings (size 3 to 8) (size 9 to 14) (size 15 to 20)
#    0.000    2.000    2.000    2.400    0.000    4.000 
#    0.000    0.000    0.000    1.200    0.000    2.800 
#    0.000    0.000    0.000    0.000    0.000    0.000 
#
# Total GULP energy -222707.258822 kJ/mol
# GULP energy per Si atom -5567.681471 kJ/mol
# Density = 1.721949 g / cm^3
# Si number density = 17.258770 Si / 1000 Ang^3
#
#
#
# Elastic Constant Matrix: (Units=GPa)
#
#
# Indices 1 2 3 4 5 6 
#
# 1 128.5268 41.2577 39.1045 0.0000 0.0000 0.0000
# 2 41.2577 63.4968 23.3333 0.0000 0.0000 0.0000
# 3 39.1045 23.3333 30.9724 0.0000 0.0000 0.0000
# 4 0.0000 0.0000 0.0000 18.1642 0.0000 0.0000
# 5 0.0000 0.0000 0.0000 0.0000 34.3366 0.0000
# 6 0.0000 0.0000 0.0000 0.0000 0.0000 30.7742
#
#
#
# Elastic Compliance Matrix: (Units=1/GPa)
#
#
# Indices 1 2 3 4 5 6 
#
# 1 0.013137 -0.003375 -0.014043 0.000000 0.000000 0.000000
# 2 -0.003375 0.022645 -0.012798 0.000000 0.000000 0.000000
# 3 -0.014043 -0.012798 0.059659 0.000000 0.000000 0.000000
# 4 0.000000 0.000000 0.000000 0.055053 0.000000 0.000000
# 5 0.000000 0.000000 0.000000 0.000000 0.029123 0.000000
# 6 0.000000 0.000000 0.000000 0.000000 0.000000 0.032495
#
#
# Mechanical properties :
#
#
# Convention : Reuss Voigt Hill
#
# Bulk Modulus (GPa) = 28.56563 47.82077 38.19320
# Shear Modulus (GPa) = 17.59240 24.60837 21.10038
#
# Velocity S-wave (km/s) = 3.19616 3.78014 3.50035
# Velocity P-wave (km/s) = 5.49617 6.84257 6.20599
#
# Compressibility (1/GPa) = 0.03500711
#
# Stress axis : x y z
#
# Youngs Moduli (GPa) = 76.12372 44.15989 16.76203
#
# Poissons Ratio (x) = 0.14905 0.23539
# Poissons Ratio (y) = 0.25693 0.21453
# Poissons Ratio (z) = 1.06900 0.56518
#
# Static dielectric constant tensor:
#      x y z
#    x 1.668330 0.000000 0.000000 
#    y 0.000000 2.010180 0.000000 
#    z 0.000000 0.000000 1.558250 
# 
# From -- ./inp_files/14031.got.cif
#   From: 2010.05.17/outbox.cif.g08.bks.cpg/sg59_8_cif.got.tgz:14031.got - 2010.06.03 14:40:33.
