data_PCOD9446113
_publ_section_title
;
Structure prediction by ZEFSAII (Michael W. Deem and Ramdas Pophale) SiO2 
 PCOD9446113
Probable space group: P N N M
;
_chemical_formula_sum "Si O2"
_cell_formula_units_Z 48
_cell_length_a 9.000000
_cell_length_b 30.000000
_cell_length_c 9.000000
_cell_angle_alpha 90.000000
_cell_angle_beta 90.000000
_cell_angle_gamma 90.000000
_cell_volume 2430.000000
_symmetry_space_group_name_H-M "P N N M"
_symmetry_group_IT_number 58
_symmetry_cell_setting 'orthorhombic'
loop_
_space_group_symop_operation_xyz
x,y,z
-x,-y,z
1/2+x,1/2-y,1/2-z
1/2-x,1/2+y,1/2-z
-x,-y,-z
x,y,-z
1/2-x,1/2+y,1/2+z
1/2+x,1/2-y,1/2+z
loop_
_atom_site_type_symbol
_atom_site_label
_atom_site_fract_x
_atom_site_fract_y
_atom_site_fract_z
Si Si1 0.701206 0.703124 0.178835
Si Si2 0.023886 0.708879 0.321837
Si Si3 0.364143 0.033040 0.664509
Si Si4 0.854383 0.029913 0.164123
Si Si5 0.979174 0.114186 0.322722
Si Si6 0.304093 0.118299 0.177312
O O1 0.607062 0.746223 0.227149
O O2 0.611659 0.658533 0.217967
O O3 0.863920 0.704028 0.248208
O O4 0.714890 0.704656 0.000000
O O5 0.005062 0.710965 0.500000
O O6 0.126543 0.666285 0.288768
O O7 0.299121 0.041150 0.500000
O O8 0.397977 0.079856 0.741531
O O9 0.500000 0.000000 0.648526
O O10 0.258333 0.005209 0.769629
O O11 0.887106 0.071242 0.270508
O O12 0.810789 0.046059 0.000000
O O13 0.000000 0.000000 0.151914
O O14 0.000863 0.113658 0.500000
O O15 0.137576 0.114161 0.240536
O O16 0.303099 0.111612 0.000000
#
# Coordination Sequence:
#
# PCOD9446113 Si02
#       6
#     8   8   8   8   8   8
#     4  10  23  42  64  93 125 159 202 249 301 364
#     4  10  23  42  64  92 125 160 202 249 303 363
#     4  11  25  42  62  89 123 163 206 254 306 363
#     4  11  23  40  63  91 122 162 207 252 302 362
#     4  11  23  39  63  92 123 161 205 253 304 362
#     4  11  23  40  62  91 123 161 206 252 304 364
#
# _framework density 19.753086
#
# number of rings (size 3 to 8) (size 9 to 14) (size 15 to 20)
#    0.000    1.333    1.667    3.000    2.333    5.333 
#    0.000    0.000    0.000    0.000    0.000    0.000 
#    0.000    0.000    0.000    0.000    0.000    0.000 
#
# Total GULP energy -268107.840817 kJ/mol
# GULP energy per Si atom -5585.580017 kJ/mol
# Density = 1.970813 g / cm^3
# Si number density = 19.753086 Si / 1000 Ang^3
#
#
#
# Elastic Constant Matrix: (Units=GPa)
#
#
# Indices 1 2 3 4 5 6 
#
# 1 2.1660 -6.5420 9.6104 0.0000 0.0000 0.0000
# 2 -6.5420 119.3824 11.4664 0.0000 0.0000 0.0000
# 3 9.6104 11.4664 14.7505 0.0000 0.0000 0.0000
# 4 0.0000 0.0000 0.0000 26.4657 0.0000 0.0000
# 5 0.0000 0.0000 0.0000 0.0000 22.3753 0.0000
# 6 0.0000 0.0000 0.0000 0.0000 0.0000 24.4992
#
#
#
# Elastic Compliance Matrix: (Units=1/GPa)
#
#
# Indices 1 2 3 4 5 6 
#
# 1 -0.170274 -0.021599 0.127729 0.000000 0.000000 0.000000
# 2 -0.021599 0.006313 0.009165 0.000000 0.000000 0.000000
# 3 0.127729 0.009165 -0.022549 0.000000 0.000000 0.000000
# 4 0.000000 0.000000 0.000000 0.037785 0.000000 0.000000
# 5 0.000000 0.000000 0.000000 0.000000 0.044692 0.000000
# 6 0.000000 0.000000 0.000000 0.000000 0.000000 0.040818
#
#
# Mechanical properties :
#
#
# Convention : Reuss Voigt Hill
#
# Bulk Modulus (GPa) = 22.68674 18.37428 20.53051
# Shear Modulus (GPa) = -17.91389 22.78564 2.43587
#
# Velocity S-wave (km/s) = -3.01473 3.40004 1.11168
# Velocity P-wave (km/s) = 0.77976 4.97352 3.47332
#
# Compressibility (1/GPa) = 0.04407861
#
# Stress axis : x y z
#
# Youngs Moduli (GPa) = -5.87287 158.41468 -44.34759
#
# Poissons Ratio (x) = 3.42159 5.66445
# Poissons Ratio (y) = -0.12685 0.40645
# Poissons Ratio (z) = 0.75013 -1.45190
#
# Static dielectric constant tensor:
#      x y z
#    x 1.678560 0.000000 0.000000 
#    y 0.000000 1.661510 0.000000 
#    z 0.000000 0.000000 1.708000 
# 
# From -- ./inp_files/2956.got.cif
#   From: 2010.05.17/outbox.ucp.g08.bks.cvg/sg58_2_cif.got.tgz:2956.got - 2010.06.11 16:41:41.
