data_PCOD9446945
_publ_section_title
;
Structure prediction by ZEFSAII (Michael W. Deem and Ramdas Pophale) SiO2 
 PCOD9446945
Probable space group: P M M N
;
_chemical_formula_sum "Si O2"
_cell_formula_units_Z 64
_cell_length_a 23.171223
_cell_length_b 7.880667
_cell_length_c 15.912659
_cell_angle_alpha 90.000000
_cell_angle_beta 90.000000
_cell_angle_gamma 90.000000
_cell_volume 2905.726203
_symmetry_space_group_name_H-M "P M M N"
_symmetry_group_IT_number 59
_space_group.IT_coordinate_system_code '2'
_symmetry_cell_setting 'orthorhombic'
loop_
_space_group_symop_operation_xyz
x,y,z
1/2-x,1/2-y,z
1/2+x,-y,-z
-x,1/2+y,-z
-x,-y,-z
1/2+x,1/2+y,-z
1/2-x,y,z
x,1/2-y,z
loop_
_atom_site_type_symbol
_atom_site_label
_atom_site_fract_x
_atom_site_fract_y
_atom_site_fract_z
Si Si1 0.313028 0.457502 0.458620
Si Si2 0.636602 0.953851 0.711864
Si Si3 0.514007 0.946364 0.124659
Si Si4 0.617176 0.046311 0.896930
Si Si5 0.005090 0.049870 0.306874
Si Si6 0.685512 0.549735 0.251474
Si Si7 0.601255 0.955457 0.398305
Si Si8 0.136748 0.555159 0.925219
O O1 0.250000 0.509653 0.490410
O O2 0.313883 0.250000 0.459199
O O3 0.322372 0.513754 0.362734
O O4 0.364855 0.511820 0.518799
O O5 0.638750 0.750000 0.712211
O O6 0.571381 0.004983 0.685982
O O7 0.646034 0.008973 0.807586
O O8 0.517722 0.750000 0.097998
O O9 0.449643 0.015298 0.107060
O O10 0.520258 0.955604 0.225445
O O11 0.567268 0.045160 0.085210
O O12 0.613495 0.250000 0.904582
O O13 0.647738 0.982756 0.981597
O O14 0.004949 0.250000 0.287965
O O15 0.963692 0.017113 0.384964
O O16 0.750000 0.477746 0.260938
O O17 0.689032 0.750000 0.269598
O O18 0.639311 0.482035 0.318499
O O19 0.664195 0.530996 0.155893
O O20 0.599575 0.750000 0.398204
O O21 0.155802 0.750000 0.922373
#
# Coordination Sequence:
#
# PCOD9446945 Si02
#       8
#     8   8   8   8   8   8   8   8
#     4   9  18  35  59  83 105 135 180 229 271 314
#     4   9  19  35  55  80 109 141 180 225 271 318
#     4  10  18  31  51  76 106 141 180 218 258 314
#     4   9  20  35  52  76 107 142 179 217 266 320
#     4  10  19  31  49  78 115 146 173 213 270 328
#     4  10  21  36  53  75 105 142 184 226 265 316
#     4  10  19  33  56  82 107 138 178 220 267 325
#     4  11  21  33  51  77 108 142 178 219 269 320
#
# _framework density 22.025476000000001
#
# number of rings (size 3 to 8) (size 9 to 14) (size 15 to 20)
#    0.000    2.250    1.250    1.875    0.000    4.250 
#    0.000    1.250    0.000    4.500    0.000    0.000 
#    0.000    0.000    0.000    0.000    0.000    0.000 
#
# Total GULP energy -357302.228659 kJ/mol
# GULP energy per Si atom -5582.847323 kJ/mol
# Density = 2.197535 g / cm^3
# Si number density = 22.025476 Si / 1000 Ang^3
#
#
#
# Elastic Constant Matrix: (Units=GPa)
#
#
# Indices 1 2 3 4 5 6 
#
# 1 10.9583 2.3507 8.4785 0.0000 0.0000 0.0000
# 2 2.3507 26.4538 -2.7737 0.0000 0.0000 0.0000
# 3 8.4785 -2.7737 73.0434 0.0000 0.0000 0.0000
# 4 0.0000 0.0000 0.0000 16.8656 0.0000 0.0000
# 5 0.0000 0.0000 0.0000 0.0000 9.5542 0.0000
# 6 0.0000 0.0000 0.0000 0.0000 0.0000 -0.7490
#
#
#
# Elastic Compliance Matrix: (Units=1/GPa)
#
#
# Indices 1 2 3 4 5 6 
#
# 1 0.103060 -0.010454 -0.012360 0.000000 0.000000 0.000000
# 2 -0.010454 0.039013 0.002695 0.000000 0.000000 0.000000
# 3 -0.012360 0.002695 0.015227 0.000000 0.000000 0.000000
# 4 0.000000 0.000000 0.000000 0.059292 0.000000 0.000000
# 5 0.000000 0.000000 0.000000 0.000000 0.104666 0.000000
# 6 0.000000 0.000000 0.000000 0.000000 0.000000 -1.335197
#
#
# Mechanical properties :
#
#
# Convention : Reuss Voigt Hill
#
# Bulk Modulus (GPa) = 8.54237 14.06293 11.30265
# Shear Modulus (GPa) = -5.34942 11.96084 3.30571
#
# Velocity S-wave (km/s) = -1.56013 2.33286 1.22642
# Velocity P-wave (km/s) = 0.80092 3.69527 2.67362
#
# Compressibility (1/GPa) = 0.11706352
#
# Stress axis : x y z
#
# Youngs Moduli (GPa) = 9.70309 25.63232 65.67080
#
# Poissons Ratio (x) = 0.26796 0.81166
# Poissons Ratio (y) = 0.10143 -0.17698
# Poissons Ratio (z) = 0.11993 -0.06908
#
# Static dielectric constant tensor:
#      x y z
#    x 1.807470 0.000000 0.000000 
#    y 0.000000 1.563790 0.000000 
#    z 0.000000 0.000000 1.833370 
# 
# From -- ./inp_files/24801.got.cif
#   From: 2010.05.17/outbox.cif.g08.bks.cpg/sg59_13_cif.got.tgz:24801.got - 2010.06.03 14:40:33.
