data_PCOD9446259
_publ_section_title
;
Structure prediction by ZEFSAII (Michael W. Deem and Ramdas Pophale) SiO2 
 PCOD9446259
Probable space group: P M M N
;
_chemical_formula_sum "Si O2"
_cell_formula_units_Z 64
_cell_length_a 7.566606
_cell_length_b 24.155381
_cell_length_c 19.805339
_cell_angle_alpha 90.000000
_cell_angle_beta 90.000000
_cell_angle_gamma 90.000000
_cell_volume 3619.905998
_symmetry_space_group_name_H-M "P M M N"
_symmetry_group_IT_number 59
_space_group.IT_coordinate_system_code '2'
_symmetry_cell_setting 'orthorhombic'
loop_
_space_group_symop_operation_xyz
x,y,z
1/2-x,1/2-y,z
1/2+x,-y,-z
-x,1/2+y,-z
-x,-y,-z
1/2+x,1/2+y,-z
1/2-x,y,z
x,1/2-y,z
loop_
_atom_site_type_symbol
_atom_site_label
_atom_site_fract_x
_atom_site_fract_y
_atom_site_fract_z
Si Si1 0.453985 0.527730 0.107757
Si Si2 0.536635 0.995517 0.750301
Si Si3 0.540466 0.420212 0.027969
Si Si4 0.533245 0.686743 0.610327
Si Si5 0.953962 0.908392 0.516675
Si Si6 0.465763 0.367784 0.248576
Si Si7 0.040287 0.014589 0.599435
Si Si8 0.463105 0.187372 0.108557
O O1 0.250000 0.545027 0.114569
O O2 0.531721 0.526283 0.182751
O O3 0.459454 0.464493 0.080165
O O4 0.529847 0.564402 0.046636
O O5 0.750000 0.993842 0.754959
O O6 0.490650 0.021637 0.678445
O O7 0.475418 0.931589 0.751140
O O8 0.750000 0.431591 0.028207
O O9 0.511169 0.358134 0.052689
O O10 0.750000 0.685239 0.610018
O O11 0.479060 0.750000 0.602158
O O12 0.468711 0.645907 0.551399
O O13 0.478772 0.662701 0.683014
O O14 0.750000 0.895416 0.501226
O O15 0.029767 0.936705 0.449286
O O16 0.959487 0.956979 0.573024
O O17 0.250000 0.367951 0.247993
O O18 0.524152 0.336185 0.181084
O O19 0.250000 0.009807 0.587294
O O20 0.250000 0.189134 0.111133
O O21 0.526308 0.250000 0.096811
#
# Coordination Sequence:
#
# PCOD9446259 Si02
#       8
#     8   8   8   8   8   8   8   8
#     4   9  18  32  48  65  88 120 154 186 226 278
#     4  10  17  29  48  65  87 119 151 181 217 266
#     4  10  19  30  46  68  92 117 150 193 233 267
#     4   9  15  24  42  65  84 108 148 187 211 239
#     4   9  17  30  44  62  87 117 149 182 220 263
#     4   9  15  25  42  64  88 115 149 183 206 244
#     4  10  19  28  42  64  91 116 145 183 224 266
#     4  10  19  31  47  66  91 125 160 187 217 265
#
# _framework density 17.680015999999998
#
# number of rings (size 3 to 8) (size 9 to 14) (size 15 to 20)
#    0.000    2.500    2.500    1.125    0.000    3.250 
#    0.000    0.000    0.000    0.375    0.000    0.875 
#    0.000    3.000    0.000    0.000    0.000    0.000 
#
# Total GULP energy -356928.220859 kJ/mol
# GULP energy per Si atom -5577.003451 kJ/mol
# Density = 1.763978 g / cm^3
# Si number density = 17.680016 Si / 1000 Ang^3
#
#
#
# Elastic Constant Matrix: (Units=GPa)
#
#
# Indices 1 2 3 4 5 6 
#
# 1 43.1924 -0.3054 -3.4139 0.0000 0.0000 0.0000
# 2 -0.3054 105.2534 71.5674 0.0000 0.0000 0.0000
# 3 -3.4139 71.5674 153.1037 0.0000 0.0000 0.0000
# 4 0.0000 0.0000 0.0000 22.8749 0.0000 0.0000
# 5 0.0000 0.0000 0.0000 0.0000 10.0259 0.0000
# 6 0.0000 0.0000 0.0000 0.0000 0.0000 8.9215
#
#
#
# Elastic Compliance Matrix: (Units=1/GPa)
#
#
# Indices 1 2 3 4 5 6 
#
# 1 0.023206 -0.000417 0.000712 0.000000 0.000000 0.000000
# 2 -0.000417 0.013935 -0.006523 0.000000 0.000000 0.000000
# 3 0.000712 -0.006523 0.009597 0.000000 0.000000 0.000000
# 4 0.000000 0.000000 0.000000 0.043716 0.000000 0.000000
# 5 0.000000 0.000000 0.000000 0.000000 0.099741 0.000000
# 6 0.000000 0.000000 0.000000 0.000000 0.000000 0.112088
#
#
# Mechanical properties :
#
#
# Convention : Reuss Voigt Hill
#
# Bulk Modulus (GPa) = 29.17015 48.58285 38.87650
# Shear Modulus (GPa) = 15.32961 23.94456 19.63709
#
# Velocity S-wave (km/s) = 2.94778 3.68411 3.33632
# Velocity P-wave (km/s) = 5.30289 6.75541 6.07273
#
# Compressibility (1/GPa) = 0.03428162
#
# Stress axis : x y z
#
# Youngs Moduli (GPa) = 43.09308 71.76100 104.20316
#
# Poissons Ratio (x) = 0.02993 -0.07423
# Poissons Ratio (y) = 0.01797 0.67974
# Poissons Ratio (z) = -0.03070 0.46811
#
# Static dielectric constant tensor:
#      x y z
#    x 1.687900 0.000000 0.000000 
#    y 0.000000 1.581340 0.000000 
#    z 0.000000 0.000000 1.621860 
# 
# From -- ./inp_files/29742.got.cif
#   From: 2010.05.17/outbox.cif.g08.bks.cpg/sg59_15_cif.got.tgz:29742.got - 2010.06.03 14:40:33.
