data_PCOD9446329
_publ_section_title
;
Structure prediction by ZEFSAII (Michael W. Deem and Ramdas Pophale) SiO2 
 PCOD9446329
Probable space group: P M M N
;
_chemical_formula_sum "Si O2"
_cell_formula_units_Z 64
_cell_length_a 7.329244
_cell_length_b 28.316795
_cell_length_c 15.190086
_cell_angle_alpha 90.000000
_cell_angle_beta 90.000000
_cell_angle_gamma 90.000000
_cell_volume 3152.561079
_symmetry_space_group_name_H-M "P M M N"
_symmetry_group_IT_number 59
_space_group.IT_coordinate_system_code '2'
_symmetry_cell_setting 'orthorhombic'
loop_
_space_group_symop_operation_xyz
x,y,z
1/2-x,1/2-y,z
1/2+x,-y,-z
-x,1/2+y,-z
-x,-y,-z
1/2+x,1/2+y,-z
1/2-x,y,z
x,1/2-y,z
loop_
_atom_site_type_symbol
_atom_site_label
_atom_site_fract_x
_atom_site_fract_y
_atom_site_fract_z
Si Si1 0.465794 0.947472 0.531056
Si Si2 0.970959 0.304428 0.460899
Si Si3 0.031386 0.554588 0.028767
Si Si4 0.038368 0.574161 0.223672
Si Si5 0.472187 0.890886 0.859755
Si Si6 0.472401 0.694628 0.735784
Si Si7 0.026678 0.627305 0.389534
Si Si8 0.970716 0.468899 0.280100
O O1 0.250000 0.937698 0.536154
O O2 0.535866 0.913682 0.455913
O O3 0.536213 0.945199 0.629826
O O4 0.500000 0.000000 0.500000
O O5 0.750000 0.308454 0.460357
O O6 0.020864 0.250000 0.461564
O O7 0.027762 0.322148 0.363236
O O8 0.030161 0.327825 0.552454
O O9 0.250000 0.558416 0.031683
O O10 0.959110 0.565902 0.126454
O O11 0.967560 0.593030 0.956868
O O12 0.000000 0.500000 0.000000
O O13 0.250000 0.586724 0.210830
O O14 0.962771 0.612888 0.292113
O O15 0.032247 0.522745 0.269980
O O16 0.250000 0.888980 0.860750
O O17 0.531078 0.842486 0.811175
O O18 0.525589 0.935475 0.799516
O O19 0.250000 0.694585 0.736139
O O20 0.526337 0.750000 0.748020
O O21 0.250000 0.627602 0.384589
O O22 0.750000 0.470484 0.281749
#
# Coordination Sequence:
#
# PCOD9446329 Si02
#       8
#     8   8   8   8   8   8   8   8
#     4  10  18  26  38  57  82 112 140 166 202 248
#     4   8  13  22  38  59  81 108 143 176 207 252
#     4  10  19  30  44  61  83 114 148 177 210 255
#     4  10  19  29  41  58  83 115 144 171 207 253
#     4   9  16  26  40  58  82 110 139 178 220 252
#     4   8  13  22  38  60  83 107 138 175 215 258
#     4   9  16  26  38  54  82 115 140 170 211 246
#     4  10  18  27  41  60  82 111 145 175 206 247
#
# _framework density 20.300955999999999
#
# number of rings (size 3 to 8) (size 9 to 14) (size 15 to 20)
#    0.000    2.750    2.500    1.500    0.000    3.000 
#    0.000    0.000    0.000    0.750    0.000    5.250 
#    0.000    4.000    0.000   16.000    0.000   15.000 
#
# Total GULP energy -356704.606556 kJ/mol
# GULP energy per Si atom -5573.509477 kJ/mol
# Density = 2.025475 g / cm^3
# Si number density = 20.300956 Si / 1000 Ang^3
#
#
#
# Elastic Constant Matrix: (Units=GPa)
#
#
# Indices 1 2 3 4 5 6 
#
# 1 78.9227 -3.1079 9.2569 0.0000 0.0000 0.0000
# 2 -3.1079 92.1364 65.8501 0.0000 0.0000 0.0000
# 3 9.2569 65.8501 191.9883 0.0000 0.0000 0.0000
# 4 0.0000 0.0000 0.0000 37.0207 0.0000 0.0000
# 5 0.0000 0.0000 0.0000 0.0000 -3.7025 0.0000
# 6 0.0000 0.0000 0.0000 0.0000 0.0000 4.1601
#
#
#
# Elastic Compliance Matrix: (Units=1/GPa)
#
#
# Indices 1 2 3 4 5 6 
#
# 1 0.012836 0.001160 -0.001017 0.000000 0.000000 0.000000
# 2 0.001160 0.014483 -0.005023 0.000000 0.000000 0.000000
# 3 -0.001017 -0.005023 0.006981 0.000000 0.000000 0.000000
# 4 0.000000 0.000000 0.000000 0.027012 0.000000 0.000000
# 5 0.000000 0.000000 0.000000 0.000000 -0.270086 0.000000
# 6 0.000000 0.000000 0.000000 0.000000 0.000000 0.240377
#
#
# Mechanical properties :
#
#
# Convention : Reuss Voigt Hill
#
# Bulk Modulus (GPa) = 40.75300 56.33841 48.54570
# Shear Modulus (GPa) = 100.92450 26.89888 63.91169
#
# Velocity S-wave (km/s) = 7.05848 3.64401 5.61698
# Velocity P-wave (km/s) = 9.30309 6.74662 8.12602
#
# Compressibility (1/GPa) = 0.02453807
#
# Stress axis : x y z
#
# Youngs Moduli (GPa) = 77.90884 69.04745 143.25361
#
# Poissons Ratio (x) = -0.08006 0.14563
# Poissons Ratio (y) = -0.09034 0.71961
# Poissons Ratio (z) = 0.07920 0.34685
#
# Static dielectric constant tensor:
#      x y z
#    x 1.923160 0.000000 0.000000 
#    y 0.000000 1.825910 0.000000 
#    z 0.000000 0.000000 1.764970 
# 
# From -- ./inp_files/21976.got.cif
#   From: 2010.05.17/outbox.cif.g08.bks.cpg/sg59_11_cif.got.tgz:21976.got - 2010.06.03 14:40:33.
