data_PCOD9446587
_publ_section_title
;
Structure prediction by ZEFSAII (Michael W. Deem and Ramdas Pophale) SiO2 
 PCOD9446587
Probable space group: P M M N
;
_chemical_formula_sum "Si O2"
_cell_formula_units_Z 64
_cell_length_a 14.921204
_cell_length_b 19.097073
_cell_length_c 15.462567
_cell_angle_alpha 90.000000
_cell_angle_beta 90.000000
_cell_angle_gamma 90.000000
_cell_volume 4406.078909
_symmetry_space_group_name_H-M "P M M N"
_symmetry_group_IT_number 59
_space_group.IT_coordinate_system_code '2'
_symmetry_cell_setting 'orthorhombic'
loop_
_space_group_symop_operation_xyz
x,y,z
1/2-x,1/2-y,z
1/2+x,-y,-z
-x,1/2+y,-z
-x,-y,-z
1/2+x,1/2+y,-z
1/2-x,y,z
x,1/2-y,z
loop_
_atom_site_type_symbol
_atom_site_label
_atom_site_fract_x
_atom_site_fract_y
_atom_site_fract_z
Si Si1 0.641024 0.670333 0.694349
Si Si2 0.142253 0.081821 0.473852
Si Si3 0.645835 0.443430 0.798770
Si Si4 0.641220 0.594553 0.867906
Si Si5 0.855117 0.833387 0.044630
Si Si6 0.480587 0.167261 0.602034
Si Si7 0.646039 0.431230 0.593320
Si Si8 0.494595 0.168428 0.805573
O O1 0.750000 0.670114 0.696236
O O2 0.611782 0.750000 0.679912
O O3 0.615294 0.620339 0.615452
O O4 0.610229 0.641348 0.786915
O O5 0.250000 0.088111 0.482767
O O6 0.091937 0.122181 0.549911
O O7 0.121865 0.999396 0.463365
O O8 0.750000 0.428433 0.818876
O O9 0.618121 0.514525 0.846913
O O10 0.641189 0.453946 0.694632
O O11 0.579695 0.380694 0.821185
O O12 0.750000 0.598159 0.867800
O O13 0.612762 0.624421 0.960279
O O14 0.750000 0.849027 0.060063
O O15 0.861119 0.750000 0.026308
O O16 0.915053 0.848574 0.128187
O O17 0.477222 0.250000 0.580659
O O18 0.577120 0.132231 0.581796
O O19 0.466653 0.160107 0.705311
O O20 0.750000 0.412388 0.576733
O O21 0.518470 0.250000 0.817404
#
# Coordination Sequence:
#
# PCOD9446587 Si02
#       8
#     8   8   8   8   8   8   8   8
#     4   9  15  23  38  62  90 113 134 166 209 258
#     4  10  18  29  45  66  91 118 143 173 218 269
#     4   9  16  28  46  66  87 110 138 175 220 261
#     4   9  15  25  42  64  86 109 138 171 211 259
#     4   9  17  29  44  61  85 117 146 172 207 251
#     4  10  20  31  44  64  89 118 152 185 214 251
#     4   9  17  31  48  64  86 116 147 182 224 262
#     4   9  19  32  43  60  86 115 149 182 207 241
#
# _framework density 14.525385999999999
#
# number of rings (size 3 to 8) (size 9 to 14) (size 15 to 20)
#    0.000    2.750    1.250    1.125    0.000    3.750 
#    0.000    3.750    0.000    0.000    0.000    0.000 
#    0.000    0.000    0.000    3.625    0.000    0.250 
#
# Total GULP energy -356377.025099 kJ/mol
# GULP energy per Si atom -5568.391017 kJ/mol
# Density = 1.449233 g / cm^3
# Si number density = 14.525386 Si / 1000 Ang^3
#
#
#
# Elastic Constant Matrix: (Units=GPa)
#
#
# Indices 1 2 3 4 5 6 
#
# 1 39.3648 23.3942 22.5390 0.0000 0.0000 0.0000
# 2 23.3942 47.9366 26.1513 0.0000 0.0000 0.0000
# 3 22.5390 26.1513 45.7184 0.0000 0.0000 0.0000
# 4 0.0000 0.0000 0.0000 23.3273 0.0000 0.0000
# 5 0.0000 0.0000 0.0000 0.0000 17.0050 0.0000
# 6 0.0000 0.0000 0.0000 0.0000 0.0000 20.1800
#
#
#
# Elastic Compliance Matrix: (Units=1/GPa)
#
#
# Indices 1 2 3 4 5 6 
#
# 1 0.040146 -0.012784 -0.012479 0.000000 0.000000 0.000000
# 2 -0.012784 0.034395 -0.013371 0.000000 0.000000 0.000000
# 3 -0.012479 -0.013371 0.035674 0.000000 0.000000 0.000000
# 4 0.000000 0.000000 0.000000 0.042868 0.000000 0.000000
# 5 0.000000 0.000000 0.000000 0.000000 0.058806 0.000000
# 6 0.000000 0.000000 0.000000 0.000000 0.000000 0.049554
#
#
# Mechanical properties :
#
#
# Convention : Reuss Voigt Hill
#
# Bulk Modulus (GPa) = 30.35384 30.79874 30.57629
# Shear Modulus (GPa) = 14.29821 16.16483 15.23152
#
# Velocity S-wave (km/s) = 3.14086 3.33959 3.24174
# Velocity P-wave (km/s) = 5.83916 6.00998 5.92518
#
# Compressibility (1/GPa) = 0.03294476
#
# Stress axis : x y z
#
# Youngs Moduli (GPa) = 24.90895 29.07436 28.03190
#
# Poissons Ratio (x) = 0.37170 0.34981
# Poissons Ratio (y) = 0.31845 0.37482
# Poissons Ratio (z) = 0.31084 0.38876
#
# Static dielectric constant tensor:
#      x y z
#    x 1.460950 0.000000 0.000000 
#    y 0.000000 1.482370 0.000000 
#    z 0.000000 0.000000 1.475740 
# 
# From -- ./inp_files/23454.got.cif
#   From: 2010.05.17/outbox.cif.g08.bks.cpg/sg59_12_cif.got.tgz:23454.got - 2010.06.03 14:40:33.
