data_PCOD9446963
_publ_section_title
;
Structure prediction by ZEFSAII (Michael W. Deem and Ramdas Pophale) SiO2 
 PCOD9446963
Probable space group: P M M N
;
_chemical_formula_sum "Si O2"
_cell_formula_units_Z 48
_cell_length_a 8.602687
_cell_length_b 16.937309
_cell_length_c 18.910163
_cell_angle_alpha 90.000000
_cell_angle_beta 90.000000
_cell_angle_gamma 90.000000
_cell_volume 2755.331168
_symmetry_space_group_name_H-M "P M M N"
_symmetry_group_IT_number 59
_space_group.IT_coordinate_system_code '2'
_symmetry_cell_setting 'orthorhombic'
loop_
_space_group_symop_operation_xyz
x,y,z
1/2-x,1/2-y,z
1/2+x,-y,-z
-x,1/2+y,-z
-x,-y,-z
1/2+x,1/2+y,-z
1/2-x,y,z
x,1/2-y,z
loop_
_atom_site_type_symbol
_atom_site_label
_atom_site_fract_x
_atom_site_fract_y
_atom_site_fract_z
Si Si1 0.563300 0.495166 0.673983
Si Si2 0.436477 0.575043 0.543489
Si Si3 0.435081 0.988664 0.831128
Si Si4 0.061192 0.836719 0.408385
Si Si5 0.935552 0.424097 0.957348
Si Si6 0.435915 0.161009 0.083640
O O1 0.750000 0.494980 0.677259
O O2 0.508858 0.564313 0.620633
O O3 0.493467 0.505582 0.751264
O O4 0.510903 0.411231 0.639236
O O5 0.500000 0.500000 0.500000
O O6 0.250000 0.571448 0.548810
O O7 0.478335 0.646412 0.490734
O O8 0.250000 0.991673 0.835084
O O9 0.492050 0.906561 0.866626
O O10 0.504962 0.059983 0.878439
O O11 0.250000 0.836964 0.404901
O O12 0.005831 0.750000 0.386274
O O13 0.750000 0.423399 0.958815
O O14 0.000000 0.500000 0.000000
O O15 0.002108 0.352873 0.003874
O O16 0.250000 0.150848 0.083549
O O17 0.473366 0.250000 0.106801
#
# Coordination Sequence:
#
# PCOD9446963 Si02
#       6
#     8   8   8   8   8   8
#     4  10  19  32  51  73 100 133 169 210 255 306
#     4   9  16  28  48  71  95 125 161 201 244 298
#     4  11  21  34  53  75 103 137 173 210 251 305
#     4   8  15  29  50  74  97 124 162 208 254 299
#     4  10  18  31  52  75 100 130 167 205 244 297
#     4  10  20  35  55  78 104 132 166 212 260 302
#
# _framework density 17.420774000000002
#
# number of rings (size 3 to 8) (size 9 to 14) (size 15 to 20)
#    0.000    2.333    0.000    7.500    0.000    1.333 
#    0.000    1.667    0.000   24.000    0.000    0.000 
#    0.000    0.000    0.000    0.000    0.000    0.000 
#
# Total GULP energy -267415.687799 kJ/mol
# GULP energy per Si atom -5571.160162 kJ/mol
# Density = 1.738112 g / cm^3
# Si number density = 17.420774 Si / 1000 Ang^3
#
#
#
# Elastic Constant Matrix: (Units=GPa)
#
#
# Indices 1 2 3 4 5 6 
#
# 1 86.7844 27.1777 35.3684 0.0000 0.0000 0.0000
# 2 27.1777 77.6194 37.7984 0.0000 0.0000 0.0000
# 3 35.3684 37.7984 137.1044 0.0000 0.0000 0.0000
# 4 0.0000 0.0000 0.0000 18.6236 0.0000 0.0000
# 5 0.0000 0.0000 0.0000 0.0000 30.5263 0.0000
# 6 0.0000 0.0000 0.0000 0.0000 0.0000 17.1544
#
#
#
# Elastic Compliance Matrix: (Units=1/GPa)
#
#
# Indices 1 2 3 4 5 6 
#
# 1 0.013672 -0.003546 -0.002549 0.000000 0.000000 0.000000
# 2 -0.003546 0.015801 -0.003441 0.000000 0.000000 0.000000
# 3 -0.002549 -0.003441 0.008900 0.000000 0.000000 0.000000
# 4 0.000000 0.000000 0.000000 0.053695 0.000000 0.000000
# 5 0.000000 0.000000 0.000000 0.000000 0.032759 0.000000
# 6 0.000000 0.000000 0.000000 0.000000 0.000000 0.058294
#
#
# Mechanical properties :
#
#
# Convention : Reuss Voigt Hill
#
# Bulk Modulus (GPa) = 51.81366 55.79970 53.80668
# Shear Modulus (GPa) = 23.96614 26.67177 25.31895
#
# Velocity S-wave (km/s) = 3.71310 3.91709 3.81645
# Velocity P-wave (km/s) = 6.94189 7.24970 7.09746
#
# Compressibility (1/GPa) = 0.01929993
#
# Stress axis : x y z
#
# Youngs Moduli (GPa) = 73.14112 63.28816 112.35736
#
# Poissons Ratio (x) = 0.22440 0.28645
# Poissons Ratio (y) = 0.25933 0.38667
# Poissons Ratio (z) = 0.18647 0.21780
#
# Static dielectric constant tensor:
#      x y z
#    x 1.583850 0.000000 0.000000 
#    y 0.000000 1.610500 0.000000 
#    z 0.000000 0.000000 1.600690 
# 
# From -- ./inp_files/25760.got.cif
#   From: 2010.05.17/outbox.cif.g08.bks.cpg/sg59_13_cif.got.tgz:25760.got - 2010.06.03 14:40:33.
