data_PCOD9446335
_publ_section_title
;
Structure prediction by ZEFSAII (Michael W. Deem and Ramdas Pophale) SiO2 
 PCOD9446335
Probable space group: P M M N
;
_chemical_formula_sum "Si O2"
_cell_formula_units_Z 56
_cell_length_a 7.503851
_cell_length_b 29.445306
_cell_length_c 14.176332
_cell_angle_alpha 90.000000
_cell_angle_beta 90.000000
_cell_angle_gamma 90.000000
_cell_volume 3132.305762
_symmetry_space_group_name_H-M "P M M N"
_symmetry_group_IT_number 59
_space_group.IT_coordinate_system_code '2'
_symmetry_cell_setting 'orthorhombic'
loop_
_space_group_symop_operation_xyz
x,y,z
1/2-x,1/2-y,z
1/2+x,-y,-z
-x,1/2+y,-z
-x,-y,-z
1/2+x,1/2+y,-z
1/2-x,y,z
x,1/2-y,z
loop_
_atom_site_type_symbol
_atom_site_label
_atom_site_fract_x
_atom_site_fract_y
_atom_site_fract_z
Si Si1 0.034881 0.942771 0.380022
Si Si2 0.455365 0.391062 0.811480
Si Si3 0.968058 0.698601 0.273420
Si Si4 0.540932 0.464904 0.284207
Si Si5 0.462077 0.604265 0.571646
Si Si6 0.535670 0.518410 0.103458
Si Si7 0.463977 0.300724 0.510205
O O1 0.250000 0.940752 0.376493
O O2 0.970249 0.921448 0.477879
O O3 0.961340 0.913758 0.292459
O O4 0.977738 0.994360 0.360233
O O5 0.250000 0.384521 0.840574
O O6 0.533626 0.341124 0.795205
O O7 0.533964 0.430447 0.877648
O O8 0.750000 0.697023 0.273705
O O9 0.019557 0.750000 0.248702
O O10 0.025276 0.689941 0.382000
O O11 0.750000 0.457004 0.265805
O O12 0.466244 0.420039 0.334410
O O13 0.466074 0.485259 0.186596
O O14 0.250000 0.596579 0.572198
O O15 0.488998 0.657666 0.556965
O O16 0.750000 0.521110 0.115981
O O17 0.500000 0.500000 0.000000
O O18 0.250000 0.299168 0.514067
O O19 0.526368 0.250000 0.483582
#
# Coordination Sequence:
#
# PCOD9446335 Si02
#       7
#     8   8   8   8   8   8   8
#     4  10  18  26  39  63  90 115 144 177 212 244
#     4   9  16  28  45  63  86 118 147 172 210 263
#     4   8  13  23  41  63  85 112 146 176 200 241
#     4   9  19  33  45  60  84 115 148 176 210 263
#     4  10  19  29  42  62  89 118 148 180 213 249
#     4   9  18  31  47  64  83 109 141 180 223 264
#     4   9  17  28  43  63  87 119 155 182 208 247
#
# _framework density 17.878204
#
# number of rings (size 3 to 8) (size 9 to 14) (size 15 to 20)
#    0.000    2.857    1.429    2.571    0.000    3.714 
#    0.000    0.000    0.000    0.429    0.000    1.000 
#    0.000    3.429    0.000    0.000    0.000    0.000 
#
# Total GULP energy -312020.957999 kJ/mol
# GULP energy per Si atom -5571.802821 kJ/mol
# Density = 1.783751 g / cm^3
# Si number density = 17.878204 Si / 1000 Ang^3
#
#
#
# Elastic Constant Matrix: (Units=GPa)
#
#
# Indices 1 2 3 4 5 6 
#
# 1 46.8827 -7.7167 1.7338 0.0000 0.0000 0.0000
# 2 -7.7167 163.5973 75.0050 0.0000 0.0000 0.0000
# 3 1.7338 75.0050 73.1647 0.0000 0.0000 0.0000
# 4 0.0000 0.0000 0.0000 23.6492 0.0000 0.0000
# 5 0.0000 0.0000 0.0000 0.0000 13.4638 0.0000
# 6 0.0000 0.0000 0.0000 0.0000 0.0000 14.5263
#
#
#
# Elastic Compliance Matrix: (Units=1/GPa)
#
#
# Indices 1 2 3 4 5 6 
#
# 1 0.021833 0.002391 -0.002968 0.000000 0.000000 0.000000
# 2 0.002391 0.011795 -0.012148 0.000000 0.000000 0.000000
# 3 -0.002968 -0.012148 0.026192 0.000000 0.000000 0.000000
# 4 0.000000 0.000000 0.000000 0.042285 0.000000 0.000000
# 5 0.000000 0.000000 0.000000 0.000000 0.074273 0.000000
# 6 0.000000 0.000000 0.000000 0.000000 0.000000 0.068841
#
#
# Mechanical properties :
#
#
# Convention : Reuss Voigt Hill
#
# Bulk Modulus (GPa) = 29.09646 46.85432 37.97539
# Shear Modulus (GPa) = 17.72252 24.63602 21.17927
#
# Velocity S-wave (km/s) = 3.15189 3.71616 3.44560
# Velocity P-wave (km/s) = 5.43655 6.68412 6.09236
#
# Compressibility (1/GPa) = 0.03436844
#
# Stress axis : x y z
#
# Youngs Moduli (GPa) = 45.80203 84.78145 38.17949
#
# Poissons Ratio (x) = -0.20268 0.11332
# Poissons Ratio (y) = -0.10950 0.46382
# Poissons Ratio (z) = 0.13595 1.02996
#
# Static dielectric constant tensor:
#      x y z
#    x 1.706080 0.000000 0.000000 
#    y 0.000000 1.663880 0.000000 
#    z 0.000000 0.000000 1.587990 
# 
# From -- ./inp_files/21743.got.cif
#   From: 2010.05.17/outbox.cif.g08.bks.cpg/sg59_11_cif.got.tgz:21743.got - 2010.06.03 14:40:33.
