data_PCOD9446860
_publ_section_title
;
Structure prediction by ZEFSAII (Michael W. Deem and Ramdas Pophale) SiO2 
 PCOD9446860
Probable space group: P M M N
;
_chemical_formula_sum "Si O2"
_cell_formula_units_Z 56
_cell_length_a 17.269351
_cell_length_b 8.944251
_cell_length_c 21.044161
_cell_angle_alpha 90.000000
_cell_angle_beta 90.000000
_cell_angle_gamma 90.000000
_cell_volume 3250.510779
_symmetry_space_group_name_H-M "P M M N"
_symmetry_group_IT_number 59
_space_group.IT_coordinate_system_code '2'
_symmetry_cell_setting 'orthorhombic'
loop_
_space_group_symop_operation_xyz
x,y,z
1/2-x,1/2-y,z
1/2+x,-y,-z
-x,1/2+y,-z
-x,-y,-z
1/2+x,1/2+y,-z
1/2-x,y,z
x,1/2-y,z
loop_
_atom_site_type_symbol
_atom_site_label
_atom_site_fract_x
_atom_site_fract_y
_atom_site_fract_z
Si Si1 0.472771 0.928956 0.645691
Si Si2 0.660405 0.927311 0.439417
Si Si3 0.114652 0.579522 0.030600
Si Si4 0.559999 0.919583 0.088374
Si Si5 0.431288 0.570391 0.456742
Si Si6 0.006113 0.072693 0.209072
Si Si7 0.835078 0.069087 0.833868
O O1 0.474873 0.750000 0.634646
O O2 0.474390 0.958109 0.720647
O O3 0.397197 0.997939 0.611631
O O4 0.547078 0.005899 0.612088
O O5 0.750000 0.945745 0.422042
O O6 0.643060 0.750000 0.444116
O O7 0.643273 0.005757 0.507256
O O8 0.138432 0.750000 0.018052
O O9 0.160273 0.521196 0.091922
O O10 0.025876 0.582067 0.056415
O O11 0.114814 0.489248 0.965385
O O12 0.581776 0.750000 0.102556
O O13 0.548490 0.010045 0.153206
O O14 0.500000 0.500000 0.500000
O O15 0.432787 0.750000 0.457647
O O16 0.013609 0.250000 0.201076
O O17 0.091031 0.000023 0.200674
O O18 0.750000 0.030847 0.808139
O O19 0.843128 0.250000 0.833675
#
# Coordination Sequence:
#
# PCOD9446860 Si02
#       7
#     8   8   8   8   8   8   8
#     4  10  20  34  52  74 102 135 170 205 242 290
#     4  10  20  34  54  79 104 129 160 202 250 295
#     4   8  14  25  42  64  89 115 147 191 239 284
#     4   9  16  26  43  66  90 117 151 193 236 280
#     4  10  18  30  51  75 100 129 161 198 239 284
#     4  10  20  32  48  71  98 131 168 204 245 292
#     4   9  18  32  49  69  94 126 164 206 252 300
#
# _framework density 17.228062000000001
#
# number of rings (size 3 to 8) (size 9 to 14) (size 15 to 20)
#    0.000    2.571    0.000    5.571    0.000    7.143 
#    0.000    0.714    0.000    1.714    0.000    2.000 
#    0.000    0.000    0.000    0.000    0.000    0.000 
#
# Total GULP energy -311943.228681 kJ/mol
# GULP energy per Si atom -5570.414798 kJ/mol
# Density = 1.718885 g / cm^3
# Si number density = 17.228062 Si / 1000 Ang^3
#
#
#
# Elastic Constant Matrix: (Units=GPa)
#
#
# Indices 1 2 3 4 5 6 
#
# 1 57.2233 33.5879 29.2386 0.0000 0.0000 0.0000
# 2 33.5879 101.6870 64.0345 0.0000 0.0000 0.0000
# 3 29.2386 64.0345 108.1445 0.0000 0.0000 0.0000
# 4 0.0000 0.0000 0.0000 28.6124 0.0000 0.0000
# 5 0.0000 0.0000 0.0000 0.0000 14.2167 0.0000
# 6 0.0000 0.0000 0.0000 0.0000 0.0000 18.7657
#
#
#
# Elastic Compliance Matrix: (Units=1/GPa)
#
#
# Indices 1 2 3 4 5 6 
#
# 1 0.022141 -0.005651 -0.002640 0.000000 0.000000 0.000000
# 2 -0.005651 0.017123 -0.008611 0.000000 0.000000 0.000000
# 3 -0.002640 -0.008611 0.015060 0.000000 0.000000 0.000000
# 4 0.000000 0.000000 0.000000 0.034950 0.000000 0.000000
# 5 0.000000 0.000000 0.000000 0.000000 0.070340 0.000000
# 6 0.000000 0.000000 0.000000 0.000000 0.000000 0.053289
#
#
# Mechanical properties :
#
#
# Convention : Reuss Voigt Hill
#
# Bulk Modulus (GPa) = 48.73408 57.86409 53.29909
# Shear Modulus (GPa) = 19.72021 21.66522 20.69271
#
# Velocity S-wave (km/s) = 3.38695 3.55005 3.46946
# Velocity P-wave (km/s) = 6.60638 7.10379 6.85959
#
# Compressibility (1/GPa) = 0.02051952
#
# Stress axis : x y z
#
# Youngs Moduli (GPa) = 45.16455 58.40007 66.40268
#
# Poissons Ratio (x) = 0.33000 0.17532
# Poissons Ratio (y) = 0.25521 0.57181
# Poissons Ratio (z) = 0.11925 0.50290
#
# Static dielectric constant tensor:
#      x y z
#    x 1.610820 0.000000 0.000000 
#    y 0.000000 1.587930 0.000000 
#    z 0.000000 0.000000 1.598670 
# 
# From -- ./inp_files/30553.got.cif
#   From: 2010.05.17/outbox.cif.g08.bks.cpg/sg59_16_cif.got.tgz:30553.got - 2010.06.03 14:40:33.
