data_PCOD9446634
_publ_section_title
;
Structure prediction by ZEFSAII (Michael W. Deem and Ramdas Pophale) SiO2 
 PCOD9446634
Probable space group: P M M N
;
_chemical_formula_sum "Si O2"
_cell_formula_units_Z 40
_cell_length_a 23.553217
_cell_length_b 12.494571
_cell_length_c 6.523257
_cell_angle_alpha 90.000000
_cell_angle_beta 90.000000
_cell_angle_gamma 90.000000
_cell_volume 1919.711964
_symmetry_space_group_name_H-M "P M M N"
_symmetry_group_IT_number 59
_space_group.IT_coordinate_system_code '2'
_symmetry_cell_setting 'orthorhombic'
loop_
_space_group_symop_operation_xyz
x,y,z
1/2-x,1/2-y,z
1/2+x,-y,-z
-x,1/2+y,-z
-x,-y,-z
1/2+x,1/2+y,-z
1/2-x,y,z
x,1/2-y,z
loop_
_atom_site_type_symbol
_atom_site_label
_atom_site_fract_x
_atom_site_fract_y
_atom_site_fract_z
Si Si1 0.384861 0.003063 0.901263
Si Si2 0.573488 0.926720 0.703025
Si Si3 0.814994 0.128084 0.765188
Si Si4 0.452251 0.628271 0.559464
Si Si5 0.815278 0.565101 0.470942
O O1 0.423194 0.932375 0.750691
O O2 0.339800 0.064635 0.758164
O O3 0.350970 0.928578 0.059101
O O4 0.422253 0.076868 0.051831
O O5 0.519479 0.870910 0.603377
O O6 0.562265 0.050760 0.631253
O O7 0.633738 0.887250 0.610169
O O8 0.750000 0.126690 0.837496
O O9 0.831548 0.250000 0.731171
O O10 0.815254 0.057089 0.558463
O O11 0.433025 0.750000 0.538390
O O12 0.750000 0.604063 0.488711
#
# Coordination Sequence:
#
# PCOD9446634 Si02
#       5
#     8   8   8   8   8
#     4  10  18  29  47  69  96 126 160 201 244 289
#     4   9  20  35  50  74 102 126 162 204 239 287
#     4   9  17  27  39  61  94 128 162 198 237 290
#     4  10  20  34  52  73  99 131 163 198 243 291
#     4   9  18  31  47  67  93 128 164 198 241 289
#
# _framework density 20.836459999999999
#
# number of rings (size 3 to 8) (size 9 to 14) (size 15 to 20)
#    0.000    2.600    0.000    1.800    0.000    9.600 
#    0.000    2.000    0.000    0.600    0.000    0.000 
#    0.000    0.000    0.000    0.000    0.000    0.000 
#
# Total GULP energy -222944.356011 kJ/mol
# GULP energy per Si atom -5573.608900 kJ/mol
# Density = 2.078904 g / cm^3
# Si number density = 20.836460 Si / 1000 Ang^3
#
#
#
# Elastic Constant Matrix: (Units=GPa)
#
#
# Indices 1 2 3 4 5 6 
#
# 1 130.1027 -5.6266 10.9409 0.0000 0.0000 0.0000
# 2 -5.6266 23.2394 1.2707 0.0000 0.0000 0.0000
# 3 10.9409 1.2707 87.4577 0.0000 0.0000 0.0000
# 4 0.0000 0.0000 0.0000 -0.7914 0.0000 0.0000
# 5 0.0000 0.0000 0.0000 0.0000 32.0305 0.0000
# 6 0.0000 0.0000 0.0000 0.0000 0.0000 1.3476
#
#
#
# Elastic Compliance Matrix: (Units=1/GPa)
#
#
# Indices 1 2 3 4 5 6 
#
# 1 0.007856 0.001957 -0.001011 0.000000 0.000000 0.000000
# 2 0.001957 0.043552 -0.000878 0.000000 0.000000 0.000000
# 3 -0.001011 -0.000878 0.011573 0.000000 0.000000 0.000000
# 4 0.000000 0.000000 0.000000 -1.263604 0.000000 0.000000
# 5 0.000000 0.000000 0.000000 0.000000 0.031220 0.000000
# 6 0.000000 0.000000 0.000000 0.000000 0.000000 0.742058
#
#
# Mechanical properties :
#
#
# Convention : Reuss Voigt Hill
#
# Bulk Modulus (GPa) = 15.84323 28.21886 22.03104
# Shear Modulus (GPa) = -12.30191 22.13166 4.91488
#
# Velocity S-wave (km/s) = -2.43246 3.26262 1.53750
# Velocity P-wave (km/s) = 0.51867 5.26928 3.70785
#
# Compressibility (1/GPa) = 0.06311846
#
# Stress axis : x y z
#
# Youngs Moduli (GPa) = 127.29254 22.96096 86.40536
#
# Poissons Ratio (x) = -0.04494 0.08737
# Poissons Ratio (y) = -0.24915 0.07583
# Poissons Ratio (z) = 0.12872 0.02015
#
# Static dielectric constant tensor:
#      x y z
#    x 1.818940 0.000000 0.000000 
#    y 0.000000 1.741540 0.000000 
#    z 0.000000 0.000000 1.723840 
# 
# From -- ./inp_files/2075.got.cif
#   From: 2010.05.17/outbox.cif.g08.bks.cpg/sg59_2_cif.got.tgz:2075.got - 2010.06.03 14:40:33.
