data_PCOD9446735
_publ_section_title
;
Structure prediction by ZEFSAII (Michael W. Deem and Ramdas Pophale) SiO2 
 PCOD9446735
Probable space group: P M M N
;
_chemical_formula_sum "Si O2"
_cell_formula_units_Z 64
_cell_length_a 22.245514
_cell_length_b 8.859116
_cell_length_c 19.680707
_cell_angle_alpha 90.000000
_cell_angle_beta 90.000000
_cell_angle_gamma 90.000000
_cell_volume 3878.586924
_symmetry_space_group_name_H-M "P M M N"
_symmetry_group_IT_number 59
_space_group.IT_coordinate_system_code '2'
_symmetry_cell_setting 'orthorhombic'
loop_
_space_group_symop_operation_xyz
x,y,z
1/2-x,1/2-y,z
1/2+x,-y,-z
-x,1/2+y,-z
-x,-y,-z
1/2+x,1/2+y,-z
1/2-x,y,z
x,1/2-y,z
loop_
_atom_site_type_symbol
_atom_site_label
_atom_site_fract_x
_atom_site_fract_y
_atom_site_fract_z
Si Si1 0.058146 0.430924 0.962935
Si Si2 0.817723 0.933428 0.525425
Si Si3 0.608637 0.928428 0.901917
Si Si4 0.371139 0.073978 0.331431
Si Si5 0.007019 0.431308 0.826137
Si Si6 0.511917 0.073232 0.322994
Si Si7 0.943716 0.931404 0.457435
Si Si8 0.181012 0.921946 0.202267
O O1 0.052072 0.250000 0.962282
O O2 0.056437 0.475801 0.883975
O O3 0.109098 0.468944 0.018148
O O4 0.000000 0.500000 0.000000
O O5 0.750000 0.984982 0.506171
O O6 0.817046 0.750000 0.522009
O O7 0.832322 0.973102 0.603660
O O8 0.877588 0.981129 0.484303
O O9 0.597234 0.750000 0.895783
O O10 0.555156 0.013496 0.861154
O O11 0.667717 0.974705 0.862151
O O12 0.357767 0.250000 0.316347
O O13 0.441968 0.063324 0.345793
O O14 0.357347 0.976574 0.265827
O O15 0.005981 0.250000 0.818137
O O16 0.016078 0.507522 0.753172
O O17 0.528193 0.250000 0.322877
O O18 0.548617 0.982836 0.379578
O O19 0.947099 0.750000 0.463733
O O20 0.000000 0.000000 0.500000
O O21 0.250000 0.931648 0.222737
O O22 0.166313 0.750000 0.184558
#
# Coordination Sequence:
#
# PCOD9446735 Si02
#       8
#     8   8   8   8   8   8   8   8
#     4   8  16  28  44  67  93 120 154 192 235 286
#     4   9  18  34  55  76  97 127 171 215 254 300
#     4  10  18  30  47  67  93 127 164 204 245 294
#     4  10  19  33  52  71  96 132 172 211 248 297
#     4  10  18  30  48  71  98 128 159 199 250 298
#     4  11  21  33  50  76 104 135 172 207 249 308
#     4  11  21  35  54  77 105 136 170 214 264 312
#     4  11  23  34  44  65  98 134 173 214 251 295
#
# _framework density 16.500855999999999
#
# number of rings (size 3 to 8) (size 9 to 14) (size 15 to 20)
#    0.000    2.000    2.500    2.250    0.000    3.000 
#    0.000    0.000    0.000    2.250    0.000    0.875 
#    0.000    3.000    0.000    0.000    0.000    0.000 
#
# Total GULP energy -356510.460739 kJ/mol
# GULP energy per Si atom -5570.475949 kJ/mol
# Density = 1.646330 g / cm^3
# Si number density = 16.500856 Si / 1000 Ang^3
#
#
#
# Elastic Constant Matrix: (Units=GPa)
#
#
# Indices 1 2 3 4 5 6 
#
# 1 65.0818 20.2505 36.4710 0.0000 0.0000 0.0000
# 2 20.2505 36.6381 22.7880 0.0000 0.0000 0.0000
# 3 36.4710 22.7880 95.4580 0.0000 0.0000 0.0000
# 4 0.0000 0.0000 0.0000 21.0078 0.0000 0.0000
# 5 0.0000 0.0000 0.0000 0.0000 20.2679 0.0000
# 6 0.0000 0.0000 0.0000 0.0000 0.0000 16.8877
#
#
#
# Elastic Compliance Matrix: (Units=1/GPa)
#
#
# Indices 1 2 3 4 5 6 
#
# 1 0.021333 -0.007894 -0.006266 0.000000 0.000000 0.000000
# 2 -0.007894 0.034974 -0.005333 0.000000 0.000000 0.000000
# 3 -0.006266 -0.005333 0.014143 0.000000 0.000000 0.000000
# 4 0.000000 0.000000 0.000000 0.047601 0.000000 0.000000
# 5 0.000000 0.000000 0.000000 0.000000 0.049339 0.000000
# 6 0.000000 0.000000 0.000000 0.000000 0.000000 0.059215
#
#
# Mechanical properties :
#
#
# Convention : Reuss Voigt Hill
#
# Bulk Modulus (GPa) = 31.78239 39.57742 35.67991
# Shear Modulus (GPa) = 18.11073 19.47722 18.79397
#
# Velocity S-wave (km/s) = 3.31654 3.43939 3.37852
# Velocity P-wave (km/s) = 5.82828 6.30949 6.07365
#
# Compressibility (1/GPa) = 0.03146396
#
# Stress axis : x y z
#
# Youngs Moduli (GPa) = 46.87598 28.59259 70.70622
#
# Poissons Ratio (x) = 0.22570 0.44305
# Poissons Ratio (y) = 0.37002 0.37709
# Poissons Ratio (z) = 0.29373 0.15249
#
# Static dielectric constant tensor:
#      x y z
#    x 1.573780 0.000000 0.000000 
#    y 0.000000 1.556850 0.000000 
#    z 0.000000 0.000000 1.578080 
# 
# From -- ./inp_files/26464.got.cif
#   From: 2010.05.17/outbox.cif.g08.bks.cpg/sg59_14_cif.got.tgz:26464.got - 2010.06.03 14:40:33.
