data_PCOD9446403
_publ_section_title
;
Structure prediction by ZEFSAII (Michael W. Deem and Ramdas Pophale) SiO2 
 PCOD9446403
Probable space group: P M M N
;
_chemical_formula_sum "Si O2"
_cell_formula_units_Z 56
_cell_length_a 9.014453
_cell_length_b 22.103703
_cell_length_c 18.219374
_cell_angle_alpha 90.000000
_cell_angle_beta 90.000000
_cell_angle_gamma 90.000000
_cell_volume 3630.261135
_symmetry_space_group_name_H-M "P M M N"
_symmetry_group_IT_number 59
_space_group.IT_coordinate_system_code '2'
_symmetry_cell_setting 'orthorhombic'
loop_
_space_group_symop_operation_xyz
x,y,z
1/2-x,1/2-y,z
1/2+x,-y,-z
-x,1/2+y,-z
-x,-y,-z
1/2+x,1/2+y,-z
1/2-x,y,z
x,1/2-y,z
loop_
_atom_site_type_symbol
_atom_site_label
_atom_site_fract_x
_atom_site_fract_y
_atom_site_fract_z
Si Si1 0.926513 0.403393 0.290527
Si Si2 0.426053 0.457634 0.892213
Si Si3 0.420529 0.564271 0.415346
Si Si4 0.919676 0.581705 0.560606
Si Si5 0.073626 0.080373 0.051696
Si Si6 0.427213 0.320340 0.170336
Si Si7 0.928312 0.466452 0.743133
O O1 0.750000 0.408960 0.287202
O O2 0.980362 0.392739 0.373911
O O3 0.985872 0.351821 0.236582
O O4 0.000969 0.466720 0.265141
O O5 0.250000 0.458626 0.879145
O O6 0.482351 0.524762 0.914190
O O7 0.510975 0.439390 0.818560
O O8 0.456978 0.417847 0.964782
O O9 0.250000 0.584076 0.423132
O O10 0.422128 0.491416 0.428494
O O11 0.518914 0.592943 0.479160
O O12 0.468642 0.570361 0.330743
O O13 0.750000 0.601499 0.568900
O O14 0.250000 0.066619 0.059901
O O15 0.041921 0.140744 0.097105
O O16 0.250000 0.325395 0.184464
O O17 0.464146 0.250000 0.162221
O O18 0.750000 0.472509 0.744375
#
# Coordination Sequence:
#
# PCOD9446403 Si02
#       7
#     8   8   8   8   8   8   8
#     4  11  20  29  43  62  85 114 149 185 221 262
#     4  10  18  27  43  66  88 115 147 182 224 271
#     4   8  15  25  37  56  82 112 144 175 210 250
#     4   9  16  26  40  57  81 113 145 176 211 253
#     4   9  18  31  45  62  87 115 146 183 225 273
#     4  10  20  34  50  65  85 116 152 189 228 268
#     4  10  18  28  42  61  88 119 148 181 220 265
#
# _framework density 15.425888
#
# number of rings (size 3 to 8) (size 9 to 14) (size 15 to 20)
#    0.000    2.429    1.429    3.429    0.000    4.857 
#    0.000    0.000    0.000    0.000    0.000    0.000 
#    0.000    1.143    0.000   10.571    0.000    3.286 
#
# Total GULP energy -312047.905984 kJ/mol
# GULP energy per Si atom -5572.284035 kJ/mol
# Density = 1.539078 g / cm^3
# Si number density = 15.425888 Si / 1000 Ang^3
#
#
#
# Elastic Constant Matrix: (Units=GPa)
#
#
# Indices 1 2 3 4 5 6 
#
# 1 69.7741 27.5839 62.7700 0.0000 0.0000 0.0000
# 2 27.5839 41.6753 33.5118 0.0000 0.0000 0.0000
# 3 62.7700 33.5118 150.9021 0.0000 0.0000 0.0000
# 4 0.0000 0.0000 0.0000 10.4323 0.0000 0.0000
# 5 0.0000 0.0000 0.0000 0.0000 30.3180 0.0000
# 6 0.0000 0.0000 0.0000 0.0000 0.0000 9.8727
#
#
#
# Elastic Compliance Matrix: (Units=1/GPa)
#
#
# Indices 1 2 3 4 5 6 
#
# 1 0.026160 -0.010427 -0.008566 0.000000 0.000000 0.000000
# 2 -0.010427 0.033367 -0.003073 0.000000 0.000000 0.000000
# 3 -0.008566 -0.003073 0.010873 0.000000 0.000000 0.000000
# 4 0.000000 0.000000 0.000000 0.095856 0.000000 0.000000
# 5 0.000000 0.000000 0.000000 0.000000 0.032984 0.000000
# 6 0.000000 0.000000 0.000000 0.000000 0.000000 0.101290
#
#
# Mechanical properties :
#
#
# Convention : Reuss Voigt Hill
#
# Bulk Modulus (GPa) = 38.06869 56.67590 47.37229
# Shear Modulus (GPa) = 14.14756 19.35696 16.75226
#
# Velocity S-wave (km/s) = 3.03170 3.54621 3.29900
# Velocity P-wave (km/s) = 6.08169 7.32038 6.72960
#
# Compressibility (1/GPa) = 0.02626831
#
# Stress axis : x y z
#
# Youngs Moduli (GPa) = 38.22585 29.96959 91.97502
#
# Poissons Ratio (x) = 0.31248 0.78788
# Poissons Ratio (y) = 0.39857 0.28264
# Poissons Ratio (z) = 0.32745 0.09210
#
# Static dielectric constant tensor:
#      x y z
#    x 1.519850 0.000000 0.000000 
#    y 0.000000 1.471670 0.000000 
#    z 0.000000 0.000000 1.553110 
# 
# From -- ./inp_files/26053.got.cif
#   From: 2010.05.17/outbox.cif.g08.bks.cpg/sg59_14_cif.got.tgz:26053.got - 2010.06.03 14:40:33.
