data_PCOD9446469
_publ_section_title
;
Structure prediction by ZEFSAII (Michael W. Deem and Ramdas Pophale) SiO2 
 PCOD9446469
Probable space group: P M M N
;
_chemical_formula_sum "Si O2"
_cell_formula_units_Z 64
_cell_length_a 7.358200
_cell_length_b 19.931059
_cell_length_c 19.670861
_cell_angle_alpha 90.000000
_cell_angle_beta 90.000000
_cell_angle_gamma 90.000000
_cell_volume 2884.863921
_symmetry_space_group_name_H-M "P M M N"
_symmetry_group_IT_number 59
_space_group.IT_coordinate_system_code '2'
_symmetry_cell_setting 'orthorhombic'
loop_
_space_group_symop_operation_xyz
x,y,z
1/2-x,1/2-y,z
1/2+x,-y,-z
-x,1/2+y,-z
-x,-y,-z
1/2+x,1/2+y,-z
1/2-x,y,z
x,1/2-y,z
loop_
_atom_site_type_symbol
_atom_site_label
_atom_site_fract_x
_atom_site_fract_y
_atom_site_fract_z
Si Si1 0.028202 0.173712 0.998021
Si Si2 0.963201 0.593185 0.284935
Si Si3 0.466757 0.457016 0.067424
Si Si4 0.527448 0.828074 0.416018
Si Si5 0.531368 0.960311 0.784142
Si Si6 0.970557 0.672085 0.154642
Si Si7 0.957987 0.831408 0.564112
Si Si8 0.972524 0.826575 0.714488
O O1 0.250000 0.174055 0.998228
O O2 0.970785 0.250000 0.011023
O O3 0.967344 0.118047 0.050887
O O4 0.970336 0.153474 0.921533
O O5 0.750000 0.610115 0.285774
O O6 0.034846 0.624968 0.354457
O O7 0.039374 0.627926 0.216785
O O8 0.979354 0.514247 0.272665
O O9 0.250000 0.453916 0.073982
O O10 0.536009 0.481260 0.140633
O O11 0.500000 0.500000 0.000000
O O12 0.750000 0.828846 0.419028
O O13 0.477007 0.750000 0.404091
O O14 0.463132 0.850724 0.490963
O O15 0.750000 0.960072 0.784794
O O16 0.472357 0.885084 0.765606
O O17 0.750000 0.668286 0.153566
O O18 0.017602 0.750000 0.165596
O O19 0.750000 0.856178 0.565423
O O20 0.952975 0.750000 0.561823
O O21 0.035785 0.846404 0.638276
O O22 0.750000 0.825255 0.712893
O O23 0.028875 0.750000 0.729737
#
# Coordination Sequence:
#
# PCOD9446469 Si02
#       8
#     8   8   8   8   8   8   8   8
#     4   8  14  25  42  64  85 103 132 178 224 260
#     4  10  18  28  44  65  92 124 153 182 218 263
#     4  10  20  33  49  68  90 118 149 182 224 272
#     4   8  13  22  40  68  95 117 150 195 229 252
#     4  10  21  33  45  66  94 119 147 186 227 268
#     4   8  13  22  39  63  86 108 138 176 215 254
#     4   7  10  19  38  64  91 116 145 185 229 266
#     4   8  14  27  47  67  88 118 153 187 227 273
#
# _framework density 22.184754999999999
#
# number of rings (size 3 to 8) (size 9 to 14) (size 15 to 20)
#    0.000    3.375    0.000    3.375    0.000    3.500 
#    0.000    3.125    0.000    2.250    0.000    7.000 
#    0.000    3.000    0.000    0.000    0.000    0.000 
#
# Total GULP energy -356894.829431 kJ/mol
# GULP energy per Si atom -5576.481710 kJ/mol
# Density = 2.213426 g / cm^3
# Si number density = 22.184755 Si / 1000 Ang^3
#
#
#
# Elastic Constant Matrix: (Units=GPa)
#
#
# Indices 1 2 3 4 5 6 
#
# 1 79.4138 -9.4164 -0.2608 0.0000 0.0000 0.0000
# 2 -9.4164 60.0625 40.2710 0.0000 0.0000 0.0000
# 3 -0.2608 40.2710 102.6402 0.0000 0.0000 0.0000
# 4 0.0000 0.0000 0.0000 30.5690 0.0000 0.0000
# 5 0.0000 0.0000 0.0000 0.0000 -12.5228 0.0000
# 6 0.0000 0.0000 0.0000 0.0000 0.0000 2.0244
#
#
#
# Elastic Compliance Matrix: (Units=1/GPa)
#
#
# Indices 1 2 3 4 5 6 
#
# 1 0.012911 0.002717 -0.001033 0.000000 0.000000 0.000000
# 2 0.002717 0.023164 -0.009082 0.000000 0.000000 0.000000
# 3 -0.001033 -0.009082 0.013303 0.000000 0.000000 0.000000
# 4 0.000000 0.000000 0.000000 0.032713 0.000000 0.000000
# 5 0.000000 0.000000 0.000000 0.000000 -0.079854 0.000000
# 6 0.000000 0.000000 0.000000 0.000000 0.000000 0.493970
#
#
# Mechanical properties :
#
#
# Convention : Reuss Voigt Hill
#
# Bulk Modulus (GPa) = 28.91608 33.70047 31.30827
# Shear Modulus (GPa) = 9.56881 18.11563 13.84222
#
# Velocity S-wave (km/s) = 2.07909 2.86069 2.50061
# Velocity P-wave (km/s) = 4.33889 5.11226 4.74137
#
# Compressibility (1/GPa) = 0.03458284
#
# Stress axis : x y z
#
# Youngs Moduli (GPa) = 77.45317 43.16971 75.16905
#
# Poissons Ratio (x) = -0.11729 0.07766
# Poissons Ratio (y) = -0.21043 0.68266
# Poissons Ratio (z) = 0.08002 0.39205
#
# Static dielectric constant tensor:
#      x y z
#    x 1.923860 0.000000 0.000000 
#    y 0.000000 1.780640 0.000000 
#    z 0.000000 0.000000 1.876390 
# 
# From -- ./inp_files/26326.got.cif
#   From: 2010.05.17/outbox.cif.g08.bks.cpg/sg59_14_cif.got.tgz:26326.got - 2010.06.03 14:40:33.
