data_PCOD9446315
_publ_section_title
;
Structure prediction by ZEFSAII (Michael W. Deem and Ramdas Pophale) SiO2 
 PCOD9446315
Probable space group: P M M N
;
_chemical_formula_sum "Si O2"
_cell_formula_units_Z 56
_cell_length_a 14.462701
_cell_length_b 21.854357
_cell_length_c 9.086685
_cell_angle_alpha 90.000000
_cell_angle_beta 90.000000
_cell_angle_gamma 90.000000
_cell_volume 2872.056068
_symmetry_space_group_name_H-M "P M M N"
_symmetry_group_IT_number 59
_space_group.IT_coordinate_system_code '2'
_symmetry_cell_setting 'orthorhombic'
loop_
_space_group_symop_operation_xyz
x,y,z
1/2-x,1/2-y,z
1/2+x,-y,-z
-x,1/2+y,-z
-x,-y,-z
1/2+x,1/2+y,-z
1/2-x,y,z
x,1/2-y,z
loop_
_atom_site_type_symbol
_atom_site_label
_atom_site_fract_x
_atom_site_fract_y
_atom_site_fract_z
Si Si1 0.141700 0.353068 0.218447
Si Si2 0.849561 0.997960 0.762794
Si Si3 0.639867 0.134584 0.238053
Si Si4 0.098039 0.506219 0.914358
Si Si5 0.507435 0.680105 0.530370
Si Si6 0.011640 0.088880 0.733734
Si Si7 0.985578 0.181106 0.989701
O O1 0.250000 0.338801 0.200901
O O2 0.132619 0.425639 0.250129
O O3 0.079438 0.336633 0.077170
O O4 0.091425 0.320162 0.353330
O O5 0.750000 0.013147 0.694479
O O6 0.933131 0.038141 0.700056
O O7 0.841842 0.008357 0.939081
O O8 0.750000 0.139567 0.253924
O O9 0.612431 0.066152 0.183843
O O10 0.582386 0.154834 0.381565
O O11 0.597438 0.175587 0.106684
O O12 0.097411 0.448073 0.805781
O O13 0.000000 0.500000 0.000000
O O14 0.491403 0.750000 0.480657
O O15 0.531253 0.632533 0.402213
O O16 0.971895 0.132628 0.861243
O O17 0.992944 0.250000 0.934419
#
# Coordination Sequence:
#
# PCOD9446315 Si02
#       7
#     8   8   8   8   8   8   8
#     4  10  21  40  65  88 112 152 202 254 308 360
#     4  10  19  34  61  93 120 146 188 249 309 358
#     4  11  22  38  62  90 120 160 203 246 295 355
#     4  10  17  34  61  87 118 145 186 254 310 343
#     4  11  25  42  58  82 124 170 203 241 293 356
#     4  11  21  38  59  86 122 158 193 245 304 359
#     4  11  21  36  60  87 114 156 208 250 291 348
#
# _framework density 19.498225000000001
#
# number of rings (size 3 to 8) (size 9 to 14) (size 15 to 20)
#    0.000    1.429    4.286    5.143    0.000    5.143 
#    0.000    3.571    0.000    4.286    0.000    0.000 
#    0.000    0.000    0.000    0.000    0.000    0.000 
#
# Total GULP energy -312327.542310 kJ/mol
# GULP energy per Si atom -5577.277541 kJ/mol
# Density = 1.945385 g / cm^3
# Si number density = 19.498225 Si / 1000 Ang^3
#
#
#
# Elastic Constant Matrix: (Units=GPa)
#
#
# Indices 1 2 3 4 5 6 
#
# 1 101.2062 12.4067 -0.6786 0.0000 0.0000 0.0000
# 2 12.4067 116.5821 11.2284 0.0000 0.0000 0.0000
# 3 -0.6786 11.2284 35.3957 0.0000 0.0000 0.0000
# 4 0.0000 0.0000 0.0000 12.6039 0.0000 0.0000
# 5 0.0000 0.0000 0.0000 0.0000 7.7560 0.0000
# 6 0.0000 0.0000 0.0000 0.0000 0.0000 -4.3549
#
#
#
# Elastic Compliance Matrix: (Units=1/GPa)
#
#
# Indices 1 2 3 4 5 6 
#
# 1 0.010022 -0.001119 0.000547 0.000000 0.000000 0.000000
# 2 -0.001119 0.008973 -0.002868 0.000000 0.000000 0.000000
# 3 0.000547 -0.002868 0.029172 0.000000 0.000000 0.000000
# 4 0.000000 0.000000 0.000000 0.079340 0.000000 0.000000
# 5 0.000000 0.000000 0.000000 0.000000 0.128933 0.000000
# 6 0.000000 0.000000 0.000000 0.000000 0.000000 -0.229628
#
#
# Mechanical properties :
#
#
# Convention : Reuss Voigt Hill
#
# Bulk Modulus (GPa) = 24.22069 33.23299 28.72684
# Shear Modulus (GPa) = 105.36314 18.54950 61.95632
#
# Velocity S-wave (km/s) = 7.35898 3.08773 5.64308
# Velocity P-wave (km/s) = 9.20082 5.45832 7.56467
#
# Compressibility (1/GPa) = 0.04128702
#
# Stress axis : x y z
#
# Youngs Moduli (GPa) = 99.78355 111.44578 34.27916
#
# Poissons Ratio (x) = 0.12473 -0.01876
# Poissons Ratio (y) = 0.11168 0.09831
# Poissons Ratio (z) = -0.05460 0.31962
#
# Static dielectric constant tensor:
#      x y z
#    x 1.719850 0.000000 0.000000 
#    y 0.000000 1.755220 0.000000 
#    z 0.000000 0.000000 1.692830 
# 
# From -- ./inp_files/9352.got.cif
#   From: 2010.05.17/outbox.cif.g08.bks.cpg/sg59_5_cif.got.tgz:9352.got - 2010.06.03 14:40:33.
