data_PCOD9446528
_publ_section_title
;
Structure prediction by ZEFSAII (Michael W. Deem and Ramdas Pophale) SiO2 
 PCOD9446528
Probable space group: P M M N
;
_chemical_formula_sum "Si O2"
_cell_formula_units_Z 64
_cell_length_a 24.988816
_cell_length_b 7.454331
_cell_length_c 15.298660
_cell_angle_alpha 90.000000
_cell_angle_beta 90.000000
_cell_angle_gamma 90.000000
_cell_volume 2849.756450
_symmetry_space_group_name_H-M "P M M N"
_symmetry_group_IT_number 59
_space_group.IT_coordinate_system_code '2'
_symmetry_cell_setting 'orthorhombic'
loop_
_space_group_symop_operation_xyz
x,y,z
1/2-x,1/2-y,z
1/2+x,-y,-z
-x,1/2+y,-z
-x,-y,-z
1/2+x,1/2+y,-z
1/2-x,y,z
x,1/2-y,z
loop_
_atom_site_type_symbol
_atom_site_label
_atom_site_fract_x
_atom_site_fract_y
_atom_site_fract_z
Si Si1 0.372552 0.033330 0.927510
Si Si2 0.309591 0.033524 0.461988
Si Si3 0.398243 0.036884 0.113984
Si Si4 0.117658 0.470067 0.309998
Si Si5 0.016149 0.464570 0.841824
Si Si6 0.496029 0.047120 0.358123
Si Si7 0.890819 0.039081 0.383918
Si Si8 0.690506 0.038231 0.240879
O O1 0.373766 0.250000 0.929870
O O2 0.429543 0.973542 0.887423
O O3 0.326764 0.981527 0.859526
O O4 0.369384 0.967605 0.027163
O O5 0.250000 0.967271 0.480773
O O6 0.308230 0.250000 0.463413
O O7 0.331656 0.978723 0.367380
O O8 0.352310 0.977401 0.533933
O O9 0.388934 0.250000 0.116970
O O10 0.382448 0.966747 0.209802
O O11 0.462130 0.008237 0.105667
O O12 0.114619 0.250000 0.308016
O O13 0.063307 0.533860 0.358499
O O14 0.018791 0.250000 0.830792
O O15 0.009403 0.548123 0.745877
O O16 0.490433 0.250000 0.392203
O O17 0.549611 0.962461 0.398309
O O18 0.900149 0.250000 0.365890
O O19 0.856928 0.962871 0.302050
O O20 0.750000 0.964151 0.257628
O O21 0.692907 0.250000 0.260791
#
# Coordination Sequence:
#
# PCOD9446528 Si02
#       8
#     8   8   8   8   8   8   8   8
#     4  10  20  32  49  76 106 137 174 214 256 302
#     4  10  21  36  54  76 101 132 170 213 261 307
#     4   9  18  33  52  73 102 139 176 212 254 304
#     4   8  16  33  54  75 102 134 172 212 251 305
#     4  10  18  28  46  77 111 137 167 209 255 303
#     4   9  17  32  54  76 102 139 173 205 257 316
#     4  10  20  35  56  79 102 131 171 213 259 317
#     4  10  21  36  53  73 101 138 176 214 257 312
#
# _framework density 22.458058999999999
#
# number of rings (size 3 to 8) (size 9 to 14) (size 15 to 20)
#    0.000    2.500    1.250    1.875    0.000    3.500 
#    0.000    3.125    0.000    2.250    0.000    0.000 
#    0.000    0.000    0.000    0.000    0.000    0.000 
#
# Total GULP energy -357337.383792 kJ/mol
# GULP energy per Si atom -5583.396622 kJ/mol
# Density = 2.240694 g / cm^3
# Si number density = 22.458059 Si / 1000 Ang^3
#
#
#
# Elastic Constant Matrix: (Units=GPa)
#
#
# Indices 1 2 3 4 5 6 
#
# 1 22.2664 0.6155 14.4141 0.0000 0.0000 0.0000
# 2 0.6155 66.6752 0.4553 0.0000 0.0000 0.0000
# 3 14.4141 0.4553 59.0738 0.0000 0.0000 0.0000
# 4 0.0000 0.0000 0.0000 -0.3617 0.0000 0.0000
# 5 0.0000 0.0000 0.0000 0.0000 21.6609 0.0000
# 6 0.0000 0.0000 0.0000 0.0000 0.0000 3.6900
#
#
#
# Elastic Compliance Matrix: (Units=1/GPa)
#
#
# Indices 1 2 3 4 5 6 
#
# 1 0.053346 -0.000404 -0.013013 0.000000 0.000000 0.000000
# 2 -0.000404 0.015002 -0.000017 0.000000 0.000000 0.000000
# 3 -0.013013 -0.000017 0.020103 0.000000 0.000000 0.000000
# 4 0.000000 0.000000 0.000000 -2.764668 0.000000 0.000000
# 5 0.000000 0.000000 0.000000 0.000000 0.046166 0.000000
# 6 0.000000 0.000000 0.000000 0.000000 0.000000 0.271002
#
#
# Mechanical properties :
#
#
# Convention : Reuss Voigt Hill
#
# Bulk Modulus (GPa) = 16.23821 19.88724 18.06273
# Shear Modulus (GPa) = -2.16295 13.83321 5.83513
#
# Velocity S-wave (km/s) = -0.98245 2.48454 1.61365
# Velocity P-wave (km/s) = 2.44115 4.13583 3.39590
#
# Compressibility (1/GPa) = 0.06158315
#
# Stress axis : x y z
#
# Youngs Moduli (GPa) = 18.74551 66.65811 49.74290
#
# Poissons Ratio (x) = 0.02690 0.64732
# Poissons Ratio (y) = 0.00757 0.00085
# Poissons Ratio (z) = 0.24394 0.00114
#
# Static dielectric constant tensor:
#      x y z
#    x 1.835900 0.000000 0.000000 
#    y 0.000000 1.908280 0.000000 
#    z 0.000000 0.000000 1.830380 
# 
# From -- ./inp_files/24757.got.cif
#   From: 2010.05.17/outbox.cif.g08.bks.cpg/sg59_13_cif.got.tgz:24757.got - 2010.06.03 14:40:33.
