data_PCOD9446289
_publ_section_title
;
Structure prediction by ZEFSAII (Michael W. Deem and Ramdas Pophale) SiO2 
 PCOD9446289
Probable space group: P M M N
;
_chemical_formula_sum "Si O2"
_cell_formula_units_Z 64
_cell_length_a 7.781893
_cell_length_b 20.658522
_cell_length_c 20.766267
_cell_angle_alpha 90.000000
_cell_angle_beta 90.000000
_cell_angle_gamma 90.000000
_cell_volume 3338.435083
_symmetry_space_group_name_H-M "P M M N"
_symmetry_group_IT_number 59
_space_group.IT_coordinate_system_code '2'
_symmetry_cell_setting 'orthorhombic'
loop_
_space_group_symop_operation_xyz
x,y,z
1/2-x,1/2-y,z
1/2+x,-y,-z
-x,1/2+y,-z
-x,-y,-z
1/2+x,1/2+y,-z
1/2-x,y,z
x,1/2-y,z
loop_
_atom_site_type_symbol
_atom_site_label
_atom_site_fract_x
_atom_site_fract_y
_atom_site_fract_z
Si Si1 0.955235 0.088242 0.950138
Si Si2 0.456107 0.589079 0.551239
Si Si3 0.544270 0.677067 0.166526
Si Si4 0.539043 0.571938 0.269423
Si Si5 0.956181 0.944935 0.412878
Si Si6 0.546992 0.945795 0.910417
Si Si7 0.951839 0.428980 0.230602
Si Si8 0.039072 0.823627 0.667748
O O1 0.750000 0.084856 0.950251
O O2 0.010418 0.144803 0.902620
O O3 0.022298 0.018884 0.923069
O O4 0.013312 0.092929 0.023965
O O5 0.250000 0.586916 0.556124
O O6 0.499726 0.595746 0.476249
O O7 0.521386 0.518363 0.574525
O O8 0.515099 0.644274 0.600084
O O9 0.750000 0.680309 0.174527
O O10 0.475847 0.750000 0.171262
O O11 0.478198 0.627518 0.220949
O O12 0.750000 0.572381 0.267185
O O13 0.485253 0.580394 0.343614
O O14 0.479372 0.500743 0.246577
O O15 0.750000 0.948917 0.409533
O O16 0.750000 0.950539 0.900688
O O17 0.471562 0.917321 0.845162
O O18 0.750000 0.432737 0.246086
O O19 0.020617 0.371993 0.275751
O O20 0.250000 0.822355 0.668691
O O21 0.980892 0.750000 0.675222
#
# Coordination Sequence:
#
# PCOD9446289 Si02
#       8
#     8   8   8   8   8   8   8   8
#     4  10  20  34  53  77 103 134 169 209 253 300
#     4   9  16  28  46  70  97 127 163 204 249 294
#     4  10  20  34  53  76 103 136 170 208 258 309
#     4   9  16  29  50  73  98 130 169 209 250 302
#     4   9  16  28  47  71  97 126 163 207 249 291
#     4  10  20  33  52  79 106 130 165 213 259 299
#     4  10  17  30  53  76  99 132 171 211 254 302
#     4   9  17  30  50  75 101 131 169 209 252 306
#
# _framework density 19.170658
#
# number of rings (size 3 to 8) (size 9 to 14) (size 15 to 20)
#    0.000    2.500    2.500    0.750    0.000    1.250 
#    0.000    3.125    0.000    4.500    0.000    0.000 
#    0.000    0.000    0.000    0.000    0.000    0.000 
#
# Total GULP energy -356980.146127 kJ/mol
# GULP energy per Si atom -5577.814783 kJ/mol
# Density = 1.912703 g / cm^3
# Si number density = 19.170658 Si / 1000 Ang^3
#
#
#
# Elastic Constant Matrix: (Units=GPa)
#
#
# Indices 1 2 3 4 5 6 
#
# 1 19.4068 1.9408 -15.2891 0.0000 0.0000 0.0000
# 2 1.9408 133.0527 85.7883 0.0000 0.0000 0.0000
# 3 -15.2891 85.7883 149.7383 0.0000 0.0000 0.0000
# 4 0.0000 0.0000 0.0000 26.4879 0.0000 0.0000
# 5 0.0000 0.0000 0.0000 0.0000 22.6963 0.0000
# 6 0.0000 0.0000 0.0000 0.0000 0.0000 7.7963
#
#
#
# Elastic Compliance Matrix: (Units=1/GPa)
#
#
# Indices 1 2 3 4 5 6 
#
# 1 0.060676 -0.007738 0.010629 0.000000 0.000000 0.000000
# 2 -0.007738 0.012905 -0.008184 0.000000 0.000000 0.000000
# 3 0.010629 -0.008184 0.012452 0.000000 0.000000 0.000000
# 4 0.000000 0.000000 0.000000 0.037753 0.000000 0.000000
# 5 0.000000 0.000000 0.000000 0.000000 0.044060 0.000000
# 6 0.000000 0.000000 0.000000 0.000000 0.000000 0.128266
#
#
# Mechanical properties :
#
#
# Convention : Reuss Voigt Hill
#
# Bulk Modulus (GPa) = 13.25437 49.67531 31.46484
# Shear Modulus (GPa) = 15.06713 26.71328 20.89021
#
# Velocity S-wave (km/s) = 2.80652 3.73694 3.30464
# Velocity P-wave (km/s) = 4.17504 6.67743 5.56862
#
# Compressibility (1/GPa) = 0.07544680
#
# Stress axis : x y z
#
# Youngs Moduli (GPa) = 16.48105 77.48680 80.30647
#
# Poissons Ratio (x) = 0.59960 -0.85355
# Poissons Ratio (y) = 0.12753 0.65722
# Poissons Ratio (z) = -0.17517 0.63414
#
# Static dielectric constant tensor:
#      x y z
#    x 1.707870 0.000000 0.000000 
#    y 0.000000 1.656360 0.000000 
#    z 0.000000 0.000000 1.666220 
# 
# From -- ./inp_files/29691.got.cif
#   From: 2010.05.17/outbox.cif.g08.bks.cpg/sg59_15_cif.got.tgz:29691.got - 2010.06.03 14:40:33.
