data_PCOD9446490
_publ_section_title
;
Structure prediction by ZEFSAII (Michael W. Deem and Ramdas Pophale) SiO2 
 PCOD9446490
Probable space group: P M M N
;
_chemical_formula_sum "Si O2"
_cell_formula_units_Z 56
_cell_length_a 19.060981
_cell_length_b 8.491244
_cell_length_c 19.787291
_cell_angle_alpha 90.000000
_cell_angle_beta 90.000000
_cell_angle_gamma 90.000000
_cell_volume 3202.601553
_symmetry_space_group_name_H-M "P M M N"
_symmetry_group_IT_number 59
_space_group.IT_coordinate_system_code '2'
_symmetry_cell_setting 'orthorhombic'
loop_
_space_group_symop_operation_xyz
x,y,z
1/2-x,1/2-y,z
1/2+x,-y,-z
-x,1/2+y,-z
-x,-y,-z
1/2+x,1/2+y,-z
1/2-x,y,z
x,1/2-y,z
loop_
_atom_site_type_symbol
_atom_site_label
_atom_site_fract_x
_atom_site_fract_y
_atom_site_fract_z
Si Si1 0.330645 0.442140 0.533426
Si Si2 0.974763 0.438246 0.928304
Si Si3 0.137054 0.570564 0.256255
Si Si4 0.526414 0.930292 0.211147
Si Si5 0.405370 0.061040 0.394773
Si Si6 0.173908 0.436263 0.116381
Si Si7 0.941322 0.558331 0.354562
O O1 0.250000 0.495243 0.535893
O O2 0.329794 0.250000 0.533110
O O3 0.369729 0.491161 0.464570
O O4 0.377699 0.490494 0.597326
O O5 0.980427 0.250000 0.926371
O O6 0.019975 0.501842 0.863842
O O7 0.893784 0.482698 0.915696
O O8 0.000000 0.500000 0.000000
O O9 0.162738 0.750000 0.255411
O O10 0.054476 0.575197 0.236276
O O11 0.139273 0.498460 0.330580
O O12 0.171200 0.471733 0.196475
O O13 0.551753 0.750000 0.203384
O O14 0.564777 0.000453 0.276790
O O15 0.407986 0.250000 0.393410
O O16 0.484522 0.997415 0.385599
O O17 0.250000 0.490953 0.090664
O O18 0.168114 0.250000 0.105552
O O19 0.943723 0.750000 0.352113
#
# Coordination Sequence:
#
# PCOD9446490 Si02
#       7
#     8   8   8   8   8   8   8
#     4   9  18  30  44  65  92 122 158 202 252 300
#     4  10  19  32  51  75 104 135 167 204 247 296
#     4   9  17  30  47  68  95 126 161 197 235 286
#     4   7  13  26  45  68  89 112 146 191 236 277
#     4  10  18  28  45  69  96 124 157 200 247 294
#     4  10  20  33  50  74 104 136 168 203 248 302
#     4   9  16  30  51  68  87 120 162 204 243 290
#
# _framework density 17.485786000000001
#
# number of rings (size 3 to 8) (size 9 to 14) (size 15 to 20)
#    0.000    2.857    0.000    3.857    0.000    1.714 
#    0.000    2.857    0.000    4.286    0.000    4.000 
#    0.000    0.000    0.000    0.000    0.000    0.000 
#
# Total GULP energy -311880.944527 kJ/mol
# GULP energy per Si atom -5569.302581 kJ/mol
# Density = 1.744599 g / cm^3
# Si number density = 17.485786 Si / 1000 Ang^3
#
#
#
# Elastic Constant Matrix: (Units=GPa)
#
#
# Indices 1 2 3 4 5 6 
#
# 1 80.5794 9.6134 70.7671 0.0000 0.0000 0.0000
# 2 9.6134 25.2392 19.2984 0.0000 0.0000 0.0000
# 3 70.7671 19.2984 171.6330 0.0000 0.0000 0.0000
# 4 0.0000 0.0000 0.0000 21.4305 0.0000 0.0000
# 5 0.0000 0.0000 0.0000 0.0000 1.9625 0.0000
# 6 0.0000 0.0000 0.0000 0.0000 0.0000 15.3608
#
#
#
# Elastic Compliance Matrix: (Units=1/GPa)
#
#
# Indices 1 2 3 4 5 6 
#
# 1 0.019500 -0.001400 -0.007883 0.000000 0.000000 0.000000
# 2 -0.001400 0.043448 -0.004308 0.000000 0.000000 0.000000
# 3 -0.007883 -0.004308 0.009561 0.000000 0.000000 0.000000
# 4 0.000000 0.000000 0.000000 0.046662 0.000000 0.000000
# 5 0.000000 0.000000 0.000000 0.000000 0.509563 0.000000
# 6 0.000000 0.000000 0.000000 0.000000 0.000000 0.065101
#
#
# Mechanical properties :
#
#
# Convention : Reuss Voigt Hill
#
# Bulk Modulus (GPa) = 22.06170 52.97884 37.52027
# Shear Modulus (GPa) = 6.79231 19.60226 13.19729
#
# Velocity S-wave (km/s) = 1.97305 3.35183 2.75024
# Velocity P-wave (km/s) = 4.22314 6.73377 5.62043
#
# Compressibility (1/GPa) = 0.04532741
#
# Stress axis : x y z
#
# Youngs Moduli (GPa) = 51.28203 23.01592 104.59185
#
# Poissons Ratio (x) = 0.03222 0.82447
# Poissons Ratio (y) = 0.07180 0.45059
# Poissons Ratio (z) = 0.40424 0.09915
#
# Static dielectric constant tensor:
#      x y z
#    x 1.600930 0.000000 0.000000 
#    y 0.000000 1.605690 0.000000 
#    z 0.000000 0.000000 1.622680 
# 
# From -- ./inp_files/28053.got.cif
#   From: 2010.05.17/outbox.cif.g08.bks.cpg/sg59_15_cif.got.tgz:28053.got - 2010.06.03 14:40:33.
