data_PCOD9446001
_publ_section_title
;
Structure prediction by ZEFSAII (Michael W. Deem and Ramdas Pophale) SiO2 
 PCOD9446001
Probable space group: P N N M
;
_chemical_formula_sum "Si O2"
_cell_formula_units_Z 64
_cell_length_a 24.000000
_cell_length_b 15.000000
_cell_length_c 9.000000
_cell_angle_alpha 90.000000
_cell_angle_beta 90.000000
_cell_angle_gamma 90.000000
_cell_volume 3240.000000
_symmetry_space_group_name_H-M "P N N M"
_symmetry_group_IT_number 58
_symmetry_cell_setting 'orthorhombic'
loop_
_space_group_symop_operation_xyz
x,y,z
-x,-y,z
1/2+x,1/2-y,1/2-z
1/2-x,1/2+y,1/2-z
-x,-y,-z
x,y,-z
1/2-x,1/2+y,1/2+z
1/2+x,1/2-y,1/2+z
loop_
_atom_site_type_symbol
_atom_site_label
_atom_site_fract_x
_atom_site_fract_y
_atom_site_fract_z
Si Si1 0.541643 0.194163 0.675740
Si Si2 0.426243 0.140814 0.174213
Si Si3 0.765351 0.794255 0.677230
Si Si4 0.621894 0.058080 0.173104
Si Si5 0.346450 0.283999 0.680413
Si Si6 0.110927 0.159907 0.677864
Si Si7 0.635044 0.522827 0.671477
Si Si8 0.763800 0.474720 0.329509
O O1 0.535758 0.201071 0.500000
O O2 0.484958 0.158520 0.747875
O O3 0.590290 0.125896 0.722216
O O4 0.560910 0.287391 0.746376
O O5 0.380396 0.202812 0.251200
O O6 0.407390 0.038211 0.185673
O O7 0.430366 0.162284 0.000000
O O8 0.768834 0.786739 0.500000
O O9 0.718510 0.724235 0.727975
O O10 0.829469 0.796693 0.730022
O O11 0.739732 0.889728 0.723389
O O12 0.686740 0.042035 0.208884
O O13 0.617731 0.088125 0.000000
O O14 0.347571 0.280140 0.500000
O O15 0.375353 0.376842 0.723979
O O16 0.107912 0.166225 0.500000
O O17 0.112825 0.057510 0.729651
O O18 0.616582 0.511502 0.500000
O O19 0.702427 0.515699 0.670520
O O20 0.775922 0.444569 0.500000
#
# Coordination Sequence:
#
# PCOD9446001 Si02
#       8
#     8   8   8   8   8   8   8   8
#     4  12  26  41  60  85 114 154 200 249 297 351
#     4  11  23  41  62  86 117 155 197 245 293 347
#     4   9  18  32  55  84 118 155 190 232 286 342
#     4  10  21  37  59  87 120 157 195 236 289 350
#     4  10  20  35  58  88 120 157 195 238 290 346
#     4  10  21  39  61  85 118 156 197 246 294 346
#     4   9  19  35  58  86 122 160 195 237 290 347
#     4   9  17  32  55  83 118 157 192 230 280 340
#
# _framework density 19.753086
#
# number of rings (size 3 to 8) (size 9 to 14) (size 15 to 20)
#    0.000    2.000    1.250    2.250    1.750    4.000 
#    0.000    0.625    0.000    3.750    0.000    0.000 
#    0.000    0.000    0.000    0.000    0.000    0.000 
#
# Total GULP energy -357310.342297 kJ/mol
# GULP energy per Si atom -5582.974098 kJ/mol
# Density = 1.970813 g / cm^3
# Si number density = 19.753086 Si / 1000 Ang^3
#
#
#
# Elastic Constant Matrix: (Units=GPa)
#
#
# Indices 1 2 3 4 5 6 
#
# 1 10.0673 -17.4895 -4.7069 0.0000 0.0000 0.0000
# 2 -17.4895 55.0702 12.8057 0.0000 0.0000 0.0000
# 3 -4.7069 12.8057 32.9481 0.0000 0.0000 0.0000
# 4 0.0000 0.0000 0.0000 25.5451 0.0000 0.0000
# 5 0.0000 0.0000 0.0000 0.0000 25.1448 0.0000
# 6 0.0000 0.0000 0.0000 0.0000 0.0000 4.0235
#
#
#
# Elastic Compliance Matrix: (Units=1/GPa)
#
#
# Indices 1 2 3 4 5 6 
#
# 1 0.222258 0.069482 0.004746 0.000000 0.000000 0.000000
# 2 0.069482 0.041684 -0.006275 0.000000 0.000000 0.000000
# 3 0.004746 -0.006275 0.033468 0.000000 0.000000 0.000000
# 4 0.000000 0.000000 0.000000 0.039146 0.000000 0.000000
# 5 0.000000 0.000000 0.000000 0.000000 0.039770 0.000000
# 6 0.000000 0.000000 0.000000 0.000000 0.000000 0.248543
#
#
# Mechanical properties :
#
#
# Convention : Reuss Voigt Hill
#
# Bulk Modulus (GPa) = 2.30778 8.81159 5.55969
# Shear Modulus (GPa) = 7.89390 18.10777 13.00083
#
# Velocity S-wave (km/s) = 2.00124 3.03100 2.56826
# Velocity P-wave (km/s) = 2.55163 4.08899 3.40812
#
# Compressibility (1/GPa) = 0.43331647
#
# Stress axis : x y z
#
# Youngs Moduli (GPa) = 4.49928 23.98986 29.87957
#
# Poissons Ratio (x) = -1.66687 -0.14182
# Poissons Ratio (y) = -0.31262 0.18750
# Poissons Ratio (z) = -0.02135 0.15054
#
# Static dielectric constant tensor:
#      x y z
#    x 1.709900 0.000000 0.000000 
#    y 0.000000 1.709500 0.000000 
#    z 0.000000 0.000000 1.661910 
# 
# From -- ./inp_files/10044.got.cif
#   From: 2010.05.17/outbox.ucp.g08.bks.cvg/sg58_6_cif.got.tgz:10044.got - 2010.06.11 16:41:41.
