data_PCOD9446781
_publ_section_title
;
Structure prediction by ZEFSAII (Michael W. Deem and Ramdas Pophale) SiO2 
 PCOD9446781
Probable space group: P M M N
;
_chemical_formula_sum "Si O2"
_cell_formula_units_Z 56
_cell_length_a 7.335925
_cell_length_b 19.236789
_cell_length_c 18.094549
_cell_angle_alpha 90.000000
_cell_angle_beta 90.000000
_cell_angle_gamma 90.000000
_cell_volume 2553.496265
_symmetry_space_group_name_H-M "P M M N"
_symmetry_group_IT_number 59
_space_group.IT_coordinate_system_code '2'
_symmetry_cell_setting 'orthorhombic'
loop_
_space_group_symop_operation_xyz
x,y,z
1/2-x,1/2-y,z
1/2+x,-y,-z
-x,1/2+y,-z
-x,-y,-z
1/2+x,1/2+y,-z
1/2-x,y,z
x,1/2-y,z
loop_
_atom_site_type_symbol
_atom_site_label
_atom_site_fract_x
_atom_site_fract_y
_atom_site_fract_z
Si Si1 0.032789 0.420451 0.474602
Si Si2 0.526823 0.670605 0.966671
Si Si3 0.471865 0.467344 0.321411
Si Si4 0.960841 0.624326 0.373650
Si Si5 0.039640 0.077374 0.160671
Si Si6 0.029773 0.069385 0.901283
Si Si7 0.472379 0.325022 0.777871
O O1 0.250000 0.409389 0.472842
O O2 0.969563 0.418056 0.389879
O O3 0.959622 0.375951 0.543662
O O4 0.000000 0.500000 0.500000
O O5 0.750000 0.670199 0.967456
O O6 0.470936 0.750000 0.980294
O O7 0.464591 0.640547 0.887698
O O8 0.469978 0.615594 0.029365
O O9 0.250000 0.470155 0.320977
O O10 0.534077 0.544977 0.342849
O O11 0.537318 0.443499 0.240776
O O12 0.750000 0.645548 0.381005
O O13 0.038830 0.667568 0.305885
O O14 0.250000 0.094615 0.175313
O O15 0.033764 0.009289 0.108203
O O16 0.250000 0.067003 0.902523
O O17 0.968894 0.111710 0.828731
O O18 0.250000 0.327738 0.776661
O O19 0.522785 0.250000 0.809420
#
# Coordination Sequence:
#
# PCOD9446781 Si02
#       7
#     8   8   8   8   8   8   8
#     4   8  14  23  37  57  81 109 139 172 211 253
#     4   9  18  32  49  68  89 117 153 185 216 263
#     4   9  16  26  40  61  88 114 139 174 219 262
#     4   9  15  25  41  60  83 111 146 184 215 250
#     4  10  19  30  47  69  93 118 145 183 227 266
#     4  10  18  30  49  69  88 113 149 190 223 260
#     4   9  16  25  40  63  88 114 144 181 225 266
#
# _framework density 21.930717999999999
#
# number of rings (size 3 to 8) (size 9 to 14) (size 15 to 20)
#    0.000    2.857    1.429    0.857    0.000    1.714 
#    0.000    0.000    0.000    5.143    0.000    6.000 
#    0.000    0.000    0.000   12.714    0.000   12.571 
#
# Total GULP energy -312271.093802 kJ/mol
# GULP energy per Si atom -5576.269532 kJ/mol
# Density = 2.188080 g / cm^3
# Si number density = 21.930718 Si / 1000 Ang^3
#
#
#
# Elastic Constant Matrix: (Units=GPa)
#
#
# Indices 1 2 3 4 5 6 
#
# 1 87.5885 -7.7529 -3.5439 0.0000 0.0000 0.0000
# 2 -7.7529 41.5739 34.8475 0.0000 0.0000 0.0000
# 3 -3.5439 34.8475 136.4264 0.0000 0.0000 0.0000
# 4 0.0000 0.0000 0.0000 17.0200 0.0000 0.0000
# 5 0.0000 0.0000 0.0000 0.0000 0.3649 0.0000
# 6 0.0000 0.0000 0.0000 0.0000 0.0000 6.5764
#
#
#
# Elastic Compliance Matrix: (Units=1/GPa)
#
#
# Indices 1 2 3 4 5 6 
#
# 1 0.011620 0.002435 -0.000320 0.000000 0.000000 0.000000
# 2 0.002435 0.031117 -0.007885 0.000000 0.000000 0.000000
# 3 -0.000320 -0.007885 0.009336 0.000000 0.000000 0.000000
# 4 0.000000 0.000000 0.000000 0.058754 0.000000 0.000000
# 5 0.000000 0.000000 0.000000 0.000000 2.740645 0.000000
# 6 0.000000 0.000000 0.000000 0.000000 0.000000 0.152059
#
#
# Mechanical properties :
#
#
# Convention : Reuss Voigt Hill
#
# Bulk Modulus (GPa) = 24.67157 34.74337 29.70747
# Shear Modulus (GPa) = 1.65094 20.92813 11.28954
#
# Velocity S-wave (km/s) = 0.86858 3.09250 2.27134
# Velocity P-wave (km/s) = 3.50430 5.35053 4.52262
#
# Compressibility (1/GPa) = 0.04053248
#
# Stress axis : x y z
#
# Youngs Moduli (GPa) = 86.06133 32.13682 107.11567
#
# Poissons Ratio (x) = -0.07826 0.03430
# Poissons Ratio (y) = -0.20958 0.84460
# Poissons Ratio (z) = 0.02756 0.25340
#
# Static dielectric constant tensor:
#      x y z
#    x 1.830700 0.000000 0.000000 
#    y 0.000000 1.752250 0.000000 
#    z 0.000000 0.000000 1.858120 
# 
# From -- ./inp_files/26068.got.cif
#   From: 2010.05.17/outbox.cif.g08.bks.cpg/sg59_14_cif.got.tgz:26068.got - 2010.06.03 14:40:33.
