data_PCOD9446268
_publ_section_title
;
Structure prediction by ZEFSAII (Michael W. Deem and Ramdas Pophale) SiO2 
 PCOD9446268
Probable space group: P M M N
;
_chemical_formula_sum "Si O2"
_cell_formula_units_Z 56
_cell_length_a 22.222369
_cell_length_b 7.677805
_cell_length_c 17.329701
_cell_angle_alpha 90.000000
_cell_angle_beta 90.000000
_cell_angle_gamma 90.000000
_cell_volume 2956.776529
_symmetry_space_group_name_H-M "P M M N"
_symmetry_group_IT_number 59
_space_group.IT_coordinate_system_code '2'
_symmetry_cell_setting 'orthorhombic'
loop_
_space_group_symop_operation_xyz
x,y,z
1/2-x,1/2-y,z
1/2+x,-y,-z
-x,1/2+y,-z
-x,-y,-z
1/2+x,1/2+y,-z
1/2-x,y,z
x,1/2-y,z
loop_
_atom_site_type_symbol
_atom_site_label
_atom_site_fract_x
_atom_site_fract_y
_atom_site_fract_z
Si Si1 0.502305 0.452664 0.799900
Si Si2 0.980311 0.547883 0.627541
Si Si3 0.634034 0.451528 0.202086
Si Si4 0.587734 0.460982 0.484579
Si Si5 0.061228 0.540936 0.047456
Si Si6 0.318569 0.537069 0.635866
Si Si7 0.318204 0.963901 0.960189
O O1 0.491224 0.250000 0.816362
O O2 0.524093 0.467789 0.711868
O O3 0.437520 0.541647 0.808799
O O4 0.548194 0.518750 0.864961
O O5 0.993812 0.750000 0.641354
O O6 0.924117 0.528435 0.570235
O O7 0.034908 0.478037 0.574257
O O8 0.653141 0.250000 0.205470
O O9 0.649386 0.526435 0.285956
O O10 0.667532 0.524376 0.127322
O O11 0.584619 0.250000 0.488468
O O12 0.647867 0.517031 0.441697
O O13 0.066694 0.750000 0.047393
O O14 0.124046 0.476696 0.010611
O O15 0.000000 0.500000 0.000000
O O16 0.250000 0.483916 0.637870
O O17 0.321523 0.750000 0.635676
O O18 0.250000 0.015171 0.982908
O O19 0.319137 0.750000 0.960552
#
# Coordination Sequence:
#
# PCOD9446268 Si02
#       7
#     8   8   8   8   8   8   8
#     4  11  21  31  47  73 104 134 163 206 254 296
#     4  10  19  32  50  71  94 127 163 201 246 291
#     4  10  17  29  49  74 101 132 167 200 241 299
#     4   9  17  30  48  72  97 123 158 199 241 288
#     4  10  20  33  51  75 102 132 168 210 257 303
#     4   9  16  27  46  73 102 129 160 198 240 289
#     4   9  17  30  51  76 100 130 171 215 253 296
#
# _framework density 18.939544999999999
#
# number of rings (size 3 to 8) (size 9 to 14) (size 15 to 20)
#    0.000    2.286    2.857    1.286    0.000    2.857 
#    0.000    0.000    0.000    5.143    0.000    4.000 
#    0.000    0.000    0.000    0.000    0.000    0.000 
#
# Total GULP energy -312224.335209 kJ/mol
# GULP energy per Si atom -5575.434557 kJ/mol
# Density = 1.889644 g / cm^3
# Si number density = 18.939545 Si / 1000 Ang^3
#
#
#
# Elastic Constant Matrix: (Units=GPa)
#
#
# Indices 1 2 3 4 5 6 
#
# 1 115.6028 -6.6215 56.1788 0.0000 0.0000 0.0000
# 2 -6.6215 28.4229 -4.7055 0.0000 0.0000 0.0000
# 3 56.1788 -4.7055 111.0422 0.0000 0.0000 0.0000
# 4 0.0000 0.0000 0.0000 9.2777 0.0000 0.0000
# 5 0.0000 0.0000 0.0000 0.0000 25.1114 0.0000
# 6 0.0000 0.0000 0.0000 0.0000 0.0000 13.3334
#
#
#
# Elastic Compliance Matrix: (Units=1/GPa)
#
#
# Indices 1 2 3 4 5 6 
#
# 1 0.011555 0.001736 -0.005772 0.000000 0.000000 0.000000
# 2 0.001736 0.035692 0.000634 0.000000 0.000000 0.000000
# 3 -0.005772 0.000634 0.011953 0.000000 0.000000 0.000000
# 4 0.000000 0.000000 0.000000 0.107786 0.000000 0.000000
# 5 0.000000 0.000000 0.000000 0.000000 0.039823 0.000000
# 6 0.000000 0.000000 0.000000 0.000000 0.000000 0.075000
#
#
# Mechanical properties :
#
#
# Convention : Reuss Voigt Hill
#
# Bulk Modulus (GPa) = 19.08540 38.30794 28.69667
# Shear Modulus (GPa) = 16.33574 23.55890 19.94732
#
# Velocity S-wave (km/s) = 2.94006 3.53072 3.24884
# Velocity P-wave (km/s) = 4.65017 6.07385 5.40906
#
# Compressibility (1/GPa) = 0.05239608
#
# Stress axis : x y z
#
# Youngs Moduli (GPa) = 86.54342 28.01720 83.66247
#
# Poissons Ratio (x) = -0.04865 0.48293
# Poissons Ratio (y) = -0.15026 -0.05305
# Poissons Ratio (z) = 0.49956 -0.01776
#
# Static dielectric constant tensor:
#      x y z
#    x 1.655090 0.000000 0.000000 
#    y 0.000000 1.723200 0.000000 
#    z 0.000000 0.000000 1.672970 
# 
# From -- ./inp_files/26127.got.cif
#   From: 2010.05.17/outbox.cif.g08.bks.cpg/sg59_14_cif.got.tgz:26127.got - 2010.06.03 14:40:33.
