data_PCOD9446742
_publ_section_title
;
Structure prediction by ZEFSAII (Michael W. Deem and Ramdas Pophale) SiO2 
 PCOD9446742
Probable space group: P M M N
;
_chemical_formula_sum "Si O2"
_cell_formula_units_Z 40
_cell_length_a 8.384689
_cell_length_b 20.705519
_cell_length_c 13.239784
_cell_angle_alpha 90.000000
_cell_angle_beta 90.000000
_cell_angle_gamma 90.000000
_cell_volume 2298.550128
_symmetry_space_group_name_H-M "P M M N"
_symmetry_group_IT_number 59
_space_group.IT_coordinate_system_code '2'
_symmetry_cell_setting 'orthorhombic'
loop_
_space_group_symop_operation_xyz
x,y,z
1/2-x,1/2-y,z
1/2+x,-y,-z
-x,1/2+y,-z
-x,-y,-z
1/2+x,1/2+y,-z
1/2-x,y,z
x,1/2-y,z
loop_
_atom_site_type_symbol
_atom_site_label
_atom_site_fract_x
_atom_site_fract_y
_atom_site_fract_z
Si Si1 0.944164 0.401315 0.191476
Si Si2 0.445178 0.823368 0.614564
Si Si3 0.440331 0.049190 0.763830
Si Si4 0.558839 0.072480 0.975068
Si Si5 0.559496 0.431646 0.543279
O O1 0.750000 0.401840 0.192360
O O2 0.996604 0.351523 0.276813
O O3 0.994625 0.474162 0.222493
O O4 0.992108 0.388386 0.075370
O O5 0.250000 0.823385 0.614308
O O6 0.497752 0.750000 0.598760
O O7 0.497599 0.873359 0.528234
O O8 0.250000 0.048152 0.759122
O O9 0.492315 0.087293 0.864418
O O10 0.506458 0.075188 0.658849
O O11 0.750000 0.072912 0.969989
O O12 0.500000 0.000000 0.000000
O O13 0.500000 0.500000 0.500000
O O14 0.750000 0.432450 0.538695
#
# Coordination Sequence:
#
# PCOD9446742 Si02
#       5
#     8   8   8   8   8
#     4   8  14  26  44  68  97 124 156 197 242 292
#     4   9  17  30  49  73 100 130 164 205 253 302
#     4  10  18  30  47  70 100 130 165 208 250 295
#     4   9  16  26  43  69 100 129 159 199 245 298
#     4  11  20  31  50  75 101 131 168 210 255 305
#
# _framework density 17.402273999999998
#
# number of rings (size 3 to 8) (size 9 to 14) (size 15 to 20)
#    0.000    2.600    2.000    3.000    0.000    0.000 
#    0.000    0.000    0.000    3.600    0.000    5.600 
#    0.000    0.000    0.000    0.000    0.000    0.000 
#
# Total GULP energy -222830.408757 kJ/mol
# GULP energy per Si atom -5570.760219 kJ/mol
# Density = 1.736267 g / cm^3
# Si number density = 17.402274 Si / 1000 Ang^3
#
#
#
# Elastic Constant Matrix: (Units=GPa)
#
#
# Indices 1 2 3 4 5 6 
#
# 1 26.8352 14.2159 23.1549 0.0000 0.0000 0.0000
# 2 14.2159 95.4162 78.5858 0.0000 0.0000 0.0000
# 3 23.1549 78.5858 199.1393 0.0000 0.0000 0.0000
# 4 0.0000 0.0000 0.0000 18.6550 0.0000 0.0000
# 5 0.0000 0.0000 0.0000 0.0000 27.9624 0.0000
# 6 0.0000 0.0000 0.0000 0.0000 0.0000 11.3749
#
#
#
# Elastic Compliance Matrix: (Units=1/GPa)
#
#
# Indices 1 2 3 4 5 6 
#
# 1 0.042119 -0.003321 -0.003587 0.000000 0.000000 0.000000
# 2 -0.003321 0.015789 -0.005845 0.000000 0.000000 0.000000
# 3 -0.003587 -0.005845 0.007745 0.000000 0.000000 0.000000
# 4 0.000000 0.000000 0.000000 0.053605 0.000000 0.000000
# 5 0.000000 0.000000 0.000000 0.000000 0.035762 0.000000
# 6 0.000000 0.000000 0.000000 0.000000 0.000000 0.087913
#
#
# Mechanical properties :
#
#
# Convention : Reuss Voigt Hill
#
# Bulk Modulus (GPa) = 24.90798 61.47820 43.19309
# Shear Modulus (GPa) = 17.74182 25.29406 21.51794
#
# Velocity S-wave (km/s) = 3.19644 3.81660 3.52021
# Velocity P-wave (km/s) = 5.28840 7.40448 6.43403
#
# Compressibility (1/GPa) = 0.04014778
#
# Stress axis : x y z
#
# Youngs Moduli (GPa) = 23.74246 63.33584 129.11423
#
# Poissons Ratio (x) = 0.21035 0.46310
# Poissons Ratio (y) = 0.07885 0.75462
# Poissons Ratio (z) = 0.08516 0.37017
#
# Static dielectric constant tensor:
#      x y z
#    x 1.605450 0.000000 0.000000 
#    y 0.000000 1.569070 0.000000 
#    z 0.000000 0.000000 1.629710 
# 
# From -- ./inp_files/14026.got.cif
#   From: 2010.05.17/outbox.cif.g08.bks.cpg/sg59_8_cif.got.tgz:14026.got - 2010.06.03 14:40:33.
