data_PCOD9446585
_publ_section_title
;
Structure prediction by ZEFSAII (Michael W. Deem and Ramdas Pophale) SiO2 
 PCOD9446585
Probable space group: P M M N
;
_chemical_formula_sum "Si O2"
_cell_formula_units_Z 64
_cell_length_a 20.841763
_cell_length_b 8.992890
_cell_length_c 21.298373
_cell_angle_alpha 90.000000
_cell_angle_beta 90.000000
_cell_angle_gamma 90.000000
_cell_volume 3991.904683
_symmetry_space_group_name_H-M "P M M N"
_symmetry_group_IT_number 59
_space_group.IT_coordinate_system_code '2'
_symmetry_cell_setting 'orthorhombic'
loop_
_space_group_symop_operation_xyz
x,y,z
1/2-x,1/2-y,z
1/2+x,-y,-z
-x,1/2+y,-z
-x,-y,-z
1/2+x,1/2+y,-z
1/2-x,y,z
x,1/2-y,z
loop_
_atom_site_type_symbol
_atom_site_label
_atom_site_fract_x
_atom_site_fract_y
_atom_site_fract_z
Si Si1 0.321642 0.927342 0.529303
Si Si2 0.353922 0.423894 0.660944
Si Si3 0.052610 0.929991 0.453625
Si Si4 0.007563 0.924261 0.319360
Si Si5 0.006325 0.917953 0.806653
Si Si6 0.821514 0.927713 0.082699
Si Si7 0.458422 0.569136 0.944173
Si Si8 0.840643 0.080598 0.213194
O O1 0.250000 0.958635 0.505765
O O2 0.326661 0.750000 0.541140
O O3 0.377682 0.967152 0.481005
O O4 0.332502 0.010602 0.594796
O O5 0.338284 0.250000 0.665694
O O6 0.431327 0.439072 0.666509
O O7 0.324791 0.512833 0.719463
O O8 0.044736 0.750000 0.454253
O O9 0.042180 0.982115 0.382091
O O10 0.000000 0.000000 0.500000
O O11 0.021354 0.750000 0.313574
O O12 0.023384 0.997403 0.252489
O O13 0.981235 0.750000 0.808210
O O14 0.007870 0.977497 0.877920
O O15 0.082131 0.913812 0.791006
O O16 0.750000 0.964805 0.056555
O O17 0.830147 0.750000 0.078142
O O18 0.884836 0.009073 0.055406
O O19 0.820172 0.978164 0.155501
O O20 0.457117 0.750000 0.945586
O O21 0.500000 0.500000 0.000000
O O22 0.818733 0.250000 0.205470
#
# Coordination Sequence:
#
# PCOD9446585 Si02
#       8
#     8   8   8   8   8   8   8   8
#     4  10  21  34  46  62  88 122 156 194 243 298
#     4  10  18  29  45  65  90 121 158 199 241 284
#     4  10  19  32  49  69  91 117 156 201 245 292
#     4   9  17  28  45  69  92 116 152 198 243 283
#     4   8  16  29  45  69  97 124 155 192 238 287
#     4  10  20  33  49  71 100 134 172 210 247 290
#     4  10  20  34  53  77 105 137 171 207 249 298
#     4   9  17  29  45  65  92 127 165 201 238 283
#
# _framework density 16.032447000000001
#
# number of rings (size 3 to 8) (size 9 to 14) (size 15 to 20)
#    0.000    2.500    1.250    2.250    0.000    6.250 
#    0.000    0.000    0.000    0.000    0.000    0.875 
#    0.000    3.000    0.000    0.000    0.000    0.000 
#
# Total GULP energy -356555.353739 kJ/mol
# GULP energy per Si atom -5571.177402 kJ/mol
# Density = 1.599596 g / cm^3
# Si number density = 16.032447 Si / 1000 Ang^3
#
#
#
# Elastic Constant Matrix: (Units=GPa)
#
#
# Indices 1 2 3 4 5 6 
#
# 1 70.2622 35.8775 56.6973 0.0000 0.0000 0.0000
# 2 35.8775 43.4295 39.9181 0.0000 0.0000 0.0000
# 3 56.6973 39.9181 129.0522 0.0000 0.0000 0.0000
# 4 0.0000 0.0000 0.0000 26.1868 0.0000 0.0000
# 5 0.0000 0.0000 0.0000 0.0000 5.8112 0.0000
# 6 0.0000 0.0000 0.0000 0.0000 0.0000 10.0778
#
#
#
# Elastic Compliance Matrix: (Units=1/GPa)
#
#
# Indices 1 2 3 4 5 6 
#
# 1 0.028959 -0.017087 -0.007437 0.000000 0.000000 0.000000
# 2 -0.017087 0.042255 -0.005563 0.000000 0.000000 0.000000
# 3 -0.007437 -0.005563 0.012737 0.000000 0.000000 0.000000
# 4 0.000000 0.000000 0.000000 0.038187 0.000000 0.000000
# 5 0.000000 0.000000 0.000000 0.000000 0.172081 0.000000
# 6 0.000000 0.000000 0.000000 0.000000 0.000000 0.099228
#
#
# Mechanical properties :
#
#
# Convention : Reuss Voigt Hill
#
# Bulk Modulus (GPa) = 42.05990 56.41441 49.23715
# Shear Modulus (GPa) = 10.83310 15.76523 13.29917
#
# Velocity S-wave (km/s) = 2.60224 3.13922 2.88326
# Velocity P-wave (km/s) = 5.94307 6.95727 6.47007
#
# Compressibility (1/GPa) = 0.02377562
#
# Stress axis : x y z
#
# Youngs Moduli (GPa) = 34.53150 23.66571 78.51082
#
# Poissons Ratio (x) = 0.40438 0.58391
# Poissons Ratio (y) = 0.59005 0.43677
# Poissons Ratio (z) = 0.25682 0.13166
#
# Static dielectric constant tensor:
#      x y z
#    x 1.549980 0.000000 0.000000 
#    y 0.000000 1.546950 0.000000 
#    z 0.000000 0.000000 1.531590 
# 
# From -- ./inp_files/31014.got.cif
#   From: 2010.05.17/outbox.cif.g08.bks.cpg/sg59_16_cif.got.tgz:31014.got - 2010.06.03 14:40:33.
