data_PCOD9446996
_publ_section_title
;
Structure prediction by ZEFSAII (Michael W. Deem and Ramdas Pophale) SiO2 
 PCOD9446996
Probable space group: P M M N
;
_chemical_formula_sum "Si O2"
_cell_formula_units_Z 64
_cell_length_a 20.682872
_cell_length_b 8.413135
_cell_length_c 20.703902
_cell_angle_alpha 90.000000
_cell_angle_beta 90.000000
_cell_angle_gamma 90.000000
_cell_volume 3602.640321
_symmetry_space_group_name_H-M "P M M N"
_symmetry_group_IT_number 59
_space_group.IT_coordinate_system_code '2'
_symmetry_cell_setting 'orthorhombic'
loop_
_space_group_symop_operation_xyz
x,y,z
1/2-x,1/2-y,z
1/2+x,-y,-z
-x,1/2+y,-z
-x,-y,-z
1/2+x,1/2+y,-z
1/2-x,y,z
x,1/2-y,z
loop_
_atom_site_type_symbol
_atom_site_label
_atom_site_fract_x
_atom_site_fract_y
_atom_site_fract_z
Si Si1 0.322182 0.558665 0.429030
Si Si2 0.323730 0.559866 0.052806
Si Si3 0.568391 0.442806 0.472279
Si Si4 0.956224 0.056938 0.330466
Si Si5 0.581056 0.941860 0.836850
Si Si6 0.176413 0.440139 0.908680
Si Si7 0.566123 0.442162 0.186920
Si Si8 0.395451 0.058452 0.307581
O O1 0.250000 0.499737 0.441969
O O2 0.321669 0.750000 0.432974
O O3 0.374482 0.500083 0.481059
O O4 0.345090 0.511719 0.357637
O O5 0.250000 0.505836 0.068434
O O6 0.323856 0.750000 0.051590
O O7 0.375499 0.502562 0.104913
O O8 0.339086 0.498437 0.981014
O O9 0.500000 0.500000 0.500000
O O10 0.568236 0.250000 0.472668
O O11 0.574719 0.496143 0.397733
O O12 0.954079 0.250000 0.329736
O O13 0.927560 0.004040 0.261728
O O14 0.032081 0.012850 0.330056
O O15 0.581082 0.750000 0.838126
O O16 0.505551 0.992373 0.837402
O O17 0.609899 0.991255 0.767136
O O18 0.250000 0.495261 0.893701
O O19 0.176360 0.250000 0.908593
O O20 0.123463 0.499569 0.858243
O O21 0.566290 0.250000 0.186775
O O22 0.391557 0.250000 0.309746
#
# Coordination Sequence:
#
# PCOD9446996 Si02
#       8
#     8   8   8   8   8   8   8   8
#     4  10  21  33  45  70 107 138 167 210 260 306
#     4  10  21  36  54  76 102 136 178 217 253 304
#     4  10  18  31  53  75  98 132 173 214 255 302
#     4   8  15  30  52  76 100 125 164 214 254 294
#     4   9  19  34  53  78 107 136 169 213 261 306
#     4  10  21  37  56  77 103 136 172 212 260 311
#     4   9  18  34  55  79 105 133 169 215 260 307
#     4   9  17  32  52  72  97 132 172 208 246 299
#
# _framework density 17.764749999999999
#
# number of rings (size 3 to 8) (size 9 to 14) (size 15 to 20)
#    0.000    2.625    1.250    2.250    0.000    3.750 
#    0.000    5.625    0.000    2.250    0.000    0.000 
#    0.000    0.000    0.000    0.000    0.000    0.000 
#
# Total GULP energy -356834.320381 kJ/mol
# GULP energy per Si atom -5575.536256 kJ/mol
# Density = 1.772432 g / cm^3
# Si number density = 17.764750 Si / 1000 Ang^3
#
#
#
# Elastic Constant Matrix: (Units=GPa)
#
#
# Indices 1 2 3 4 5 6 
#
# 1 137.5256 21.0910 115.3465 0.0000 0.0000 0.0000
# 2 21.0910 11.1606 21.8519 0.0000 0.0000 0.0000
# 3 115.3465 21.8519 162.8551 0.0000 0.0000 0.0000
# 4 0.0000 0.0000 0.0000 24.2273 0.0000 0.0000
# 5 0.0000 0.0000 0.0000 0.0000 29.2797 0.0000
# 6 0.0000 0.0000 0.0000 0.0000 0.0000 23.9452
#
#
#
# Elastic Compliance Matrix: (Units=1/GPa)
#
#
# Indices 1 2 3 4 5 6 
#
# 1 0.019231 -0.013120 -0.011861 0.000000 0.000000 0.000000
# 2 -0.013120 0.130481 -0.008215 0.000000 0.000000 0.000000
# 3 -0.011861 -0.008215 0.015643 0.000000 0.000000 0.000000
# 4 0.000000 0.000000 0.000000 0.041276 0.000000 0.000000
# 5 0.000000 0.000000 0.000000 0.000000 0.034153 0.000000
# 6 0.000000 0.000000 0.000000 0.000000 0.000000 0.041762
#
#
# Mechanical properties :
#
#
# Convention : Reuss Voigt Hill
#
# Bulk Modulus (GPa) = 10.10477 69.79113 39.94795
# Shear Modulus (GPa) = 13.09153 25.70722 19.39937
#
# Velocity S-wave (km/s) = 2.71761 3.80819 3.30815
# Velocity P-wave (km/s) = 3.94305 7.66212 6.09326
#
# Compressibility (1/GPa) = 0.09896316
#
# Stress axis : x y z
#
# Youngs Moduli (GPa) = 51.99835 7.66397 63.92491
#
# Poissons Ratio (x) = 0.10055 0.75819
# Poissons Ratio (y) = 0.68224 0.52515
# Poissons Ratio (z) = 0.61673 0.06296
#
# Static dielectric constant tensor:
#      x y z
#    x 1.596130 0.000000 0.000000 
#    y 0.000000 1.611830 0.000000 
#    z 0.000000 0.000000 1.602660 
# 
# From -- ./inp_files/26352.got.cif
#   From: 2010.05.17/outbox.cif.g08.bks.cpg/sg59_14_cif.got.tgz:26352.got - 2010.06.03 14:40:33.
