data_PCOD9446312
_publ_section_title
;
Structure prediction by ZEFSAII (Michael W. Deem and Ramdas Pophale) SiO2 
 PCOD9446312
Probable space group: P M M N
;
_chemical_formula_sum "Si O2"
_cell_formula_units_Z 48
_cell_length_a 16.518776
_cell_length_b 15.023730
_cell_length_c 9.654162
_cell_angle_alpha 90.000000
_cell_angle_beta 90.000000
_cell_angle_gamma 90.000000
_cell_volume 2395.908434
_symmetry_space_group_name_H-M "P M M N"
_symmetry_group_IT_number 59
_space_group.IT_coordinate_system_code '2'
_symmetry_cell_setting 'orthorhombic'
loop_
_space_group_symop_operation_xyz
x,y,z
1/2-x,1/2-y,z
1/2+x,-y,-z
-x,1/2+y,-z
-x,-y,-z
1/2+x,1/2+y,-z
1/2-x,y,z
x,1/2-y,z
loop_
_atom_site_type_symbol
_atom_site_label
_atom_site_fract_x
_atom_site_fract_y
_atom_site_fract_z
Si Si1 0.448563 0.082924 0.935338
Si Si2 0.886426 0.345721 0.975039
Si Si3 0.605551 0.348388 0.309641
Si Si4 0.946502 0.572974 0.579778
Si Si5 0.341278 0.470806 0.160672
Si Si6 0.156738 0.456021 0.664333
O O1 0.520524 0.152469 0.922733
O O2 0.403066 0.061071 0.793664
O O3 0.500000 0.000000 0.000000
O O4 0.379720 0.097486 0.049837
O O5 0.849767 0.250000 0.939738
O O6 0.843802 0.431812 0.910965
O O7 0.888905 0.353252 0.142244
O O8 0.635667 0.250000 0.351034
O O9 0.512297 0.358692 0.359484
O O10 0.650630 0.436929 0.363695
O O11 0.899426 0.529971 0.707805
O O12 0.879429 0.598088 0.465774
O O13 0.000000 0.500000 0.500000
O O14 0.250000 0.448276 0.197905
O O15 0.250000 0.434425 0.694476
#
# Coordination Sequence:
#
# PCOD9446312 Si02
#       6
#     8   8   8   8   8   8
#     4  10  17  34  54  77 106 145 187 221 259 326
#     4  10  19  33  55  82 110 141 180 228 274 323
#     4  10  19  34  57  82 108 140 181 225 271 327
#     4  10  20  37  56  78 108 148 194 222 254 325
#     4  11  20  33  55  82 111 141 178 226 276 324
#     4  11  21  35  56  84 113 143 180 228 280 326
#
# _framework density 20.034153
#
# number of rings (size 3 to 8) (size 9 to 14) (size 15 to 20)
#    0.000    1.667    5.000    4.000    0.000    0.667 
#    0.000    9.167    0.000   10.000    0.000    0.000 
#    0.000    0.000    0.000    0.000    0.000    0.000 
#
# Total GULP energy -267485.887315 kJ/mol
# GULP energy per Si atom -5572.622652 kJ/mol
# Density = 1.998855 g / cm^3
# Si number density = 20.034153 Si / 1000 Ang^3
#
#
#
# Elastic Constant Matrix: (Units=GPa)
#
#
# Indices 1 2 3 4 5 6 
#
# 1 95.2857 -0.7129 17.3975 0.0000 0.0000 0.0000
# 2 -0.7129 17.6616 0.2769 0.0000 0.0000 0.0000
# 3 17.3975 0.2769 92.4898 0.0000 0.0000 0.0000
# 4 0.0000 0.0000 0.0000 12.5003 0.0000 0.0000
# 5 0.0000 0.0000 0.0000 0.0000 18.1621 0.0000
# 6 0.0000 0.0000 0.0000 0.0000 0.0000 5.6851
#
#
#
# Elastic Compliance Matrix: (Units=1/GPa)
#
#
# Indices 1 2 3 4 5 6 
#
# 1 0.010872 0.000471 -0.002046 0.000000 0.000000 0.000000
# 2 0.000471 0.056643 -0.000258 0.000000 0.000000 0.000000
# 3 -0.002046 -0.000258 0.011198 0.000000 0.000000 0.000000
# 4 0.000000 0.000000 0.000000 0.079998 0.000000 0.000000
# 5 0.000000 0.000000 0.000000 0.000000 0.055060 0.000000
# 6 0.000000 0.000000 0.000000 0.000000 0.000000 0.175899
#
#
# Mechanical properties :
#
#
# Convention : Reuss Voigt Hill
#
# Bulk Modulus (GPa) = 13.32526 26.59558 19.96042
# Shear Modulus (GPa) = 11.95165 19.83453 15.89309
#
# Velocity S-wave (km/s) = 2.44512 3.14990 2.81961
# Velocity P-wave (km/s) = 3.82586 5.15103 4.53708
#
# Compressibility (1/GPa) = 0.07504543
#
# Stress axis : x y z
#
# Youngs Moduli (GPa) = 91.98004 17.65437 89.30394
#
# Poissons Ratio (x) = -0.00831 0.18276
# Poissons Ratio (y) = -0.04332 0.02306
# Poissons Ratio (z) = 0.18823 0.00456
#
# Static dielectric constant tensor:
#      x y z
#    x 1.768270 0.000000 0.000000 
#    y 0.000000 1.737270 0.000000 
#    z 0.000000 0.000000 1.724810 
# 
# From -- ./inp_files/9042.got.cif
#   From: 2010.05.17/outbox.cif.g08.bks.cpg/sg59_5_cif.got.tgz:9042.got - 2010.06.03 14:40:33.
