data_PCOD9446908
_publ_section_title
;
Structure prediction by ZEFSAII (Michael W. Deem and Ramdas Pophale) SiO2 
 PCOD9446908
Probable space group: P M M N
;
_chemical_formula_sum "Si O2"
_cell_formula_units_Z 64
_cell_length_a 8.834048
_cell_length_b 29.481690
_cell_length_c 15.970795
_cell_angle_alpha 90.000000
_cell_angle_beta 90.000000
_cell_angle_gamma 90.000000
_cell_volume 4159.476405
_symmetry_space_group_name_H-M "P M M N"
_symmetry_group_IT_number 59
_space_group.IT_coordinate_system_code '2'
_symmetry_cell_setting 'orthorhombic'
loop_
_space_group_symop_operation_xyz
x,y,z
1/2-x,1/2-y,z
1/2+x,-y,-z
-x,1/2+y,-z
-x,-y,-z
1/2+x,1/2+y,-z
1/2-x,y,z
x,1/2-y,z
loop_
_atom_site_type_symbol
_atom_site_label
_atom_site_fract_x
_atom_site_fract_y
_atom_site_fract_z
Si Si1 0.066469 0.143787 0.161318
Si Si2 0.565404 0.697601 0.674029
Si Si3 0.068152 0.453310 0.099263
Si Si4 0.075350 0.194954 0.510361
Si Si5 0.930077 0.303444 0.684822
Si Si6 0.068224 0.353719 0.842286
Si Si7 0.068205 0.451471 0.903635
Si Si8 0.068738 0.803445 0.996997
O O1 0.250000 0.146032 0.156158
O O2 0.018738 0.166428 0.248691
O O3 0.022031 0.091206 0.150556
O O4 0.999452 0.171753 0.083873
O O5 0.750000 0.698053 0.671694
O O6 0.517392 0.750000 0.687032
O O7 0.517314 0.681144 0.581620
O O8 0.250000 0.456463 0.101630
O O9 0.999923 0.501159 0.127032
O O10 0.023575 0.446008 0.001646
O O11 0.250000 0.180326 0.520732
O O12 0.076172 0.250000 0.507016
O O13 0.980846 0.182040 0.591792
O O14 0.750000 0.307091 0.693525
O O15 0.971007 0.250000 0.694683
O O16 0.010552 0.332337 0.756269
O O17 0.250000 0.351440 0.846626
O O18 0.022152 0.406293 0.854511
O O19 0.999968 0.325711 0.919766
O O20 0.250000 0.454520 0.901338
O O21 0.250000 0.808520 0.998006
O O22 0.032722 0.750000 0.994443
#
# Coordination Sequence:
#
# PCOD9446908 Si02
#       8
#     8   8   8   8   8   8   8   8
#     4  10  18  31  49  70  94 123 160 195 228 271
#     4   8  14  25  45  71  95 121 155 193 227 262
#     4   9  17  30  47  68  91 117 152 192 233 276
#     4   8  14  27  46  67  90 119 156 191 224 265
#     4  10  20  32  46  68  97 125 153 187 230 277
#     4  11  21  34  50  68  89 119 159 196 230 273
#     4   9  18  32  47  66  89 115 152 194 234 276
#     4  11  23  34  43  62  95 130 160 189 224 270
#
# _framework density 15.386552
#
# number of rings (size 3 to 8) (size 9 to 14) (size 15 to 20)
#    0.000    2.500    1.250    2.625    0.000    5.250 
#    0.000    0.625    0.000    2.250    0.000    0.875 
#    0.000    0.000    0.000    0.000    0.000    0.000 
#
# Total GULP energy -356768.067069 kJ/mol
# GULP energy per Si atom -5574.501048 kJ/mol
# Density = 1.535153 g / cm^3
# Si number density = 15.386552 Si / 1000 Ang^3
#
#
#
# Elastic Constant Matrix: (Units=GPa)
#
#
# Indices 1 2 3 4 5 6 
#
# 1 22.5014 36.8005 29.1480 0.0000 0.0000 0.0000
# 2 36.8005 121.6694 71.1054 0.0000 0.0000 0.0000
# 3 29.1480 71.1054 123.7783 0.0000 0.0000 0.0000
# 4 0.0000 0.0000 0.0000 5.1840 0.0000 0.0000
# 5 0.0000 0.0000 0.0000 0.0000 5.8582 0.0000
# 6 0.0000 0.0000 0.0000 0.0000 0.0000 22.1719
#
#
#
# Elastic Compliance Matrix: (Units=1/GPa)
#
#
# Indices 1 2 3 4 5 6 
#
# 1 0.093804 -0.023278 -0.008718 0.000000 0.000000 0.000000
# 2 -0.023278 0.018149 -0.004944 0.000000 0.000000 0.000000
# 3 -0.008718 -0.004944 0.012972 0.000000 0.000000 0.000000
# 4 0.000000 0.000000 0.000000 0.192902 0.000000 0.000000
# 5 0.000000 0.000000 0.000000 0.000000 0.170701 0.000000
# 6 0.000000 0.000000 0.000000 0.000000 0.000000 0.045102
#
#
# Mechanical properties :
#
#
# Convention : Reuss Voigt Hill
#
# Bulk Modulus (GPa) = 19.58998 60.22855 39.90927
# Shear Modulus (GPa) = 8.00607 15.36916 11.68762
#
# Velocity S-wave (km/s) = 2.28355 3.16392 2.75907
# Velocity P-wave (km/s) = 4.43985 7.25092 6.01199
#
# Compressibility (1/GPa) = 0.05104649
#
# Stress axis : x y z
#
# Youngs Moduli (GPa) = 10.66047 55.09875 77.08820
#
# Poissons Ratio (x) = 1.28258 0.67202
# Poissons Ratio (y) = 0.24815 0.38115
# Poissons Ratio (z) = 0.09293 0.27243
#
# Static dielectric constant tensor:
#      x y z
#    x 1.516960 0.000000 0.000000 
#    y 0.000000 1.502150 0.000000 
#    z 0.000000 0.000000 1.505260 
# 
# From -- ./inp_files/21880.got.cif
#   From: 2010.05.17/outbox.cif.g08.bks.cpg/sg59_11_cif.got.tgz:21880.got - 2010.06.03 14:40:33.
