data_PCOD9446511
_publ_section_title
;
Structure prediction by ZEFSAII (Michael W. Deem and Ramdas Pophale) SiO2 
 PCOD9446511
Probable space group: P M M N
;
_chemical_formula_sum "Si O2"
_cell_formula_units_Z 48
_cell_length_a 14.238541
_cell_length_b 7.422113
_cell_length_c 21.786327
_cell_angle_alpha 90.000000
_cell_angle_beta 90.000000
_cell_angle_gamma 90.000000
_cell_volume 2302.380350
_symmetry_space_group_name_H-M "P M M N"
_symmetry_group_IT_number 59
_space_group.IT_coordinate_system_code '2'
_symmetry_cell_setting 'orthorhombic'
loop_
_space_group_symop_operation_xyz
x,y,z
1/2-x,1/2-y,z
1/2+x,-y,-z
-x,1/2+y,-z
-x,-y,-z
1/2+x,1/2+y,-z
1/2-x,y,z
x,1/2-y,z
loop_
_atom_site_type_symbol
_atom_site_label
_atom_site_fract_x
_atom_site_fract_y
_atom_site_fract_z
Si Si1 0.145459 0.536046 0.534761
Si Si2 0.139325 0.032301 0.034165
Si Si3 0.954837 0.961052 0.842664
Si Si4 0.453965 0.032837 0.407314
Si Si5 0.142885 0.467298 0.897851
Si Si6 0.641059 0.529448 0.718294
O O1 0.250000 0.462612 0.545506
O O2 0.149576 0.750000 0.545957
O O3 0.114307 0.511133 0.464109
O O4 0.058125 0.465062 0.574943
O O5 0.250000 0.995035 0.041028
O O6 0.128730 0.250000 0.032802
O O7 0.085991 0.961072 0.093715
O O8 0.111835 0.967746 0.966046
O O9 0.929690 0.750000 0.843379
O O10 0.909826 0.033205 0.780473
O O11 0.066676 0.976904 0.848133
O O12 0.458900 0.250000 0.404584
O O13 0.412494 0.969048 0.342950
O O14 0.250000 0.527127 0.887241
O O15 0.144422 0.250000 0.899500
O O16 0.750000 0.476141 0.717662
O O17 0.639247 0.750000 0.717767
#
# Coordination Sequence:
#
# PCOD9446511 Si02
#       6
#     8   8   8   8   8   8
#     4   9  17  29  46  69  95 120 149 188 228 259
#     4   8  14  26  45  67  89 115 147 182 224 273
#     4  10  18  28  46  70  91 113 147 189 225 259
#     4   9  17  30  48  69  93 123 155 182 215 264
#     4   9  18  32  47  62  85 119 153 184 225 274
#     4   9  17  29  46  69  95 120 146 178 219 268
#
# _framework density 20.847989999999999
#
# number of rings (size 3 to 8) (size 9 to 14) (size 15 to 20)
#    0.000    3.000    0.000    2.500    0.000    3.333 
#    0.000    1.667    0.000    7.000    0.000    0.000 
#    0.000    0.000    0.000    0.000    0.000    0.000 
#
# Total GULP energy -267862.818940 kJ/mol
# GULP energy per Si atom -5580.475395 kJ/mol
# Density = 2.080054 g / cm^3
# Si number density = 20.847990 Si / 1000 Ang^3
#
#
#
# Elastic Constant Matrix: (Units=GPa)
#
#
# Indices 1 2 3 4 5 6 
#
# 1 159.5314 -1.5671 108.9255 0.0000 0.0000 0.0000
# 2 -1.5671 67.1260 1.1338 0.0000 0.0000 0.0000
# 3 108.9255 1.1338 142.6799 0.0000 0.0000 0.0000
# 4 0.0000 0.0000 0.0000 40.3205 0.0000 0.0000
# 5 0.0000 0.0000 0.0000 0.0000 26.5773 0.0000
# 6 0.0000 0.0000 0.0000 0.0000 0.0000 11.7047
#
#
#
# Elastic Compliance Matrix: (Units=1/GPa)
#
#
# Indices 1 2 3 4 5 6 
#
# 1 0.013108 0.000475 -0.010011 0.000000 0.000000 0.000000
# 2 0.000475 0.014917 -0.000481 0.000000 0.000000 0.000000
# 3 -0.010011 -0.000481 0.014655 0.000000 0.000000 0.000000
# 4 0.000000 0.000000 0.000000 0.024801 0.000000 0.000000
# 5 0.000000 0.000000 0.000000 0.000000 0.037626 0.000000
# 6 0.000000 0.000000 0.000000 0.000000 0.000000 0.085436
#
#
# Mechanical properties :
#
#
# Convention : Reuss Voigt Hill
#
# Bulk Modulus (GPa) = 44.15828 65.14685 54.65257
# Shear Modulus (GPa) = 22.92248 33.11017 28.01632
#
# Velocity S-wave (km/s) = 3.31948 3.98951 3.66982
# Velocity P-wave (km/s) = 5.99324 7.24831 6.65045
#
# Compressibility (1/GPa) = 0.02264581
#
# Stress axis : x y z
#
# Youngs Moduli (GPa) = 76.28670 67.03952 68.23495
#
# Poissons Ratio (x) = -0.03185 0.68311
# Poissons Ratio (y) = -0.03625 0.03284
# Poissons Ratio (z) = 0.76371 0.03226
#
# Static dielectric constant tensor:
#      x y z
#    x 1.750910 0.000000 0.000000 
#    y 0.000000 1.828130 0.000000 
#    z 0.000000 0.000000 1.718100 
# 
# From -- ./inp_files/28816.got.cif
#   From: 2010.05.17/outbox.cif.g08.bks.cpg/sg59_15_cif.got.tgz:28816.got - 2010.06.03 14:40:33.
