data_PCOD9446980
_publ_section_title
;
Structure prediction by ZEFSAII (Michael W. Deem and Ramdas Pophale) SiO2 
 PCOD9446980
Probable space group: P M M N
;
_chemical_formula_sum "Si O2"
_cell_formula_units_Z 64
_cell_length_a 21.326148
_cell_length_b 7.873168
_cell_length_c 18.364953
_cell_angle_alpha 90.000000
_cell_angle_beta 90.000000
_cell_angle_gamma 90.000000
_cell_volume 3083.555423
_symmetry_space_group_name_H-M "P M M N"
_symmetry_group_IT_number 59
_space_group.IT_coordinate_system_code '2'
_symmetry_cell_setting 'orthorhombic'
loop_
_space_group_symop_operation_xyz
x,y,z
1/2-x,1/2-y,z
1/2+x,-y,-z
-x,1/2+y,-z
-x,-y,-z
1/2+x,1/2+y,-z
1/2-x,y,z
x,1/2-y,z
loop_
_atom_site_type_symbol
_atom_site_label
_atom_site_fract_x
_atom_site_fract_y
_atom_site_fract_z
Si Si1 0.322157 0.552586 0.969139
Si Si2 0.102488 0.558623 0.834741
Si Si3 0.351151 0.940316 0.127145
Si Si4 0.524272 0.939272 0.922572
Si Si5 0.388797 0.541096 0.280774
Si Si6 0.434193 0.047024 0.537907
Si Si7 0.033018 0.451302 0.696811
Si Si8 0.321896 0.546475 0.430426
O O1 0.250000 0.557883 0.949966
O O2 0.346198 0.750000 0.975525
O O3 0.357789 0.474397 0.900103
O O4 0.326977 0.480260 0.051196
O O5 0.127789 0.750000 0.822860
O O6 0.086146 0.477803 0.757780
O O7 0.034284 0.569786 0.870376
O O8 0.323942 0.750000 0.131587
O O9 0.351753 0.017869 0.207917
O O10 0.425036 0.935824 0.109938
O O11 0.551736 0.750000 0.929033
O O12 0.500000 0.000000 0.000000
O O13 0.388633 0.750000 0.277150
O O14 0.462210 0.484493 0.283927
O O15 0.353043 0.487579 0.354132
O O16 0.430319 0.250000 0.540416
O O17 0.441740 0.979356 0.620167
O O18 0.500000 0.000000 0.500000
O O19 0.372840 0.989307 0.493526
O O20 0.023962 0.250000 0.688332
O O21 0.250000 0.483280 0.441176
O O22 0.317823 0.750000 0.424771
#
# Coordination Sequence:
#
# PCOD9446980 Si02
#       8
#     8   8   8   8   8   8   8   8
#     4   9  18  33  51  72 102 141 185 228 268 316
#     4  10  20  33  51  78 107 136 179 229 275 324
#     4  10  18  31  52  78 107 139 177 223 270 325
#     4  11  20  30  47  74 104 134 172 219 271 320
#     4   9  17  31  53  83 116 145 179 222 279 341
#     4  11  22  38  62  89 119 154 196 241 291 352
#     4  10  20  35  56  83 113 143 177 229 289 340
#     4  10  21  39  61  87 122 158 193 235 287 350
#
# _framework density 20.755261000000001
#
# number of rings (size 3 to 8) (size 9 to 14) (size 15 to 20)
#    0.000    2.000    3.750    0.750    0.000    2.250 
#    0.000    3.750    0.000    3.750    0.000    0.000 
#    0.000    0.000    0.000    0.000    0.000    0.000 
#
# Total GULP energy -356500.250639 kJ/mol
# GULP energy per Si atom -5570.316416 kJ/mol
# Density = 2.070802 g / cm^3
# Si number density = 20.755261 Si / 1000 Ang^3
#
#
#
# Elastic Constant Matrix: (Units=GPa)
#
#
# Indices 1 2 3 4 5 6 
#
# 1 113.4740 7.0361 68.2788 0.0000 0.0000 0.0000
# 2 7.0361 33.1779 4.5550 0.0000 0.0000 0.0000
# 3 68.2788 4.5550 183.4883 0.0000 0.0000 0.0000
# 4 0.0000 0.0000 0.0000 11.3129 0.0000 0.0000
# 5 0.0000 0.0000 0.0000 0.0000 5.4599 0.0000
# 6 0.0000 0.0000 0.0000 0.0000 0.0000 14.3518
#
#
#
# Elastic Compliance Matrix: (Units=1/GPa)
#
#
# Indices 1 2 3 4 5 6 
#
# 1 0.011467 -0.001852 -0.004221 0.000000 0.000000 0.000000
# 2 -0.001852 0.030543 -0.000069 0.000000 0.000000 0.000000
# 3 -0.004221 -0.000069 0.007022 0.000000 0.000000 0.000000
# 4 0.000000 0.000000 0.000000 0.088394 0.000000 0.000000
# 5 0.000000 0.000000 0.000000 0.000000 0.183154 0.000000
# 6 0.000000 0.000000 0.000000 0.000000 0.000000 0.069678
#
#
# Mechanical properties :
#
#
# Convention : Reuss Voigt Hill
#
# Bulk Modulus (GPa) = 27.21260 54.43112 40.82186
# Shear Modulus (GPa) = 12.05422 22.90962 17.48192
#
# Velocity S-wave (km/s) = 2.41255 3.32595 2.90537
# Velocity P-wave (km/s) = 4.57167 6.40558 5.56469
#
# Compressibility (1/GPa) = 0.03674768
#
# Stress axis : x y z
#
# Youngs Moduli (GPa) = 87.20365 32.74090 142.40081
#
# Poissons Ratio (x) = 0.06065 0.60110
# Poissons Ratio (y) = 0.16153 0.00981
# Poissons Ratio (z) = 0.36811 0.00226
#
# Static dielectric constant tensor:
#      x y z
#    x 1.709410 0.000000 0.000000 
#    y 0.000000 1.814230 0.000000 
#    z 0.000000 0.000000 1.798940 
# 
# From -- ./inp_files/28314.got.cif
#   From: 2010.05.17/outbox.cif.g08.bks.cpg/sg59_15_cif.got.tgz:28314.got - 2010.06.03 14:40:33.
