data_PCOD9446060
_publ_section_title
;
Structure prediction by ZEFSAII (Michael W. Deem and Ramdas Pophale) SiO2 
 PCOD9446060
Probable space group: P N N M
;
_chemical_formula_sum "Si O2"
_cell_formula_units_Z 64
_cell_length_a 24.000000
_cell_length_b 15.000000
_cell_length_c 9.000000
_cell_angle_alpha 90.000000
_cell_angle_beta 90.000000
_cell_angle_gamma 90.000000
_cell_volume 3240.000000
_symmetry_space_group_name_H-M "P N N M"
_symmetry_group_IT_number 58
_symmetry_cell_setting 'orthorhombic'
loop_
_space_group_symop_operation_xyz
x,y,z
-x,-y,z
1/2+x,1/2-y,1/2-z
1/2-x,1/2+y,1/2-z
-x,-y,-z
x,y,-z
1/2-x,1/2+y,1/2+z
1/2+x,1/2-y,1/2+z
loop_
_atom_site_type_symbol
_atom_site_label
_atom_site_fract_x
_atom_site_fract_y
_atom_site_fract_z
Si Si1 0.930023 0.261669 0.323402
Si Si2 0.754296 0.078229 0.176950
Si Si3 0.447393 0.064664 0.331290
Si Si4 0.999961 0.898518 0.319565
Si Si5 0.802992 0.250407 0.325298
Si Si6 0.203395 0.115243 0.175164
Si Si7 0.133243 0.412269 0.820621
Si Si8 0.605392 0.275343 0.822538
O O1 0.938607 0.263725 0.500000
O O2 0.961230 0.345352 0.254295
O O3 0.865614 0.277378 0.290726
O O4 0.948825 0.163952 0.271289
O O5 0.785973 0.167007 0.225816
O O6 0.696181 0.081165 0.264105
O O7 0.788011 0.988104 0.214148
O O8 0.743877 0.077270 0.000000
O O9 0.432464 0.089780 0.500000
O O10 0.500000 0.000000 0.334925
O O11 0.398782 0.001356 0.268616
O O12 0.001036 0.904639 0.500000
O O13 0.946562 0.838378 0.280842
O O14 0.000000 0.000000 0.262949
O O15 0.800236 0.223737 0.500000
O O16 0.761462 0.332660 0.305899
O O17 0.159107 0.168454 0.272328
O O18 0.187963 0.121527 0.000000
O O19 0.107510 0.320789 0.756190
O O20 0.130366 0.408743 0.000000
O O21 0.604757 0.261969 0.000000
#
# Coordination Sequence:
#
# PCOD9446060 Si02
#       8
#     8   8   8   8   8   8   8   8
#     4  10  21  38  62  88 117 157 200 249 301 348
#     4  11  23  38  59  87 117 153 198 244 291 353
#     4  10  22  39  60  87 119 157 196 240 299 360
#     4   9  20  38  59  87 121 155 199 250 295 346
#     4  10  21  38  60  86 118 158 196 238 300 356
#     4  10  22  39  57  83 122 157 191 245 302 353
#     4  11  22  38  60  86 121 159 192 241 302 355
#     4  11  22  36  61  90 116 155 202 245 292 351
#
# _framework density 19.753086
#
# number of rings (size 3 to 8) (size 9 to 14) (size 15 to 20)
#    0.000    1.750    1.250    2.625    1.750    3.750 
#    0.000    0.625    0.000    1.875    0.000    0.000 
#    0.000    0.000    0.000    0.000    0.000    0.000 
#
# Total GULP energy -357304.751227 kJ/mol
# GULP energy per Si atom -5582.886738 kJ/mol
# Density = 1.970813 g / cm^3
# Si number density = 19.753086 Si / 1000 Ang^3
#
#
#
# Elastic Constant Matrix: (Units=GPa)
#
#
# Indices 1 2 3 4 5 6 
#
# 1 23.2523 -23.2611 0.2858 0.0000 0.0000 0.0000
# 2 -23.2611 68.4067 -4.9019 0.0000 0.0000 0.0000
# 3 0.2858 -4.9019 6.7859 0.0000 0.0000 0.0000
# 4 0.0000 0.0000 0.0000 25.7684 0.0000 0.0000
# 5 0.0000 0.0000 0.0000 0.0000 3.1066 0.0000
# 6 0.0000 0.0000 0.0000 0.0000 0.0000 22.5325
#
#
#
# Elastic Compliance Matrix: (Units=1/GPa)
#
#
# Indices 1 2 3 4 5 6 
#
# 1 0.066462 0.023622 0.014264 0.000000 0.000000 0.000000
# 2 0.023622 0.023812 0.016206 0.000000 0.000000 0.000000
# 3 0.014264 0.016206 0.158469 0.000000 0.000000 0.000000
# 4 0.000000 0.000000 0.000000 0.038807 0.000000 0.000000
# 5 0.000000 0.000000 0.000000 0.000000 0.321894 0.000000
# 6 0.000000 0.000000 0.000000 0.000000 0.000000 0.044380
#
#
# Mechanical properties :
#
#
# Convention : Reuss Voigt Hill
#
# Bulk Modulus (GPa) = 2.80169 4.74340 3.77254
# Shear Modulus (GPa) = 7.52313 18.70297 13.11305
#
# Velocity S-wave (km/s) = 1.95368 3.08041 2.57932
# Velocity P-wave (km/s) = 2.55158 3.88052 3.28398
#
# Compressibility (1/GPa) = 0.35692796
#
# Stress axis : x y z
#
# Youngs Moduli (GPa) = 15.04618 41.99527 6.31038
#
# Poissons Ratio (x) = -0.99201 -0.09001
# Poissons Ratio (y) = -0.35542 -0.10227
# Poissons Ratio (z) = -0.21462 -0.68058
#
# Static dielectric constant tensor:
#      x y z
#    x 1.787560 0.000000 0.000000 
#    y 0.000000 2.060640 0.000000 
#    z 0.000000 0.000000 1.673850 
# 
# From -- ./inp_files/10093.got.cif
#   From: 2010.05.17/outbox.ucp.g08.bks.cvg/sg58_6_cif.got.tgz:10093.got - 2010.06.11 16:41:41.
