data_PCOD9446005
_publ_section_title
;
Structure prediction by ZEFSAII (Michael W. Deem and Ramdas Pophale) SiO2 
 PCOD9446005
Probable space group: P N N M
;
_chemical_formula_sum "Si O2"
_cell_formula_units_Z 64
_cell_length_a 24.000000
_cell_length_b 15.000000
_cell_length_c 9.000000
_cell_angle_alpha 90.000000
_cell_angle_beta 90.000000
_cell_angle_gamma 90.000000
_cell_volume 3240.000000
_symmetry_space_group_name_H-M "P N N M"
_symmetry_group_IT_number 58
_symmetry_cell_setting 'orthorhombic'
loop_
_space_group_symop_operation_xyz
x,y,z
-x,-y,z
1/2+x,1/2-y,1/2-z
1/2-x,1/2+y,1/2-z
-x,-y,-z
x,y,-z
1/2-x,1/2+y,1/2+z
1/2+x,1/2-y,1/2+z
loop_
_atom_site_type_symbol
_atom_site_label
_atom_site_fract_x
_atom_site_fract_y
_atom_site_fract_z
Si Si1 0.165201 0.220392 0.671914
Si Si2 0.734762 0.692341 0.176022
Si Si3 0.357630 0.549148 0.329830
Si Si4 0.573915 0.126017 0.826540
Si Si5 0.876901 0.453793 0.174347
Si Si6 0.230482 0.488532 0.329393
Si Si7 0.118534 0.850679 0.179384
Si Si8 0.534759 0.796470 0.324544
O O1 0.179964 0.210132 0.500000
O O2 0.221747 0.235496 0.763426
O O3 0.132326 0.134209 0.729408
O O4 0.125006 0.305223 0.688817
O O5 0.761895 0.598546 0.227975
O O6 0.673611 0.692986 0.249168
O O7 0.730143 0.697541 0.000000
O O8 0.374983 0.565957 0.500000
O O9 0.290797 0.533924 0.329017
O O10 0.382668 0.454827 0.278862
O O11 0.518156 0.172867 0.768280
O O12 0.588454 0.038995 0.731470
O O13 0.568329 0.102064 0.000000
O O14 0.819759 0.452930 0.266877
O O15 0.915660 0.368127 0.194238
O O16 0.863984 0.462923 0.000000
O O17 0.218208 0.461390 0.500000
O O18 0.062879 0.797255 0.217601
O O19 0.125885 0.847086 0.000000
O O20 0.520030 0.794666 0.500000
#
# Coordination Sequence:
#
# PCOD9446005 Si02
#       8
#     8   8   8   8   8   8   8   8
#     4  11  23  38  58  84 118 158 199 245 299 349
#     4  11  21  34  57  87 117 154 196 239 290 352
#     4   9  20  37  59  86 118 154 196 242 293 355
#     4  11  24  41  60  84 117 159 200 246 301 351
#     4  11  22  36  58  89 119 155 198 241 291 354
#     4  10  20  36  56  84 122 157 190 236 292 350
#     4   9  20  41  62  85 120 156 191 244 304 353
#     4  10  23  41  62  87 116 154 199 247 299 356
#
# _framework density 19.753086
#
# number of rings (size 3 to 8) (size 9 to 14) (size 15 to 20)
#    0.000    1.750    1.250    3.750    1.750    7.000 
#    0.000    0.625    0.000    3.750    0.000    0.000 
#    0.000    0.000    0.000    0.000    0.000    0.000 
#
# Total GULP energy -357625.020623 kJ/mol
# GULP energy per Si atom -5587.890947 kJ/mol
# Density = 1.970813 g / cm^3
# Si number density = 19.753086 Si / 1000 Ang^3
#
#
#
# Elastic Constant Matrix: (Units=GPa)
#
#
# Indices 1 2 3 4 5 6 
#
# 1 3.6405 -30.7419 -3.5325 0.0000 0.0000 0.0000
# 2 -30.7419 50.2170 13.2811 0.0000 0.0000 0.0000
# 3 -3.5325 13.2811 49.1558 0.0000 0.0000 0.0000
# 4 0.0000 0.0000 0.0000 17.2890 0.0000 0.0000
# 5 0.0000 0.0000 0.0000 0.0000 21.4247 0.0000
# 6 0.0000 0.0000 0.0000 0.0000 0.0000 0.5644
#
#
#
# Elastic Compliance Matrix: (Units=1/GPa)
#
#
# Indices 1 2 3 4 5 6 
#
# 1 -0.063929 -0.040839 0.006440 0.000000 0.000000 0.000000
# 2 -0.040839 -0.004643 -0.001680 0.000000 0.000000 0.000000
# 3 0.006440 -0.001680 0.021260 0.000000 0.000000 0.000000
# 4 0.000000 0.000000 0.000000 0.057840 0.000000 0.000000
# 5 0.000000 0.000000 0.000000 0.000000 0.046675 0.000000
# 6 0.000000 0.000000 0.000000 0.000000 0.000000 1.771795
#
#
# Mechanical properties :
#
#
# Convention : Reuss Voigt Hill
#
# Bulk Modulus (GPa) = -8.37017 6.78075 -0.79471
# Shear Modulus (GPa) = 2.68625 16.12271 9.40448
#
# Velocity S-wave (km/s) = 1.16742 2.86004 2.18434
# Velocity P-wave (km/s) = 1.55867 3.78770 2.44103
#
# Compressibility (1/GPa) = -0.11947187
#
# Stress axis : x y z
#
# Youngs Moduli (GPa) = -15.64228 -215.37126 47.03601
#
# Poissons Ratio (x) = -8.79565 -0.30291
# Poissons Ratio (y) = -0.63882 0.07904
# Poissons Ratio (z) = 0.10074 -0.36190
#
# Static dielectric constant tensor:
#      x y z
#    x 1.666920 0.000000 0.000000 
#    y 0.000000 1.725700 0.000000 
#    z 0.000000 0.000000 1.667460 
# 
# From -- ./inp_files/9960.got.cif
#   From: 2010.05.17/outbox.ucp.g08.bks.cvg/sg58_5_cif.got.tgz:9960.got - 2010.06.11 16:41:41.
