data_PCOD9446182
_publ_section_title
;
Structure prediction by ZEFSAII (Michael W. Deem and Ramdas Pophale) SiO2 
 PCOD9446182
Probable space group: P M M N
;
_chemical_formula_sum "Si O2"
_cell_formula_units_Z 56
_cell_length_a 7.400037
_cell_length_b 14.446143
_cell_length_c 27.425210
_cell_angle_alpha 90.000000
_cell_angle_beta 90.000000
_cell_angle_gamma 90.000000
_cell_volume 2931.809599
_symmetry_space_group_name_H-M "P M M N"
_symmetry_group_IT_number 59
_space_group.IT_coordinate_system_code '2'
_symmetry_cell_setting 'orthorhombic'
loop_
_space_group_symop_operation_xyz
x,y,z
1/2-x,1/2-y,z
1/2+x,-y,-z
-x,1/2+y,-z
-x,-y,-z
1/2+x,1/2+y,-z
1/2-x,y,z
x,1/2-y,z
loop_
_atom_site_type_symbol
_atom_site_label
_atom_site_fract_x
_atom_site_fract_y
_atom_site_fract_z
Si Si1 0.532803 0.145352 0.020510
Si Si2 0.032394 0.355373 0.422564
Si Si3 0.962078 0.962098 0.373865
Si Si4 0.465168 0.467719 0.922974
Si Si5 0.969161 0.858576 0.469218
Si Si6 0.529382 0.856787 0.169665
Si Si7 0.970063 0.856905 0.279530
O O1 0.750000 0.148313 0.025249
O O2 0.465077 0.250000 0.026730
O O3 0.494030 0.105242 0.966756
O O4 0.464357 0.066841 0.058041
O O5 0.250000 0.353492 0.424119
O O6 0.971168 0.250000 0.414622
O O7 0.968192 0.386786 0.476607
O O8 0.978691 0.428801 0.382073
O O9 0.750000 0.938284 0.373580
O O10 0.038573 0.914923 0.422928
O O11 0.034948 0.921491 0.323443
O O12 0.250000 0.478466 0.917204
O O13 0.535051 0.424924 0.872699
O O14 0.750000 0.865868 0.469898
O O15 0.011860 0.750000 0.463336
O O16 0.750000 0.857759 0.169075
O O17 0.476589 0.750000 0.160072
O O18 0.471842 0.881428 0.224653
O O19 0.750000 0.859760 0.278595
O O20 0.020048 0.750000 0.289140
#
# Coordination Sequence:
#
# PCOD9446182 Si02
#       7
#     8   8   8   8   8   8   8
#     4   9  17  27  38  57  86 112 133 165 208 243
#     4   9  18  31  43  55  77 110 140 163 194 240
#     4  10  17  25  43  66  83 101 129 168 205 234
#     4   9  16  26  42  61  80 108 144 171 192 231
#     4   8  14  25  41  61  83 106 132 159 192 242
#     4   8  13  22  38  60  83 105 132 165 195 229
#     4   8  14  24  39  62  88 108 127 157 201 245
#
# _framework density 19.100830999999999
#
# number of rings (size 3 to 8) (size 9 to 14) (size 15 to 20)
#    0.000    3.286    0.000    3.000    0.000    2.857 
#    0.000    0.000    0.000    4.286    0.000    6.000 
#    0.000    0.000    0.000    0.000    0.000    0.000 
#
# Total GULP energy -312272.242129 kJ/mol
# GULP energy per Si atom -5576.290038 kJ/mol
# Density = 1.905736 g / cm^3
# Si number density = 19.100831 Si / 1000 Ang^3
#
#
#
# Elastic Constant Matrix: (Units=GPa)
#
#
# Indices 1 2 3 4 5 6 
#
# 1 62.4313 -2.2693 3.6388 0.0000 0.0000 0.0000
# 2 -2.2693 132.8558 112.3427 0.0000 0.0000 0.0000
# 3 3.6388 112.3427 171.6030 0.0000 0.0000 0.0000
# 4 0.0000 0.0000 0.0000 33.4831 0.0000 0.0000
# 5 0.0000 0.0000 0.0000 0.0000 -0.6607 0.0000
# 6 0.0000 0.0000 0.0000 0.0000 0.0000 7.3325
#
#
#
# Elastic Compliance Matrix: (Units=1/GPa)
#
#
# Indices 1 2 3 4 5 6 
#
# 1 0.016132 0.001265 -0.001170 0.000000 0.000000 0.000000
# 2 0.001265 0.016960 -0.011130 0.000000 0.000000 0.000000
# 3 -0.001170 -0.011130 0.013139 0.000000 0.000000 0.000000
# 4 0.000000 0.000000 0.000000 0.029866 0.000000 0.000000
# 5 0.000000 0.000000 0.000000 0.000000 -1.513574 0.000000
# 6 0.000000 0.000000 0.000000 0.000000 0.000000 0.136378
#
#
# Mechanical properties :
#
#
# Convention : Reuss Voigt Hill
#
# Bulk Modulus (GPa) = 41.39035 66.03493 53.71264
# Shear Modulus (GPa) = -3.93399 24.90952 10.48777
#
# Velocity S-wave (km/s) = -1.43668 3.61516 2.34577
# Velocity P-wave (km/s) = 4.35481 7.21614 5.95974
#
# Compressibility (1/GPa) = 0.02416022
#
# Stress axis : x y z
#
# Youngs Moduli (GPa) = 61.98929 58.96181 76.11109
#
# Poissons Ratio (x) = -0.07460 0.08908
# Poissons Ratio (y) = -0.07843 0.84712
# Poissons Ratio (z) = 0.07255 0.65625
#
# Static dielectric constant tensor:
#      x y z
#    x 1.751700 0.000000 0.000000 
#    y 0.000000 1.662020 0.000000 
#    z 0.000000 0.000000 1.658200 
# 
# From -- ./inp_files/31912.got.cif
#   From: 2010.05.17/outbox.cif.g08.bks.cpg/sg59_16_cif.got.tgz:31912.got - 2010.06.03 14:40:33.
