data_PCOD9446923
_publ_section_title
;
Structure prediction by ZEFSAII (Michael W. Deem and Ramdas Pophale) SiO2 
 PCOD9446923
Probable space group: P M M N
;
_chemical_formula_sum "Si O2"
_cell_formula_units_Z 64
_cell_length_a 20.661673
_cell_length_b 8.130735
_cell_length_c 20.537267
_cell_angle_alpha 90.000000
_cell_angle_beta 90.000000
_cell_angle_gamma 90.000000
_cell_volume 3450.149705
_symmetry_space_group_name_H-M "P M M N"
_symmetry_group_IT_number 59
_space_group.IT_coordinate_system_code '2'
_symmetry_cell_setting 'orthorhombic'
loop_
_space_group_symop_operation_xyz
x,y,z
1/2-x,1/2-y,z
1/2+x,-y,-z
-x,1/2+y,-z
-x,-y,-z
1/2+x,1/2+y,-z
1/2-x,y,z
x,1/2-y,z
loop_
_atom_site_type_symbol
_atom_site_label
_atom_site_fract_x
_atom_site_fract_y
_atom_site_fract_z
Si Si1 0.177611 0.052231 0.889258
Si Si2 0.033827 0.054958 0.658733
Si Si3 0.678179 0.050743 0.738801
Si Si4 0.608669 0.450495 0.611880
Si Si5 0.942768 0.445064 0.195755
Si Si6 0.823602 0.549112 0.961731
Si Si7 0.580863 0.947083 0.850166
Si Si8 0.428513 0.946810 0.524081
O O1 0.250000 0.993871 0.871017
O O2 0.179738 0.250000 0.891168
O O3 0.121347 0.003822 0.840401
O O4 0.164538 0.997192 0.963703
O O5 0.029414 0.250000 0.665345
O O6 0.961491 0.994054 0.639543
O O7 0.055648 0.986191 0.727769
O O8 0.078813 0.015228 0.596612
O O9 0.750000 0.995831 0.757765
O O10 0.676159 0.250000 0.741569
O O11 0.661358 0.000597 0.664914
O O12 0.624061 0.984084 0.787006
O O13 0.607093 0.250000 0.610760
O O14 0.615821 0.502714 0.536703
O O15 0.945124 0.250000 0.189532
O O16 0.008649 0.513313 0.162329
O O17 0.750000 0.499334 0.943330
O O18 0.824157 0.750000 0.960404
O O19 0.878258 0.489320 0.911929
O O20 0.576141 0.750000 0.857621
O O21 0.426103 0.750000 0.528223
O O22 0.500000 0.000000 0.500000
#
# Coordination Sequence:
#
# PCOD9446923 Si02
#       8
#     8   8   8   8   8   8   8   8
#     4   9  19  37  59  78  96 129 174 212 255 318
#     4  10  18  31  50  71  99 134 170 212 261 309
#     4  10  19  31  48  71 102 141 180 213 250 303
#     4   8  15  28  45  67  96 130 167 209 255 300
#     4  11  22  33  50  79 110 137 166 213 267 313
#     4   8  15  31  54  75  99 135 177 214 249 300
#     4  10  20  33  50  75 106 138 174 214 256 304
#     4   9  16  27  45  69  97 129 169 214 258 309
#
# _framework density 18.549918999999999
#
# number of rings (size 3 to 8) (size 9 to 14) (size 15 to 20)
#    0.000    2.625    1.250    3.000    0.000    2.000 
#    0.000    1.250    0.000    1.500    0.000    1.750 
#    0.000    0.000    0.000    0.000    0.000    0.000 
#
# Total GULP energy -356669.523515 kJ/mol
# GULP energy per Si atom -5572.961305 kJ/mol
# Density = 1.850770 g / cm^3
# Si number density = 18.549919 Si / 1000 Ang^3
#
#
#
# Elastic Constant Matrix: (Units=GPa)
#
#
# Indices 1 2 3 4 5 6 
#
# 1 109.8109 9.5633 82.6508 0.0000 0.0000 0.0000
# 2 9.5633 12.2304 4.8634 0.0000 0.0000 0.0000
# 3 82.6508 4.8634 129.4010 0.0000 0.0000 0.0000
# 4 0.0000 0.0000 0.0000 16.2677 0.0000 0.0000
# 5 0.0000 0.0000 0.0000 0.0000 21.6793 0.0000
# 6 0.0000 0.0000 0.0000 0.0000 0.0000 11.8038
#
#
#
# Elastic Compliance Matrix: (Units=1/GPa)
#
#
# Indices 1 2 3 4 5 6 
#
# 1 0.018671 -0.010007 -0.011549 0.000000 0.000000 0.000000
# 2 -0.010007 0.088367 0.003070 0.000000 0.000000 0.000000
# 3 -0.011549 0.003070 0.014989 0.000000 0.000000 0.000000
# 4 0.000000 0.000000 0.000000 0.061471 0.000000 0.000000
# 5 0.000000 0.000000 0.000000 0.000000 0.046127 0.000000
# 6 0.000000 0.000000 0.000000 0.000000 0.000000 0.084718
#
#
# Mechanical properties :
#
#
# Convention : Reuss Voigt Hill
#
# Bulk Modulus (GPa) = 11.75698 49.51083 30.63391
# Shear Modulus (GPa) = 13.16943 20.24116 16.70530
#
# Velocity S-wave (km/s) = 2.66737 3.30687 3.00419
# Velocity P-wave (km/s) = 3.97973 6.42877 5.34637
#
# Compressibility (1/GPa) = 0.08505582
#
# Stress axis : x y z
#
# Youngs Moduli (GPa) = 53.55969 11.31642 66.71447
#
# Poissons Ratio (x) = 0.11324 0.77050
# Poissons Ratio (y) = 0.53595 -0.20483
# Poissons Ratio (z) = 0.61858 -0.03474
#
# Static dielectric constant tensor:
#      x y z
#    x 1.643390 0.000000 0.000000 
#    y 0.000000 1.655030 0.000000 
#    z 0.000000 0.000000 1.654630 
# 
# From -- ./inp_files/30819.got.cif
#   From: 2010.05.17/outbox.cif.g08.bks.cpg/sg59_16_cif.got.tgz:30819.got - 2010.06.03 14:40:33.
