data_PCOD9446732
_publ_section_title
;
Structure prediction by ZEFSAII (Michael W. Deem and Ramdas Pophale) SiO2 
 PCOD9446732
Probable space group: P M M N
;
_chemical_formula_sum "Si O2"
_cell_formula_units_Z 64
_cell_length_a 7.401592
_cell_length_b 23.046270
_cell_length_c 18.477189
_cell_angle_alpha 90.000000
_cell_angle_beta 90.000000
_cell_angle_gamma 90.000000
_cell_volume 3151.822042
_symmetry_space_group_name_H-M "P M M N"
_symmetry_group_IT_number 59
_space_group.IT_coordinate_system_code '2'
_symmetry_cell_setting 'orthorhombic'
loop_
_space_group_symop_operation_xyz
x,y,z
1/2-x,1/2-y,z
1/2+x,-y,-z
-x,1/2+y,-z
-x,-y,-z
1/2+x,1/2+y,-z
1/2-x,y,z
x,1/2-y,z
loop_
_atom_site_type_symbol
_atom_site_label
_atom_site_fract_x
_atom_site_fract_y
_atom_site_fract_z
Si Si1 0.529504 0.314596 0.426588
Si Si2 0.970836 0.185514 0.745367
Si Si3 0.532474 0.084685 0.852967
Si Si4 0.534498 0.068508 0.010324
Si Si5 0.455258 0.841663 0.413543
Si Si6 0.464258 0.025809 0.579285
Si Si7 0.965306 0.052244 0.166564
Si Si8 0.528827 0.080836 0.323727
O O1 0.750000 0.318173 0.428734
O O2 0.480731 0.250000 0.402514
O O3 0.464580 0.324156 0.509026
O O4 0.469578 0.365140 0.372645
O O5 0.750000 0.182409 0.743659
O O6 0.018890 0.250000 0.771930
O O7 0.032539 0.132376 0.795685
O O8 0.035147 0.178499 0.662540
O O9 0.750000 0.088468 0.854461
O O10 0.491519 0.017707 0.833100
O O11 0.466241 0.095963 0.935384
O O12 0.750000 0.078441 0.011934
O O13 0.463064 0.079188 0.091305
O O14 0.500000 0.000000 0.000000
O O15 0.250000 0.819087 0.414454
O O16 0.451449 0.911319 0.412415
O O17 0.250000 0.033302 0.587856
O O18 0.500000 0.000000 0.500000
O O19 0.527221 0.978673 0.637299
O O20 0.750000 0.060995 0.165555
O O21 0.033358 0.079511 0.241015
O O22 0.750000 0.081219 0.324005
#
# Coordination Sequence:
#
# PCOD9446732 Si02
#       8
#     8   8   8   8   8   8   8   8
#     4   9  16  27  44  62  80 107 144 182 213 244
#     4   9  17  28  44  66  90 119 154 188 219 258
#     4   9  16  27  43  64  90 114 143 179 215 260
#     4   8  14  24  40  62  85 111 137 167 209 257
#     4  10  18  30  47  67  87 110 148 188 218 254
#     4  11  20  31  46  66  91 116 142 177 224 271
#     4   9  16  27  44  64  88 114 141 176 223 270
#     4   9  17  28  42  63  87 110 141 178 214 255
#
# _framework density 20.305714999999999
#
# number of rings (size 3 to 8) (size 9 to 14) (size 15 to 20)
#    0.000    2.750    1.250    1.500    0.000    1.500 
#    0.000    0.625    0.000    3.375    0.000    5.250 
#    0.000    0.000    0.000    8.125    0.000    7.500 
#
# Total GULP energy -357009.754059 kJ/mol
# GULP energy per Si atom -5578.277407 kJ/mol
# Density = 2.025950 g / cm^3
# Si number density = 20.305715 Si / 1000 Ang^3
#
#
#
# Elastic Constant Matrix: (Units=GPa)
#
#
# Indices 1 2 3 4 5 6 
#
# 1 73.4809 -0.3970 5.1935 0.0000 0.0000 0.0000
# 2 -0.3970 97.0170 49.3895 0.0000 0.0000 0.0000
# 3 5.1935 49.3895 176.1043 0.0000 0.0000 0.0000
# 4 0.0000 0.0000 0.0000 9.4541 0.0000 0.0000
# 5 0.0000 0.0000 0.0000 0.0000 -0.8180 0.0000
# 6 0.0000 0.0000 0.0000 0.0000 0.0000 8.3665
#
#
#
# Elastic Compliance Matrix: (Units=1/GPa)
#
#
# Indices 1 2 3 4 5 6 
#
# 1 0.013645 0.000304 -0.000488 0.000000 0.000000 0.000000
# 2 0.000304 0.012031 -0.003383 0.000000 0.000000 0.000000
# 3 -0.000488 -0.003383 0.006642 0.000000 0.000000 0.000000
# 4 0.000000 0.000000 0.000000 0.105774 0.000000 0.000000
# 5 0.000000 0.000000 0.000000 0.000000 -1.222501 0.000000
# 6 0.000000 0.000000 0.000000 0.000000 0.000000 0.119525
#
#
# Mechanical properties :
#
#
# Convention : Reuss Voigt Hill
#
# Bulk Modulus (GPa) = 39.70727 50.55269 45.12998
# Shear Modulus (GPa) = -5.26673 22.89492 8.81410
#
# Velocity S-wave (km/s) = -1.61225 3.36149 2.08569
# Velocity P-wave (km/s) = 4.01639 6.32582 5.29846
#
# Compressibility (1/GPa) = 0.02518431
#
# Stress axis : x y z
#
# Youngs Moduli (GPa) = 73.28646 83.11856 150.56480
#
# Poissons Ratio (x) = -0.02528 0.07343
# Poissons Ratio (y) = -0.02229 0.50938
# Poissons Ratio (z) = 0.03574 0.28120
#
# Static dielectric constant tensor:
#      x y z
#    x 1.891170 0.000000 0.000000 
#    y 0.000000 1.658530 0.000000 
#    z 0.000000 0.000000 1.759830 
# 
# From -- ./inp_files/26530.got.cif
#   From: 2010.05.17/outbox.cif.g08.bks.cpg/sg59_14_cif.got.tgz:26530.got - 2010.06.03 14:40:33.
