data_PCOD9446467
_publ_section_title
;
Structure prediction by ZEFSAII (Michael W. Deem and Ramdas Pophale) SiO2 
 PCOD9446467
Probable space group: P M M N
;
_chemical_formula_sum "Si O2"
_cell_formula_units_Z 56
_cell_length_a 25.041350
_cell_length_b 8.732479
_cell_length_c 16.770009
_cell_angle_alpha 90.000000
_cell_angle_beta 90.000000
_cell_angle_gamma 90.000000
_cell_volume 3667.149235
_symmetry_space_group_name_H-M "P M M N"
_symmetry_group_IT_number 59
_space_group.IT_coordinate_system_code '2'
_symmetry_cell_setting 'orthorhombic'
loop_
_space_group_symop_operation_xyz
x,y,z
1/2-x,1/2-y,z
1/2+x,-y,-z
-x,1/2+y,-z
-x,-y,-z
1/2+x,1/2+y,-z
1/2-x,y,z
x,1/2-y,z
loop_
_atom_site_type_symbol
_atom_site_label
_atom_site_fract_x
_atom_site_fract_y
_atom_site_fract_z
Si Si1 0.602579 0.933464 0.616102
Si Si2 0.989125 0.435644 0.305402
Si Si3 0.491319 0.564775 0.875289
Si Si4 0.555795 0.065819 0.466268
Si Si5 0.811355 0.566668 0.910568
Si Si6 0.312768 0.931279 0.264146
Si Si7 0.584960 0.433192 0.980314
O O1 0.603453 0.750000 0.612758
O O2 0.547728 0.980410 0.661879
O O3 0.599403 0.999417 0.526579
O O4 0.651216 0.996070 0.667521
O O5 0.988761 0.250000 0.303416
O O6 0.981428 0.488525 0.215039
O O7 0.945971 0.479952 0.372982
O O8 0.496061 0.750000 0.875453
O O9 0.545770 0.497086 0.911512
O O10 0.443949 0.523635 0.936583
O O11 0.555500 0.250000 0.471256
O O12 0.500000 0.000000 0.500000
O O13 0.750000 0.520085 0.928684
O O14 0.813867 0.750000 0.911088
O O15 0.824096 0.507200 0.821515
O O16 0.856210 0.499719 0.968454
O O17 0.250000 0.954950 0.280568
O O18 0.322847 0.750000 0.258581
O O19 0.586713 0.250000 0.975194
#
# Coordination Sequence:
#
# PCOD9446467 Si02
#       7
#     8   8   8   8   8   8   8
#     4  10  18  28  44  65  90 120 148 175 215 264
#     4   8  15  27  43  62  84 114 148 179 213 254
#     4   9  17  30  46  64  90 122 153 185 223 270
#     4   9  16  27  42  61  86 114 146 182 217 255
#     4  10  20  33  48  64  86 119 153 184 222 269
#     4  10  20  32  46  66  90 114 145 184 220 256
#     4  10  19  29  44  67  92 118 149 187 228 267
#
# _framework density 15.270718
#
# number of rings (size 3 to 8) (size 9 to 14) (size 15 to 20)
#    0.000    2.571    0.000    3.857    0.000    3.429 
#    0.000    3.571    0.000    0.000    0.000    1.000 
#    0.000    3.429    0.000    0.000    0.000    0.000 
#
# Total GULP energy -312043.866823 kJ/mol
# GULP energy per Si atom -5572.211908 kJ/mol
# Density = 1.523596 g / cm^3
# Si number density = 15.270718 Si / 1000 Ang^3
#
#
#
# Elastic Constant Matrix: (Units=GPa)
#
#
# Indices 1 2 3 4 5 6 
#
# 1 71.3903 31.0497 49.8547 0.0000 0.0000 0.0000
# 2 31.0497 38.9496 27.9235 0.0000 0.0000 0.0000
# 3 49.8547 27.9235 120.1517 0.0000 0.0000 0.0000
# 4 0.0000 0.0000 0.0000 21.6870 0.0000 0.0000
# 5 0.0000 0.0000 0.0000 0.0000 26.8054 0.0000
# 6 0.0000 0.0000 0.0000 0.0000 0.0000 24.3161
#
#
#
# Elastic Compliance Matrix: (Units=1/GPa)
#
#
# Indices 1 2 3 4 5 6 
#
# 1 0.025619 -0.015361 -0.007060 0.000000 0.000000 0.000000
# 2 -0.015361 0.040018 -0.002926 0.000000 0.000000 0.000000
# 3 -0.007060 -0.002926 0.011932 0.000000 0.000000 0.000000
# 4 0.000000 0.000000 0.000000 0.046111 0.000000 0.000000
# 5 0.000000 0.000000 0.000000 0.000000 0.037306 0.000000
# 6 0.000000 0.000000 0.000000 0.000000 0.000000 0.041125
#
#
# Mechanical properties :
#
#
# Convention : Reuss Voigt Hill
#
# Bulk Modulus (GPa) = 37.21124 49.79415 43.50270
# Shear Modulus (GPa) = 19.10117 22.67261 20.88689
#
# Velocity S-wave (km/s) = 3.54055 3.85738 3.70236
# Velocity P-wave (km/s) = 6.41363 7.24690 6.84296
#
# Compressibility (1/GPa) = 0.02687360
#
# Stress axis : x y z
#
# Youngs Moduli (GPa) = 39.03363 24.98885 83.80581
#
# Poissons Ratio (x) = 0.38386 0.59168
# Poissons Ratio (y) = 0.59961 0.24524
# Poissons Ratio (z) = 0.27558 0.07313
#
# Static dielectric constant tensor:
#      x y z
#    x 1.503730 0.000000 0.000000 
#    y 0.000000 1.512270 0.000000 
#    z 0.000000 0.000000 1.525090 
# 
# From -- ./inp_files/28384.got.cif
#   From: 2010.05.17/outbox.cif.g08.bks.cpg/sg59_15_cif.got.tgz:28384.got - 2010.06.03 14:40:33.
