data_PCOD9446417
_publ_section_title
;
Structure prediction by ZEFSAII (Michael W. Deem and Ramdas Pophale) SiO2 
 PCOD9446417
Probable space group: P M M N
;
_chemical_formula_sum "Si O2"
_cell_formula_units_Z 48
_cell_length_a 9.012342
_cell_length_b 21.841538
_cell_length_c 15.625513
_cell_angle_alpha 90.000000
_cell_angle_beta 90.000000
_cell_angle_gamma 90.000000
_cell_volume 3075.779266
_symmetry_space_group_name_H-M "P M M N"
_symmetry_group_IT_number 59
_space_group.IT_coordinate_system_code '2'
_symmetry_cell_setting 'orthorhombic'
loop_
_space_group_symop_operation_xyz
x,y,z
1/2-x,1/2-y,z
1/2+x,-y,-z
-x,1/2+y,-z
-x,-y,-z
1/2+x,1/2+y,-z
1/2-x,y,z
x,1/2-y,z
loop_
_atom_site_type_symbol
_atom_site_label
_atom_site_fract_x
_atom_site_fract_y
_atom_site_fract_z
Si Si1 0.926856 0.541161 0.703314
Si Si2 0.572277 0.912390 0.050308
Si Si3 0.571823 0.821791 0.200952
Si Si4 0.927458 0.099524 0.650827
Si Si5 0.571939 0.566454 0.516595
Si Si6 0.073342 0.951962 0.881518
O O1 0.750000 0.543831 0.717068
O O2 0.964065 0.469615 0.683820
O O3 0.961311 0.578671 0.616480
O O4 0.009295 0.561982 0.788310
O O5 0.750000 0.911434 0.038371
O O6 0.530149 0.858190 0.114614
O O7 0.533830 0.977240 0.095466
O O8 0.494794 0.912336 0.958360
O O9 0.750000 0.829387 0.211914
O O10 0.539212 0.750000 0.195011
O O11 0.490122 0.853255 0.280385
O O12 0.750000 0.103193 0.643237
O O13 0.002550 0.107659 0.557860
O O14 0.500000 0.500000 0.500000
O O15 0.750000 0.563024 0.507524
O O16 0.250000 0.947002 0.881502
#
# Coordination Sequence:
#
# PCOD9446417 Si02
#       6
#     8   8   8   8   8   8
#     4   9  17  28  43  66  94 124 152 185 228 278
#     4   9  18  31  44  64  92 122 154 193 237 282
#     4  10  20  34  51  69  91 124 163 199 236 279
#     4  10  19  30  45  66  94 126 157 192 234 278
#     4   9  17  28  43  65  93 124 155 186 227 274
#     4  10  18  27  45  68  91 123 155 189 236 285
#
# _framework density 15.605802000000001
#
# number of rings (size 3 to 8) (size 9 to 14) (size 15 to 20)
#    0.000    2.500    1.667    2.500    0.000    5.000 
#    0.000    0.000    0.000    0.000    0.000    1.167 
#    0.000    4.000    0.000    0.000    0.000    0.000 
#
# Total GULP energy -267464.548041 kJ/mol
# GULP energy per Si atom -5572.178084 kJ/mol
# Density = 1.557028 g / cm^3
# Si number density = 15.605802 Si / 1000 Ang^3
#
#
#
# Elastic Constant Matrix: (Units=GPa)
#
#
# Indices 1 2 3 4 5 6 
#
# 1 40.5120 29.4521 66.9688 0.0000 0.0000 0.0000
# 2 29.4521 56.3951 52.6177 0.0000 0.0000 0.0000
# 3 66.9688 52.6177 181.4467 0.0000 0.0000 0.0000
# 4 0.0000 0.0000 0.0000 15.0100 0.0000 0.0000
# 5 0.0000 0.0000 0.0000 0.0000 31.2625 0.0000
# 6 0.0000 0.0000 0.0000 0.0000 0.0000 14.4958
#
#
#
# Elastic Compliance Matrix: (Units=1/GPa)
#
#
# Indices 1 2 3 4 5 6 
#
# 1 0.074914 -0.018269 -0.022352 0.000000 0.000000 0.000000
# 2 -0.018269 0.028765 -0.001599 0.000000 0.000000 0.000000
# 3 -0.022352 -0.001599 0.014224 0.000000 0.000000 0.000000
# 4 0.000000 0.000000 0.000000 0.066622 0.000000 0.000000
# 5 0.000000 0.000000 0.000000 0.000000 0.031987 0.000000
# 6 0.000000 0.000000 0.000000 0.000000 0.000000 0.068986
#
#
# Mechanical properties :
#
#
# Convention : Reuss Voigt Hill
#
# Bulk Modulus (GPa) = 29.88249 64.04788 46.96518
# Shear Modulus (GPa) = 13.12020 20.77469 16.94744
#
# Velocity S-wave (km/s) = 2.90267 3.65254 3.29898
# Velocity P-wave (km/s) = 5.51579 7.67582 6.68364
#
# Compressibility (1/GPa) = 0.03346442
#
# Stress axis : x y z
#
# Youngs Moduli (GPa) = 13.34858 34.76504 70.30150
#
# Poissons Ratio (x) = 0.63513 1.57136
# Poissons Ratio (y) = 0.24387 0.11238
# Poissons Ratio (z) = 0.29836 0.05557
#
# Static dielectric constant tensor:
#      x y z
#    x 1.516390 0.000000 0.000000 
#    y 0.000000 1.495290 0.000000 
#    z 0.000000 0.000000 1.540050 
# 
# From -- ./inp_files/20687.got.cif
#   From: 2010.05.17/outbox.cif.g08.bks.cpg/sg59_11_cif.got.tgz:20687.got - 2010.06.03 14:40:33.
