data_PCOD9446988
_publ_section_title
;
Structure prediction by ZEFSAII (Michael W. Deem and Ramdas Pophale) SiO2 
 PCOD9446988
Probable space group: P M M N
;
_chemical_formula_sum "Si O2"
_cell_formula_units_Z 58
_cell_length_a 24.638405
_cell_length_b 7.402953
_cell_length_c 14.937547
_cell_angle_alpha 90.000000
_cell_angle_beta 90.000000
_cell_angle_gamma 90.000000
_cell_volume 2724.563076
_symmetry_space_group_name_H-M "P M M N"
_symmetry_group_IT_number 59
_space_group.IT_coordinate_system_code '2'
_symmetry_cell_setting 'orthorhombic'
loop_
_space_group_symop_operation_xyz
x,y,z
1/2-x,1/2-y,z
1/2+x,-y,-z
-x,1/2+y,-z
-x,-y,-z
1/2+x,1/2+y,-z
1/2-x,y,z
x,1/2-y,z
loop_
_atom_site_type_symbol
_atom_site_label
_atom_site_fract_x
_atom_site_fract_y
_atom_site_fract_z
Si Si1 0.188590 0.465856 0.577412
Si Si2 0.136333 0.030287 0.391986
Si Si3 0.012959 0.034270 0.396064
Si Si4 0.835647 0.531217 0.800945
Si Si5 0.250000 0.750000 0.134359
Si Si6 0.436098 0.969208 0.906647
Si Si7 0.908164 0.466087 0.286173
Si Si8 0.058532 0.042746 0.105046
O O1 0.250000 0.533391 0.592872
O O2 0.192393 0.250000 0.568075
O O3 0.162906 0.534400 0.484200
O O4 0.145280 0.497950 0.655902
O O5 0.133761 0.250000 0.396210
O O6 0.074164 0.966747 0.380678
O O7 0.171257 0.988415 0.304138
O O8 0.014645 0.250000 0.381544
O O9 0.962885 0.964790 0.335776
O O10 0.000000 0.000000 0.500000
O O11 0.829702 0.750000 0.813448
O O12 0.796454 0.409544 0.858667
O O13 0.896786 0.476217 0.827122
O O14 0.435397 0.750000 0.911574
O O15 0.405544 0.027623 0.816891
O O16 0.498386 0.036422 0.896278
O O17 0.418108 0.033130 0.004323
O O18 0.913976 0.250000 0.282453
O O19 0.049715 0.250000 0.130904
#
# Coordination Sequence:
#
# PCOD9446988 Si02
#       8
#     8   8   8   8   2   8   8   8
#     4  10  21  36  55  75 102 148 201 238 276 328
#     4   9  18  35  58  79 108 153 190 232 295 351
#     4  10  18  31  52  79 111 146 183 227 290 357
#     4  10  22  41  62  85 123 160 200 251 302 358
#     4  12  26  40  60  94 116 162 214 248 298 358
#     4   9  18  33  59  87 118 150 186 231 296 366
#     4  10  20  34  53  82 114 148 181 230 292 345
#     4   9  18  35  60  90 116 150 185 233 300 362
#
# _framework density 21.287817
#
# number of rings (size 3 to 8) (size 9 to 14) (size 15 to 20)
#    0.000    2.345    1.379    1.034    1.931    4.138 
#    2.483    0.000    4.552    0.000    0.000    0.000 
#    0.000    0.000    0.000    0.000    0.000    0.000 
#
# Total GULP energy -323159.320920 kJ/mol
# GULP energy per Si atom -5571.712430 kJ/mol
# Density = 2.123936 g / cm^3
# Si number density = 21.287817 Si / 1000 Ang^3
#
#
#
# Elastic Constant Matrix: (Units=GPa)
#
#
# Indices 1 2 3 4 5 6 
#
# 1 72.2243 3.5146 19.5869 0.0000 0.0000 0.0000
# 2 3.5146 80.2509 -10.1452 0.0000 0.0000 0.0000
# 3 19.5869 -10.1452 93.2285 0.0000 0.0000 0.0000
# 4 0.0000 0.0000 0.0000 1.7099 0.0000 0.0000
# 5 0.0000 0.0000 0.0000 0.0000 -23.0868 0.0000
# 6 0.0000 0.0000 0.0000 0.0000 0.0000 190.5241
#
#
#
# Elastic Compliance Matrix: (Units=1/GPa)
#
#
# Indices 1 2 3 4 5 6 
#
# 1 0.014770 -0.001054 -0.003218 0.000000 0.000000 0.000000
# 2 -0.001054 0.012710 0.001604 0.000000 0.000000 0.000000
# 3 -0.003218 0.001604 0.011577 0.000000 0.000000 0.000000
# 4 0.000000 0.000000 0.000000 0.584834 0.000000 0.000000
# 5 0.000000 0.000000 0.000000 0.000000 -0.043315 0.000000
# 6 0.000000 0.000000 0.000000 0.000000 0.000000 0.005249
#
#
# Mechanical properties :
#
#
# Convention : Reuss Voigt Hill
#
# Bulk Modulus (GPa) = 29.65354 30.17960 29.91657
# Shear Modulus (GPa) = 8.30015 49.34592 28.82304
#
# Velocity S-wave (km/s) = 1.97673 4.81982 3.68362
# Velocity P-wave (km/s) = 4.37836 6.72175 5.67239
#
# Compressibility (1/GPa) = 0.03372279
#
# Stress axis : x y z
#
# Youngs Moduli (GPa) = 67.70640 78.67890 86.37849
#
# Poissons Ratio (x) = 0.08290 0.27794
# Poissons Ratio (y) = 0.07134 -0.13859
# Poissons Ratio (z) = 0.21786 -0.12624
#
# Static dielectric constant tensor:
#      x y z
#    x 1.836470 0.000000 0.000000 
#    y 0.000000 1.830190 0.000000 
#    z 0.000000 0.000000 1.771300 
# 
# From -- ./inp_files/24600.got.cif
#   From: 2010.05.17/outbox.cif.g08.bks.cpg/sg59_13_cif.got.tgz:24600.got - 2010.06.03 14:40:33.
