data_PCOD9446605
_publ_section_title
;
Structure prediction by ZEFSAII (Michael W. Deem and Ramdas Pophale) SiO2 
 PCOD9446605
Probable space group: P M M N
;
_chemical_formula_sum "Si O2"
_cell_formula_units_Z 48
_cell_length_a 9.353894
_cell_length_b 20.062482
_cell_length_c 15.608280
_cell_angle_alpha 90.000000
_cell_angle_beta 90.000000
_cell_angle_gamma 90.000000
_cell_volume 2929.086192
_symmetry_space_group_name_H-M "P M M N"
_symmetry_group_IT_number 59
_space_group.IT_coordinate_system_code '2'
_symmetry_cell_setting 'orthorhombic'
loop_
_space_group_symop_operation_xyz
x,y,z
1/2-x,1/2-y,z
1/2+x,-y,-z
-x,1/2+y,-z
-x,-y,-z
1/2+x,1/2+y,-z
1/2-x,y,z
x,1/2-y,z
loop_
_atom_site_type_symbol
_atom_site_label
_atom_site_fract_x
_atom_site_fract_y
_atom_site_fract_z
Si Si1 0.417753 0.447805 0.733796
Si Si2 0.078639 0.063874 0.539186
Si Si3 0.417830 0.607300 0.760472
Si Si4 0.414555 0.928522 0.098015
Si Si5 0.419245 0.327615 0.396824
Si Si6 0.085056 0.089483 0.069500
O O1 0.250000 0.432158 0.747047
O O2 0.461887 0.426491 0.638443
O O3 0.431089 0.528361 0.738646
O O4 0.510782 0.418017 0.810566
O O5 0.250000 0.052059 0.538152
O O6 0.047460 0.126756 0.478904
O O7 0.000000 0.000000 0.500000
O O8 0.250000 0.622230 0.768802
O O9 0.489933 0.647616 0.683795
O O10 0.499954 0.618548 0.849679
O O11 0.250000 0.906853 0.096799
O O12 0.415280 0.008929 0.082978
O O13 0.504435 0.898167 0.019744
O O14 0.250000 0.336656 0.377738
O O15 0.444482 0.250000 0.413925
O O16 0.250000 0.110949 0.067491
#
# Coordination Sequence:
#
# PCOD9446605 Si02
#       6
#     8   8   8   8   8   8
#     4   9  17  28  43  66  94 124 158 199 247 294
#     4  10  19  32  50  71  96 127 166 208 251 298
#     4  10  18  29  46  68  94 125 161 200 243 293
#     4   9  16  25  39  63  93 124 156 193 237 285
#     4  10  21  35  50  70  98 131 166 205 249 299
#     4   9  16  26  41  62  92 127 157 190 236 286
#
# _framework density 16.387363000000001
#
# number of rings (size 3 to 8) (size 9 to 14) (size 15 to 20)
#    0.000    2.500    1.667    1.500    0.000    5.667 
#    0.000    0.000    0.000    0.000    0.000    1.167 
#    0.000    6.667    0.000    0.000    0.000    0.000 
#
# Total GULP energy -267609.606631 kJ/mol
# GULP energy per Si atom -5575.200138 kJ/mol
# Density = 1.635006 g / cm^3
# Si number density = 16.387363 Si / 1000 Ang^3
#
#
#
# Elastic Constant Matrix: (Units=GPa)
#
#
# Indices 1 2 3 4 5 6 
#
# 1 113.5726 44.2196 105.0330 0.0000 0.0000 0.0000
# 2 44.2196 38.8471 47.6335 0.0000 0.0000 0.0000
# 3 105.0330 47.6335 195.1264 0.0000 0.0000 0.0000
# 4 0.0000 0.0000 0.0000 10.7676 0.0000 0.0000
# 5 0.0000 0.0000 0.0000 0.0000 30.9513 0.0000
# 6 0.0000 0.0000 0.0000 0.0000 0.0000 11.8376
#
#
#
# Elastic Compliance Matrix: (Units=1/GPa)
#
#
# Indices 1 2 3 4 5 6 
#
# 1 0.022546 -0.015390 -0.008379 0.000000 0.000000 0.000000
# 2 -0.015390 0.047244 -0.003249 0.000000 0.000000 0.000000
# 3 -0.008379 -0.003249 0.010428 0.000000 0.000000 0.000000
# 4 0.000000 0.000000 0.000000 0.092871 0.000000 0.000000
# 5 0.000000 0.000000 0.000000 0.000000 0.032309 0.000000
# 6 0.000000 0.000000 0.000000 0.000000 0.000000 0.084477
#
#
# Mechanical properties :
#
#
# Convention : Reuss Voigt Hill
#
# Bulk Modulus (GPa) = 38.19357 82.36872 60.28115
# Shear Modulus (GPa) = 14.17881 20.75530 17.46705
#
# Velocity S-wave (km/s) = 2.94467 3.56271 3.26833
# Velocity P-wave (km/s) = 5.90921 8.20345 7.14896
#
# Compressibility (1/GPa) = 0.02618242
#
# Stress axis : x y z
#
# Youngs Moduli (GPa) = 44.35320 21.16676 95.89142
#
# Poissons Ratio (x) = 0.32575 0.80351
# Poissons Ratio (y) = 0.68259 0.31154
# Poissons Ratio (z) = 0.37165 0.06877
#
# Static dielectric constant tensor:
#      x y z
#    x 1.549290 0.000000 0.000000 
#    y 0.000000 1.520580 0.000000 
#    z 0.000000 0.000000 1.542920 
# 
# From -- ./inp_files/20734.got.cif
#   From: 2010.05.17/outbox.cif.g08.bks.cpg/sg59_11_cif.got.tgz:20734.got - 2010.06.03 14:40:33.
