data_PCOD9446891
_publ_section_title
;
Structure prediction by ZEFSAII (Michael W. Deem and Ramdas Pophale) SiO2 
 PCOD9446891
Probable space group: P M M N
;
_chemical_formula_sum "Si O2"
_cell_formula_units_Z 56
_cell_length_a 16.229013
_cell_length_b 7.816803
_cell_length_c 22.233409
_cell_angle_alpha 90.000000
_cell_angle_beta 90.000000
_cell_angle_gamma 90.000000
_cell_volume 2820.507977
_symmetry_space_group_name_H-M "P M M N"
_symmetry_group_IT_number 59
_space_group.IT_coordinate_system_code '2'
_symmetry_cell_setting 'orthorhombic'
loop_
_space_group_symop_operation_xyz
x,y,z
1/2-x,1/2-y,z
1/2+x,-y,-z
-x,1/2+y,-z
-x,-y,-z
1/2+x,1/2+y,-z
1/2-x,y,z
x,1/2-y,z
loop_
_atom_site_type_symbol
_atom_site_label
_atom_site_fract_x
_atom_site_fract_y
_atom_site_fract_z
Si Si1 0.596573 0.954614 0.504649
Si Si2 0.502968 0.954811 0.298920
Si Si3 0.072351 0.043224 0.180924
Si Si4 0.925486 0.546350 0.956572
Si Si5 0.841063 0.047972 0.634752
Si Si6 0.158628 0.459357 0.625623
Si Si7 0.750000 0.444636 0.942576
Si Si8 0.750000 0.944080 0.809021
O O1 0.603983 0.750000 0.508631
O O2 0.639253 0.011384 0.442819
O O3 0.500000 0.000000 0.500000
O O4 0.637790 0.029438 0.564243
O O5 0.502369 0.750000 0.307687
O O6 0.419774 0.026042 0.330000
O O7 0.584814 0.019613 0.331625
O O8 0.496179 0.991587 0.228424
O O9 0.077755 0.250000 0.179745
O O10 0.060210 0.984449 0.112285
O O11 0.161464 0.975611 0.204803
O O12 0.919318 0.750000 0.954579
O O13 0.835723 0.477747 0.976032
O O14 0.000000 0.500000 0.000000
O O15 0.750000 0.975396 0.648041
O O16 0.837603 0.250000 0.648471
O O17 0.250000 0.514646 0.643629
O O18 0.157761 0.250000 0.626235
O O19 0.750000 0.250000 0.921100
O O20 0.750000 0.559230 0.882346
O O21 0.750000 0.750000 0.785963
#
# Coordination Sequence:
#
# PCOD9446891 Si02
#       8
#     8   8   8   8   8   8   4   4
#     4  11  20  34  55  77 103 132 172 220 272 325
#     4  10  20  34  52  75 103 137 175 216 261 317
#     4   9  19  34  52  77 110 142 174 219 271 314
#     4  10  20  36  58  83 114 148 186 232 279 327
#     4  10  21  36  51  74 110 141 169 214 268 315
#     4   9  18  34  55  74  95 129 175 223 264 308
#     4  10  18  30  52  84 116 146 182 221 268 327
#     4   8  16  32  50  72 106 144 176 215 260 311
#
# _framework density 19.854578
#
# number of rings (size 3 to 8) (size 9 to 14) (size 15 to 20)
#    0.000    2.286    1.429    2.786    1.000    4.286 
#    0.000    0.000    1.571    2.143    0.000    0.000 
#    0.000    0.000    0.000    0.000    0.000    0.000 
#
# Total GULP energy -312536.396301 kJ/mol
# GULP energy per Si atom -5581.007077 kJ/mol
# Density = 1.980939 g / cm^3
# Si number density = 19.854578 Si / 1000 Ang^3
#
#
#
# Elastic Constant Matrix: (Units=GPa)
#
#
# Indices 1 2 3 4 5 6 
#
# 1 172.6893 11.2945 74.2640 0.0000 0.0000 0.0000
# 2 11.2945 38.8932 2.4999 0.0000 0.0000 0.0000
# 3 74.2640 2.4999 94.6146 0.0000 0.0000 0.0000
# 4 0.0000 0.0000 0.0000 23.2078 0.0000 0.0000
# 5 0.0000 0.0000 0.0000 0.0000 27.2082 0.0000
# 6 0.0000 0.0000 0.0000 0.0000 0.0000 12.6081
#
#
#
# Elastic Compliance Matrix: (Units=1/GPa)
#
#
# Indices 1 2 3 4 5 6 
#
# 1 0.008916 -0.002143 -0.006942 0.000000 0.000000 0.000000
# 2 -0.002143 0.026270 0.000988 0.000000 0.000000 0.000000
# 3 -0.006942 0.000988 0.015992 0.000000 0.000000 0.000000
# 4 0.000000 0.000000 0.000000 0.043089 0.000000 0.000000
# 5 0.000000 0.000000 0.000000 0.000000 0.036754 0.000000
# 6 0.000000 0.000000 0.000000 0.000000 0.000000 0.079314
#
#
# Mechanical properties :
#
#
# Convention : Reuss Voigt Hill
#
# Bulk Modulus (GPa) = 28.58403 53.59043 41.08723
# Shear Modulus (GPa) = 20.99162 27.14739 24.06951
#
# Velocity S-wave (km/s) = 3.25509 3.70173 3.48557
# Velocity P-wave (km/s) = 5.34373 6.73205 6.07766
#
# Compressibility (1/GPa) = 0.03498457
#
# Stress axis : x y z
#
# Youngs Moduli (GPa) = 112.15569 38.06582 62.53221
#
# Poissons Ratio (x) = 0.08158 0.43408
# Poissons Ratio (y) = 0.24036 -0.06178
# Poissons Ratio (z) = 0.77856 -0.03761
#
# Static dielectric constant tensor:
#      x y z
#    x 1.725160 0.000000 0.000000 
#    y 0.000000 1.723930 0.000000 
#    z 0.000000 0.000000 1.690260 
# 
# From -- ./inp_files/30430.got.cif
#   From: 2010.05.17/outbox.cif.g08.bks.cpg/sg59_16_cif.got.tgz:30430.got - 2010.06.03 14:40:33.
