data_PCOD9446437
_publ_section_title
;
Structure prediction by ZEFSAII (Michael W. Deem and Ramdas Pophale) SiO2 
 PCOD9446437
Probable space group: P M M N
;
_chemical_formula_sum "Si O2"
_cell_formula_units_Z 64
_cell_length_a 14.363105
_cell_length_b 15.008214
_cell_length_c 19.831624
_cell_angle_alpha 90.000000
_cell_angle_beta 90.000000
_cell_angle_gamma 90.000000
_cell_volume 4274.995174
_symmetry_space_group_name_H-M "P M M N"
_symmetry_group_IT_number 59
_space_group.IT_coordinate_system_code '2'
_symmetry_cell_setting 'orthorhombic'
loop_
_space_group_symop_operation_xyz
x,y,z
1/2-x,1/2-y,z
1/2+x,-y,-z
-x,1/2+y,-z
-x,-y,-z
1/2+x,1/2+y,-z
1/2-x,y,z
x,1/2-y,z
loop_
_atom_site_type_symbol
_atom_site_label
_atom_site_fract_x
_atom_site_fract_y
_atom_site_fract_z
Si Si1 0.020623 0.357485 0.845368
Si Si2 0.139311 0.522946 0.206038
Si Si3 0.641006 0.647508 0.548021
Si Si4 0.022880 0.356378 0.585961
Si Si5 0.641307 0.475329 0.633914
Si Si6 0.643053 0.858219 0.027475
Si Si7 0.862861 0.648967 0.875598
Si Si8 0.855952 0.641978 0.284545
O O1 0.010421 0.250000 0.845892
O O2 0.073041 0.385766 0.913742
O O3 0.086647 0.382131 0.782097
O O4 0.922719 0.404833 0.832524
O O5 0.250000 0.534418 0.193905
O O6 0.123741 0.530113 0.286134
O O7 0.111160 0.425437 0.178435
O O8 0.750000 0.641734 0.527062
O O9 0.624856 0.750000 0.569430
O O10 0.575597 0.627656 0.484278
O O11 0.626263 0.575225 0.606161
O O12 0.006946 0.250000 0.591716
O O13 0.089854 0.384290 0.647834
O O14 0.927604 0.409634 0.594938
O O15 0.750000 0.453144 0.622467
O O16 0.750000 0.888822 0.038755
O O17 0.646495 0.750000 0.029093
O O18 0.611899 0.880918 0.951596
O O19 0.750000 0.653584 0.875860
O O20 0.896716 0.750000 0.863050
O O21 0.750000 0.609061 0.282980
O O22 0.852067 0.750000 0.285265
#
# Coordination Sequence:
#
# PCOD9446437 Si02
#       8
#     8   8   8   8   8   8   8   8
#     4  10  18  28  42  63  92 122 147 176 215 261
#     4  10  20  31  43  62  90 123 155 181 208 253
#     4   9  18  32  50  70  89 111 143 187 235 268
#     4  10  18  30  47  67  91 119 146 177 218 264
#     4  10  20  32  45  64  92 123 153 182 211 254
#     4   8  14  26  45  67  89 112 141 183 232 270
#     4   8  15  29  47  65  85 111 146 190 233 262
#     4   9  16  26  42  64  88 113 141 174 215 260
#
# _framework density 14.970777
#
# number of rings (size 3 to 8) (size 9 to 14) (size 15 to 20)
#    0.000    2.750    1.250    1.875    0.000    4.500 
#    0.000    3.750    0.000    0.000    0.000    0.000 
#    0.000    3.000    0.000    0.000    0.000    0.125 
#
# Total GULP energy -356355.191210 kJ/mol
# GULP energy per Si atom -5568.049863 kJ/mol
# Density = 1.493670 g / cm^3
# Si number density = 14.970777 Si / 1000 Ang^3
#
#
#
# Elastic Constant Matrix: (Units=GPa)
#
#
# Indices 1 2 3 4 5 6 
#
# 1 64.5773 30.3847 23.1980 0.0000 0.0000 0.0000
# 2 30.3847 39.5683 15.7120 0.0000 0.0000 0.0000
# 3 23.1980 15.7120 27.1866 0.0000 0.0000 0.0000
# 4 0.0000 0.0000 0.0000 19.4637 0.0000 0.0000
# 5 0.0000 0.0000 0.0000 0.0000 16.0448 0.0000
# 6 0.0000 0.0000 0.0000 0.0000 0.0000 18.6867
#
#
#
# Elastic Compliance Matrix: (Units=1/GPa)
#
#
# Indices 1 2 3 4 5 6 
#
# 1 0.028306 -0.015763 -0.015043 0.000000 0.000000 0.000000
# 2 -0.015763 0.041578 -0.010579 0.000000 0.000000 0.000000
# 3 -0.015043 -0.010579 0.055733 0.000000 0.000000 0.000000
# 4 0.000000 0.000000 0.000000 0.051378 0.000000 0.000000
# 5 0.000000 0.000000 0.000000 0.000000 0.062325 0.000000
# 6 0.000000 0.000000 0.000000 0.000000 0.000000 0.053514
#
#
# Mechanical properties :
#
#
# Convention : Reuss Voigt Hill
#
# Bulk Modulus (GPa) = 23.33901 29.99128 26.66514
# Shear Modulus (GPa) = 12.82425 14.97488 13.89956
#
# Velocity S-wave (km/s) = 2.92998 3.16614 3.05035
# Velocity P-wave (km/s) = 5.20288 5.78296 5.50057
#
# Compressibility (1/GPa) = 0.04284673
#
# Stress axis : x y z
#
# Youngs Moduli (GPa) = 35.32818 24.05123 17.94268
#
# Poissons Ratio (x) = 0.37912 0.26992
# Poissons Ratio (y) = 0.55687 0.18981
# Poissons Ratio (z) = 0.53145 0.25444
#
# Static dielectric constant tensor:
#      x y z
#    x 1.490040 0.000000 0.000000 
#    y 0.000000 1.487700 0.000000 
#    z 0.000000 0.000000 1.497900 
# 
# From -- ./inp_files/27717.got.cif
#   From: 2010.05.17/outbox.cif.g08.bks.cpg/sg59_14_cif.got.tgz:27717.got - 2010.06.03 14:40:33.
