data_PCOD9446753
_publ_section_title
;
Structure prediction by ZEFSAII (Michael W. Deem and Ramdas Pophale) SiO2 
 PCOD9446753
Probable space group: P M M N
;
_chemical_formula_sum "Si O2"
_cell_formula_units_Z 64
_cell_length_a 7.729942
_cell_length_b 22.272956
_cell_length_c 20.169711
_cell_angle_alpha 90.000000
_cell_angle_beta 90.000000
_cell_angle_gamma 90.000000
_cell_volume 3472.592076
_symmetry_space_group_name_H-M "P M M N"
_symmetry_group_IT_number 59
_space_group.IT_coordinate_system_code '2'
_symmetry_cell_setting 'orthorhombic'
loop_
_space_group_symop_operation_xyz
x,y,z
1/2-x,1/2-y,z
1/2+x,-y,-z
-x,1/2+y,-z
-x,-y,-z
1/2+x,1/2+y,-z
1/2-x,y,z
x,1/2-y,z
loop_
_atom_site_type_symbol
_atom_site_label
_atom_site_fract_x
_atom_site_fract_y
_atom_site_fract_z
Si Si1 0.448036 0.021696 0.681728
Si Si2 0.037213 0.012933 0.831419
Si Si3 0.539276 0.681611 0.533607
Si Si4 0.459929 0.683815 0.784187
Si Si5 0.459200 0.060613 0.542251
Si Si6 0.449470 0.109960 0.339782
Si Si7 0.546172 0.562918 0.035970
Si Si8 0.456303 0.889335 0.902717
O O1 0.250000 0.042873 0.688040
O O2 0.524266 0.023841 0.756270
O O3 0.526467 0.054487 0.617746
O O4 0.448866 0.951992 0.659871
O O5 0.250000 0.011475 0.828148
O O6 0.979822 0.060008 0.888538
O O7 0.981451 0.948915 0.862964
O O8 0.750000 0.683708 0.529902
O O9 0.479081 0.750000 0.519366
O O10 0.483069 0.623991 0.489732
O O11 0.491757 0.660060 0.607847
O O12 0.250000 0.680984 0.779875
O O13 0.517254 0.750000 0.766083
O O14 0.534509 0.636875 0.732867
O O15 0.511709 0.666506 0.858572
O O16 0.250000 0.062444 0.544486
O O17 0.500000 0.000000 0.500000
O O18 0.250000 0.095279 0.355692
O O19 0.750000 0.564593 0.042416
O O20 0.500000 0.500000 0.000000
O O21 0.498307 0.610833 0.980195
O O22 0.250000 0.893255 0.899644
#
# Coordination Sequence:
#
# PCOD9446753 Si02
#       8
#     8   8   8   8   8   8   8   8
#     4  10  18  30  48  68  92 124 157 192 236 287
#     4   8  14  26  42  60  85 113 142 178 223 269
#     4   9  18  32  47  66  95 127 157 193 241 287
#     4  10  20  33  47  63  89 126 164 198 231 274
#     4  10  19  31  50  71  93 123 159 199 240 286
#     4  11  20  30  46  67  94 126 158 195 235 281
#     4   9  16  26  41  61  84 112 143 179 219 267
#     4   9  16  28  43  60  85 116 148 185 227 268
#
# _framework density 18.430036000000001
#
# number of rings (size 3 to 8) (size 9 to 14) (size 15 to 20)
#    0.000    2.500    2.500    1.875    0.000    1.250 
#    0.000    0.625    0.000    1.125    0.000    0.875 
#    0.000    3.000    0.000    0.000    0.000    0.000 
#
# Total GULP energy -356300.376472 kJ/mol
# GULP energy per Si atom -5567.193382 kJ/mol
# Density = 1.838809 g / cm^3
# Si number density = 18.430036 Si / 1000 Ang^3
#
#
#
# Elastic Constant Matrix: (Units=GPa)
#
#
# Indices 1 2 3 4 5 6 
#
# 1 24.7236 0.7114 3.6665 0.0000 0.0000 0.0000
# 2 0.7114 70.4224 46.8570 0.0000 0.0000 0.0000
# 3 3.6665 46.8570 137.5120 0.0000 0.0000 0.0000
# 4 0.0000 0.0000 0.0000 24.8187 0.0000 0.0000
# 5 0.0000 0.0000 0.0000 0.0000 9.0746 0.0000
# 6 0.0000 0.0000 0.0000 0.0000 0.0000 8.4116
#
#
#
# Elastic Compliance Matrix: (Units=1/GPa)
#
#
# Indices 1 2 3 4 5 6 
#
# 1 0.040617 0.000401 -0.001220 0.000000 0.000000 0.000000
# 2 0.000401 0.018367 -0.006269 0.000000 0.000000 0.000000
# 3 -0.001220 -0.006269 0.009441 0.000000 0.000000 0.000000
# 4 0.000000 0.000000 0.000000 0.040292 0.000000 0.000000
# 5 0.000000 0.000000 0.000000 0.000000 0.110197 0.000000
# 6 0.000000 0.000000 0.000000 0.000000 0.000000 0.118883
#
#
# Mechanical properties :
#
#
# Convention : Reuss Voigt Hill
#
# Bulk Modulus (GPa) = 18.43346 37.23643 27.83494
# Shear Modulus (GPa) = 13.51146 20.55586 17.03366
#
# Velocity S-wave (km/s) = 2.71056 3.34330 3.04342
# Velocity P-wave (km/s) = 4.45194 5.92888 5.24268
#
# Compressibility (1/GPa) = 0.05424919
#
# Stress axis : x y z
#
# Youngs Moduli (GPa) = 24.62051 54.44423 105.92228
#
# Poissons Ratio (x) = -0.02184 0.12919
# Poissons Ratio (y) = -0.00988 0.66406
# Poissons Ratio (z) = 0.03003 0.34133
#
# Static dielectric constant tensor:
#      x y z
#    x 1.703230 0.000000 0.000000 
#    y 0.000000 1.629700 0.000000 
#    z 0.000000 0.000000 1.693220 
# 
# From -- ./inp_files/29656.got.cif
#   From: 2010.05.17/outbox.cif.g08.bks.cpg/sg59_15_cif.got.tgz:29656.got - 2010.06.03 14:40:33.
