data_PCOD9446510
_publ_section_title
;
Structure prediction by ZEFSAII (Michael W. Deem and Ramdas Pophale) SiO2 
 PCOD9446510
Probable space group: P M M N
;
_chemical_formula_sum "Si O2"
_cell_formula_units_Z 64
_cell_length_a 22.171978
_cell_length_b 8.529422
_cell_length_c 19.717728
_cell_angle_alpha 90.000000
_cell_angle_beta 90.000000
_cell_angle_gamma 90.000000
_cell_volume 3728.901507
_symmetry_space_group_name_H-M "P M M N"
_symmetry_group_IT_number 59
_space_group.IT_coordinate_system_code '2'
_symmetry_cell_setting 'orthorhombic'
loop_
_space_group_symop_operation_xyz
x,y,z
1/2-x,1/2-y,z
1/2+x,-y,-z
-x,1/2+y,-z
-x,-y,-z
1/2+x,1/2+y,-z
1/2-x,y,z
x,1/2-y,z
loop_
_atom_site_type_symbol
_atom_site_label
_atom_site_fract_x
_atom_site_fract_y
_atom_site_fract_z
Si Si1 0.510127 0.435608 0.675784
Si Si2 0.679967 0.573222 0.217424
Si Si3 0.182363 0.439424 0.530424
Si Si4 0.879774 0.431500 0.341810
Si Si5 0.441513 0.436721 0.458949
Si Si6 0.994982 0.059645 0.831640
Si Si7 0.618002 0.062438 0.098524
Si Si8 0.938741 0.061414 0.965565
O O1 0.520212 0.250000 0.673624
O O2 0.441715 0.473158 0.653420
O O3 0.551356 0.516408 0.619507
O O4 0.516436 0.489071 0.754112
O O5 0.750000 0.570729 0.234359
O O6 0.656317 0.750000 0.228496
O O7 0.645009 0.456349 0.266440
O O8 0.669573 0.523086 0.140364
O O9 0.250000 0.489165 0.508603
O O10 0.181940 0.250000 0.530755
O O11 0.168675 0.500852 0.605818
O O12 0.123294 0.492480 0.488035
O O13 0.891698 0.250000 0.356033
O O14 0.500000 0.500000 0.500000
O O15 0.443115 0.250000 0.465838
O O16 0.001560 0.250000 0.831756
O O17 0.943255 0.015981 0.886630
O O18 0.056481 0.986948 0.861821
O O19 0.624597 0.250000 0.101835
O O20 0.611795 0.012484 0.019791
O O21 0.939732 0.250000 0.967189
O O22 0.000000 0.000000 0.000000
#
# Coordination Sequence:
#
# PCOD9446510 Si02
#       8
#     8   8   8   8   8   8   8   8
#     4  11  21  33  52  76 106 142 174 207 254 313
#     4  11  23  36  48  64  94 137 178 212 252 307
#     4  10  22  40  59  77 101 137 177 214 259 317
#     4  12  23  34  52  76 103 134 172 217 258 303
#     4  11  22  36  56  79 106 137 173 219 267 314
#     4   9  17  30  48  68  97 132 163 194 241 304
#     4  10  18  28  46  69  95 124 161 210 252 288
#     4   8  15  27  43  67  93 121 155 192 236 285
#
# _framework density 17.163232000000001
#
# number of rings (size 3 to 8) (size 9 to 14) (size 15 to 20)
#    0.000    1.750    2.500    3.000    0.000    4.250 
#    0.000    0.000    0.000    0.000    0.000    0.875 
#    0.000    5.000    0.000    0.000    0.000    0.000 
#
# Total GULP energy -356789.857522 kJ/mol
# GULP energy per Si atom -5574.841524 kJ/mol
# Density = 1.712417 g / cm^3
# Si number density = 17.163232 Si / 1000 Ang^3
#
#
#
# Elastic Constant Matrix: (Units=GPa)
#
#
# Indices 1 2 3 4 5 6 
#
# 1 66.3774 10.2832 38.7656 0.0000 0.0000 0.0000
# 2 10.2832 20.9932 10.8306 0.0000 0.0000 0.0000
# 3 38.7656 10.8306 96.8658 0.0000 0.0000 0.0000
# 4 0.0000 0.0000 0.0000 22.6510 0.0000 0.0000
# 5 0.0000 0.0000 0.0000 0.0000 24.5181 0.0000
# 6 0.0000 0.0000 0.0000 0.0000 0.0000 15.6418
#
#
#
# Elastic Compliance Matrix: (Units=1/GPa)
#
#
# Indices 1 2 3 4 5 6 
#
# 1 0.020377 -0.006128 -0.007470 0.000000 0.000000 0.000000
# 2 -0.006128 0.052393 -0.003406 0.000000 0.000000 0.000000
# 3 -0.007470 -0.003406 0.013694 0.000000 0.000000 0.000000
# 4 0.000000 0.000000 0.000000 0.044148 0.000000 0.000000
# 5 0.000000 0.000000 0.000000 0.000000 0.040786 0.000000
# 6 0.000000 0.000000 0.000000 0.000000 0.000000 0.063931
#
#
# Mechanical properties :
#
#
# Convention : Reuss Voigt Hill
#
# Bulk Modulus (GPa) = 19.06306 33.77725 26.42015
# Shear Modulus (GPa) = 17.43241 20.85264 19.14253
#
# Velocity S-wave (km/s) = 3.19044 3.48941 3.34327
# Velocity P-wave (km/s) = 4.97020 5.99645 5.50728
#
# Compressibility (1/GPa) = 0.05245747
#
# Stress axis : x y z
#
# Youngs Moduli (GPa) = 49.07459 19.08649 73.02599
#
# Poissons Ratio (x) = 0.11696 0.54549
# Poissons Ratio (y) = 0.30071 0.24871
# Poissons Ratio (z) = 0.36658 0.06500
#
# Static dielectric constant tensor:
#      x y z
#    x 1.587980 0.000000 0.000000 
#    y 0.000000 1.586140 0.000000 
#    z 0.000000 0.000000 1.620480 
# 
# From -- ./inp_files/30952.got.cif
#   From: 2010.05.17/outbox.cif.g08.bks.cpg/sg59_16_cif.got.tgz:30952.got - 2010.06.03 14:40:33.
