data_PCOD9446361
_publ_section_title
;
Structure prediction by ZEFSAII (Michael W. Deem and Ramdas Pophale) SiO2 
 PCOD9446361
Probable space group: P M M N
;
_chemical_formula_sum "Si O2"
_cell_formula_units_Z 64
_cell_length_a 7.549472
_cell_length_b 22.769736
_cell_length_c 20.010214
_cell_angle_alpha 90.000000
_cell_angle_beta 90.000000
_cell_angle_gamma 90.000000
_cell_volume 3439.745469
_symmetry_space_group_name_H-M "P M M N"
_symmetry_group_IT_number 59
_space_group.IT_coordinate_system_code '2'
_symmetry_cell_setting 'orthorhombic'
loop_
_space_group_symop_operation_xyz
x,y,z
1/2-x,1/2-y,z
1/2+x,-y,-z
-x,1/2+y,-z
-x,-y,-z
1/2+x,1/2+y,-z
1/2-x,y,z
x,1/2-y,z
loop_
_atom_site_type_symbol
_atom_site_label
_atom_site_fract_x
_atom_site_fract_y
_atom_site_fract_z
Si Si1 0.036369 0.684521 0.291919
Si Si2 0.537286 0.939076 0.959725
Si Si3 0.033280 0.493477 0.174954
Si Si4 0.957251 0.683842 0.021897
Si Si5 0.464392 0.874605 0.157433
Si Si6 0.956975 0.899582 0.403342
Si Si7 0.955656 0.516966 0.673724
Si Si8 0.961831 0.938538 0.537909
O O1 0.250000 0.683869 0.291063
O O2 0.974195 0.750000 0.280782
O O3 0.976118 0.644719 0.230659
O O4 0.978091 0.659148 0.362155
O O5 0.750000 0.934742 0.960483
O O6 0.478955 0.948754 0.882999
O O7 0.468272 0.876805 0.988998
O O8 0.500000 0.000000 0.000000
O O9 0.250000 0.494189 0.177293
O O10 0.978982 0.558090 0.149286
O O11 0.970052 0.483029 0.251079
O O12 0.750000 0.686394 0.003387
O O13 0.030457 0.750000 0.008727
O O14 0.970479 0.669019 0.100498
O O15 0.250000 0.872993 0.155142
O O16 0.750000 0.915312 0.407124
O O17 0.025285 0.895158 0.479448
O O18 0.041036 0.951481 0.358428
O O19 0.750000 0.533759 0.681362
O O20 0.034167 0.556464 0.613238
O O21 0.750000 0.931912 0.545538
O O22 0.000000 0.000000 0.500000
#
# Coordination Sequence:
#
# PCOD9446361 Si02
#       8
#     8   8   8   8   8   8   8   8
#     4  10  20  32  44  59  82 117 156 186 213 254
#     4  10  19  32  48  67  91 118 151 189 228 272
#     4   9  16  27  47  69  87 113 150 186 224 262
#     4  10  21  34  47  66  93 123 151 183 231 282
#     4  10  18  31  49  67  87 115 155 193 221 259
#     4  10  18  27  40  62  89 114 142 177 220 260
#     4   9  15  28  46  62  84 113 144 176 213 259
#     4   8  15  25  40  61  83 109 138 168 206 252
#
# _framework density 18.606027000000001
#
# number of rings (size 3 to 8) (size 9 to 14) (size 15 to 20)
#    0.000    2.500    2.500    0.750    0.000    2.000 
#    0.000    0.625    0.000    0.000    0.000    0.875 
#    0.000    5.000    0.000    0.625    0.000    1.125 
#
# Total GULP energy -356349.453028 kJ/mol
# GULP energy per Si atom -5567.960204 kJ/mol
# Density = 1.856368 g / cm^3
# Si number density = 18.606027 Si / 1000 Ang^3
#
#
#
# Elastic Constant Matrix: (Units=GPa)
#
#
# Indices 1 2 3 4 5 6 
#
# 1 44.9137 6.0543 3.4549 0.0000 0.0000 0.0000
# 2 6.0543 94.4194 51.3154 0.0000 0.0000 0.0000
# 3 3.4549 51.3154 120.3224 0.0000 0.0000 0.0000
# 4 0.0000 0.0000 0.0000 22.0392 0.0000 0.0000
# 5 0.0000 0.0000 0.0000 0.0000 11.0943 0.0000
# 6 0.0000 0.0000 0.0000 0.0000 0.0000 10.0569
#
#
#
# Elastic Compliance Matrix: (Units=1/GPa)
#
#
# Indices 1 2 3 4 5 6 
#
# 1 0.022459 -0.001418 -0.000040 0.000000 0.000000 0.000000
# 2 -0.001418 0.013876 -0.005877 0.000000 0.000000 0.000000
# 3 -0.000040 -0.005877 0.010819 0.000000 0.000000 0.000000
# 4 0.000000 0.000000 0.000000 0.045374 0.000000 0.000000
# 5 0.000000 0.000000 0.000000 0.000000 0.090136 0.000000
# 6 0.000000 0.000000 0.000000 0.000000 0.000000 0.099434
#
#
# Mechanical properties :
#
#
# Convention : Reuss Voigt Hill
#
# Bulk Modulus (GPa) = 30.78543 42.36718 36.57631
# Shear Modulus (GPa) = 16.25503 21.89347 19.07425
#
# Velocity S-wave (km/s) = 2.95895 3.43401 3.20529
# Velocity P-wave (km/s) = 5.31561 6.20833 5.77923
#
# Compressibility (1/GPa) = 0.03248289
#
# Stress axis : x y z
#
# Youngs Moduli (GPa) = 44.52521 72.06599 92.43264
#
# Poissons Ratio (x) = 0.10222 0.00369
# Poissons Ratio (y) = 0.06315 0.54325
# Poissons Ratio (z) = 0.00178 0.42355
#
# Static dielectric constant tensor:
#      x y z
#    x 1.712450 0.000000 0.000000 
#    y 0.000000 1.647640 0.000000 
#    z 0.000000 0.000000 3.106390 
# 
# From -- ./inp_files/29672.got.cif
#   From: 2010.05.17/outbox.cif.g08.bks.cpg/sg59_15_cif.got.tgz:29672.got - 2010.06.03 14:40:33.
