data_PCOD9446094
_publ_section_title
;
Structure prediction by ZEFSAII (Michael W. Deem and Ramdas Pophale) SiO2 
 PCOD9446094
Probable space group: P N N M
;
_chemical_formula_sum "Si O2"
_cell_formula_units_Z 64
_cell_length_a 30.000000
_cell_length_b 12.000000
_cell_length_c 9.000000
_cell_angle_alpha 90.000000
_cell_angle_beta 90.000000
_cell_angle_gamma 90.000000
_cell_volume 3240.000000
_symmetry_space_group_name_H-M "P N N M"
_symmetry_group_IT_number 58
_symmetry_cell_setting 'orthorhombic'
loop_
_space_group_symop_operation_xyz
x,y,z
-x,-y,z
1/2+x,1/2-y,1/2-z
1/2-x,1/2+y,1/2-z
-x,-y,-z
x,y,-z
1/2-x,1/2+y,1/2+z
1/2+x,1/2-y,1/2+z
loop_
_atom_site_type_symbol
_atom_site_label
_atom_site_fract_x
_atom_site_fract_y
_atom_site_fract_z
Si Si1 0.369551 0.585577 0.823817
Si Si2 0.368511 0.360595 0.324668
Si Si3 0.196793 0.685957 0.676978
Si Si4 0.051306 0.745204 0.677808
Si Si5 0.052191 0.512153 0.822670
Si Si6 0.301030 0.738337 0.327677
Si Si7 0.471858 0.607306 0.820251
Si Si8 0.348244 0.973482 0.325562
O O1 0.354017 0.482210 0.725336
O O2 0.334654 0.680511 0.785815
O O3 0.420497 0.612725 0.775706
O O4 0.369949 0.560170 0.000000
O O5 0.376677 0.351248 0.500000
O O6 0.331425 0.275460 0.268944
O O7 0.413460 0.336921 0.230726
O O8 0.189508 0.700269 0.500000
O O9 0.249551 0.706726 0.704384
O O10 0.175575 0.568860 0.728906
O O11 0.054228 0.729126 0.500000
O O12 0.063464 0.636090 0.768479
O O13 0.001640 0.785745 0.717952
O O14 0.099300 0.449593 0.780237
O O15 0.000000 0.500000 0.765983
O O16 0.049002 0.500037 0.000000
O O17 0.309538 0.703813 0.500000
O O18 0.315631 0.867315 0.319451
O O19 0.500000 0.500000 0.765821
O O20 0.471956 0.600330 0.000000
O O21 0.350631 0.009181 0.500000
#
# Coordination Sequence:
#
# PCOD9446094 Si02
#       8
#     8   8   8   8   8   8   8   8
#     4  11  23  41  65  92 126 169 214 261 313 371
#     4  12  24  40  63  93 127 162 208 263 321 380
#     4  11  24  43  67  94 123 162 213 263 316 379
#     4  11  21  37  61  89 123 164 210 259 310 370
#     4  10  22  39  60  89 125 168 210 254 312 380
#     4  10  25  45  64  93 129 167 207 258 319 378
#     4   9  18  35  57  85 124 162 199 245 300 359
#     4  10  22  43  66  91 130 170 209 261 317 376
#
# _framework density 19.753086
#
# number of rings (size 3 to 8) (size 9 to 14) (size 15 to 20)
#    0.000    1.500    2.500    2.250    3.500    1.750 
#    0.000    2.500    0.000    0.000    0.000    0.000 
#    0.000    0.000    0.000    0.000    0.000    0.000 
#
# Total GULP energy -356854.739115 kJ/mol
# GULP energy per Si atom -5575.855299 kJ/mol
# Density = 1.970813 g / cm^3
# Si number density = 19.753086 Si / 1000 Ang^3
#
#
#
# Elastic Constant Matrix: (Units=GPa)
#
#
# Indices 1 2 3 4 5 6 
#
# 1 127.9536 19.5328 25.5486 0.0000 0.0000 0.0000
# 2 19.5328 37.1299 -4.6761 0.0000 0.0000 0.0000
# 3 25.5486 -4.6761 0.6741 0.0000 0.0000 0.0000
# 4 0.0000 0.0000 0.0000 23.0214 0.0000 0.0000
# 5 0.0000 0.0000 0.0000 0.0000 31.6177 0.0000
# 6 0.0000 0.0000 0.0000 0.0000 0.0000 32.0588
#
#
#
# Elastic Compliance Matrix: (Units=1/GPa)
#
#
# Indices 1 2 3 4 5 6 
#
# 1 -0.000110 0.004613 0.036166 0.000000 0.000000 0.000000
# 2 0.004613 0.019700 -0.038162 0.000000 0.000000 0.000000
# 3 0.036166 -0.038162 -0.151951 0.000000 0.000000 0.000000
# 4 0.000000 0.000000 0.000000 0.043438 0.000000 0.000000
# 5 0.000000 0.000000 0.000000 0.000000 0.031628 0.000000
# 6 0.000000 0.000000 0.000000 0.000000 0.000000 0.031193
#
#
# Mechanical properties :
#
#
# Convention : Reuss Voigt Hill
#
# Bulk Modulus (GPa) = -7.86604 27.39646 9.76521
# Shear Modulus (GPa) = -67.83181 25.69639 -21.06771
#
# Velocity S-wave (km/s) = -5.86638 3.61068 -3.26936
# Velocity P-wave (km/s) = 7.06234 5.59306 3.04913
#
# Compressibility (1/GPa) = -0.12712882
#
# Stress axis : x y z
#
# Youngs Moduli (GPa) = -9087.10210 50.76168 -6.58106
#
# Poissons Ratio (x) = -0.23414 0.23801
# Poissons Ratio (y) = 41.91476 -0.25115
# Poissons Ratio (z) = 328.64248 1.93717
#
# Static dielectric constant tensor:
#      x y z
#    x 1.711890 0.000000 0.000000 
#    y 0.000000 1.735530 0.000000 
#    z 0.000000 0.000000 1.661330 
# 
# From -- ./inp_files/11059.got.cif
#   From: 2010.05.17/outbox.ucp.g08.bks.cvg/sg58_6_cif.got.tgz:11059.got - 2010.06.11 16:41:41.
