data_PCOD9446038
_publ_section_title
;
Structure prediction by ZEFSAII (Michael W. Deem and Ramdas Pophale) SiO2 
 PCOD9446038
Probable space group: P N N M
;
_chemical_formula_sum "Si O2"
_cell_formula_units_Z 64
_cell_length_a 18.000000
_cell_length_b 21.000000
_cell_length_c 9.000000
_cell_angle_alpha 90.000000
_cell_angle_beta 90.000000
_cell_angle_gamma 90.000000
_cell_volume 3402.000000
_symmetry_space_group_name_H-M "P N N M"
_symmetry_group_IT_number 58
_symmetry_cell_setting 'orthorhombic'
loop_
_space_group_symop_operation_xyz
x,y,z
-x,-y,z
1/2+x,1/2-y,1/2-z
1/2-x,1/2+y,1/2-z
-x,-y,-z
x,y,-z
1/2-x,1/2+y,1/2+z
1/2+x,1/2-y,1/2+z
loop_
_atom_site_type_symbol
_atom_site_label
_atom_site_fract_x
_atom_site_fract_y
_atom_site_fract_z
Si Si1 0.428436 0.317300 0.175777
Si Si2 0.209312 0.469995 0.677761
Si Si3 0.989290 0.931425 0.167732
Si Si4 0.427472 0.043887 0.673360
Si Si5 0.749951 0.295335 0.176418
Si Si6 0.751938 0.164435 0.677380
Si Si7 0.089824 0.677273 0.320791
Si Si8 0.185179 0.087124 0.832593
O O1 0.473850 0.371854 0.254686
O O2 0.340910 0.330089 0.203419
O O3 0.448563 0.244654 0.219809
O O4 0.439760 0.321520 0.000000
O O5 0.203190 0.461553 0.500000
O O6 0.137589 0.506067 0.742558
O O7 0.222860 0.401653 0.753985
O O8 0.275799 0.520365 0.707114
O O9 0.901980 0.921801 0.159326
O O10 0.021224 0.935504 0.000000
O O11 0.000000 0.000000 0.242757
O O12 0.407108 0.053758 0.500000
O O13 0.500000 0.000000 0.679596
O O14 0.440307 0.112449 0.749719
O O15 0.721313 0.228679 0.245266
O O16 0.827601 0.312867 0.256287
O O17 0.701009 0.356123 0.219321
O O18 0.759372 0.288842 0.000000
O O19 0.738893 0.166018 0.500000
O O20 0.091777 0.672179 0.500000
O O21 0.212973 0.104511 0.000000
#
# Coordination Sequence:
#
# PCOD9446038 Si02
#       8
#     8   8   8   8   8   8   8   8
#     4   9  20  37  58  86 118 156 197 242 293 344
#     4  11  22  38  63  90 118 154 198 242 295 356
#     4  10  21  37  57  84 118 156 197 239 287 348
#     4  11  24  41  61  88 119 152 196 246 299 359
#     4  11  21  35  59  87 114 149 196 241 289 353
#     4  10  21  38  60  86 121 156 193 245 299 348
#     4  10  20  38  62  86 115 153 196 243 294 350
#     4  10  21  37  58  85 119 157 193 241 296 347
#
# _framework density 18.812463000000001
#
# number of rings (size 3 to 8) (size 9 to 14) (size 15 to 20)
#    0.000    1.750    1.250    4.125    0.000    6.250 
#    2.250    0.000    0.000    0.000    0.000    0.000 
#    0.000    0.000    0.000    0.000    0.000    0.000 
#
# Total GULP energy -357161.767026 kJ/mol
# GULP energy per Si atom -5580.652610 kJ/mol
# Density = 1.876965 g / cm^3
# Si number density = 18.812463 Si / 1000 Ang^3
#
#
#
# Elastic Constant Matrix: (Units=GPa)
#
#
# Indices 1 2 3 4 5 6 
#
# 1 16.7471 24.2579 16.5095 0.0000 0.0000 0.0000
# 2 24.2579 175.0697 55.3700 0.0000 0.0000 0.0000
# 3 16.5095 55.3700 54.9357 0.0000 0.0000 0.0000
# 4 0.0000 0.0000 0.0000 46.5187 0.0000 0.0000
# 5 0.0000 0.0000 0.0000 0.0000 502.8941 0.0000
# 6 0.0000 0.0000 0.0000 0.0000 0.0000 27.9968
#
#
#
# Elastic Compliance Matrix: (Units=1/GPa)
#
#
# Indices 1 2 3 4 5 6 
#
# 1 0.088503 -0.005653 -0.020899 0.000000 0.000000 0.000000
# 2 -0.005653 0.008746 -0.007116 0.000000 0.000000 0.000000
# 3 -0.020899 -0.007116 0.031656 0.000000 0.000000 0.000000
# 4 0.000000 0.000000 0.000000 0.021497 0.000000 0.000000
# 5 0.000000 0.000000 0.000000 0.000000 0.001988 0.000000
# 6 0.000000 0.000000 0.000000 0.000000 0.000000 0.035718
#
#
# Mechanical properties :
#
#
# Convention : Reuss Voigt Hill
#
# Bulk Modulus (GPa) = 16.24226 48.78080 32.51153
# Shear Modulus (GPa) = 18.11797 125.52293 71.82045
#
# Velocity S-wave (km/s) = 3.10673 8.17729 6.18546
# Velocity P-wave (km/s) = 4.63913 10.73051 8.26636
#
# Compressibility (1/GPa) = 0.06156779
#
# Stress axis : x y z
#
# Youngs Moduli (GPa) = 11.29906 114.33799 31.58924
#
# Poissons Ratio (x) = 0.64637 0.66020
# Poissons Ratio (y) = 0.06388 0.22480
# Poissons Ratio (z) = 0.23614 0.81366
#
# Static dielectric constant tensor:
#      x y z
#    x 1.649120 0.000000 0.000000 
#    y 0.000000 1.657500 0.000000 
#    z 0.000000 0.000000 1.649170 
# 
# From -- ./inp_files/8253.got.cif
#   From: 2010.05.17/outbox.ucp.g08.bks.cvg/sg58_5_cif.got.tgz:8253.got - 2010.06.11 16:41:41.
