data_PCOD9446746
_publ_section_title
;
Structure prediction by ZEFSAII (Michael W. Deem and Ramdas Pophale) SiO2 
 PCOD9446746
Probable space group: P M M N
;
_chemical_formula_sum "Si O2"
_cell_formula_units_Z 64
_cell_length_a 13.617452
_cell_length_b 22.897003
_cell_length_c 12.889594
_cell_angle_alpha 90.000000
_cell_angle_beta 90.000000
_cell_angle_gamma 90.000000
_cell_volume 4018.960448
_symmetry_space_group_name_H-M "P M M N"
_symmetry_group_IT_number 59
_space_group.IT_coordinate_system_code '2'
_symmetry_cell_setting 'orthorhombic'
loop_
_space_group_symop_operation_xyz
x,y,z
1/2-x,1/2-y,z
1/2+x,-y,-z
-x,1/2+y,-z
-x,-y,-z
1/2+x,1/2+y,-z
1/2-x,y,z
x,1/2-y,z
loop_
_atom_site_type_symbol
_atom_site_label
_atom_site_fract_x
_atom_site_fract_y
_atom_site_fract_z
Si Si1 0.034032 0.428739 0.372561
Si Si2 0.365981 0.185129 0.900520
Si Si3 0.046695 0.182188 0.676638
Si Si4 0.640736 0.473877 0.498451
Si Si5 0.640268 0.102233 0.708361
Si Si6 0.047779 0.500985 0.162480
Si Si7 0.866202 0.680491 0.547003
Si Si8 0.368428 0.444105 0.954777
O O1 0.096972 0.465760 0.457425
O O2 0.045592 0.456570 0.259294
O O3 0.070462 0.362447 0.380892
O O4 0.925028 0.442426 0.412749
O O5 0.250000 0.188390 0.918181
O O6 0.407451 0.250000 0.928364
O O7 0.386255 0.176026 0.778274
O O8 0.398134 0.124770 0.953965
O O9 0.022722 0.250000 0.665468
O O10 0.101846 0.165279 0.571007
O O11 0.946708 0.148010 0.696334
O O12 0.750000 0.483615 0.460097
O O13 0.641876 0.433034 0.600092
O O14 0.750000 0.125542 0.726924
O O15 0.608849 0.056694 0.797035
O O16 0.938996 0.523114 0.128435
O O17 0.101612 0.472117 0.064587
O O18 0.750000 0.670102 0.560811
O O19 0.883577 0.750000 0.563171
O O20 0.250000 0.448654 0.936353
#
# Coordination Sequence:
#
# PCOD9446746 Si02
#       8
#     8   8   8   8   8   8   8   8
#     4  10  19  33  50  72 103 133 169 209 249 296
#     4   9  17  30  51  77 102 128 161 205 254 301
#     4  10  18  30  47  72 103 131 165 206 248 295
#     4   9  18  30  48  73 101 132 164 201 245 295
#     4  10  18  31  48  70 101 133 163 200 248 299
#     4  10  21  35  51  74 102 131 166 210 263 303
#     4  10  20  33  50  73 103 138 172 207 252 306
#     4  10  20  35  54  75 100 131 169 210 259 313
#
# _framework density 15.924516000000001
#
# number of rings (size 3 to 8) (size 9 to 14) (size 15 to 20)
#    0.000    2.250    2.500    1.125    0.000    3.750 
#    0.000    0.625    0.000    1.875    0.000    0.000 
#    0.000    1.250    0.000    0.000    0.000    0.000 
#
# Total GULP energy -356375.234297 kJ/mol
# GULP energy per Si atom -5568.363036 kJ/mol
# Density = 1.588827 g / cm^3
# Si number density = 15.924516 Si / 1000 Ang^3
#
#
#
# Elastic Constant Matrix: (Units=GPa)
#
#
# Indices 1 2 3 4 5 6 
#
# 1 66.1627 21.6828 6.9986 0.0000 0.0000 0.0000
# 2 21.6828 64.0210 16.8255 0.0000 0.0000 0.0000
# 3 6.9986 16.8255 28.2224 0.0000 0.0000 0.0000
# 4 0.0000 0.0000 0.0000 19.3790 0.0000 0.0000
# 5 0.0000 0.0000 0.0000 0.0000 15.5898 0.0000
# 6 0.0000 0.0000 0.0000 0.0000 0.0000 22.9830
#
#
#
# Elastic Compliance Matrix: (Units=1/GPa)
#
#
# Indices 1 2 3 4 5 6 
#
# 1 0.017022 -0.005521 -0.000930 0.000000 0.000000 0.000000
# 2 -0.005521 0.020312 -0.010741 0.000000 0.000000 0.000000
# 3 -0.000930 -0.010741 0.042067 0.000000 0.000000 0.000000
# 4 0.000000 0.000000 0.000000 0.051602 0.000000 0.000000
# 5 0.000000 0.000000 0.000000 0.000000 0.064145 0.000000
# 6 0.000000 0.000000 0.000000 0.000000 0.000000 0.043510
#
#
# Mechanical properties :
#
#
# Convention : Reuss Voigt Hill
#
# Bulk Modulus (GPa) = 22.21299 27.71332 24.96316
# Shear Modulus (GPa) = 17.35828 19.11698 18.23763
#
# Velocity S-wave (km/s) = 3.30515 3.46855 3.38783
# Velocity P-wave (km/s) = 5.34271 5.78634 5.56895
#
# Compressibility (1/GPa) = 0.04501870
#
# Stress axis : x y z
#
# Youngs Moduli (GPa) = 58.74812 49.23096 23.77167
#
# Poissons Ratio (x) = 0.27179 0.02210
# Poissons Ratio (y) = 0.32433 0.25533
# Poissons Ratio (z) = 0.05462 0.52878
#
# Static dielectric constant tensor:
#      x y z
#    x 1.542180 0.000000 0.000000 
#    y 0.000000 1.554810 0.000000 
#    z 0.000000 0.000000 1.514680 
# 
# From -- ./inp_files/16266.got.cif
#   From: 2010.05.17/outbox.cif.g08.bks.cpg/sg59_9_cif.got.tgz:16266.got - 2010.06.03 14:40:33.
