data_PCOD9446615
_publ_section_title
;
Structure prediction by ZEFSAII (Michael W. Deem and Ramdas Pophale) SiO2 
 PCOD9446615
Probable space group: P M M N
;
_chemical_formula_sum "Si O2"
_cell_formula_units_Z 64
_cell_length_a 19.452975
_cell_length_b 16.811912
_cell_length_c 12.185377
_cell_angle_alpha 90.000000
_cell_angle_beta 90.000000
_cell_angle_gamma 90.000000
_cell_volume 3985.126456
_symmetry_space_group_name_H-M "P M M N"
_symmetry_group_IT_number 59
_space_group.IT_coordinate_system_code '2'
_symmetry_cell_setting 'orthorhombic'
loop_
_space_group_symop_operation_xyz
x,y,z
1/2-x,1/2-y,z
1/2+x,-y,-z
-x,1/2+y,-z
-x,-y,-z
1/2+x,1/2+y,-z
1/2-x,y,z
x,1/2-y,z
loop_
_atom_site_type_symbol
_atom_site_label
_atom_site_fract_x
_atom_site_fract_y
_atom_site_fract_z
Si Si1 0.828500 0.618750 0.041803
Si Si2 0.038019 0.945134 0.092497
Si Si3 0.328104 0.963627 0.807691
Si Si4 0.170331 0.156210 0.388983
Si Si5 0.328891 0.097997 0.629551
Si Si6 0.906950 0.899321 0.823951
Si Si7 0.439893 0.656382 0.890735
Si Si8 0.063233 0.334682 0.787088
O O1 0.750000 0.643258 0.055924
O O2 0.853214 0.625728 0.917795
O O3 0.834469 0.529266 0.093846
O O4 0.882165 0.666457 0.114133
O O5 0.986478 0.906263 0.179772
O O6 0.086140 0.005736 0.157416
O O7 0.066776 0.874471 0.016716
O O8 0.000000 0.000000 0.000000
O O9 0.250000 0.932223 0.811948
O O10 0.385786 0.897331 0.823518
O O11 0.335377 0.014449 0.695034
O O12 0.250000 0.149235 0.352612
O O13 0.158609 0.250000 0.414310
O O14 0.163305 0.104050 0.499362
O O15 0.120380 0.127235 0.293300
O O16 0.250000 0.125769 0.654276
O O17 0.389129 0.149985 0.682466
O O18 0.982114 0.862625 0.850930
O O19 0.427363 0.750000 0.882130
O O20 0.026831 0.250000 0.779380
#
# Coordination Sequence:
#
# PCOD9446615 Si02
#       8
#     8   8   8   8   8   8   8   8
#     4  10  18  29  46  70  99 131 163 200 244 299
#     4  10  18  32  48  66  97 135 169 197 244 305
#     4   9  18  34  54  75  98 127 170 216 253 301
#     4  10  21  35  51  75 106 137 170 208 249 296
#     4   9  18  34  53  71  97 135 169 202 248 299
#     4  11  19  33  50  70 101 139 171 197 245 307
#     4  11  20  32  51  76 106 136 165 208 263 309
#     4  11  19  29  47  73  98 124 163 209 252 294
#
# _framework density 16.059716000000002
#
# number of rings (size 3 to 8) (size 9 to 14) (size 15 to 20)
#    0.000    1.875    3.750    4.875    0.000    2.250 
#    0.000    2.500    0.000    0.000    0.000    0.875 
#    0.000    2.000    0.000    0.000    0.000    0.000 
#
# Total GULP energy -356496.109747 kJ/mol
# GULP energy per Si atom -5570.251715 kJ/mol
# Density = 1.602316 g / cm^3
# Si number density = 16.059716 Si / 1000 Ang^3
#
#
#
# Elastic Constant Matrix: (Units=GPa)
#
#
# Indices 1 2 3 4 5 6 
#
# 1 30.3932 14.5819 27.0815 0.0000 0.0000 0.0000
# 2 14.5819 66.8641 22.8756 0.0000 0.0000 0.0000
# 3 27.0815 22.8756 78.0349 0.0000 0.0000 0.0000
# 4 0.0000 0.0000 0.0000 10.5005 0.0000 0.0000
# 5 0.0000 0.0000 0.0000 0.0000 15.9542 0.0000
# 6 0.0000 0.0000 0.0000 0.0000 0.0000 15.1257
#
#
#
# Elastic Compliance Matrix: (Units=1/GPa)
#
#
# Indices 1 2 3 4 5 6 
#
# 1 0.049355 -0.005450 -0.015531 0.000000 0.000000 0.000000
# 2 -0.005450 0.017225 -0.003158 0.000000 0.000000 0.000000
# 3 -0.015531 -0.003158 0.019130 0.000000 0.000000 0.000000
# 4 0.000000 0.000000 0.000000 0.095234 0.000000 0.000000
# 5 0.000000 0.000000 0.000000 0.000000 0.062679 0.000000
# 6 0.000000 0.000000 0.000000 0.000000 0.000000 0.066113
#
#
# Mechanical properties :
#
#
# Convention : Reuss Voigt Hill
#
# Bulk Modulus (GPa) = 26.71457 33.81891 30.26674
# Shear Modulus (GPa) = 13.49559 15.69963 14.59761
#
# Velocity S-wave (km/s) = 2.90200 3.13002 3.01816
# Velocity P-wave (km/s) = 5.28199 5.84522 5.57073
#
# Compressibility (1/GPa) = 0.03743275
#
# Stress axis : x y z
#
# Youngs Moduli (GPa) = 20.26122 58.05621 52.27297
#
# Poissons Ratio (x) = 0.31642 0.81184
# Poissons Ratio (y) = 0.11043 0.16507
# Poissons Ratio (z) = 0.31467 0.18334
#
# Static dielectric constant tensor:
#      x y z
#    x 1.551200 0.000000 0.000000 
#    y 0.000000 1.595690 0.000000 
#    z 0.000000 0.000000 1.537980 
# 
# From -- ./inp_files/18464.got.cif
#   From: 2010.05.17/outbox.cif.g08.bks.cpg/sg59_10_cif.got.tgz:18464.got - 2010.06.03 14:40:33.
