data_PCOD9446163
_publ_section_title
;
Structure prediction by ZEFSAII (Michael W. Deem and Ramdas Pophale) SiO2 
 PCOD9446163
Probable space group: P M M N
;
_chemical_formula_sum "Si O2"
_cell_formula_units_Z 64
_cell_length_a 20.723438
_cell_length_b 7.364580
_cell_length_c 18.214103
_cell_angle_alpha 90.000000
_cell_angle_beta 90.000000
_cell_angle_gamma 90.000000
_cell_volume 2779.825782
_symmetry_space_group_name_H-M "P M M N"
_symmetry_group_IT_number 59
_space_group.IT_coordinate_system_code '2'
_symmetry_cell_setting 'orthorhombic'
loop_
_space_group_symop_operation_xyz
x,y,z
1/2-x,1/2-y,z
1/2+x,-y,-z
-x,1/2+y,-z
-x,-y,-z
1/2+x,1/2+y,-z
1/2-x,y,z
x,1/2-y,z
loop_
_atom_site_type_symbol
_atom_site_label
_atom_site_fract_x
_atom_site_fract_y
_atom_site_fract_z
Si Si1 0.535409 0.028943 0.715927
Si Si2 0.323144 0.027742 0.611714
Si Si3 0.855047 0.464850 0.912443
Si Si4 0.458977 0.466322 0.572297
Si Si5 0.996592 0.470716 0.880041
Si Si6 0.826813 0.953576 0.226763
Si Si7 0.867896 0.532173 0.070574
Si Si8 0.319758 0.971422 0.247809
O O1 0.536122 0.250000 0.715250
O O2 0.496366 0.965055 0.644817
O O3 0.502206 0.977890 0.793643
O O4 0.611140 0.971904 0.718497
O O5 0.250000 0.968064 0.593588
O O6 0.320072 0.250000 0.613332
O O7 0.384730 0.970708 0.564367
O O8 0.342103 0.965590 0.694272
O O9 0.857818 0.250000 0.901844
O O10 0.821747 0.530211 0.838115
O O11 0.928247 0.536541 0.910003
O O12 0.831587 0.489858 0.995232
O O13 0.500000 0.500000 0.500000
O O14 0.454844 0.250000 0.582487
O O15 0.996651 0.250000 0.882105
O O16 0.057813 0.531503 0.926705
O O17 0.750000 0.935876 0.229134
O O18 0.856750 0.750000 0.227102
O O19 0.841836 0.037708 0.148361
O O20 0.865784 0.750000 0.074377
O O21 0.250000 0.029255 0.279129
O O22 0.320100 0.750000 0.250511
#
# Coordination Sequence:
#
# PCOD9446163 Si02
#       8
#     8   8   8   8   8   8   8   8
#     4   8  14  26  45  66  85 110 148 189 222 257
#     4   8  14  27  48  70  91 121 161 194 217 257
#     4   9  17  27  38  55  81 110 140 178 221 261
#     4  10  19  31  50  76 102 124 148 183 229 277
#     4   8  14  25  41  59  77 102 142 184 214 247
#     4   8  14  24  39  61  84 105 139 186 222 247
#     4  10  17  24  38  59  82 108 137 175 224 268
#     4   8  14  26  44  63  82 110 152 195 227 258
#
# _framework density 23.023023999999999
#
# number of rings (size 3 to 8) (size 9 to 14) (size 15 to 20)
#    0.000    3.375    0.000    3.375    0.000    3.500 
#    0.000    0.625    0.000    7.125    0.000    1.750 
#    0.000    0.000    0.000    0.000    0.000    0.000 
#
# Total GULP energy -356710.851225 kJ/mol
# GULP energy per Si atom -5573.607050 kJ/mol
# Density = 2.297062 g / cm^3
# Si number density = 23.023024 Si / 1000 Ang^3
#
#
#
# Elastic Constant Matrix: (Units=GPa)
#
#
# Indices 1 2 3 4 5 6 
#
# 1 136.6809 2.0603 61.8947 0.0000 0.0000 0.0000
# 2 2.0603 79.9154 -5.2608 0.0000 0.0000 0.0000
# 3 61.8947 -5.2608 94.7461 0.0000 0.0000 0.0000
# 4 0.0000 0.0000 0.0000 15.3676 0.0000 0.0000
# 5 0.0000 0.0000 0.0000 0.0000 9.3910 0.0000
# 6 0.0000 0.0000 0.0000 0.0000 0.0000 -21.6853
#
#
#
# Elastic Compliance Matrix: (Units=1/GPa)
#
#
# Indices 1 2 3 4 5 6 
#
# 1 0.010431 -0.000720 -0.006854 0.000000 0.000000 0.000000
# 2 -0.000720 0.012609 0.001171 0.000000 0.000000 0.000000
# 3 -0.006854 0.001171 0.015097 0.000000 0.000000 0.000000
# 4 0.000000 0.000000 0.000000 0.065072 0.000000 0.000000
# 5 0.000000 0.000000 0.000000 0.000000 0.106485 0.000000
# 6 0.000000 0.000000 0.000000 0.000000 0.000000 -0.046114
#
#
# Mechanical properties :
#
#
# Convention : Reuss Voigt Hill
#
# Bulk Modulus (GPa) = 39.47980 47.63675 43.55827
# Shear Modulus (GPa) = 27.05179 17.45788 22.25483
#
# Velocity S-wave (km/s) = 3.43153 2.75667 3.11245
# Velocity P-wave (km/s) = 5.73461 5.55591 5.64597
#
# Compressibility (1/GPa) = 0.02532941
#
# Stress axis : x y z
#
# Youngs Moduli (GPa) = 95.86756 79.30935 66.23743
#
# Poissons Ratio (x) = 0.05711 0.45401
# Poissons Ratio (y) = 0.06904 -0.07753
# Poissons Ratio (z) = 0.65710 -0.09284
#
# Static dielectric constant tensor:
#      x y z
#    x 1.891460 0.000000 0.000000 
#    y 0.000000 1.942770 0.000000 
#    z 0.000000 0.000000 1.859480 
# 
# From -- ./inp_files/28283.got.cif
#   From: 2010.05.17/outbox.cif.g08.bks.cpg/sg59_15_cif.got.tgz:28283.got - 2010.06.03 14:40:33.
