data_PCOD9446575
_publ_section_title
;
Structure prediction by ZEFSAII (Michael W. Deem and Ramdas Pophale) SiO2 
 PCOD9446575
Probable space group: P M M N
;
_chemical_formula_sum "Si O2"
_cell_formula_units_Z 64
_cell_length_a 7.425533
_cell_length_b 20.321044
_cell_length_c 20.994398
_cell_angle_alpha 90.000000
_cell_angle_beta 90.000000
_cell_angle_gamma 90.000000
_cell_volume 3167.940928
_symmetry_space_group_name_H-M "P M M N"
_symmetry_group_IT_number 59
_space_group.IT_coordinate_system_code '2'
_symmetry_cell_setting 'orthorhombic'
loop_
_space_group_symop_operation_xyz
x,y,z
1/2-x,1/2-y,z
1/2+x,-y,-z
-x,1/2+y,-z
-x,-y,-z
1/2+x,1/2+y,-z
1/2-x,y,z
x,1/2-y,z
loop_
_atom_site_type_symbol
_atom_site_label
_atom_site_fract_x
_atom_site_fract_y
_atom_site_fract_z
Si Si1 0.529566 0.563709 0.262290
Si Si2 0.533211 0.825125 0.885547
Si Si3 0.970757 0.825882 0.163942
Si Si4 0.463705 0.917922 0.766418
Si Si5 0.470135 0.823813 0.653861
Si Si6 0.542942 0.829935 0.024409
Si Si7 0.467027 0.906319 0.537017
Si Si8 0.538704 0.544251 0.404736
O O1 0.750000 0.566084 0.261330
O O2 0.470535 0.624110 0.218464
O O3 0.470717 0.492861 0.234669
O O4 0.469127 0.565886 0.336027
O O5 0.750000 0.821449 0.890637
O O6 0.470706 0.750000 0.871408
O O7 0.491749 0.876297 0.830230
O O8 0.463861 0.846893 0.955397
O O9 0.750000 0.825806 0.161879
O O10 0.024510 0.750000 0.174732
O O11 0.033668 0.848051 0.093311
O O12 0.250000 0.923044 0.756499
O O13 0.533519 0.875369 0.706883
O O14 0.250000 0.823846 0.655431
O O15 0.529512 0.750000 0.668022
O O16 0.524198 0.848327 0.583879
O O17 0.750000 0.853426 0.024265
O O18 0.545922 0.750000 0.024603
O O19 0.250000 0.908096 0.537548
O O20 0.520111 0.905544 0.463288
O O21 0.535071 0.974798 0.568596
O O22 0.750000 0.532087 0.394597
#
# Coordination Sequence:
#
# PCOD9446575 Si02
#       8
#     8   8   8   8   8   8   8   8
#     4   9  16  27  43  63  90 119 145 182 226 264
#     4   9  17  29  44  63  89 119 149 185 224 256
#     4   8  13  23  42  66  87 112 149 186 221 266
#     4  10  18  29  44  65  91 119 151 183 218 262
#     4   9  16  27  44  63  84 114 151 184 210 247
#     4   7  11  22  40  60  83 113 149 183 214 257
#     4   9  16  28  45  63  81 107 146 181 207 247
#     4   9  16  28  45  64  87 112 137 172 218 260
#
# _framework density 20.202397999999999
#
# number of rings (size 3 to 8) (size 9 to 14) (size 15 to 20)
#    0.000    3.250    1.250    1.875    0.000    0.750 
#    0.000    2.500    0.000    1.875    0.000    0.875 
#    0.000    3.500    0.000    0.000    0.000    0.000 
#
# Total GULP energy -356674.309621 kJ/mol
# GULP energy per Si atom -5573.036088 kJ/mol
# Density = 2.015642 g / cm^3
# Si number density = 20.202398 Si / 1000 Ang^3
#
#
#
# Elastic Constant Matrix: (Units=GPa)
#
#
# Indices 1 2 3 4 5 6 
#
# 1 60.2295 0.8479 -2.9870 0.0000 0.0000 0.0000
# 2 0.8479 108.7633 88.3766 0.0000 0.0000 0.0000
# 3 -2.9870 88.3766 193.2803 0.0000 0.0000 0.0000
# 4 0.0000 0.0000 0.0000 31.8132 0.0000 0.0000
# 5 0.0000 0.0000 0.0000 0.0000 -15.7506 0.0000
# 6 0.0000 0.0000 0.0000 0.0000 0.0000 2.9012
#
#
#
# Elastic Compliance Matrix: (Units=1/GPa)
#
#
# Indices 1 2 3 4 5 6 
#
# 1 0.016636 -0.000539 0.000503 0.000000 0.000000 0.000000
# 2 -0.000539 0.014647 -0.006706 0.000000 0.000000 0.000000
# 3 0.000503 -0.006706 0.008248 0.000000 0.000000 0.000000
# 4 0.000000 0.000000 0.000000 0.031433 0.000000 0.000000
# 5 0.000000 0.000000 0.000000 0.000000 -0.063490 0.000000
# 6 0.000000 0.000000 0.000000 0.000000 0.000000 0.344685
#
#
# Mechanical properties :
#
#
# Convention : Reuss Voigt Hill
#
# Bulk Modulus (GPa) = 38.38969 59.41645 48.90307
# Shear Modulus (GPa) = 13.35740 22.19515 17.77628
#
# Velocity S-wave (km/s) = 2.57413 3.31817 2.96954
# Velocity P-wave (km/s) = 5.28002 6.64491 6.00139
#
# Compressibility (1/GPa) = 0.02604866
#
# Stress axis : x y z
#
# Youngs Moduli (GPa) = 60.11168 68.27204 121.24474
#
# Poissons Ratio (x) = 0.03678 -0.06104
# Poissons Ratio (y) = 0.03239 0.81303
# Poissons Ratio (z) = -0.03026 0.45781
#
# Static dielectric constant tensor:
#      x y z
#    x 1.784580 0.000000 0.000000 
#    y 0.000000 1.681430 0.000000 
#    z 0.000000 0.000000 1.735200 
# 
# From -- ./inp_files/29802.got.cif
#   From: 2010.05.17/outbox.cif.g08.bks.cpg/sg59_15_cif.got.tgz:29802.got - 2010.06.03 14:40:33.
