data_PCOD9446183
_publ_section_title
;
Structure prediction by ZEFSAII (Michael W. Deem and Ramdas Pophale) SiO2 
 PCOD9446183
Probable space group: P M M N
;
_chemical_formula_sum "Si O2"
_cell_formula_units_Z 64
_cell_length_a 7.396027
_cell_length_b 15.100780
_cell_length_c 29.168801
_cell_angle_alpha 90.000000
_cell_angle_beta 90.000000
_cell_angle_gamma 90.000000
_cell_volume 3257.740192
_symmetry_space_group_name_H-M "P M M N"
_symmetry_group_IT_number 59
_space_group.IT_coordinate_system_code '2'
_symmetry_cell_setting 'orthorhombic'
loop_
_space_group_symop_operation_xyz
x,y,z
1/2-x,1/2-y,z
1/2+x,-y,-z
-x,1/2+y,-z
-x,-y,-z
1/2+x,1/2+y,-z
1/2-x,y,z
x,1/2-y,z
loop_
_atom_site_type_symbol
_atom_site_label
_atom_site_fract_x
_atom_site_fract_y
_atom_site_fract_z
Si Si1 0.464069 0.033939 0.613631
Si Si2 0.469914 0.147841 0.528538
Si Si3 0.533017 0.650456 0.575059
Si Si4 0.529729 0.851173 0.197688
Si Si5 0.032240 0.148866 0.971365
Si Si6 0.529605 0.851460 0.301826
Si Si7 0.971769 0.529284 0.113576
Si Si8 0.537257 0.349137 0.076330
O O1 0.250000 0.051117 0.613616
O O2 0.536170 0.081889 0.567751
O O3 0.534405 0.080603 0.659526
O O4 0.487577 0.929127 0.608840
O O5 0.250000 0.144042 0.527799
O O6 0.517656 0.250000 0.538984
O O7 0.531365 0.127881 0.476695
O O8 0.750000 0.654414 0.572977
O O9 0.469435 0.750000 0.586538
O O10 0.750000 0.851781 0.197434
O O11 0.475942 0.750000 0.186604
O O12 0.472105 0.871209 0.249741
O O13 0.470048 0.920089 0.159301
O O14 0.250000 0.149306 0.970159
O O15 0.970684 0.250000 0.963620
O O16 0.970402 0.084727 0.931141
O O17 0.979088 0.123554 0.022919
O O18 0.750000 0.853016 0.301265
O O19 0.478084 0.750000 0.312993
O O20 0.750000 0.528961 0.113526
O O21 0.034512 0.428554 0.107299
O O22 0.750000 0.342606 0.086155
O O23 0.459774 0.250000 0.081000
#
# Coordination Sequence:
#
# PCOD9446183 Si02
#       8
#     8   8   8   8   8   8   8   8
#     4  10  17  25  43  67  86 106 135 172 209 243
#     4   8  14  25  41  61  85 112 140 168 201 245
#     4   9  18  31  43  56  80 115 148 173 200 239
#     4   8  13  22  37  58  83 106 127 156 195 236
#     4   9  16  25  38  57  78  99 127 162 195 226
#     4   8  14  24  39  62  89 110 128 157 203 254
#     4   9  15  23  37  55  76 103 133 162 190 224
#     4   9  17  27  37  52  77 106 131 156 190 231
#
# _framework density 19.645520000000001
#
# number of rings (size 3 to 8) (size 9 to 14) (size 15 to 20)
#    0.000    3.250    0.000    3.000    0.000    3.250 
#    0.000    0.000    0.000    3.000    0.000    5.250 
#    0.000    4.000    0.000    0.000    0.000    0.000 
#
# Total GULP energy -357030.410451 kJ/mol
# GULP energy per Si atom -5578.600163 kJ/mol
# Density = 1.960081 g / cm^3
# Si number density = 19.645520 Si / 1000 Ang^3
#
#
#
# Elastic Constant Matrix: (Units=GPa)
#
#
# Indices 1 2 3 4 5 6 
#
# 1 65.4007 1.7400 2.5973 0.0000 0.0000 0.0000
# 2 1.7400 152.1266 122.0670 0.0000 0.0000 0.0000
# 3 2.5973 122.0670 129.5288 0.0000 0.0000 0.0000
# 4 0.0000 0.0000 0.0000 35.9023 0.0000 0.0000
# 5 0.0000 0.0000 0.0000 0.0000 -2.9012 0.0000
# 6 0.0000 0.0000 0.0000 0.0000 0.0000 3.5985
#
#
#
# Elastic Compliance Matrix: (Units=1/GPa)
#
#
# Indices 1 2 3 4 5 6 
#
# 1 0.015306 0.000292 -0.000582 0.000000 0.000000 0.000000
# 2 0.000292 0.026966 -0.025418 0.000000 0.000000 0.000000
# 3 -0.000582 -0.025418 0.031686 0.000000 0.000000 0.000000
# 4 0.000000 0.000000 0.000000 0.027853 0.000000 0.000000
# 5 0.000000 0.000000 0.000000 0.000000 -0.344690 0.000000
# 6 0.000000 0.000000 0.000000 0.000000 0.000000 0.277895
#
#
# Mechanical properties :
#
#
# Convention : Reuss Voigt Hill
#
# Bulk Modulus (GPa) = 44.36403 66.65165 55.50784
# Shear Modulus (GPa) = 53.22209 22.03005 37.62607
#
# Velocity S-wave (km/s) = 5.21057 3.35233 4.38110
# Velocity P-wave (km/s) = 7.67016 6.99893 7.34222
#
# Compressibility (1/GPa) = 0.02254078
#
# Stress axis : x y z
#
# Youngs Moduli (GPa) = 65.33513 37.08385 31.55964
#
# Poissons Ratio (x) = -0.01083 0.01837
# Poissons Ratio (y) = -0.01908 0.80219
# Poissons Ratio (z) = 0.03803 0.94261
#
# Static dielectric constant tensor:
#      x y z
#    x 1.771800 0.000000 0.000000 
#    y 0.000000 1.694840 0.000000 
#    z 0.000000 0.000000 1.663840 
# 
# From -- ./inp_files/33227.got.cif
#   From: 2010.05.17/outbox.cif.g08.bks.cpg/sg59_17_cif.got.tgz:33227.got - 2010.06.03 14:40:33.
