data_PCOD9446327
_publ_section_title
;
Structure prediction by ZEFSAII (Michael W. Deem and Ramdas Pophale) SiO2 
 PCOD9446327
Probable space group: P M M N
;
_chemical_formula_sum "Si O2"
_cell_formula_units_Z 64
_cell_length_a 25.658407
_cell_length_b 9.309293
_cell_length_c 18.933714
_cell_angle_alpha 90.000000
_cell_angle_beta 90.000000
_cell_angle_gamma 90.000000
_cell_volume 4522.537763
_symmetry_space_group_name_H-M "P M M N"
_symmetry_group_IT_number 59
_space_group.IT_coordinate_system_code '2'
_symmetry_cell_setting 'orthorhombic'
loop_
_space_group_symop_operation_xyz
x,y,z
1/2-x,1/2-y,z
1/2+x,-y,-z
-x,1/2+y,-z
-x,-y,-z
1/2+x,1/2+y,-z
1/2-x,y,z
x,1/2-y,z
loop_
_atom_site_type_symbol
_atom_site_label
_atom_site_fract_x
_atom_site_fract_y
_atom_site_fract_z
Si Si1 0.076703 0.084441 0.537063
Si Si2 0.007034 0.080648 0.272266
Si Si3 0.997295 0.922307 0.890002
Si Si4 0.919262 0.922720 0.015410
Si Si5 0.307948 0.075771 0.938304
Si Si6 0.688848 0.581035 0.226664
Si Si7 0.389049 0.918867 0.671217
Si Si8 0.457203 0.584667 0.404896
O O1 0.092774 0.250000 0.530657
O O2 0.016772 0.083587 0.565363
O O3 0.108855 0.000356 0.596484
O O4 0.075618 0.004182 0.462174
O O5 0.019718 0.250000 0.279043
O O6 0.013112 0.036519 0.190856
O O7 0.946224 0.064431 0.293401
O O8 0.039746 0.990359 0.328814
O O9 0.006276 0.750000 0.891383
O O10 0.948945 0.954273 0.942143
O O11 0.047047 0.001962 0.923320
O O12 0.921036 0.750000 0.025763
O O13 0.859052 0.969894 0.018870
O O14 0.250000 0.023716 0.959212
O O15 0.306048 0.250000 0.941725
O O16 0.316921 0.040128 0.855785
O O17 0.750000 0.566077 0.243947
O O18 0.675087 0.750000 0.233072
O O19 0.653019 0.487946 0.277071
O O20 0.380053 0.750000 0.660881
O O21 0.440588 0.750000 0.400780
#
# Coordination Sequence:
#
# PCOD9446327 Si02
#       8
#     8   8   8   8   8   8   8   8
#     4   9  16  26  39  54  75 102 127 152 187 226
#     4   9  17  27  37  52  77 106 131 157 194 236
#     4   9  17  27  38  55  80 107 133 163 200 242
#     4   9  16  26  41  58  76 102 135 167 200 240
#     4   8  14  25  41  59  77  99 131 170 205 236
#     4   9  17  28  40  54  74 100 129 162 199 234
#     4  10  18  26  38  55  75 101 132 162 190 226
#     4   9  16  25  38  56  76  98 127 160 187 217
#
# _framework density 14.151348
#
# number of rings (size 3 to 8) (size 9 to 14) (size 15 to 20)
#    0.000    3.000    0.000    2.625    0.000    4.250 
#    0.000    0.000    0.000    1.125    0.000    0.000 
#    0.000    1.000    0.000    7.500    0.000    1.875 
#
# Total GULP energy -356366.821622 kJ/mol
# GULP energy per Si atom -5568.231588 kJ/mol
# Density = 1.411914 g / cm^3
# Si number density = 14.151348 Si / 1000 Ang^3
#
#
#
# Elastic Constant Matrix: (Units=GPa)
#
#
# Indices 1 2 3 4 5 6 
#
# 1 65.1550 27.9443 35.1090 0.0000 0.0000 0.0000
# 2 27.9443 58.8137 45.0740 0.0000 0.0000 0.0000
# 3 35.1090 45.0740 102.4467 0.0000 0.0000 0.0000
# 4 0.0000 0.0000 0.0000 19.4969 0.0000 0.0000
# 5 0.0000 0.0000 0.0000 0.0000 19.2489 0.0000
# 6 0.0000 0.0000 0.0000 0.0000 0.0000 15.7154
#
#
#
# Elastic Compliance Matrix: (Units=1/GPa)
#
#
# Indices 1 2 3 4 5 6 
#
# 1 0.020360 -0.006527 -0.004106 0.000000 0.000000 0.000000
# 2 -0.006527 0.027745 -0.009970 0.000000 0.000000 0.000000
# 3 -0.004106 -0.009970 0.015555 0.000000 0.000000 0.000000
# 4 0.000000 0.000000 0.000000 0.051290 0.000000 0.000000
# 5 0.000000 0.000000 0.000000 0.000000 0.051951 0.000000
# 6 0.000000 0.000000 0.000000 0.000000 0.000000 0.063632
#
#
# Mechanical properties :
#
#
# Convention : Reuss Voigt Hill
#
# Bulk Modulus (GPa) = 44.53601 49.18557 46.86079
# Shear Modulus (GPa) = 17.90680 18.77811 18.34246
#
# Velocity S-wave (km/s) = 3.56107 3.64668 3.60413
# Velocity P-wave (km/s) = 6.96045 7.25006 7.10673
#
# Compressibility (1/GPa) = 0.02245374
#
# Stress axis : x y z
#
# Youngs Moduli (GPa) = 49.11656 36.04232 64.28845
#
# Poissons Ratio (x) = 0.23525 0.26395
# Poissons Ratio (y) = 0.32059 0.64098
# Poissons Ratio (z) = 0.20166 0.35935
#
# Static dielectric constant tensor:
#      x y z
#    x 1.454320 0.000000 0.000000 
#    y 0.000000 1.471920 0.000000 
#    z 0.000000 0.000000 1.456600 
# 
# From -- ./inp_files/28484.got.cif
#   From: 2010.05.17/outbox.cif.g08.bks.cpg/sg59_15_cif.got.tgz:28484.got - 2010.06.03 14:40:33.
