data_PCOD9446340
_publ_section_title
;
Structure prediction by ZEFSAII (Michael W. Deem and Ramdas Pophale) SiO2 
 PCOD9446340
Probable space group: P M M N
;
_chemical_formula_sum "Si O2"
_cell_formula_units_Z 64
_cell_length_a 7.388349
_cell_length_b 14.186523
_cell_length_c 30.605043
_cell_angle_alpha 90.000000
_cell_angle_beta 90.000000
_cell_angle_gamma 90.000000
_cell_volume 3207.867062
_symmetry_space_group_name_H-M "P M M N"
_symmetry_group_IT_number 59
_space_group.IT_coordinate_system_code '2'
_symmetry_cell_setting 'orthorhombic'
loop_
_space_group_symop_operation_xyz
x,y,z
1/2-x,1/2-y,z
1/2+x,-y,-z
-x,1/2+y,-z
-x,-y,-z
1/2+x,1/2+y,-z
1/2-x,y,z
x,1/2-y,z
loop_
_atom_site_type_symbol
_atom_site_label
_atom_site_fract_x
_atom_site_fract_y
_atom_site_fract_z
Si Si1 0.470407 0.359587 0.747501
Si Si2 0.464711 0.041516 0.931746
Si Si3 0.963973 0.635267 0.520694
Si Si4 0.029332 0.139227 0.573673
Si Si5 0.532457 0.856080 0.980609
Si Si6 0.962098 0.959721 0.338888
Si Si7 0.029448 0.140409 0.844952
Si Si8 0.531597 0.642575 0.615738
O O1 0.250000 0.363451 0.748193
O O2 0.518936 0.250000 0.740685
O O3 0.535607 0.420956 0.706681
O O4 0.530412 0.387917 0.796211
O O5 0.250000 0.058745 0.930894
O O6 0.536014 0.100572 0.973415
O O7 0.534983 0.077547 0.885343
O O8 0.490896 0.932195 0.943313
O O9 0.750000 0.615144 0.520835
O O10 0.981193 0.750000 0.520251
O O11 0.036155 0.602118 0.473737
O O12 0.037401 0.606748 0.568126
O O13 0.250000 0.133734 0.572605
O O14 0.984241 0.250000 0.576809
O O15 0.961932 0.087534 0.616957
O O16 0.750000 0.852276 0.983589
O O17 0.466648 0.750000 0.973438
O O18 0.750000 0.934651 0.338707
O O19 0.979048 0.070695 0.346690
O O20 0.250000 0.137602 0.844459
O O21 0.979896 0.250000 0.851972
O O22 0.750000 0.644334 0.613293
O O23 0.471067 0.750000 0.622263
#
# Coordination Sequence:
#
# PCOD9446340 Si02
#       8
#     8   8   8   8   8   8   8   8
#     4   8  14  25  42  66  93 114 132 161 206 257
#     4   9  16  26  43  66  87 111 149 188 213 241
#     4   7  11  22  39  56  75 103 137 165 189 229
#     4   8  13  22  38  61  87 110 130 155 192 243
#     4   9  17  28  41  60  90 123 148 174 214 259
#     4  10  18  26  42  68  89 104 128 166 209 247
#     4   8  13  23  42  66  89 113 141 173 207 244
#     4   9  18  32  46  57  74 106 144 174 201 239
#
# _framework density 19.950949999999999
#
# number of rings (size 3 to 8) (size 9 to 14) (size 15 to 20)
#    0.000    3.500    0.000    3.000    0.000    4.000 
#    0.000    0.000    0.000    4.125    0.000    8.750 
#    0.000    0.000    0.000    0.000    0.000    0.000 
#
# Total GULP energy -356901.218956 kJ/mol
# GULP energy per Si atom -5576.581546 kJ/mol
# Density = 1.990554 g / cm^3
# Si number density = 19.950950 Si / 1000 Ang^3
#
#
#
# Elastic Constant Matrix: (Units=GPa)
#
#
# Indices 1 2 3 4 5 6 
#
# 1 67.6647 -6.5372 9.2752 0.0000 0.0000 0.0000
# 2 -6.5372 102.8167 106.4430 0.0000 0.0000 0.0000
# 3 9.2752 106.4430 198.4535 0.0000 0.0000 0.0000
# 4 0.0000 0.0000 0.0000 34.8655 0.0000 0.0000
# 5 0.0000 0.0000 0.0000 0.0000 36.4925 0.0000
# 6 0.0000 0.0000 0.0000 0.0000 0.0000 6.5483
#
#
#
# Elastic Compliance Matrix: (Units=1/GPa)
#
#
# Indices 1 2 3 4 5 6 
#
# 1 0.015544 0.003914 -0.002826 0.000000 0.000000 0.000000
# 2 0.003914 0.022855 -0.012442 0.000000 0.000000 0.000000
# 3 -0.002826 -0.012442 0.011844 0.000000 0.000000 0.000000
# 4 0.000000 0.000000 0.000000 0.028682 0.000000 0.000000
# 5 0.000000 0.000000 0.000000 0.000000 0.027403 0.000000
# 6 0.000000 0.000000 0.000000 0.000000 0.000000 0.152710
#
#
# Mechanical properties :
#
#
# Convention : Reuss Voigt Hill
#
# Bulk Modulus (GPa) = 36.31560 65.25522 50.78541
# Shear Modulus (GPa) = 17.18657 32.89820 25.04238
#
# Velocity S-wave (km/s) = 2.93822 4.06514 3.54672
# Velocity P-wave (km/s) = 5.45461 7.40355 6.50251
#
# Compressibility (1/GPa) = 0.02753637
#
# Stress axis : x y z
#
# Youngs Moduli (GPa) = 64.33287 43.75345 84.42908
#
# Poissons Ratio (x) = -0.17123 0.23856
# Poissons Ratio (y) = -0.25177 1.05044
# Poissons Ratio (z) = 0.18178 0.54437
#
# Static dielectric constant tensor:
#      x y z
#    x 1.789630 0.000000 0.000000 
#    y 0.000000 1.702540 0.000000 
#    z 0.000000 0.000000 1.714280 
# 
# From -- ./inp_files/32688.got.cif
#   From: 2010.05.17/outbox.cif.g08.bks.cpg/sg59_17_cif.got.tgz:32688.got - 2010.06.03 14:40:33.
