data_PCOD9446203
_publ_section_title
;
Structure prediction by ZEFSAII (Michael W. Deem and Ramdas Pophale) SiO2 
 PCOD9446203
Probable space group: P M M N
;
_chemical_formula_sum "Si O2"
_cell_formula_units_Z 48
_cell_length_a 21.473378
_cell_length_b 7.507897
_cell_length_c 15.623948
_cell_angle_alpha 90.000000
_cell_angle_beta 90.000000
_cell_angle_gamma 90.000000
_cell_volume 2518.891495
_symmetry_space_group_name_H-M "P M M N"
_symmetry_group_IT_number 59
_space_group.IT_coordinate_system_code '2'
_symmetry_cell_setting 'orthorhombic'
loop_
_space_group_symop_operation_xyz
x,y,z
1/2-x,1/2-y,z
1/2+x,-y,-z
-x,1/2+y,-z
-x,-y,-z
1/2+x,1/2+y,-z
1/2-x,y,z
x,1/2-y,z
loop_
_atom_site_type_symbol
_atom_site_label
_atom_site_fract_x
_atom_site_fract_y
_atom_site_fract_z
Si Si1 0.817794 0.955253 0.895714
Si Si2 0.182871 0.532122 0.485433
Si Si3 0.656319 0.457620 0.703789
Si Si4 0.014021 0.465738 0.267848
Si Si5 0.555122 0.463717 0.432177
Si Si6 0.543741 0.536495 0.919684
O O1 0.750000 0.034670 0.919044
O O2 0.816681 0.750000 0.924750
O O3 0.884695 0.033162 0.925281
O O4 0.822292 0.955917 0.792168
O O5 0.250000 0.482033 0.522781
O O6 0.180114 0.750000 0.483462
O O7 0.180602 0.473456 0.386437
O O8 0.121298 0.468627 0.533740
O O9 0.672999 0.250000 0.710994
O O10 0.581963 0.477410 0.699797
O O11 0.011896 0.250000 0.267489
O O12 0.964811 0.529488 0.338150
O O13 0.012318 0.526813 0.169217
O O14 0.500000 0.500000 0.500000
O O15 0.560214 0.250000 0.426734
O O16 0.549761 0.750000 0.911714
O O17 0.500000 0.500000 0.000000
#
# Coordination Sequence:
#
# PCOD9446203 Si02
#       6
#     8   8   8   8   8   8
#     4   9  18  32  48  67  95 127 155 185 230 290
#     4   9  17  27  40  63  94 124 154 190 230 269
#     4  10  17  26  43  68  96 123 153 189 228 274
#     4   9  18  31  47  67  93 123 157 194 234 281
#     4  10  18  30  48  67  91 124 160 195 227 272
#     4   9  18  32  49  70  93 120 154 194 239 283
#
# _framework density 19.056001999999999
#
# number of rings (size 3 to 8) (size 9 to 14) (size 15 to 20)
#    0.000    2.667    1.667    2.000    0.000    3.667 
#    0.000    0.000    0.000    2.500    0.000    2.333 
#    0.000    0.000    0.000    0.000    0.000    0.000 
#
# Total GULP energy -267536.177118 kJ/mol
# GULP energy per Si atom -5573.670357 kJ/mol
# Density = 1.901263 g / cm^3
# Si number density = 19.056002 Si / 1000 Ang^3
#
#
#
# Elastic Constant Matrix: (Units=GPa)
#
#
# Indices 1 2 3 4 5 6 
#
# 1 181.4519 -1.2989 90.9008 0.0000 0.0000 0.0000
# 2 -1.2989 50.7640 2.3666 0.0000 0.0000 0.0000
# 3 90.9008 2.3666 106.5285 0.0000 0.0000 0.0000
# 4 0.0000 0.0000 0.0000 13.8932 0.0000 0.0000
# 5 0.0000 0.0000 0.0000 0.0000 17.2543 0.0000
# 6 0.0000 0.0000 0.0000 0.0000 0.0000 8.4218
#
#
#
# Elastic Compliance Matrix: (Units=1/GPa)
#
#
# Indices 1 2 3 4 5 6 
#
# 1 0.009646 0.000631 -0.008245 0.000000 0.000000 0.000000
# 2 0.000631 0.019761 -0.000978 0.000000 0.000000 0.000000
# 3 -0.008245 -0.000978 0.016444 0.000000 0.000000 0.000000
# 4 0.000000 0.000000 0.000000 0.071978 0.000000 0.000000
# 5 0.000000 0.000000 0.000000 0.000000 0.057957 0.000000
# 6 0.000000 0.000000 0.000000 0.000000 0.000000 0.118739
#
#
# Mechanical properties :
#
#
# Convention : Reuss Voigt Hill
#
# Bulk Modulus (GPa) = 34.88170 58.07572 46.47871
# Shear Modulus (GPa) = 15.56355 24.36558 19.96457
#
# Velocity S-wave (km/s) = 2.86094 3.57967 3.24030
# Velocity P-wave (km/s) = 5.40906 6.90130 6.20023
#
# Compressibility (1/GPa) = 0.02866832
#
# Stress axis : x y z
#
# Youngs Moduli (GPa) = 103.66908 50.60539 60.81115
#
# Poissons Ratio (x) = -0.03194 0.50139
# Poissons Ratio (y) = -0.06543 0.05945
# Poissons Ratio (z) = 0.85475 0.04947
#
# Static dielectric constant tensor:
#      x y z
#    x 1.690100 0.000000 0.000000 
#    y 0.000000 1.714650 0.000000 
#    z 0.000000 0.000000 1.644480 
# 
# From -- ./inp_files/20689.got.cif
#   From: 2010.05.17/outbox.cif.g08.bks.cpg/sg59_11_cif.got.tgz:20689.got - 2010.06.03 14:40:33.
