data_PCOD9446294
_publ_section_title
;
Structure prediction by ZEFSAII (Michael W. Deem and Ramdas Pophale) SiO2 
 PCOD9446294
Probable space group: P M M N
;
_chemical_formula_sum "Si O2"
_cell_formula_units_Z 40
_cell_length_a 16.234389
_cell_length_b 14.552057
_cell_length_c 7.400900
_cell_angle_alpha 90.000000
_cell_angle_beta 90.000000
_cell_angle_gamma 90.000000
_cell_volume 1748.416400
_symmetry_space_group_name_H-M "P M M N"
_symmetry_group_IT_number 59
_space_group.IT_coordinate_system_code '2'
_symmetry_cell_setting 'orthorhombic'
loop_
_space_group_symop_operation_xyz
x,y,z
1/2-x,1/2-y,z
1/2+x,-y,-z
-x,1/2+y,-z
-x,-y,-z
1/2+x,1/2+y,-z
1/2-x,y,z
x,1/2-y,z
loop_
_atom_site_type_symbol
_atom_site_label
_atom_site_fract_x
_atom_site_fract_y
_atom_site_fract_z
Si Si1 0.589652 0.461274 0.043707
Si Si2 0.843048 0.394005 0.680930
Si Si3 0.655504 0.652295 0.152572
Si Si4 0.476946 0.899969 0.588180
Si Si5 0.658066 0.889704 0.579915
O O1 0.371914 0.601413 0.111260
O O2 0.635672 0.557892 0.055874
O O3 0.579859 0.413633 0.236778
O O4 0.500000 0.500000 0.000000
O O5 0.750000 0.357119 0.660588
O O6 0.918199 0.354339 0.561919
O O7 0.838040 0.501371 0.618767
O O8 0.750000 0.664502 0.111187
O O9 0.611922 0.750000 0.111073
O O10 0.649643 0.633048 0.367112
O O11 0.566485 0.859927 0.646373
O O12 0.500000 0.000000 0.500000
O O13 0.750000 0.854484 0.636593
#
# Coordination Sequence:
#
# PCOD9446294 Si02
#       5
#     8   8   8   8   8
#     4  12  19  31  52  73 102 140 183 228 271 311
#     4  10  19  29  47  74 101 134 174 214 263 318
#     4  10  20  33  49  72 107 148 183 219 271 334
#     4  10  17  31  49  72 100 132 172 224 264 308
#     4   9  16  30  48  70 100 135 171 209 255 311
#
# _framework density 22.877844
#
# number of rings (size 3 to 8) (size 9 to 14) (size 15 to 20)
#    0.000    1.800    8.000    0.600    0.000    0.800 
#    0.000    1.000    0.000    3.600    0.000    0.000 
#    0.000   28.800    0.000   36.600    0.000    0.000 
#
# Total GULP energy -222740.313274 kJ/mol
# GULP energy per Si atom -5568.507832 kJ/mol
# Density = 2.282577 g / cm^3
# Si number density = 22.877844 Si / 1000 Ang^3
#
#
#
# Elastic Constant Matrix: (Units=GPa)
#
#
# Indices 1 2 3 4 5 6 
#
# 1 159.4930 22.1267 31.5183 0.0000 0.0000 0.0000
# 2 22.1267 67.8589 22.3917 0.0000 0.0000 0.0000
# 3 31.5183 22.3917 110.2444 0.0000 0.0000 0.0000
# 4 0.0000 0.0000 0.0000 69.8810 0.0000 0.0000
# 5 0.0000 0.0000 0.0000 0.0000 30.0184 0.0000
# 6 0.0000 0.0000 0.0000 0.0000 0.0000 -28.4126
#
#
#
# Elastic Compliance Matrix: (Units=1/GPa)
#
#
# Indices 1 2 3 4 5 6 
#
# 1 0.006822 -0.001695 -0.001606 0.000000 0.000000 0.000000
# 2 -0.001695 0.016216 -0.002809 0.000000 0.000000 0.000000
# 3 -0.001606 -0.002809 0.010101 0.000000 0.000000 0.000000
# 4 0.000000 0.000000 0.000000 0.014310 0.000000 0.000000
# 5 0.000000 0.000000 0.000000 0.000000 0.033313 0.000000
# 6 0.000000 0.000000 0.000000 0.000000 0.000000 -0.035196
#
#
# Mechanical properties :
#
#
# Convention : Reuss Voigt Hill
#
# Bulk Modulus (GPa) = 47.80364 54.40772 51.10568
# Shear Modulus (GPa) = 77.20916 31.73467 54.47191
#
# Velocity S-wave (km/s) = 5.81564 3.72847 4.88483
# Velocity P-wave (km/s) = 8.12626 6.50913 7.36223
#
# Compressibility (1/GPa) = 0.02091891
#
# Stress axis : x y z
#
# Youngs Moduli (GPa) = 146.57632 61.66766 99.00441
#
# Poissons Ratio (x) = 0.10450 0.15903
# Poissons Ratio (y) = 0.24838 0.27812
# Poissons Ratio (z) = 0.23545 0.17323
#
# Static dielectric constant tensor:
#      x y z
#    x 1.906280 0.000000 0.000000 
#    y 0.000000 1.961600 0.000000 
#    z 0.000000 0.000000 2.139160 
# 
# From -- ./inp_files/8816.got.cif
#   From: 2010.05.17/outbox.cif.g08.bks.cpg/sg59_5_cif.got.tgz:8816.got - 2010.06.03 14:40:33.
