data_PCOD9446520
_publ_section_title
;
Structure prediction by ZEFSAII (Michael W. Deem and Ramdas Pophale) SiO2 
 PCOD9446520
Probable space group: P M M N
;
_chemical_formula_sum "Si O2"
_cell_formula_units_Z 64
_cell_length_a 17.041096
_cell_length_b 7.520580
_cell_length_c 24.009353
_cell_angle_alpha 90.000000
_cell_angle_beta 90.000000
_cell_angle_gamma 90.000000
_cell_volume 3077.012889
_symmetry_space_group_name_H-M "P M M N"
_symmetry_group_IT_number 59
_space_group.IT_coordinate_system_code '2'
_symmetry_cell_setting 'orthorhombic'
loop_
_space_group_symop_operation_xyz
x,y,z
1/2-x,1/2-y,z
1/2+x,-y,-z
-x,1/2+y,-z
-x,-y,-z
1/2+x,1/2+y,-z
1/2-x,y,z
x,1/2-y,z
loop_
_atom_site_type_symbol
_atom_site_label
_atom_site_fract_x
_atom_site_fract_y
_atom_site_fract_z
Si Si1 0.585225 0.460685 0.973158
Si Si2 0.584882 0.950996 0.637092
Si Si3 0.662449 0.967919 0.529839
Si Si4 0.000423 0.537566 0.130794
Si Si5 0.996267 0.036021 0.258894
Si Si6 0.164070 0.043497 0.916768
Si Si7 0.428323 0.041214 0.576264
Si Si8 0.336951 0.535053 0.684467
O O1 0.599965 0.250000 0.972590
O O2 0.569781 0.527062 0.910310
O O3 0.500000 0.500000 0.000000
O O4 0.646919 0.537966 0.016856
O O5 0.612729 0.750000 0.648205
O O6 0.643294 0.032420 0.592012
O O7 0.559150 0.033172 0.695856
O O8 0.503125 0.945909 0.602563
O O9 0.750000 0.018183 0.513049
O O10 0.658805 0.750000 0.530637
O O11 0.600476 0.026196 0.483356
O O12 0.997065 0.750000 0.121183
O O13 0.914163 0.465799 0.112457
O O14 0.013855 0.505545 0.195396
O O15 0.995616 0.250000 0.265207
O O16 0.909227 0.972821 0.276970
O O17 0.250000 0.964793 0.904593
O O18 0.167149 0.250000 0.899994
O O19 0.447439 0.250000 0.572108
O O20 0.359278 0.019591 0.621683
O O21 0.250000 0.472523 0.700104
O O22 0.336522 0.750000 0.686387
#
# Coordination Sequence:
#
# PCOD9446520 Si02
#       8
#     8   8   8   8   8   8   8   8
#     4   9  17  30  48  70  95 124 157 188 222 267
#     4   9  18  33  49  65  90 123 155 189 232 278
#     4   9  17  29  47  70  92 114 145 190 240 284
#     4   9  18  31  47  68  94 125 157 189 227 268
#     4   9  18  30  45  65  87 118 161 198 224 260
#     4   9  18  32  49  72 102 128 150 184 229 273
#     4  10  18  28  46  71  94 116 148 188 229 280
#     4   9  18  32  46  62  91 127 156 186 228 275
#
# _framework density 20.799393999999999
#
# number of rings (size 3 to 8) (size 9 to 14) (size 15 to 20)
#    0.000    2.875    0.000    3.000    0.000    6.000 
#    0.000    0.625    0.000    2.625    0.000    1.750 
#    0.000    0.000    0.000    0.000    0.000    0.000 
#
# Total GULP energy -356703.288768 kJ/mol
# GULP energy per Si atom -5573.488887 kJ/mol
# Density = 2.075205 g / cm^3
# Si number density = 20.799394 Si / 1000 Ang^3
#
#
#
# Elastic Constant Matrix: (Units=GPa)
#
#
# Indices 1 2 3 4 5 6 
#
# 1 15.5984 -6.6500 2.5027 0.0000 0.0000 0.0000
# 2 -6.6500 58.9810 -11.4654 0.0000 0.0000 0.0000
# 3 2.5027 -11.4654 123.9411 0.0000 0.0000 0.0000
# 4 0.0000 0.0000 0.0000 11.9302 0.0000 0.0000
# 5 0.0000 0.0000 0.0000 0.0000 16.7583 0.0000
# 6 0.0000 0.0000 0.0000 0.0000 0.0000 8.8098
#
#
#
# Elastic Compliance Matrix: (Units=1/GPa)
#
#
# Indices 1 2 3 4 5 6 
#
# 1 0.067401 0.007469 -0.000670 0.000000 0.000000 0.000000
# 2 0.007469 0.018093 0.001523 0.000000 0.000000 0.000000
# 3 -0.000670 0.001523 0.008223 0.000000 0.000000 0.000000
# 4 0.000000 0.000000 0.000000 0.083821 0.000000 0.000000
# 5 0.000000 0.000000 0.000000 0.000000 0.059672 0.000000
# 6 0.000000 0.000000 0.000000 0.000000 0.000000 0.113510
#
#
# Mechanical properties :
#
#
# Convention : Reuss Voigt Hill
#
# Bulk Modulus (GPa) = 9.06124 18.58834 13.82479
# Shear Modulus (GPa) = 13.48209 21.77520 17.62865
#
# Velocity S-wave (km/s) = 2.54873 3.23912 2.91444
# Velocity P-wave (km/s) = 3.60934 4.79015 4.24104
#
# Compressibility (1/GPa) = 0.11036018
#
# Stress axis : x y z
#
# Youngs Moduli (GPa) = 14.83661 55.27072 121.61369
#
# Poissons Ratio (x) = -0.41282 0.08149
# Poissons Ratio (y) = -0.11082 -0.18520
# Poissons Ratio (z) = 0.00994 -0.08417
#
# Static dielectric constant tensor:
#      x y z
#    x 1.752910 0.000000 0.000000 
#    y 0.000000 1.792630 0.000000 
#    z 0.000000 0.000000 1.771690 
# 
# From -- ./inp_files/30699.got.cif
#   From: 2010.05.17/outbox.cif.g08.bks.cpg/sg59_16_cif.got.tgz:30699.got - 2010.06.03 14:40:33.
