data_PCOD9446464
_publ_section_title
;
Structure prediction by ZEFSAII (Michael W. Deem and Ramdas Pophale) SiO2 
 PCOD9446464
Probable space group: P M M N
;
_chemical_formula_sum "Si O2"
_cell_formula_units_Z 64
_cell_length_a 19.969153
_cell_length_b 7.482906
_cell_length_c 22.886883
_cell_angle_alpha 90.000000
_cell_angle_beta 90.000000
_cell_angle_gamma 90.000000
_cell_volume 3419.925013
_symmetry_space_group_name_H-M "P M M N"
_symmetry_group_IT_number 59
_space_group.IT_coordinate_system_code '2'
_symmetry_cell_setting 'orthorhombic'
loop_
_space_group_symop_operation_xyz
x,y,z
1/2-x,1/2-y,z
1/2+x,-y,-z
-x,1/2+y,-z
-x,-y,-z
1/2+x,1/2+y,-z
1/2-x,y,z
x,1/2-y,z
loop_
_atom_site_type_symbol
_atom_site_label
_atom_site_fract_x
_atom_site_fract_y
_atom_site_fract_z
Si Si1 0.824706 0.534125 0.123724
Si Si2 0.888575 0.954624 0.478198
Si Si3 0.823764 0.457108 0.360410
Si Si4 0.530630 0.967508 0.581384
Si Si5 0.461352 0.035540 0.060397
Si Si6 0.035631 0.957547 0.825181
Si Si7 0.537118 0.030856 0.304145
Si Si8 0.175593 0.032143 0.011713
O O1 0.750000 0.477375 0.141461
O O2 0.826385 0.750000 0.125020
O O3 0.885214 0.465953 0.162225
O O4 0.835245 0.479431 0.056028
O O5 0.866983 0.750000 0.484005
O O6 0.905807 0.028034 0.542879
O O7 0.840362 0.038598 0.429864
O O8 0.962269 0.964343 0.448564
O O9 0.750000 0.536337 0.349311
O O10 0.820605 0.250000 0.343049
O O11 0.889632 0.531206 0.327549
O O12 0.529374 0.750000 0.577529
O O13 0.519737 0.017854 0.648673
O O14 0.459257 0.250000 0.065682
O O15 0.498831 0.964216 0.117786
O O16 0.385712 0.969993 0.050989
O O17 0.500000 0.000000 0.000000
O O18 0.015678 0.750000 0.822088
O O19 0.023210 0.033995 0.761073
O O20 0.539702 0.250000 0.303791
O O21 0.250000 0.974691 0.029245
O O22 0.175243 0.250000 0.011875
#
# Coordination Sequence:
#
# PCOD9446464 Si02
#       8
#     8   8   8   8   8   8   8   8
#     4   9  17  29  43  57  78 113 147 170 203 257
#     4   9  15  23  40  64  82  99 130 174 212 233
#     4   9  17  29  43  57  79 116 150 168 193 241
#     4   8  14  26  42  57  77 107 135 160 202 252
#     4  10  18  28  44  65  85 106 135 176 223 259
#     4  10  19  28  42  65  86 107 141 184 222 249
#     4   8  15  28  42  57  81 112 144 171 198 246
#     4   8  14  26  43  59  77 105 136 162 199 257
#
# _framework density 18.713861000000001
#
# number of rings (size 3 to 8) (size 9 to 14) (size 15 to 20)
#    0.000    3.125    1.250    1.875    0.000    1.500 
#    0.000    3.750    0.000    0.375    0.000    0.875 
#    0.000    5.000    0.000    0.000    0.000    0.125 
#
# Total GULP energy -356375.534757 kJ/mol
# GULP energy per Si atom -5568.367731 kJ/mol
# Density = 1.867127 g / cm^3
# Si number density = 18.713861 Si / 1000 Ang^3
#
#
#
# Elastic Constant Matrix: (Units=GPa)
#
#
# Indices 1 2 3 4 5 6 
#
# 1 47.3340 -2.8358 44.2408 0.0000 0.0000 0.0000
# 2 -2.8358 51.8116 1.3647 0.0000 0.0000 0.0000
# 3 44.2408 1.3647 139.8118 0.0000 0.0000 0.0000
# 4 0.0000 0.0000 0.0000 6.4374 0.0000 0.0000
# 5 0.0000 0.0000 0.0000 0.0000 15.9606 0.0000
# 6 0.0000 0.0000 0.0000 0.0000 0.0000 8.3849
#
#
#
# Elastic Compliance Matrix: (Units=1/GPa)
#
#
# Indices 1 2 3 4 5 6 
#
# 1 0.030185 0.001904 -0.009570 0.000000 0.000000 0.000000
# 2 0.001904 0.019426 -0.000792 0.000000 0.000000 0.000000
# 3 -0.009570 -0.000792 0.010188 0.000000 0.000000 0.000000
# 4 0.000000 0.000000 0.000000 0.155343 0.000000 0.000000
# 5 0.000000 0.000000 0.000000 0.000000 0.062654 0.000000
# 6 0.000000 0.000000 0.000000 0.000000 0.000000 0.119262
#
#
# Mechanical properties :
#
#
# Convention : Reuss Voigt Hill
#
# Bulk Modulus (GPa) = 23.31906 36.05520 29.68713
# Shear Modulus (GPa) = 11.67487 19.23574 15.45530
#
# Velocity S-wave (km/s) = 2.50043 3.20955 2.87692
# Velocity P-wave (km/s) = 4.56335 5.74833 5.18977
#
# Compressibility (1/GPa) = 0.04288337
#
# Stress axis : x y z
#
# Youngs Moduli (GPa) = 33.12873 51.47797 98.14999
#
# Poissons Ratio (x) = -0.09803 0.93931
# Poissons Ratio (y) = -0.06308 0.07775
# Poissons Ratio (z) = 0.31705 0.04078
#
# Static dielectric constant tensor:
#      x y z
#    x 1.650390 0.000000 0.000000 
#    y 0.000000 1.748900 0.000000 
#    z 0.000000 0.000000 1.686740 
# 
# From -- ./inp_files/30980.got.cif
#   From: 2010.05.17/outbox.cif.g08.bks.cpg/sg59_16_cif.got.tgz:30980.got - 2010.06.03 14:40:33.
