data_PCOD9446847
_publ_section_title
;
Structure prediction by ZEFSAII (Michael W. Deem and Ramdas Pophale) SiO2 
 PCOD9446847
Probable space group: P M M N
;
_chemical_formula_sum "Si O2"
_cell_formula_units_Z 56
_cell_length_a 8.252091
_cell_length_b 22.248209
_cell_length_c 17.305367
_cell_angle_alpha 90.000000
_cell_angle_beta 90.000000
_cell_angle_gamma 90.000000
_cell_volume 3177.165793
_symmetry_space_group_name_H-M "P M M N"
_symmetry_group_IT_number 59
_space_group.IT_coordinate_system_code '2'
_symmetry_cell_setting 'orthorhombic'
loop_
_space_group_symop_operation_xyz
x,y,z
1/2-x,1/2-y,z
1/2+x,-y,-z
-x,1/2+y,-z
-x,-y,-z
1/2+x,1/2+y,-z
1/2-x,y,z
x,1/2-y,z
loop_
_atom_site_type_symbol
_atom_site_label
_atom_site_fract_x
_atom_site_fract_y
_atom_site_fract_z
Si Si1 0.939932 0.938473 0.541812
Si Si2 0.448097 0.682246 0.145154
Si Si3 0.942855 0.483559 0.298892
Si Si4 0.445507 0.589964 0.024965
Si Si5 0.553621 0.119068 0.697322
Si Si6 0.554020 0.025045 0.123391
Si Si7 0.444882 0.682467 0.458458
O O1 0.750000 0.936827 0.529009
O O2 0.979581 0.945676 0.632312
O O3 0.008679 0.875700 0.509167
O O4 0.000000 0.000000 0.500000
O O5 0.250000 0.682808 0.146072
O O6 0.504913 0.750000 0.151789
O O7 0.500707 0.650522 0.066225
O O8 0.497976 0.643959 0.219585
O O9 0.750000 0.474483 0.301148
O O10 0.003033 0.470183 0.211627
O O11 0.981336 0.553370 0.315376
O O12 0.250000 0.589796 0.023399
O O13 0.498566 0.536355 0.082187
O O14 0.500823 0.575639 0.938049
O O15 0.750000 0.113742 0.696579
O O16 0.506599 0.164355 0.628942
O O17 0.750000 0.024747 0.125866
O O18 0.250000 0.685353 0.459808
O O19 0.505043 0.750000 0.478891
#
# Coordination Sequence:
#
# PCOD9446847 Si02
#       7
#     8   8   8   8   8   8   8
#     4  12  24  38  57  81 108 140 180 226 274 323
#     4   9  16  26  44  72 103 134 169 207 248 301
#     4  11  21  33  51  75 107 141 174 220 270 315
#     4   9  16  28  47  70  96 130 168 205 248 302
#     4  10  18  30  50  76 106 139 172 207 254 316
#     4   9  18  30  46  70 100 129 163 211 260 300
#     4  10  21  37  57  81 111 145 178 216 266 325
#
# _framework density 17.625772999999999
#
# number of rings (size 3 to 8) (size 9 to 14) (size 15 to 20)
#    0.000    2.000    2.857    2.143    0.000    2.571 
#    0.000    0.000    0.000    3.429    0.000    4.000 
#    0.000    0.000    0.000    0.000    0.000    0.000 
#
# Total GULP energy -312247.140289 kJ/mol
# GULP energy per Si atom -5575.841791 kJ/mol
# Density = 1.758566 g / cm^3
# Si number density = 17.625773 Si / 1000 Ang^3
#
#
#
# Elastic Constant Matrix: (Units=GPa)
#
#
# Indices 1 2 3 4 5 6 
#
# 1 14.5309 15.9255 11.4102 0.0000 0.0000 0.0000
# 2 15.9255 110.2333 54.4549 0.0000 0.0000 0.0000
# 3 11.4102 54.4549 109.4750 0.0000 0.0000 0.0000
# 4 0.0000 0.0000 0.0000 23.3052 0.0000 0.0000
# 5 0.0000 0.0000 0.0000 0.0000 16.1516 0.0000
# 6 0.0000 0.0000 0.0000 0.0000 0.0000 18.9869
#
#
#
# Elastic Compliance Matrix: (Units=1/GPa)
#
#
# Indices 1 2 3 4 5 6 
#
# 1 0.082794 -0.010206 -0.003552 0.000000 0.000000 0.000000
# 2 -0.010206 0.013285 -0.005545 0.000000 0.000000 0.000000
# 3 -0.003552 -0.005545 0.012263 0.000000 0.000000 0.000000
# 4 0.000000 0.000000 0.000000 0.042909 0.000000 0.000000
# 5 0.000000 0.000000 0.000000 0.000000 0.061913 0.000000
# 6 0.000000 0.000000 0.000000 0.000000 0.000000 0.052668
#
#
# Mechanical properties :
#
#
# Convention : Reuss Voigt Hill
#
# Bulk Modulus (GPa) = 14.33996 44.20226 29.27111
# Shear Modulus (GPa) = 15.25860 21.85198 18.55529
#
# Velocity S-wave (km/s) = 2.94547 3.52486 3.24811
# Velocity P-wave (km/s) = 4.44085 6.45746 5.54166
#
# Compressibility (1/GPa) = 0.06973518
#
# Stress axis : x y z
#
# Youngs Moduli (GPa) = 12.07816 75.27191 81.54810
#
# Poissons Ratio (x) = 0.76826 0.28970
# Poissons Ratio (y) = 0.12327 0.45214
# Poissons Ratio (z) = 0.04291 0.41735
#
# Static dielectric constant tensor:
#      x y z
#    x 1.586000 0.000000 0.000000 
#    y 0.000000 1.624280 0.000000 
#    z 0.000000 0.000000 1.624780 
# 
# From -- ./inp_files/26128.got.cif
#   From: 2010.05.17/outbox.cif.g08.bks.cpg/sg59_14_cif.got.tgz:26128.got - 2010.06.03 14:40:33.
