data_PCOD9446547
_publ_section_title
;
Structure prediction by ZEFSAII (Michael W. Deem and Ramdas Pophale) SiO2 
 PCOD9446547
Probable space group: P M M N
;
_chemical_formula_sum "Si O2"
_cell_formula_units_Z 64
_cell_length_a 7.763923
_cell_length_b 15.243746
_cell_length_c 28.709360
_cell_angle_alpha 90.000000
_cell_angle_beta 90.000000
_cell_angle_gamma 90.000000
_cell_volume 3397.789222
_symmetry_space_group_name_H-M "P M M N"
_symmetry_group_IT_number 59
_space_group.IT_coordinate_system_code '2'
_symmetry_cell_setting 'orthorhombic'
loop_
_space_group_symop_operation_xyz
x,y,z
1/2-x,1/2-y,z
1/2+x,-y,-z
-x,1/2+y,-z
-x,-y,-z
1/2+x,1/2+y,-z
1/2-x,y,z
x,1/2-y,z
loop_
_atom_site_type_symbol
_atom_site_label
_atom_site_fract_x
_atom_site_fract_y
_atom_site_fract_z
Si Si1 0.043350 0.469118 0.113953
Si Si2 0.545738 0.152379 0.579465
Si Si3 0.457158 0.348469 0.923359
Si Si4 0.955700 0.528609 0.610803
Si Si5 0.954771 0.151163 0.304223
Si Si6 0.540096 0.850678 0.970852
Si Si7 0.957402 0.849661 0.802041
Si Si8 0.041520 0.350315 0.472978
O O1 0.250000 0.460049 0.113726
O O2 0.977646 0.418757 0.067744
O O3 0.978429 0.418542 0.159696
O O4 0.005161 0.571760 0.109846
O O5 0.750000 0.158653 0.588423
O O6 0.471227 0.250000 0.586942
O O7 0.522453 0.129710 0.524862
O O8 0.475222 0.070559 0.608645
O O9 0.250000 0.345241 0.925180
O O10 0.517458 0.250000 0.910965
O O11 0.518379 0.368521 0.976282
O O12 0.750000 0.522679 0.604222
O O13 0.022859 0.584653 0.566882
O O14 0.984512 0.581726 0.657932
O O15 0.750000 0.155589 0.307899
O O16 0.025047 0.250000 0.313143
O O17 0.999191 0.127524 0.251108
O O18 0.750000 0.853796 0.971221
O O19 0.493560 0.750000 0.958999
O O20 0.750000 0.847101 0.805486
O O21 0.020436 0.750000 0.811038
O O22 0.250000 0.353242 0.474125
O O23 0.990776 0.250000 0.461884
#
# Coordination Sequence:
#
# PCOD9446547 Si02
#       8
#     8   8   8   8   8   8   8   8
#     4  10  18  28  48  74  94 118 157 200 235 270
#     4   9  18  31  46  67  96 128 161 196 231 267
#     4   9  18  31  45  63  93 133 166 191 228 276
#     4  10  19  31  49  70  94 127 162 194 232 278
#     4  10  21  35  51  73  98 121 148 187 234 281
#     4   8  14  26  44  67  96 127 158 191 229 278
#     4   9  18  33  52  73  97 123 149 181 229 287
#     4   9  17  28  43  66  95 126 160 195 231 274
#
# _framework density 18.835775999999999
#
# number of rings (size 3 to 8) (size 9 to 14) (size 15 to 20)
#    0.000    2.750    0.000    2.625    0.000    4.500 
#    0.000    1.250    0.000    2.625    0.000    1.750 
#    0.000    0.000    0.000    0.000    0.000    0.000 
#
# Total GULP energy -356982.210456 kJ/mol
# GULP energy per Si atom -5577.847038 kJ/mol
# Density = 1.879291 g / cm^3
# Si number density = 18.835776 Si / 1000 Ang^3
#
#
#
# Elastic Constant Matrix: (Units=GPa)
#
#
# Indices 1 2 3 4 5 6 
#
# 1 23.1375 5.1927 -3.1981 0.0000 0.0000 0.0000
# 2 5.1927 158.7149 104.4674 0.0000 0.0000 0.0000
# 3 -3.1981 104.4674 91.2872 0.0000 0.0000 0.0000
# 4 0.0000 0.0000 0.0000 32.2580 0.0000 0.0000
# 5 0.0000 0.0000 0.0000 0.0000 13.2094 0.0000
# 6 0.0000 0.0000 0.0000 0.0000 0.0000 12.4363
#
#
#
# Elastic Compliance Matrix: (Units=1/GPa)
#
#
# Indices 1 2 3 4 5 6 
#
# 1 0.047564 -0.010751 0.013970 0.000000 0.000000 0.000000
# 2 -0.010751 0.027964 -0.032378 0.000000 0.000000 0.000000
# 3 0.013970 -0.032378 0.048496 0.000000 0.000000 0.000000
# 4 0.000000 0.000000 0.000000 0.031000 0.000000 0.000000
# 5 0.000000 0.000000 0.000000 0.000000 0.075704 0.000000
# 6 0.000000 0.000000 0.000000 0.000000 0.000000 0.080410
#
#
# Mechanical properties :
#
#
# Convention : Reuss Voigt Hill
#
# Bulk Modulus (GPa) = 15.21947 54.00706 34.61327
# Shear Modulus (GPa) = 12.77607 22.69258 17.73432
#
# Velocity S-wave (km/s) = 2.60722 3.47473 3.07175
# Velocity P-wave (km/s) = 4.14260 6.69576 5.56751
#
# Compressibility (1/GPa) = 0.06570529
#
# Stress axis : x y z
#
# Youngs Moduli (GPa) = 21.02448 35.76083 20.62017
#
# Poissons Ratio (x) = 0.38447 -0.28806
# Poissons Ratio (y) = 0.22604 0.66763
# Poissons Ratio (z) = -0.29371 1.15785
#
# Static dielectric constant tensor:
#      x y z
#    x 1.689460 0.000000 0.000000 
#    y 0.000000 1.728570 0.000000 
#    z 0.000000 0.000000 1.625510 
# 
# From -- ./inp_files/31661.got.cif
#   From: 2010.05.17/outbox.cif.g08.bks.cpg/sg59_16_cif.got.tgz:31661.got - 2010.06.03 14:40:33.
