data_PCOD9446409
_publ_section_title
;
Structure prediction by ZEFSAII (Michael W. Deem and Ramdas Pophale) SiO2 
 PCOD9446409
Probable space group: P M M N
;
_chemical_formula_sum "Si O2"
_cell_formula_units_Z 48
_cell_length_a 7.478325
_cell_length_b 18.930862
_cell_length_c 17.089653
_cell_angle_alpha 90.000000
_cell_angle_beta 90.000000
_cell_angle_gamma 90.000000
_cell_volume 2419.401633
_symmetry_space_group_name_H-M "P M M N"
_symmetry_group_IT_number 59
_space_group.IT_coordinate_system_code '2'
_symmetry_cell_setting 'orthorhombic'
loop_
_space_group_symop_operation_xyz
x,y,z
1/2-x,1/2-y,z
1/2+x,-y,-z
-x,1/2+y,-z
-x,-y,-z
1/2+x,1/2+y,-z
1/2-x,y,z
x,1/2-y,z
loop_
_atom_site_type_symbol
_atom_site_label
_atom_site_fract_x
_atom_site_fract_y
_atom_site_fract_z
Si Si1 0.465085 0.828861 0.838124
Si Si2 0.962048 0.909994 0.680739
Si Si3 0.532014 0.668310 0.527290
Si Si4 0.468556 0.168536 0.648236
Si Si5 0.455014 0.447602 0.764830
Si Si6 0.464515 0.972303 0.913657
O O1 0.250000 0.826454 0.845184
O O2 0.533384 0.750000 0.854223
O O3 0.506792 0.853045 0.749566
O O4 0.530001 0.893120 0.893290
O O5 0.750000 0.921801 0.674717
O O6 0.029523 0.880515 0.598229
O O7 0.044793 0.983104 0.709919
O O8 0.750000 0.667522 0.528703
O O9 0.478909 0.750000 0.539800
O O10 0.476127 0.647110 0.439741
O O11 0.250000 0.166156 0.648287
O O12 0.519567 0.250000 0.660472
O O13 0.535256 0.116275 0.715288
O O14 0.250000 0.427103 0.781700
O O15 0.535512 0.474638 0.846571
O O16 0.250000 0.969804 0.903359
O O17 0.500000 0.000000 0.000000
#
# Coordination Sequence:
#
# PCOD9446409 Si02
#       6
#     8   8   8   8   8   8
#     4   9  18  33  51  70  94 123 154 188 227 272
#     4  10  18  27  43  69  98 125 153 185 223 269
#     4   8  14  24  39  63  93 121 151 188 226 262
#     4   8  14  27  47  66  86 118 157 192 226 266
#     4   9  18  32  48  67  90 117 153 193 231 273
#     4   9  18  32  49  69  92 117 145 181 226 274
#
# _framework density 19.839615999999999
#
# number of rings (size 3 to 8) (size 9 to 14) (size 15 to 20)
#    0.000    3.167    0.000    3.000    0.000    4.333 
#    0.000    0.833    0.000    2.500    0.000    4.667 
#    0.000    0.000    0.000    0.000    0.000    0.000 
#
# Total GULP energy -267614.791674 kJ/mol
# GULP energy per Si atom -5575.308160 kJ/mol
# Density = 1.979446 g / cm^3
# Si number density = 19.839616 Si / 1000 Ang^3
#
#
#
# Elastic Constant Matrix: (Units=GPa)
#
#
# Indices 1 2 3 4 5 6 
#
# 1 57.7270 -2.6292 -0.1610 0.0000 0.0000 0.0000
# 2 -2.6292 110.2967 109.0237 0.0000 0.0000 0.0000
# 3 -0.1610 109.0237 170.4049 0.0000 0.0000 0.0000
# 4 0.0000 0.0000 0.0000 22.7244 0.0000 0.0000
# 5 0.0000 0.0000 0.0000 0.0000 2.9375 0.0000
# 6 0.0000 0.0000 0.0000 0.0000 0.0000 5.9052
#
#
#
# Elastic Compliance Matrix: (Units=1/GPa)
#
#
# Indices 1 2 3 4 5 6 
#
# 1 0.017370 0.001082 -0.000676 0.000000 0.000000 0.000000
# 2 0.001082 0.024732 -0.015822 0.000000 0.000000 0.000000
# 3 -0.000676 -0.015822 0.015991 0.000000 0.000000 0.000000
# 4 0.000000 0.000000 0.000000 0.044006 0.000000 0.000000
# 5 0.000000 0.000000 0.000000 0.000000 0.340425 0.000000
# 6 0.000000 0.000000 0.000000 0.000000 0.000000 0.169343
#
#
# Mechanical properties :
#
#
# Convention : Reuss Voigt Hill
#
# Bulk Modulus (GPa) = 36.68252 61.21062 48.94657
# Shear Modulus (GPa) = 7.67123 21.79307 14.73215
#
# Velocity S-wave (km/s) = 1.96851 3.31790 2.72796
# Velocity P-wave (km/s) = 4.86789 6.75260 5.88617
#
# Compressibility (1/GPa) = 0.02726094
#
# Stress axis : x y z
#
# Youngs Moduli (GPa) = 57.56943 40.43360 62.53637
#
# Poissons Ratio (x) = -0.04376 0.04228
# Poissons Ratio (y) = -0.06231 0.98947
# Poissons Ratio (z) = 0.03892 0.63975
#
# Static dielectric constant tensor:
#      x y z
#    x 1.740610 0.000000 0.000000 
#    y 0.000000 1.691790 0.000000 
#    z 0.000000 0.000000 1.682860 
# 
# From -- ./inp_files/24080.got.cif
#   From: 2010.05.17/outbox.cif.g08.bks.cpg/sg59_13_cif.got.tgz:24080.got - 2010.06.03 14:40:33.
