data_PCOD9446419
_publ_section_title
;
Structure prediction by ZEFSAII (Michael W. Deem and Ramdas Pophale) SiO2 
 PCOD9446419
Probable space group: P M M N
;
_chemical_formula_sum "Si O2"
_cell_formula_units_Z 40
_cell_length_a 8.612409
_cell_length_b 21.694789
_cell_length_c 13.030112
_cell_angle_alpha 90.000000
_cell_angle_beta 90.000000
_cell_angle_gamma 90.000000
_cell_volume 2434.603407
_symmetry_space_group_name_H-M "P M M N"
_symmetry_group_IT_number 59
_space_group.IT_coordinate_system_code '2'
_symmetry_cell_setting 'orthorhombic'
loop_
_space_group_symop_operation_xyz
x,y,z
1/2-x,1/2-y,z
1/2+x,-y,-z
-x,1/2+y,-z
-x,-y,-z
1/2+x,1/2+y,-z
1/2-x,y,z
x,1/2-y,z
loop_
_atom_site_type_symbol
_atom_site_label
_atom_site_fract_x
_atom_site_fract_y
_atom_site_fract_z
Si Si1 0.935350 0.947755 0.638207
Si Si2 0.060420 0.679594 0.249767
Si Si3 0.562323 0.415757 0.921322
Si Si4 0.562723 0.086233 0.573855
Si Si5 0.564466 0.048598 0.144070
O O1 0.750000 0.946357 0.638317
O O2 0.998419 0.910120 0.541099
O O3 0.997208 0.927999 0.748818
O O4 0.985038 0.019207 0.618556
O O5 0.250000 0.680431 0.250463
O O6 0.006706 0.750000 0.251205
O O7 0.013344 0.641610 0.148425
O O8 0.011765 0.639819 0.348852
O O9 0.750000 0.420127 0.915825
O O10 0.495661 0.479051 0.875068
O O11 0.518258 0.414147 0.041268
O O12 0.750000 0.086614 0.569947
O O13 0.750000 0.047878 0.149977
#
# Coordination Sequence:
#
# PCOD9446419 Si02
#       5
#     8   8   8   8   8
#     4  10  18  29  46  67  95 124 151 191 236 278
#     4   9  16  29  50  71  93 121 152 191 233 272
#     4   9  17  30  45  68  96 121 154 190 230 280
#     4   9  17  29  45  68  94 119 153 190 229 279
#     4  10  18  27  45  69  96 125 152 191 235 277
#
# _framework density 16.429780999999998
#
# number of rings (size 3 to 8) (size 9 to 14) (size 15 to 20)
#    0.000    2.600    2.000    1.200    0.000    1.600 
#    0.000    0.000    0.000    3.600    0.000    5.600 
#    0.000    0.000    0.000    0.000    0.000    0.000 
#
# Total GULP energy -222922.748543 kJ/mol
# GULP energy per Si atom -5573.068714 kJ/mol
# Density = 1.639239 g / cm^3
# Si number density = 16.429781 Si / 1000 Ang^3
#
#
#
# Elastic Constant Matrix: (Units=GPa)
#
#
# Indices 1 2 3 4 5 6 
#
# 1 8.4253 14.1674 28.4894 0.0000 0.0000 0.0000
# 2 14.1674 96.6057 73.1358 0.0000 0.0000 0.0000
# 3 28.4894 73.1358 185.1967 0.0000 0.0000 0.0000
# 4 0.0000 0.0000 0.0000 18.8489 0.0000 0.0000
# 5 0.0000 0.0000 0.0000 0.0000 24.1060 0.0000
# 6 0.0000 0.0000 0.0000 0.0000 0.0000 12.0997
#
#
#
# Elastic Compliance Matrix: (Units=1/GPa)
#
#
# Indices 1 2 3 4 5 6 
#
# 1 0.255294 -0.010995 -0.034931 0.000000 0.000000 0.000000
# 2 -0.010995 0.015239 -0.004327 0.000000 0.000000 0.000000
# 3 -0.034931 -0.004327 0.012482 0.000000 0.000000 0.000000
# 4 0.000000 0.000000 0.000000 0.053054 0.000000 0.000000
# 5 0.000000 0.000000 0.000000 0.000000 0.041483 0.000000
# 6 0.000000 0.000000 0.000000 0.000000 0.000000 0.082647
#
#
# Mechanical properties :
#
#
# Convention : Reuss Voigt Hill
#
# Bulk Modulus (GPa) = 5.47914 57.97921 31.72918
# Shear Modulus (GPa) = 8.04453 22.63992 15.34222
#
# Velocity S-wave (km/s) = 2.21516 3.71614 3.05914
# Velocity P-wave (km/s) = 3.14400 7.33339 5.64196
#
# Compressibility (1/GPa) = 0.18251036
#
# Stress axis : x y z
#
# Youngs Moduli (GPa) = 3.91705 65.61933 80.11637
#
# Poissons Ratio (x) = 0.72148 2.79852
# Poissons Ratio (y) = 0.04307 0.34665
# Poissons Ratio (z) = 0.13683 0.28392
#
# Static dielectric constant tensor:
#      x y z
#    x 1.557900 0.000000 0.000000 
#    y 0.000000 1.526630 0.000000 
#    z 0.000000 0.000000 1.573880 
# 
# From -- ./inp_files/14043.got.cif
#   From: 2010.05.17/outbox.cif.g08.bks.cpg/sg59_8_cif.got.tgz:14043.got - 2010.06.03 14:40:33.
