data_PCOD9446769
_publ_section_title
;
Structure prediction by ZEFSAII (Michael W. Deem and Ramdas Pophale) SiO2 
 PCOD9446769
Probable space group: P M M N
;
_chemical_formula_sum "Si O2"
_cell_formula_units_Z 64
_cell_length_a 24.154479
_cell_length_b 8.724546
_cell_length_c 18.766894
_cell_angle_alpha 90.000000
_cell_angle_beta 90.000000
_cell_angle_gamma 90.000000
_cell_volume 3954.876372
_symmetry_space_group_name_H-M "P M M N"
_symmetry_group_IT_number 59
_space_group.IT_coordinate_system_code '2'
_symmetry_cell_setting 'orthorhombic'
loop_
_space_group_symop_operation_xyz
x,y,z
1/2-x,1/2-y,z
1/2+x,-y,-z
-x,1/2+y,-z
-x,-y,-z
1/2+x,1/2+y,-z
1/2-x,y,z
x,1/2-y,z
loop_
_atom_site_type_symbol
_atom_site_label
_atom_site_fract_x
_atom_site_fract_y
_atom_site_fract_z
Si Si1 0.501396 0.434328 0.080403
Si Si2 0.611925 0.064206 0.865031
Si Si3 0.120526 0.563111 0.861084
Si Si4 0.182770 0.074399 0.573396
Si Si5 0.186001 0.565646 0.722818
Si Si6 0.687062 0.436737 0.999380
Si Si7 0.185958 0.562767 0.268868
Si Si8 0.182676 0.572903 0.426271
O O1 0.501000 0.250000 0.075785
O O2 0.448145 0.493256 0.123090
O O3 0.558137 0.482917 0.119597
O O4 0.500000 0.500000 0.000000
O O5 0.607468 0.250000 0.865073
O O6 0.649349 0.018513 0.932819
O O7 0.644469 0.017154 0.793657
O O8 0.120991 0.750000 0.859871
O O9 0.146554 0.510503 0.786489
O O10 0.159628 0.514674 0.926541
O O11 0.250000 0.065656 0.571031
O O12 0.166711 0.250000 0.581481
O O13 0.166604 0.983894 0.644404
O O14 0.163116 0.011581 0.497245
O O15 0.250000 0.512994 0.733239
O O16 0.187168 0.750000 0.725177
O O17 0.750000 0.489845 0.992200
O O18 0.688030 0.250000 0.999649
O O19 0.250000 0.515944 0.255434
O O20 0.186753 0.750000 0.270775
O O21 0.167809 0.510932 0.347945
O O22 0.250000 0.570701 0.426457
O O23 0.165558 0.750000 0.431061
#
# Coordination Sequence:
#
# PCOD9446769 Si02
#       8
#     8   8   8   8   8   8   8   8
#     4  11  21  35  51  67  88 118 156 197 234 271
#     4  10  18  30  48  71  94 119 152 190 232 272
#     4   9  17  29  45  67  89 112 150 194 229 263
#     4   9  16  25  38  60  92 125 151 175 213 270
#     4   9  16  27  45  67  89 113 145 187 229 267
#     4   9  15  24  43  69  92 115 147 185 222 264
#     4   8  14  25  44  71  98 122 153 193 229 265
#     4   8  13  23  40  62  89 121 155 186 216 256
#
# _framework density 16.182554
#
# number of rings (size 3 to 8) (size 9 to 14) (size 15 to 20)
#    0.000    2.875    1.250    2.250    0.000    4.500 
#    0.000    1.875    0.000    2.250    0.000    0.875 
#    0.000    0.000    0.000    0.000    0.000    0.000 
#
# Total GULP energy -356419.763753 kJ/mol
# GULP energy per Si atom -5569.058809 kJ/mol
# Density = 1.614572 g / cm^3
# Si number density = 16.182554 Si / 1000 Ang^3
#
#
#
# Elastic Constant Matrix: (Units=GPa)
#
#
# Indices 1 2 3 4 5 6 
#
# 1 79.0504 15.2078 50.0394 0.0000 0.0000 0.0000
# 2 15.2078 12.5773 23.5241 0.0000 0.0000 0.0000
# 3 50.0394 23.5241 144.9961 0.0000 0.0000 0.0000
# 4 0.0000 0.0000 0.0000 5.2220 0.0000 0.0000
# 5 0.0000 0.0000 0.0000 0.0000 4.0678 0.0000
# 6 0.0000 0.0000 0.0000 0.0000 0.0000 17.4769
#
#
#
# Elastic Compliance Matrix: (Units=1/GPa)
#
#
# Indices 1 2 3 4 5 6 
#
# 1 0.017843 -0.014439 -0.003815 0.000000 0.000000 0.000000
# 2 -0.014439 0.125830 -0.015431 0.000000 0.000000 0.000000
# 3 -0.003815 -0.015431 0.010717 0.000000 0.000000 0.000000
# 4 0.000000 0.000000 0.000000 0.191496 0.000000 0.000000
# 5 0.000000 0.000000 0.000000 0.000000 0.245834 0.000000
# 6 0.000000 0.000000 0.000000 0.000000 0.000000 0.057218
#
#
# Mechanical properties :
#
#
# Convention : Reuss Voigt Hill
#
# Bulk Modulus (GPa) = 11.49184 46.01849 28.75517
# Shear Modulus (GPa) = 6.70856 15.21017 10.95937
#
# Velocity S-wave (km/s) = 2.03827 3.06912 2.60519
# Velocity P-wave (km/s) = 3.55756 6.40767 5.18239
#
# Compressibility (1/GPa) = 0.08701823
#
# Stress axis : x y z
#
# Youngs Moduli (GPa) = 56.04436 7.94725 93.30978
#
# Poissons Ratio (x) = 0.11475 0.35600
# Poissons Ratio (y) = 0.80923 1.43991
# Poissons Ratio (z) = 0.21382 0.12264
#
# Static dielectric constant tensor:
#      x y z
#    x 1.522410 0.000000 0.000000 
#    y 0.000000 1.555700 0.000000 
#    z 0.000000 0.000000 1.553120 
# 
# From -- ./inp_files/28408.got.cif
#   From: 2010.05.17/outbox.cif.g08.bks.cpg/sg59_15_cif.got.tgz:28408.got - 2010.06.03 14:40:33.
