data_PCOD9446187
_publ_section_title
;
Structure prediction by ZEFSAII (Michael W. Deem and Ramdas Pophale) SiO2 
 PCOD9446187
Probable space group: P M M N
;
_chemical_formula_sum "Si O2"
_cell_formula_units_Z 64
_cell_length_a 7.385555
_cell_length_b 29.619660
_cell_length_c 16.283724
_cell_angle_alpha 90.000000
_cell_angle_beta 90.000000
_cell_angle_gamma 90.000000
_cell_volume 3562.188837
_symmetry_space_group_name_H-M "P M M N"
_symmetry_group_IT_number 59
_space_group.IT_coordinate_system_code '2'
_symmetry_cell_setting 'orthorhombic'
loop_
_space_group_symop_operation_xyz
x,y,z
1/2-x,1/2-y,z
1/2+x,-y,-z
-x,1/2+y,-z
-x,-y,-z
1/2+x,1/2+y,-z
1/2-x,y,z
x,1/2-y,z
loop_
_atom_site_type_symbol
_atom_site_label
_atom_site_fract_x
_atom_site_fract_y
_atom_site_fract_z
Si Si1 0.528487 0.302319 0.327460
Si Si2 0.967121 0.354904 0.846901
Si Si3 0.471833 0.858288 0.830818
Si Si4 0.528273 0.197542 0.686610
Si Si5 0.029057 0.697950 0.990954
Si Si6 0.460303 0.804819 0.492856
Si Si7 0.042909 0.547912 0.891744
Si Si8 0.963909 0.949261 0.078695
O O1 0.750000 0.302287 0.329371
O O2 0.475425 0.250000 0.313839
O O3 0.471965 0.334007 0.252863
O O4 0.464648 0.317620 0.417995
O O5 0.750000 0.350444 0.846208
O O6 0.032315 0.333165 0.762111
O O7 0.008379 0.407291 0.861705
O O8 0.032299 0.327237 0.926540
O O9 0.250000 0.859024 0.831620
O O10 0.527417 0.828859 0.909692
O O11 0.536028 0.909612 0.843513
O O12 0.750000 0.197106 0.684427
O O13 0.477071 0.250000 0.699629
O O14 0.464512 0.182088 0.596158
O O15 0.250000 0.697643 0.991529
O O16 0.972474 0.750000 0.989374
O O17 0.250000 0.818933 0.493010
O O18 0.463585 0.750000 0.492614
O O19 0.250000 0.543632 0.863267
O O20 0.963555 0.497451 0.889485
O O21 0.043366 0.560758 0.988620
O O22 0.750000 0.955043 0.064549
#
# Coordination Sequence:
#
# PCOD9446187 Si02
#       8
#     8   8   8   8   8   8   8   8
#     4   8  12  17  28  50  80 107 124 146 189 237
#     4  10  17  26  40  58  79 103 133 162 190 226
#     4   9  14  21  34  53  76 100 127 157 189 228
#     4   8  13  21  35  55  77 103 134 163 189 223
#     4   9  15  21  32  52  76 100 127 157 183 214
#     4   7  10  17  28  46  76 106 126 150 189 230
#     4   9  17  30  44  58  75  99 132 169 200 228
#     4  10  19  29  42  57  76 101 131 166 204 237
#
# _framework density 17.966480000000001
#
# number of rings (size 3 to 8) (size 9 to 14) (size 15 to 20)
#    0.000    3.250    1.250    2.625    0.000    3.500 
#    0.000    0.000    0.000    1.500    0.000    0.875 
#    0.000    1.000    0.000    3.375    0.000    2.500 
#
# Total GULP energy -356692.657198 kJ/mol
# GULP energy per Si atom -5573.322769 kJ/mol
# Density = 1.792559 g / cm^3
# Si number density = 17.966480 Si / 1000 Ang^3
#
#
#
# Elastic Constant Matrix: (Units=GPa)
#
#
# Indices 1 2 3 4 5 6 
#
# 1 62.7359 -0.0007 4.2175 0.0000 0.0000 0.0000
# 2 -0.0007 125.2944 90.4247 0.0000 0.0000 0.0000
# 3 4.2175 90.4247 170.2816 0.0000 0.0000 0.0000
# 4 0.0000 0.0000 0.0000 12.0198 0.0000 0.0000
# 5 0.0000 0.0000 0.0000 0.0000 -10.1875 0.0000
# 6 0.0000 0.0000 0.0000 0.0000 0.0000 2.4445
#
#
#
# Elastic Compliance Matrix: (Units=1/GPa)
#
#
# Indices 1 2 3 4 5 6 
#
# 1 0.015983 0.000463 -0.000642 0.000000 0.000000 0.000000
# 2 0.000463 0.012954 -0.006890 0.000000 0.000000 0.000000
# 3 -0.000642 -0.006890 0.009548 0.000000 0.000000 0.000000
# 4 0.000000 0.000000 0.000000 0.083196 0.000000 0.000000
# 5 0.000000 0.000000 0.000000 0.000000 -0.098160 0.000000
# 6 0.000000 0.000000 0.000000 0.000000 0.000000 0.409086
#
#
# Mechanical properties :
#
#
# Convention : Reuss Voigt Hill
#
# Bulk Modulus (GPa) = 41.07357 60.84386 50.95871
# Shear Modulus (GPa) = 10.99237 18.43338 14.71288
#
# Velocity S-wave (km/s) = 2.47620 3.20658 2.86476
# Velocity P-wave (km/s) = 5.57550 6.90277 6.27433
#
# Compressibility (1/GPa) = 0.02434656
#
# Stress axis : x y z
#
# Youngs Moduli (GPa) = 62.56653 77.19597 104.73865
#
# Poissons Ratio (x) = -0.03577 0.06723
# Poissons Ratio (y) = -0.02899 0.72170
# Poissons Ratio (z) = 0.04016 0.53192
#
# Static dielectric constant tensor:
#      x y z
#    x 1.716260 0.000000 0.000000 
#    y 0.000000 1.601450 0.000000 
#    z 0.000000 0.000000 1.616400 
# 
# From -- ./inp_files/21959.got.cif
#   From: 2010.05.17/outbox.cif.g08.bks.cpg/sg59_11_cif.got.tgz:21959.got - 2010.06.03 14:40:33.
