data_PCOD9446311
_publ_section_title
;
Structure prediction by ZEFSAII (Michael W. Deem and Ramdas Pophale) SiO2 
 PCOD9446311
Probable space group: P M M N
;
_chemical_formula_sum "Si O2"
_cell_formula_units_Z 64
_cell_length_a 7.923780
_cell_length_b 32.080234
_cell_length_c 12.306859
_cell_angle_alpha 90.000000
_cell_angle_beta 90.000000
_cell_angle_gamma 90.000000
_cell_volume 3128.363149
_symmetry_space_group_name_H-M "P M M N"
_symmetry_group_IT_number 59
_space_group.IT_coordinate_system_code '2'
_symmetry_cell_setting 'orthorhombic'
loop_
_space_group_symop_operation_xyz
x,y,z
1/2-x,1/2-y,z
1/2+x,-y,-z
-x,1/2+y,-z
-x,-y,-z
1/2+x,1/2+y,-z
1/2-x,y,z
x,1/2-y,z
loop_
_atom_site_type_symbol
_atom_site_label
_atom_site_fract_x
_atom_site_fract_y
_atom_site_fract_z
Si Si1 0.956197 0.083633 0.249763
Si Si2 0.549188 0.452736 0.023357
Si Si3 0.956343 0.295708 0.489090
Si Si4 0.046542 0.952482 0.521347
Si Si5 0.450939 0.124511 0.875859
Si Si6 0.453849 0.819563 0.751994
Si Si7 0.048573 0.295312 0.007989
Si Si8 0.452777 0.623950 0.375548
O O1 0.750000 0.082540 0.250038
O O2 0.013937 0.061844 0.359938
O O3 0.003885 0.131963 0.248774
O O4 0.018457 0.061709 0.140647
O O5 0.750000 0.451036 0.028973
O O6 0.496584 0.418816 0.934087
O O7 0.500000 0.500000 0.000000
O O8 0.750000 0.296807 0.489704
O O9 0.008310 0.250000 0.529907
O O10 0.008308 0.300536 0.363065
O O11 0.015149 0.335027 0.559995
O O12 0.250000 0.950172 0.521706
O O13 0.985121 0.918563 0.433120
O O14 0.000000 0.000000 0.500000
O O15 0.250000 0.127438 0.877158
O O16 0.507451 0.125498 0.751340
O O17 0.520072 0.164158 0.944555
O O18 0.250000 0.816976 0.755054
O O19 0.518199 0.800003 0.863348
O O20 0.250000 0.294914 0.990921
O O21 0.981049 0.250000 0.972173
O O22 0.250000 0.624061 0.386920
#
# Coordination Sequence:
#
# PCOD9446311 Si02
#       8
#     8   8   8   8   8   8   8   8
#     4   9  18  35  60  85 115 148 179 228 285 335
#     4  11  23  40  62  89 120 152 191 237 289 344
#     4   9  17  31  56  88 116 144 182 230 286 346
#     4  10  21  38  58  84 115 149 185 227 281 336
#     4  11  24  41  59  81 113 155 200 242 287 341
#     4  10  17  33  60  89 116 145 184 232 287 345
#     4  10  22  39  57  81 116 154 190 236 293 345
#     4  10  21  38  58  81 114 150 187 236 287 335
#
# _framework density 20.457982000000001
#
# number of rings (size 3 to 8) (size 9 to 14) (size 15 to 20)
#    0.000    2.000    2.500    1.125    1.750    2.250 
#    0.000    1.875    0.000    0.750    0.000    0.000 
#    0.000    0.000    0.000    0.000    0.000    0.000 
#
# Total GULP energy -357411.250765 kJ/mol
# GULP energy per Si atom -5584.550793 kJ/mol
# Density = 2.041142 g / cm^3
# Si number density = 20.457982 Si / 1000 Ang^3
#
#
#
# Elastic Constant Matrix: (Units=GPa)
#
#
# Indices 1 2 3 4 5 6 
#
# 1 21.5501 12.1706 6.1476 0.0000 0.0000 0.0000
# 2 12.1706 212.3953 100.2406 0.0000 0.0000 0.0000
# 3 6.1476 100.2406 155.6494 0.0000 0.0000 0.0000
# 4 0.0000 0.0000 0.0000 83.2365 0.0000 0.0000
# 5 0.0000 0.0000 0.0000 0.0000 1.9814 0.0000
# 6 0.0000 0.0000 0.0000 0.0000 0.0000 10.1331
#
#
#
# Elastic Compliance Matrix: (Units=1/GPa)
#
#
# Indices 1 2 3 4 5 6 
#
# 1 0.047959 -0.002664 -0.000179 0.000000 0.000000 0.000000
# 2 -0.002664 0.006912 -0.004346 0.000000 0.000000 0.000000
# 3 -0.000179 -0.004346 0.009231 0.000000 0.000000 0.000000
# 4 0.000000 0.000000 0.000000 0.012014 0.000000 0.000000
# 5 0.000000 0.000000 0.000000 0.000000 0.504692 0.000000
# 6 0.000000 0.000000 0.000000 0.000000 0.000000 0.098687
#
#
# Mechanical properties :
#
#
# Convention : Reuss Voigt Hill
#
# Bulk Modulus (GPa) = 20.11093 69.63471 44.87282
# Shear Modulus (GPa) = 7.03783 37.13926 22.08854
#
# Velocity S-wave (km/s) = 1.85677 4.26536 3.28945
# Velocity P-wave (km/s) = 3.80112 7.64000 6.03399
#
# Compressibility (1/GPa) = 0.04972420
#
# Stress axis : x y z
#
# Youngs Moduli (GPa) = 20.85123 144.67435 108.33280
#
# Poissons Ratio (x) = 0.38538 0.01936
# Poissons Ratio (y) = 0.05554 0.47084
# Poissons Ratio (z) = 0.00373 0.62879
#
# Static dielectric constant tensor:
#      x y z
#    x 1.751200 0.000000 0.000000 
#    y 0.000000 1.531120 0.000000 
#    z 0.000000 0.000000 1.704400 
# 
# From -- ./inp_files/14955.got.cif
#   From: 2010.05.17/outbox.cif.g08.bks.cpg/sg59_8_cif.got.tgz:14955.got - 2010.06.03 14:40:33.
