data_PCOD9446025
_publ_section_title
;
Structure prediction by ZEFSAII (Michael W. Deem and Ramdas Pophale) SiO2 
 PCOD9446025
Probable space group: P N N M
;
_chemical_formula_sum "Si O2"
_cell_formula_units_Z 48
_cell_length_a 9.000000
_cell_length_b 30.000000
_cell_length_c 9.000000
_cell_angle_alpha 90.000000
_cell_angle_beta 90.000000
_cell_angle_gamma 90.000000
_cell_volume 2430.000000
_symmetry_space_group_name_H-M "P N N M"
_symmetry_group_IT_number 58
_symmetry_cell_setting 'orthorhombic'
loop_
_space_group_symop_operation_xyz
x,y,z
-x,-y,z
1/2+x,1/2-y,1/2-z
1/2-x,1/2+y,1/2-z
-x,-y,-z
x,y,-z
1/2-x,1/2+y,1/2+z
1/2+x,1/2-y,1/2+z
loop_
_atom_site_type_symbol
_atom_site_label
_atom_site_fract_x
_atom_site_fract_y
_atom_site_fract_z
Si Si1 0.281857 0.887678 0.329800
Si Si2 0.711852 0.387005 0.668877
Si Si3 0.791478 0.704505 0.322297
Si Si4 0.491546 0.050912 0.830478
Si Si5 0.006615 0.950073 0.669334
Si Si6 0.644496 0.792344 0.178937
O O1 0.306899 0.874459 0.500000
O O2 0.235152 0.842791 0.243345
O O3 0.423308 0.910672 0.256915
O O4 0.169903 0.929530 0.328370
O O5 0.662387 0.378610 0.500000
O O6 0.828816 0.427907 0.664536
O O7 0.583132 0.409200 0.761800
O O8 0.780127 0.339839 0.723107
O O9 0.771940 0.704609 0.500000
O O10 0.715830 0.748624 0.253811
O O11 0.968429 0.705744 0.288889
O O12 0.500000 0.000000 0.771825
O O13 0.550917 0.048975 0.000000
O O14 0.952631 0.955350 0.500000
O O15 0.000000 0.000000 0.737800
O O16 0.660107 0.788627 0.000000
#
# Coordination Sequence:
#
# PCOD9446025 Si02
#       6
#     8   8   8   8   8   8
#     4  11  23  39  61  89 123 159 202 251 299 359
#     4  10  21  39  61  88 121 155 196 249 299 356
#     4  11  24  43  66  90 122 159 198 248 307 363
#     4  10  20  37  62  90 120 156 200 249 302 360
#     4  10  23  41  59  86 125 164 203 248 297 352
#     4  10  23  43  63  90 124 153 198 252 300 361
#
# _framework density 19.753086
#
# number of rings (size 3 to 8) (size 9 to 14) (size 15 to 20)
#    0.000    1.667    1.667    2.000    2.333    4.667 
#    0.000    0.000    0.000    0.000    0.000    0.000 
#    0.000    0.000    0.000    0.000    0.000    0.000 
#
# Total GULP energy -267509.863159 kJ/mol
# GULP energy per Si atom -5573.122149 kJ/mol
# Density = 1.970813 g / cm^3
# Si number density = 19.753086 Si / 1000 Ang^3
#
#
#
# Elastic Constant Matrix: (Units=GPa)
#
#
# Indices 1 2 3 4 5 6 
#
# 1 24.0221 2.9018 16.4113 0.0000 0.0000 0.0000
# 2 2.9018 147.1081 15.0991 0.0000 0.0000 0.0000
# 3 16.4113 15.0991 24.2224 0.0000 0.0000 0.0000
# 4 0.0000 0.0000 0.0000 41.2041 0.0000 0.0000
# 5 0.0000 0.0000 0.0000 0.0000 23.9325 0.0000
# 6 0.0000 0.0000 0.0000 0.0000 0.0000 28.8742
#
#
#
# Elastic Compliance Matrix: (Units=1/GPa)
#
#
# Indices 1 2 3 4 5 6 
#
# 1 0.079917 0.004253 -0.056797 0.000000 0.000000 0.000000
# 2 0.004253 0.007489 -0.007550 0.000000 0.000000 0.000000
# 3 -0.056797 -0.007550 0.084472 0.000000 0.000000 0.000000
# 4 0.000000 0.000000 0.000000 0.024269 0.000000 0.000000
# 5 0.000000 0.000000 0.000000 0.000000 0.041784 0.000000
# 6 0.000000 0.000000 0.000000 0.000000 0.000000 0.034633
#
#
# Mechanical properties :
#
#
# Convention : Reuss Voigt Hill
#
# Bulk Modulus (GPa) = 19.34606 29.35301 24.34953
# Shear Modulus (GPa) = 12.19567 29.53152 20.86359
#
# Velocity S-wave (km/s) = 2.48746 3.87076 3.25348
# Velocity P-wave (km/s) = 4.25031 5.90502 5.14463
#
# Compressibility (1/GPa) = 0.05169012
#
# Stress axis : x y z
#
# Youngs Moduli (GPa) = 12.51300 133.53408 11.83824
#
# Poissons Ratio (x) = -0.56795 0.67238
# Poissons Ratio (y) = -0.05322 0.08938
# Poissons Ratio (z) = 0.71070 1.00815
#
# Static dielectric constant tensor:
#      x y z
#    x 1.751820 0.000000 0.000000 
#    y 0.000000 1.659750 0.000000 
#    z 0.000000 0.000000 1.727490 
# 
# From -- ./inp_files/2935.got.cif
#   From: 2010.05.17/outbox.ucp.g08.bks.cvg/sg58_2_cif.got.tgz:2935.got - 2010.06.11 16:41:41.
