data_PCOD9446065
_publ_section_title
;
Structure prediction by ZEFSAII (Michael W. Deem and Ramdas Pophale) SiO2 
 PCOD9446065
Probable space group: P N N M
;
_chemical_formula_sum "Si O2"
_cell_formula_units_Z 64
_cell_length_a 24.000000
_cell_length_b 9.000000
_cell_length_c 15.000000
_cell_angle_alpha 90.000000
_cell_angle_beta 90.000000
_cell_angle_gamma 90.000000
_cell_volume 3240.000000
_symmetry_space_group_name_H-M "P N N M"
_symmetry_group_IT_number 58
_symmetry_cell_setting 'orthorhombic'
loop_
_space_group_symop_operation_xyz
x,y,z
-x,-y,z
1/2+x,1/2-y,1/2-z
1/2-x,1/2+y,1/2-z
-x,-y,-z
x,y,-z
1/2-x,1/2+y,1/2+z
1/2+x,1/2-y,1/2+z
loop_
_atom_site_type_symbol
_atom_site_label
_atom_site_fract_x
_atom_site_fract_y
_atom_site_fract_z
Si Si1 0.936464 0.444401 0.096816
Si Si2 0.292983 0.243542 0.397838
Si Si3 0.251664 0.068417 0.097182
Si Si4 0.978577 0.153612 0.820774
Si Si5 0.305003 0.633610 0.223980
Si Si6 0.084915 0.335481 0.746683
Si Si7 0.365905 0.324997 0.234763
Si Si8 0.619221 0.943807 0.896891
O O1 0.908523 0.545121 0.172860
O O2 0.000000 0.500000 0.095221
O O3 0.948486 0.271202 0.114827
O O4 0.911091 0.470256 0.000000
O O5 0.303343 0.191222 0.500000
O O6 0.285216 0.420741 0.405392
O O7 0.236108 0.176481 0.356668
O O8 0.339014 0.233296 0.318744
O O9 0.230921 0.153423 0.184648
O O10 0.315209 0.012870 0.106376
O O11 0.247358 0.145379 0.000000
O O12 0.029484 0.239642 0.770821
O O13 0.926847 0.111056 0.757857
O O14 0.000000 0.000000 0.862257
O O15 0.360635 0.732719 0.234654
O O16 0.325023 0.462529 0.214836
O O17 0.082556 0.438859 0.658625
O O18 0.377806 0.212820 0.154215
O O19 0.602586 0.933015 0.000000
#
# Coordination Sequence:
#
# PCOD9446065 Si02
#       8
#     8   8   8   8   8   8   8   8
#     4   9  20  38  61  89 124 166 214 261 304 365
#     4  10  21  38  62  91 125 162 207 256 314 383
#     4   9  19  36  58  87 123 160 201 252 307 374
#     4  11  22  41  64  93 129 170 210 258 318 370
#     4  11  21  36  65  95 127 164 207 259 323 373
#     4  11  22  39  66  91 124 170 213 259 311 380
#     4  11  23  41  63  93 129 164 208 262 315 375
#     4  11  22  40  65  90 120 164 210 258 317 380
#
# _framework density 19.753086
#
# number of rings (size 3 to 8) (size 9 to 14) (size 15 to 20)
#    0.000    1.625    5.000    0.000    0.000    1.750 
#    0.000    1.250    0.000    0.750    0.000    0.000 
#    0.000    0.000    0.000    0.000    0.000    0.000 
#
# Total GULP energy -356556.553613 kJ/mol
# GULP energy per Si atom -5571.196150 kJ/mol
# Density = 1.970813 g / cm^3
# Si number density = 19.753086 Si / 1000 Ang^3
#
#
#
# Elastic Constant Matrix: (Units=GPa)
#
#
# Indices 1 2 3 4 5 6 
#
# 1 69.5086 16.4269 15.6976 0.0000 0.0000 0.0000
# 2 16.4269 86.5072 38.3218 0.0000 0.0000 0.0000
# 3 15.6976 38.3218 128.1766 0.0000 0.0000 0.0000
# 4 0.0000 0.0000 0.0000 5.3171 0.0000 0.0000
# 5 0.0000 0.0000 0.0000 0.0000 -19.7305 0.0000
# 6 0.0000 0.0000 0.0000 0.0000 0.0000 28.2294
#
#
#
# Elastic Compliance Matrix: (Units=1/GPa)
#
#
# Indices 1 2 3 4 5 6 
#
# 1 0.015209 -0.002378 -0.001152 0.000000 0.000000 0.000000
# 2 -0.002378 0.013696 -0.003804 0.000000 0.000000 0.000000
# 3 -0.001152 -0.003804 0.009080 0.000000 0.000000 0.000000
# 4 0.000000 0.000000 0.000000 0.188072 0.000000 0.000000
# 5 0.000000 0.000000 0.000000 0.000000 -0.050683 0.000000
# 6 0.000000 0.000000 0.000000 0.000000 0.000000 0.035424
#
#
# Mechanical properties :
#
#
# Convention : Reuss Voigt Hill
#
# Bulk Modulus (GPa) = 42.88408 47.23166 45.05787
# Shear Modulus (GPa) = 21.43739 17.01293 19.22516
#
# Velocity S-wave (km/s) = 3.29791 2.93794 3.12312
# Velocity P-wave (km/s) = 6.02153 5.95580 5.98876
#
# Compressibility (1/GPa) = 0.02331868
#
# Stress axis : x y z
#
# Youngs Moduli (GPa) = 65.75167 73.01271 110.13232
#
# Poissons Ratio (x) = 0.17361 0.12684
# Poissons Ratio (y) = 0.15635 0.41891
# Poissons Ratio (z) = 0.07572 0.27772
#
# Static dielectric constant tensor:
#      x y z
#    x 1.733370 0.000000 0.000000 
#    y 0.000000 1.725770 0.000000 
#    z 0.000000 0.000000 1.724130 
# 
# From -- ./inp_files/23529.got.cif
#   From: 2010.05.17/outbox.ucp.g08.bks.cvg/sg58_12_cif.got.tgz:23529.got - 2010.06.11 16:41:41.
