data_PCOD9446628
_publ_section_title
;
Structure prediction by ZEFSAII (Michael W. Deem and Ramdas Pophale) SiO2 
 PCOD9446628
Probable space group: P M M N
;
_chemical_formula_sum "Si O2"
_cell_formula_units_Z 48
_cell_length_a 8.572100
_cell_length_b 26.346773
_cell_length_c 12.966491
_cell_angle_alpha 90.000000
_cell_angle_beta 90.000000
_cell_angle_gamma 90.000000
_cell_volume 2928.445334
_symmetry_space_group_name_H-M "P M M N"
_symmetry_group_IT_number 59
_space_group.IT_coordinate_system_code '2'
_symmetry_cell_setting 'orthorhombic'
loop_
_space_group_symop_operation_xyz
x,y,z
1/2-x,1/2-y,z
1/2+x,-y,-z
-x,1/2+y,-z
-x,-y,-z
1/2+x,1/2+y,-z
1/2-x,y,z
x,1/2-y,z
loop_
_atom_site_type_symbol
_atom_site_label
_atom_site_fract_x
_atom_site_fract_y
_atom_site_fract_z
Si Si1 0.429368 0.811592 0.995182
Si Si2 0.062941 0.307887 0.223595
Si Si3 0.559430 0.308352 0.778126
Si Si4 0.562208 0.893480 0.617535
Si Si5 0.936304 0.999819 0.382624
Si Si6 0.562434 0.106710 0.615631
O O1 0.250000 0.828453 0.986138
O O2 0.429192 0.750000 0.998682
O O3 0.518003 0.825729 0.891261
O O4 0.492508 0.826404 0.107863
O O5 0.250000 0.305946 0.229855
O O6 0.003501 0.250000 0.238090
O O7 0.008922 0.347086 0.310514
O O8 0.750000 0.307713 0.781806
O O9 0.509452 0.250000 0.760582
O O10 0.513392 0.346738 0.688316
O O11 0.750000 0.895318 0.614925
O O12 0.499540 0.947163 0.660926
O O13 0.501532 0.887203 0.500557
O O14 0.750000 0.999687 0.383212
O O15 0.999600 0.053207 0.660348
O O16 0.000000 0.000000 0.500000
O O17 0.750000 0.104689 0.610836
#
# Coordination Sequence:
#
# PCOD9446628 Si02
#       6
#     8   8   8   8   8   8
#     4   8  14  27  47  67  87 115 152 187 216 255
#     4   9  18  31  46  66  93 122 148 180 225 269
#     4   8  15  28  46  69  95 121 148 181 222 265
#     4  10  19  31  46  65  92 122 151 183 221 266
#     4  10  18  30  47  65  87 115 152 191 223 261
#     4  10  18  29  47  69  93 120 150 183 221 266
#
# _framework density 16.390948999999999
#
# number of rings (size 3 to 8) (size 9 to 14) (size 15 to 20)
#    0.000    2.833    0.000    5.500    0.000    2.000 
#    0.000    1.667    0.000    4.500    0.000    0.000 
#    0.000    0.000    0.000    0.000    0.000    0.000 
#
# Total GULP energy -267231.018312 kJ/mol
# GULP energy per Si atom -5567.312881 kJ/mol
# Density = 1.635364 g / cm^3
# Si number density = 16.390949 Si / 1000 Ang^3
#
#
#
# Elastic Constant Matrix: (Units=GPa)
#
#
# Indices 1 2 3 4 5 6 
#
# 1 46.8971 27.1255 20.3296 0.0000 0.0000 0.0000
# 2 27.1255 121.6383 74.1437 0.0000 0.0000 0.0000
# 3 20.3296 74.1437 98.7006 0.0000 0.0000 0.0000
# 4 0.0000 0.0000 0.0000 -1.1726 0.0000 0.0000
# 5 0.0000 0.0000 0.0000 0.0000 14.1628 0.0000
# 6 0.0000 0.0000 0.0000 0.0000 0.0000 18.0949
#
#
#
# Elastic Compliance Matrix: (Units=1/GPa)
#
#
# Indices 1 2 3 4 5 6 
#
# 1 0.024643 -0.004430 -0.001748 0.000000 0.000000 0.000000
# 2 -0.004430 0.015961 -0.011078 0.000000 0.000000 0.000000
# 3 -0.001748 -0.011078 0.018813 0.000000 0.000000 0.000000
# 4 0.000000 0.000000 0.000000 -0.852832 0.000000 0.000000
# 5 0.000000 0.000000 0.000000 0.000000 0.070608 0.000000
# 6 0.000000 0.000000 0.000000 0.000000 0.000000 0.055264
#
#
# Mechanical properties :
#
#
# Convention : Reuss Voigt Hill
#
# Bulk Modulus (GPa) = 40.15015 56.71486 48.43250
# Shear Modulus (GPa) = -8.00348 15.92616 3.96134
#
# Velocity S-wave (km/s) = -2.21212 3.12050 1.55629
# Velocity P-wave (km/s) = 4.24545 6.90361 5.73078
#
# Compressibility (1/GPa) = 0.02490651
#
# Stress axis : x y z
#
# Youngs Moduli (GPa) = 40.57882 62.65161 53.15417
#
# Poissons Ratio (x) = 0.27755 0.09292
# Poissons Ratio (y) = 0.17976 0.58882
# Poissons Ratio (z) = 0.07093 0.69403
#
# Static dielectric constant tensor:
#      x y z
#    x 1.559660 0.000000 0.000000 
#    y 0.000000 1.576610 0.000000 
#    z 0.000000 0.000000 1.466450 
# 
# From -- ./inp_files/14518.got.cif
#   From: 2010.05.17/outbox.cif.g08.bks.cpg/sg59_8_cif.got.tgz:14518.got - 2010.06.03 14:40:33.
