data_PCOD9446297
_publ_section_title
;
Structure prediction by ZEFSAII (Michael W. Deem and Ramdas Pophale) SiO2 
 PCOD9446297
Probable space group: P M M N
;
_chemical_formula_sum "Si O2"
_cell_formula_units_Z 64
_cell_length_a 7.518572
_cell_length_b 24.609077
_cell_length_c 15.995842
_cell_angle_alpha 90.000000
_cell_angle_beta 90.000000
_cell_angle_gamma 90.000000
_cell_volume 2959.632542
_symmetry_space_group_name_H-M "P M M N"
_symmetry_group_IT_number 59
_space_group.IT_coordinate_system_code '2'
_symmetry_cell_setting 'orthorhombic'
loop_
_space_group_symop_operation_xyz
x,y,z
1/2-x,1/2-y,z
1/2+x,-y,-z
-x,1/2+y,-z
-x,-y,-z
1/2+x,1/2+y,-z
1/2-x,y,z
x,1/2-y,z
loop_
_atom_site_type_symbol
_atom_site_label
_atom_site_fract_x
_atom_site_fract_y
_atom_site_fract_z
Si Si1 0.467198 0.498672 0.352282
Si Si2 0.467831 0.613299 0.089652
Si Si3 0.041910 0.883390 0.399399
Si Si4 0.539984 0.616367 0.582952
Si Si5 0.532166 0.187791 0.754883
Si Si6 0.542421 0.377627 0.094728
Si Si7 0.464364 0.811978 0.745402
Si Si8 0.035138 0.496733 0.157126
O O1 0.250000 0.497081 0.355297
O O2 0.530435 0.555144 0.392281
O O3 0.532808 0.443866 0.396352
O O4 0.517295 0.498085 0.254580
O O5 0.250000 0.612703 0.088458
O O6 0.521466 0.653463 0.163863
O O7 0.523741 0.551845 0.111809
O O8 0.531855 0.630709 0.998057
O O9 0.250000 0.888753 0.379142
O O10 0.969925 0.843466 0.328451
O O11 0.027514 0.863106 0.493867
O O12 0.750000 0.611364 0.573508
O O13 0.506047 0.655107 0.661402
O O14 0.750000 0.188551 0.754384
O O15 0.473260 0.250000 0.757339
O O16 0.750000 0.362515 0.089964
O O17 0.466660 0.344115 0.172961
O O18 0.530346 0.441455 0.115659
O O19 0.250000 0.810653 0.750739
O O20 0.528513 0.750000 0.742561
O O21 0.250000 0.495482 0.154828
#
# Coordination Sequence:
#
# PCOD9446297 Si02
#       8
#     8   8   8   8   8   8   8   8
#     4   9  17  31  53  77 104 138 175 211 256 313
#     4   9  17  30  51  78 108 139 171 209 258 310
#     4  10  19  34  55  79 108 141 174 215 263 314
#     4  11  22  36  55  80 105 135 176 221 266 316
#     4   9  17  30  51  78 104 134 175 215 251 301
#     4  10  20  33  52  81 109 134 170 218 263 305
#     4  10  22  39  55  73 103 142 179 217 264 314
#     4  10  17  31  54  77 106 143 174 207 257 317
#
# _framework density 21.624306000000001
#
# number of rings (size 3 to 8) (size 9 to 14) (size 15 to 20)
#    0.000    2.250    2.500    1.125    0.000    1.250 
#    0.000    5.000    0.000    0.750    0.000    0.000 
#    0.000    0.000    0.000    0.000    0.000    0.000 
#
# Total GULP energy -357563.368254 kJ/mol
# GULP energy per Si atom -5586.927629 kJ/mol
# Density = 2.157509 g / cm^3
# Si number density = 21.624306 Si / 1000 Ang^3
#
#
#
# Elastic Constant Matrix: (Units=GPa)
#
#
# Indices 1 2 3 4 5 6 
#
# 1 51.4151 -6.9119 -11.7749 0.0000 0.0000 0.0000
# 2 -6.9119 152.5339 82.4911 0.0000 0.0000 0.0000
# 3 -11.7749 82.4911 190.9159 0.0000 0.0000 0.0000
# 4 0.0000 0.0000 0.0000 3.1841 0.0000 0.0000
# 5 0.0000 0.0000 0.0000 0.0000 -1.2827 0.0000
# 6 0.0000 0.0000 0.0000 0.0000 0.0000 9.2616
#
#
#
# Elastic Compliance Matrix: (Units=1/GPa)
#
#
# Indices 1 2 3 4 5 6 
#
# 1 0.019739 0.000308 0.001084 0.000000 0.000000 0.000000
# 2 0.000308 0.008560 -0.003680 0.000000 0.000000 0.000000
# 3 0.001084 -0.003680 0.006895 0.000000 0.000000 0.000000
# 4 0.000000 0.000000 0.000000 0.314064 0.000000 0.000000
# 5 0.000000 0.000000 0.000000 0.000000 -0.779579 0.000000
# 6 0.000000 0.000000 0.000000 0.000000 0.000000 0.107972
#
#
# Mechanical properties :
#
#
# Convention : Reuss Voigt Hill
#
# Bulk Modulus (GPa) = 32.65899 58.05261 45.35580
# Shear Modulus (GPa) = -16.25652 24.30329 4.02338
#
# Velocity S-wave (km/s) = -2.74482 3.35608 1.36551
# Velocity P-wave (km/s) = 2.25617 6.47472 4.84831
#
# Compressibility (1/GPa) = 0.03061944
#
# Stress axis : x y z
#
# Youngs Moduli (GPa) = 50.66039 116.82539 145.04029
#
# Poissons Ratio (x) = -0.03599 -0.15727
# Poissons Ratio (y) = -0.01561 0.53368
# Poissons Ratio (z) = -0.05493 0.42986
#
# Static dielectric constant tensor:
#      x y z
#    x 1.828420 0.000000 0.000000 
#    y 0.000000 1.749630 0.000000 
#    z 0.000000 0.000000 1.770220 
# 
# From -- ./inp_files/21550.got.cif
#   From: 2010.05.17/outbox.cif.g08.bks.cpg/sg59_11_cif.got.tgz:21550.got - 2010.06.03 14:40:33.
