data_PCOD9446138
_publ_section_title
;
Structure prediction by ZEFSAII (Michael W. Deem and Ramdas Pophale) SiO2 
 PCOD9446138
Probable space group: P M M N
;
_chemical_formula_sum "Si O2"
_cell_formula_units_Z 64
_cell_length_a 19.306126
_cell_length_b 22.991106
_cell_length_c 9.410171
_cell_angle_alpha 90.000000
_cell_angle_beta 90.000000
_cell_angle_gamma 90.000000
_cell_volume 4176.884973
_symmetry_space_group_name_H-M "P M M N"
_symmetry_group_IT_number 59
_space_group.IT_coordinate_system_code '2'
_symmetry_cell_setting 'orthorhombic'
loop_
_space_group_symop_operation_xyz
x,y,z
1/2-x,1/2-y,z
1/2+x,-y,-z
-x,1/2+y,-z
-x,-y,-z
1/2+x,1/2+y,-z
1/2-x,y,z
x,1/2-y,z
loop_
_atom_site_type_symbol
_atom_site_label
_atom_site_fract_x
_atom_site_fract_y
_atom_site_fract_z
Si Si1 0.167144 0.318724 0.247439
Si Si2 0.458296 0.951896 0.821111
Si Si3 0.669527 0.903226 0.511820
Si Si4 0.329387 0.524444 0.340603
Si Si5 0.040232 0.562956 0.503797
Si Si6 0.331169 0.979953 0.008780
Si Si7 0.907250 0.900150 0.976815
Si Si8 0.941968 0.585084 0.274874
O O1 0.250000 0.329994 0.229647
O O2 0.155930 0.250000 0.243431
O O3 0.147776 0.346371 0.400411
O O4 0.124983 0.352171 0.125904
O O5 0.462867 0.021033 0.785003
O O6 0.457904 0.920495 0.668265
O O7 0.387076 0.947175 0.910136
O O8 0.525238 0.930006 0.905544
O O9 0.750000 0.898780 0.474594
O O10 0.661489 0.955966 0.624525
O O11 0.626379 0.917882 0.371969
O O12 0.250000 0.539172 0.372716
O O13 0.383580 0.554941 0.442536
O O14 0.342288 0.535643 0.174671
O O15 0.000000 0.500000 0.500000
O O16 0.999271 0.602179 0.390978
O O17 0.250000 0.971111 0.973724
O O18 0.351143 0.048293 0.999609
O O19 0.929079 0.878275 0.133388
#
# Coordination Sequence:
#
# PCOD9446138 Si02
#       8
#     8   8   8   8   8   8   8   8
#     4  10  21  36  52  67  86 118 162 208 246 277
#     4  10  19  28  43  65  94 122 153 189 225 282
#     4  10  18  30  45  64  88 119 158 194 232 275
#     4  10  17  26  40  58  85 120 153 183 218 265
#     4  10  16  27  39  58  86 117 147 181 215 262
#     4  10  18  27  41  63  91 122 151 183 221 273
#     4  11  19  31  46  66  90 122 157 194 237 278
#     4  10  19  28  44  66  89 118 148 187 225 282
#
# _framework density 15.322423000000001
#
# number of rings (size 3 to 8) (size 9 to 14) (size 15 to 20)
#    0.000    1.875    3.750    4.875    0.000    3.000 
#    0.000    0.625    0.000    1.500    0.000    0.000 
#    0.000    0.500    0.000    0.250    0.000   17.125 
#
# Total GULP energy -356509.297375 kJ/mol
# GULP energy per Si atom -5570.457771 kJ/mol
# Density = 1.528755 g / cm^3
# Si number density = 15.322423 Si / 1000 Ang^3
#
#
#
# Elastic Constant Matrix: (Units=GPa)
#
#
# Indices 1 2 3 4 5 6 
#
# 1 88.7001 20.4274 57.5126 0.0000 0.0000 0.0000
# 2 20.4274 27.7228 19.2469 0.0000 0.0000 0.0000
# 3 57.5126 19.2469 115.1739 0.0000 0.0000 0.0000
# 4 0.0000 0.0000 0.0000 6.5055 0.0000 0.0000
# 5 0.0000 0.0000 0.0000 0.0000 35.1913 0.0000
# 6 0.0000 0.0000 0.0000 0.0000 0.0000 12.2813
#
#
#
# Elastic Compliance Matrix: (Units=1/GPa)
#
#
# Indices 1 2 3 4 5 6 
#
# 1 0.018114 -0.007995 -0.007709 0.000000 0.000000 0.000000
# 2 -0.007995 0.044334 -0.003417 0.000000 0.000000 0.000000
# 3 -0.007709 -0.003417 0.013103 0.000000 0.000000 0.000000
# 4 0.000000 0.000000 0.000000 0.153715 0.000000 0.000000
# 5 0.000000 0.000000 0.000000 0.000000 0.028416 0.000000
# 6 0.000000 0.000000 0.000000 0.000000 0.000000 0.081425
#
#
# Mechanical properties :
#
#
# Convention : Reuss Voigt Hill
#
# Bulk Modulus (GPa) = 26.80237 47.33006 37.06622
# Shear Modulus (GPa) = 12.82759 19.75629 16.29194
#
# Velocity S-wave (km/s) = 2.89654 3.59468 3.26433
# Velocity P-wave (km/s) = 5.35881 6.94157 6.20090
#
# Compressibility (1/GPa) = 0.03731013
#
# Stress axis : x y z
#
# Youngs Moduli (GPa) = 55.20694 22.55586 76.31818
#
# Poissons Ratio (x) = 0.18033 0.58834
# Poissons Ratio (y) = 0.44137 0.26075
# Poissons Ratio (z) = 0.42560 0.07706
#
# Static dielectric constant tensor:
#      x y z
#    x 1.542700 0.000000 0.000000 
#    y 0.000000 1.483290 0.000000 
#    z 0.000000 0.000000 1.562970 
# 
# From -- ./inp_files/10809.got.cif
#   From: 2010.05.17/outbox.cif.g08.bks.cpg/sg59_6_cif.got.tgz:10809.got - 2010.06.03 14:40:33.
