data_PCOD9446921
_publ_section_title
;
Structure prediction by ZEFSAII (Michael W. Deem and Ramdas Pophale) SiO2 
 PCOD9446921
Probable space group: P M M N
;
_chemical_formula_sum "Si O2"
_cell_formula_units_Z 64
_cell_length_a 20.229961
_cell_length_b 7.532033
_cell_length_c 20.023654
_cell_angle_alpha 90.000000
_cell_angle_beta 90.000000
_cell_angle_gamma 90.000000
_cell_volume 3051.058901
_symmetry_space_group_name_H-M "P M M N"
_symmetry_group_IT_number 59
_space_group.IT_coordinate_system_code '2'
_symmetry_cell_setting 'orthorhombic'
loop_
_space_group_symop_operation_xyz
x,y,z
1/2-x,1/2-y,z
1/2+x,-y,-z
-x,1/2+y,-z
-x,-y,-z
1/2+x,1/2+y,-z
1/2-x,y,z
x,1/2-y,z
loop_
_atom_site_type_symbol
_atom_site_label
_atom_site_fract_x
_atom_site_fract_y
_atom_site_fract_z
Si Si1 0.594638 0.454430 0.066009
Si Si2 0.443599 0.958535 0.074826
Si Si3 0.055590 0.533029 0.710819
Si Si4 0.422830 0.464302 0.219245
Si Si5 0.324314 0.961321 0.482827
Si Si6 0.551520 0.463404 0.440506
Si Si7 0.173487 0.967433 0.804367
Si Si8 0.825126 0.536143 0.666539
O O1 0.616381 0.250000 0.060210
O O2 0.516495 0.458560 0.083646
O O3 0.638404 0.528867 0.126472
O O4 0.593607 0.531219 0.990757
O O5 0.455299 0.750000 0.062696
O O6 0.406618 0.980722 0.144314
O O7 0.055392 0.750000 0.710416
O O8 0.040241 0.473514 0.635165
O O9 0.125436 0.478740 0.743245
O O10 0.995826 0.475907 0.758769
O O11 0.422831 0.250000 0.220765
O O12 0.371557 0.528829 0.274643
O O13 0.250000 0.034749 0.487572
O O14 0.320018 0.750000 0.492995
O O15 0.377551 0.032028 0.534332
O O16 0.349445 0.990176 0.407467
O O17 0.500000 0.500000 0.500000
O O18 0.554209 0.250000 0.436048
O O19 0.250000 0.022657 0.799187
O O20 0.172975 0.750000 0.804800
O O21 0.750000 0.470189 0.672242
O O22 0.823642 0.750000 0.670175
#
# Coordination Sequence:
#
# PCOD9446921 Si02
#       8
#     8   8   8   8   8   8   8   8
#     4   9  17  32  50  71  99 127 161 201 242 288
#     4  10  19  29  48  75  99 126 162 200 240 290
#     4   9  17  29  47  71  96 125 163 201 242 287
#     4  10  18  31  50  70  98 130 160 203 246 285
#     4   9  18  32  49  70  98 130 161 201 254 303
#     4  10  20  33  50  73 101 130 163 206 252 300
#     4   9  16  28  50  76  99 126 164 207 244 282
#     4   9  18  32  51  73  95 126 168 206 243 295
#
# _framework density 20.976324000000002
#
# number of rings (size 3 to 8) (size 9 to 14) (size 15 to 20)
#    0.000    2.625    1.250    1.125    0.000    3.000 
#    0.000    3.750    0.000    1.125    0.000    0.000 
#    0.000    0.000    0.000    0.000    0.000    0.000 
#
# Total GULP energy -356979.489686 kJ/mol
# GULP energy per Si atom -5577.804526 kJ/mol
# Density = 2.092858 g / cm^3
# Si number density = 20.976324 Si / 1000 Ang^3
#
#
#
# Elastic Constant Matrix: (Units=GPa)
#
#
# Indices 1 2 3 4 5 6 
#
# 1 62.1398 4.0690 46.8889 0.0000 0.0000 0.0000
# 2 4.0690 53.0203 1.4985 0.0000 0.0000 0.0000
# 3 46.8889 1.4985 148.9391 0.0000 0.0000 0.0000
# 4 0.0000 0.0000 0.0000 7.7138 0.0000 0.0000
# 5 0.0000 0.0000 0.0000 0.0000 31.6584 0.0000
# 6 0.0000 0.0000 0.0000 0.0000 0.0000 7.0903
#
#
#
# Elastic Compliance Matrix: (Units=1/GPa)
#
#
# Indices 1 2 3 4 5 6 
#
# 1 0.021216 -0.001440 -0.006665 0.000000 0.000000 0.000000
# 2 -0.001440 0.018964 0.000262 0.000000 0.000000 0.000000
# 3 -0.006665 0.000262 0.008810 0.000000 0.000000 0.000000
# 4 0.000000 0.000000 0.000000 0.129637 0.000000 0.000000
# 5 0.000000 0.000000 0.000000 0.000000 0.031587 0.000000
# 6 0.000000 0.000000 0.000000 0.000000 0.000000 0.141037
#
#
# Mechanical properties :
#
#
# Convention : Reuss Voigt Hill
#
# Bulk Modulus (GPa) = 30.02520 41.00132 35.51326
# Shear Modulus (GPa) = 13.22622 23.40204 18.31413
#
# Velocity S-wave (km/s) = 2.51376 3.34374 2.95801
# Velocity P-wave (km/s) = 4.77182 5.87336 5.35101
#
# Compressibility (1/GPa) = 0.03330536
#
# Stress axis : x y z
#
# Youngs Moduli (GPa) = 47.13419 52.73216 113.51130
#
# Poissons Ratio (x) = 0.07593 0.75652
# Poissons Ratio (y) = 0.06786 -0.02979
# Poissons Ratio (z) = 0.31414 -0.01384
#
# Static dielectric constant tensor:
#      x y z
#    x 1.741230 0.000000 0.000000 
#    y 0.000000 1.818730 0.000000 
#    z 0.000000 0.000000 1.758250 
# 
# From -- ./inp_files/28317.got.cif
#   From: 2010.05.17/outbox.cif.g08.bks.cpg/sg59_15_cif.got.tgz:28317.got - 2010.06.03 14:40:33.
