data_PCOD9446381
_publ_section_title
;
Structure prediction by ZEFSAII (Michael W. Deem and Ramdas Pophale) SiO2 
 PCOD9446381
Probable space group: P M M N
;
_chemical_formula_sum "Si O2"
_cell_formula_units_Z 56
_cell_length_a 7.734126
_cell_length_b 27.404679
_cell_length_c 15.128192
_cell_angle_alpha 90.000000
_cell_angle_beta 90.000000
_cell_angle_gamma 90.000000
_cell_volume 3206.439059
_symmetry_space_group_name_H-M "P M M N"
_symmetry_group_IT_number 59
_space_group.IT_coordinate_system_code '2'
_symmetry_cell_setting 'orthorhombic'
loop_
_space_group_symop_operation_xyz
x,y,z
1/2-x,1/2-y,z
1/2+x,-y,-z
-x,1/2+y,-z
-x,-y,-z
1/2+x,1/2+y,-z
1/2-x,y,z
x,1/2-y,z
loop_
_atom_site_type_symbol
_atom_site_label
_atom_site_fract_x
_atom_site_fract_y
_atom_site_fract_z
Si Si1 0.040741 0.540986 0.375754
Si Si2 0.457953 0.305201 0.623608
Si Si3 0.951874 0.952700 0.879097
Si Si4 0.546526 0.559653 0.074182
Si Si5 0.962778 0.566044 0.685930
Si Si6 0.953564 0.883232 0.518248
Si Si7 0.955678 0.379799 0.768078
O O1 0.250000 0.541825 0.378989
O O2 0.985107 0.486534 0.353480
O O3 0.981689 0.577131 0.297416
O O4 0.973710 0.566030 0.464700
O O5 0.250000 0.304014 0.615332
O O6 0.523092 0.250000 0.617283
O O7 0.526754 0.341143 0.546029
O O8 0.496140 0.330316 0.717806
O O9 0.750000 0.939227 0.879258
O O10 0.024330 0.932277 0.787227
O O11 0.024336 0.936308 0.974238
O O12 0.964176 0.011770 0.880428
O O13 0.750000 0.548687 0.067775
O O14 0.522506 0.606713 0.135205
O O15 0.750000 0.566325 0.687045
O O16 0.021908 0.607164 0.616716
O O17 0.750000 0.873075 0.527042
O O18 0.750000 0.382493 0.772040
#
# Coordination Sequence:
#
# PCOD9446381 Si02
#       7
#     8   8   8   8   8   8   8
#     4   9  16  26  39  56  83 115 141 174 214 248
#     4   9  18  32  47  66  91 111 135 179 226 264
#     4   9  17  29  42  58  86 121 152 182 215 253
#     4  10  18  27  42  63  86 116 152 185 219 257
#     4   9  15  26  41  58  83 116 149 177 208 251
#     4   9  17  27  42  61  81 110 145 175 212 259
#     4  10  18  29  46  64  87 116 147 181 217 265
#
# _framework density 17.464856999999999
#
# number of rings (size 3 to 8) (size 9 to 14) (size 15 to 20)
#    0.000    2.714    1.429    1.286    0.000    1.429 
#    0.000    0.714    0.000    0.000    0.000    1.000 
#    0.000    5.714    0.000    0.143    0.000    0.429 
#
# Total GULP energy -312014.694564 kJ/mol
# GULP energy per Si atom -5571.690974 kJ/mol
# Density = 1.742511 g / cm^3
# Si number density = 17.464857 Si / 1000 Ang^3
#
#
#
# Elastic Constant Matrix: (Units=GPa)
#
#
# Indices 1 2 3 4 5 6 
#
# 1 26.0593 0.8391 -0.3727 0.0000 0.0000 0.0000
# 2 0.8391 70.5341 53.5004 0.0000 0.0000 0.0000
# 3 -0.3727 53.5004 152.9068 0.0000 0.0000 0.0000
# 4 0.0000 0.0000 0.0000 13.8841 0.0000 0.0000
# 5 0.0000 0.0000 0.0000 0.0000 7.6732 0.0000
# 6 0.0000 0.0000 0.0000 0.0000 0.0000 12.0821
#
#
#
# Elastic Compliance Matrix: (Units=1/GPa)
#
#
# Indices 1 2 3 4 5 6 
#
# 1 0.038402 -0.000718 0.000345 0.000000 0.000000 0.000000
# 2 -0.000718 0.019313 -0.006759 0.000000 0.000000 0.000000
# 3 0.000345 -0.006759 0.008906 0.000000 0.000000 0.000000
# 4 0.000000 0.000000 0.000000 0.072025 0.000000 0.000000
# 5 0.000000 0.000000 0.000000 0.000000 0.130324 0.000000
# 6 0.000000 0.000000 0.000000 0.000000 0.000000 0.082767
#
#
# Mechanical properties :
#
#
# Convention : Reuss Voigt Hill
#
# Bulk Modulus (GPa) = 19.10022 39.71487 29.40754
# Shear Modulus (GPa) = 13.03938 19.76343 16.40140
#
# Velocity S-wave (km/s) = 2.73537 3.36759 3.06781
# Velocity P-wave (km/s) = 4.57564 6.15712 5.42433
#
# Compressibility (1/GPa) = 0.05235541
#
# Stress axis : x y z
#
# Youngs Moduli (GPa) = 26.04027 51.77880 112.28740
#
# Poissons Ratio (x) = 0.03720 -0.03874
# Poissons Ratio (y) = 0.01871 0.75897
# Poissons Ratio (z) = -0.00898 0.34998
#
# Static dielectric constant tensor:
#      x y z
#    x 1.638560 0.000000 0.000000 
#    y 0.000000 1.572870 0.000000 
#    z 0.000000 0.000000 1.655580 
# 
# From -- ./inp_files/21711.got.cif
#   From: 2010.05.17/outbox.cif.g08.bks.cpg/sg59_11_cif.got.tgz:21711.got - 2010.06.03 14:40:33.
