data_PCOD9446382
_publ_section_title
;
Structure prediction by ZEFSAII (Michael W. Deem and Ramdas Pophale) SiO2 
 PCOD9446382
Probable space group: P M M N
;
_chemical_formula_sum "Si O2"
_cell_formula_units_Z 64
_cell_length_a 7.765681
_cell_length_b 30.637974
_cell_length_c 14.677195
_cell_angle_alpha 90.000000
_cell_angle_beta 90.000000
_cell_angle_gamma 90.000000
_cell_volume 3492.067695
_symmetry_space_group_name_H-M "P M M N"
_symmetry_group_IT_number 59
_space_group.IT_coordinate_system_code '2'
_symmetry_cell_setting 'orthorhombic'
loop_
_space_group_symop_operation_xyz
x,y,z
1/2-x,1/2-y,z
1/2+x,-y,-z
-x,1/2+y,-z
-x,-y,-z
1/2+x,1/2+y,-z
1/2-x,y,z
x,1/2-y,z
loop_
_atom_site_type_symbol
_atom_site_label
_atom_site_fract_x
_atom_site_fract_y
_atom_site_fract_z
Si Si1 0.046834 0.442480 0.031992
Si Si2 0.048299 0.000511 0.191510
Si Si3 0.041571 0.860884 0.838947
Si Si4 0.044685 0.581742 0.683653
Si Si5 0.545528 0.949073 0.487437
Si Si6 0.041707 0.120508 0.880210
Si Si7 0.052598 0.083543 0.702760
Si Si8 0.957544 0.201241 0.008808
O O1 0.250000 0.450214 0.021060
O O2 0.978185 0.482809 0.093020
O O3 0.023114 0.401295 0.100186
O O4 0.974482 0.421097 0.939514
O O5 0.250000 0.989476 0.182819
O O6 0.035614 0.041297 0.261079
O O7 0.949549 0.961506 0.239925
O O8 0.250000 0.860772 0.842175
O O9 0.991160 0.873973 0.736364
O O10 0.982932 0.818096 0.893286
O O11 0.250000 0.577106 0.693569
O O12 0.002364 0.577065 0.578105
O O13 0.750000 0.948563 0.477649
O O14 0.471175 0.928045 0.394631
O O15 0.500000 0.000000 0.500000
O O16 0.250000 0.116494 0.878617
O O17 0.976237 0.117066 0.776688
O O18 0.001713 0.164978 0.933164
O O19 0.250000 0.097266 0.686287
O O20 0.750000 0.203260 0.011351
O O21 0.023249 0.250000 0.991389
#
# Coordination Sequence:
#
# PCOD9446382 Si02
#       8
#     8   8   8   8   8   8   8   8
#     4   8  15  27  42  61  86 116 151 188 224 264
#     4  10  18  27  42  63  86 117 156 194 232 271
#     4   8  15  27  44  67  93 120 147 178 222 276
#     4  10  18  29  45  64  89 120 156 196 235 273
#     4  11  21  32  46  64  87 120 163 205 242 273
#     4   9  18  33  48  64  91 123 154 188 226 273
#     4  10  21  33  44  60  87 122 159 198 235 270
#     4   9  17  31  52  77 101 121 143 177 224 279
#
# _framework density 18.327251
#
# number of rings (size 3 to 8) (size 9 to 14) (size 15 to 20)
#    0.000    2.625    1.250    1.125    0.000    2.750 
#    0.000    0.000    0.000    0.000    0.000    0.875 
#    0.000    3.000    0.000    0.000    0.000    0.000 
#
# Total GULP energy -356584.818539 kJ/mol
# GULP energy per Si atom -5571.637790 kJ/mol
# Density = 1.828554 g / cm^3
# Si number density = 18.327251 Si / 1000 Ang^3
#
#
#
# Elastic Constant Matrix: (Units=GPa)
#
#
# Indices 1 2 3 4 5 6 
#
# 1 28.4952 3.6180 2.3764 0.0000 0.0000 0.0000
# 2 3.6180 91.5428 51.6358 0.0000 0.0000 0.0000
# 3 2.3764 51.6358 168.4016 0.0000 0.0000 0.0000
# 4 0.0000 0.0000 0.0000 13.1655 0.0000 0.0000
# 5 0.0000 0.0000 0.0000 0.0000 15.6686 0.0000
# 6 0.0000 0.0000 0.0000 0.0000 0.0000 13.2099
#
#
#
# Elastic Compliance Matrix: (Units=1/GPa)
#
#
# Indices 1 2 3 4 5 6 
#
# 1 0.035272 -0.001346 -0.000085 0.000000 0.000000 0.000000
# 2 -0.001346 0.013260 -0.004047 0.000000 0.000000 0.000000
# 3 -0.000085 -0.004047 0.007180 0.000000 0.000000 0.000000
# 4 0.000000 0.000000 0.000000 0.075956 0.000000 0.000000
# 5 0.000000 0.000000 0.000000 0.000000 0.063822 0.000000
# 6 0.000000 0.000000 0.000000 0.000000 0.000000 0.075701
#
#
# Mechanical properties :
#
#
# Convention : Reuss Voigt Hill
#
# Bulk Modulus (GPa) = 22.34341 44.85555 33.59948
# Shear Modulus (GPa) = 16.83138 23.79610 20.31374
#
# Velocity S-wave (km/s) = 3.03377 3.60724 3.33286
# Velocity P-wave (km/s) = 4.94868 6.47128 5.76051
#
# Compressibility (1/GPa) = 0.04475592
#
# Stress axis : x y z
#
# Youngs Moduli (GPa) = 28.35137 75.41672 139.27178
#
# Poissons Ratio (x) = 0.10152 0.01184
# Poissons Ratio (y) = 0.03816 0.56359
# Poissons Ratio (z) = 0.00241 0.30519
#
# Static dielectric constant tensor:
#      x y z
#    x 1.672440 0.000000 0.000000 
#    y 0.000000 1.647200 0.000000 
#    z 0.000000 0.000000 1.700630 
# 
# From -- ./inp_files/21927.got.cif
#   From: 2010.05.17/outbox.cif.g08.bks.cpg/sg59_11_cif.got.tgz:21927.got - 2010.06.03 14:40:33.
