data_PCOD9446012
_publ_section_title
;
Structure prediction by ZEFSAII (Michael W. Deem and Ramdas Pophale) SiO2 
 PCOD9446012
Probable space group: P N N M
;
_chemical_formula_sum "Si O2"
_cell_formula_units_Z 48
_cell_length_a 9.000000
_cell_length_b 30.000000
_cell_length_c 9.000000
_cell_angle_alpha 90.000000
_cell_angle_beta 90.000000
_cell_angle_gamma 90.000000
_cell_volume 2430.000000
_symmetry_space_group_name_H-M "P N N M"
_symmetry_group_IT_number 58
_symmetry_cell_setting 'orthorhombic'
loop_
_space_group_symop_operation_xyz
x,y,z
-x,-y,z
1/2+x,1/2-y,1/2-z
1/2-x,1/2+y,1/2-z
-x,-y,-z
x,y,-z
1/2-x,1/2+y,1/2+z
1/2+x,1/2-y,1/2+z
loop_
_atom_site_type_symbol
_atom_site_label
_atom_site_fract_x
_atom_site_fract_y
_atom_site_fract_z
Si Si1 0.209355 0.306764 0.822365
Si Si2 0.893526 0.442527 0.176978
Si Si3 0.798500 0.529727 0.322431
Si Si4 0.377019 0.384881 0.676749
Si Si5 0.879109 0.272912 0.178762
Si Si6 0.686613 0.358482 0.176722
O O1 0.252538 0.353693 0.751024
O O2 0.329373 0.271434 0.762188
O O3 0.044199 0.289810 0.781993
O O4 0.216462 0.310034 0.000000
O O5 0.791953 0.482973 0.236992
O O6 0.810748 0.396212 0.204066
O O7 0.048484 0.447896 0.263818
O O8 0.919309 0.447135 0.000000
O O9 0.808109 0.522592 0.500000
O O10 0.665433 0.563899 0.291242
O O11 0.372959 0.378693 0.500000
O O12 0.536389 0.370379 0.738654
O O13 0.759532 0.311241 0.216454
O O14 0.875900 0.265922 0.000000
O O15 0.655303 0.358138 0.000000
#
# Coordination Sequence:
#
# PCOD9446012 Si02
#       6
#     8   8   8   8   8   8
#     4  11  23  39  61  86 114 148 186 232 281 331
#     4  10  20  36  60  87 113 146 190 236 282 335
#     4  10  21  37  57  83 115 151 190 233 283 337
#     4  11  24  39  57  83 115 151 191 233 279 335
#     4  10  22  40  60  85 116 148 186 230 279 336
#     4  10  22  39  59  84 115 150 189 234 282 334
#
# _framework density 19.753086
#
# number of rings (size 3 to 8) (size 9 to 14) (size 15 to 20)
#    0.000    1.667    0.000    5.000    0.000   10.667 
#    0.000    3.333    0.000    0.000    0.000    0.000 
#    0.000    0.000    0.000    0.000    0.000    0.000 
#
# Total GULP energy -268372.363370 kJ/mol
# GULP energy per Si atom -5591.090904 kJ/mol
# Density = 1.970813 g / cm^3
# Si number density = 19.753086 Si / 1000 Ang^3
#
#
#
# Elastic Constant Matrix: (Units=GPa)
#
#
# Indices 1 2 3 4 5 6 
#
# 1 19.6716 -28.5436 -5.4428 0.0000 0.0000 0.0000
# 2 -28.5436 51.8723 3.5128 0.0000 0.0000 0.0000
# 3 -5.4428 3.5128 30.5713 0.0000 0.0000 0.0000
# 4 0.0000 0.0000 0.0000 25.9989 0.0000 0.0000
# 5 0.0000 0.0000 0.0000 0.0000 15.3454 0.0000
# 6 0.0000 0.0000 0.0000 0.0000 0.0000 30.5737
#
#
#
# Elastic Compliance Matrix: (Units=1/GPa)
#
#
# Indices 1 2 3 4 5 6 
#
# 1 0.280988 0.152417 0.032512 0.000000 0.000000 0.000000
# 2 0.152417 0.102105 0.015403 0.000000 0.000000 0.000000
# 3 0.032512 0.015403 0.036729 0.000000 0.000000 0.000000
# 4 0.000000 0.000000 0.000000 0.038463 0.000000 0.000000
# 5 0.000000 0.000000 0.000000 0.000000 0.065166 0.000000
# 6 0.000000 0.000000 0.000000 0.000000 0.000000 0.032708
#
#
# Mechanical properties :
#
#
# Convention : Reuss Voigt Hill
#
# Bulk Modulus (GPa) = 1.21879 4.57424 2.89651
# Shear Modulus (GPa) = 11.65528 23.22286 17.43907
#
# Velocity S-wave (km/s) = 2.43173 3.43251 2.97451
# Velocity P-wave (km/s) = 2.91595 4.24620 3.64232
#
# Compressibility (1/GPa) = 0.82048501
#
# Stress axis : x y z
#
# Youngs Moduli (GPa) = 3.55887 9.79386 27.22661
#
# Poissons Ratio (x) = -1.49275 -0.88520
# Poissons Ratio (y) = -0.54243 -0.41937
# Poissons Ratio (z) = -0.11571 -0.15086
#
# Static dielectric constant tensor:
#      x y z
#    x 1.673450 0.000000 0.000000 
#    y 0.000000 1.694840 0.000000 
#    z 0.000000 0.000000 1.654650 
# 
# From -- ./inp_files/2985.got.cif
#   From: 2010.05.17/outbox.ucp.g08.bks.cvg/sg58_2_cif.got.tgz:2985.got - 2010.06.11 16:41:41.
