data_PCOD9446273
_publ_section_title
;
Structure prediction by ZEFSAII (Michael W. Deem and Ramdas Pophale) SiO2 
 PCOD9446273
Probable space group: P M M N
;
_chemical_formula_sum "Si O2"
_cell_formula_units_Z 64
_cell_length_a 18.995144
_cell_length_b 20.281322
_cell_length_c 9.396744
_cell_angle_alpha 90.000000
_cell_angle_beta 90.000000
_cell_angle_gamma 90.000000
_cell_volume 3620.063977
_symmetry_space_group_name_H-M "P M M N"
_symmetry_group_IT_number 59
_space_group.IT_coordinate_system_code '2'
_symmetry_cell_setting 'orthorhombic'
loop_
_space_group_symop_operation_xyz
x,y,z
1/2-x,1/2-y,z
1/2+x,-y,-z
-x,1/2+y,-z
-x,-y,-z
1/2+x,1/2+y,-z
1/2-x,y,z
x,1/2-y,z
loop_
_atom_site_type_symbol
_atom_site_label
_atom_site_fract_x
_atom_site_fract_y
_atom_site_fract_z
Si Si1 0.944234 0.174866 0.141321
Si Si2 0.088380 0.975115 0.370963
Si Si3 0.494516 0.897952 0.602448
Si Si4 0.080637 0.929555 0.075117
Si Si5 0.886264 0.824631 0.914153
Si Si6 0.365348 0.174121 0.409564
Si Si7 0.587710 0.942049 0.113487
Si Si8 0.828043 0.553574 0.401859
O O1 0.921534 0.250000 0.162165
O O2 0.940344 0.129517 0.281731
O O3 0.028888 0.175957 0.111472
O O4 0.907693 0.137771 0.010332
O O5 0.041276 0.924501 0.460759
O O6 0.115605 0.942919 0.226857
O O7 0.146620 0.002034 0.479090
O O8 0.039704 0.039776 0.336624
O O9 0.551371 0.841149 0.571620
O O10 0.996561 0.931292 0.109528
O O11 0.098672 0.990258 0.971918
O O12 0.866133 0.750000 0.957499
O O13 0.852430 0.838701 0.759070
O O14 0.875429 0.881704 0.028968
O O15 0.349054 0.250000 0.437764
O O16 0.329477 0.123309 0.515555
O O17 0.617223 0.946202 0.272355
O O18 0.750000 0.539449 0.348781
#
# Coordination Sequence:
#
# PCOD9446273 Si02
#       8
#     8   8   8   8   8   8   8   8
#     4   9  16  26  42  70 106 130 146 181 243 315
#     4  10  18  30  48  70  94 123 165 210 253 298
#     4   9  15  27  49  73  97 125 157 203 258 302
#     4  10  17  29  51  73  95 122 157 206 266 314
#     4   8  15  28  46  68  94 127 163 199 243 290
#     4   9  17  31  50  71  99 135 172 207 244 289
#     4  10  18  30  49  72  96 126 163 209 262 309
#     4  11  23  35  46  65  98 138 178 214 246 295
#
# _framework density 17.679245000000002
#
# number of rings (size 3 to 8) (size 9 to 14) (size 15 to 20)
#    0.000    2.500    0.000    7.875    0.000    0.750 
#    0.000    6.250    0.000    0.750    0.000    0.000 
#    0.000   22.000    0.000    0.000    0.000    0.000 
#
# Total GULP energy -356750.741385 kJ/mol
# GULP energy per Si atom -5574.230334 kJ/mol
# Density = 1.763901 g / cm^3
# Si number density = 17.679245 Si / 1000 Ang^3
#
#
#
# Elastic Constant Matrix: (Units=GPa)
#
#
# Indices 1 2 3 4 5 6 
#
# 1 21.5897 11.5035 15.5375 0.0000 0.0000 0.0000
# 2 11.5035 76.7303 52.3688 0.0000 0.0000 0.0000
# 3 15.5375 52.3688 97.2248 0.0000 0.0000 0.0000
# 4 0.0000 0.0000 0.0000 28.4877 0.0000 0.0000
# 5 0.0000 0.0000 0.0000 0.0000 0.8102 0.0000
# 6 0.0000 0.0000 0.0000 0.0000 0.0000 0.5026
#
#
#
# Elastic Compliance Matrix: (Units=1/GPa)
#
#
# Indices 1 2 3 4 5 6 
#
# 1 0.052898 -0.003417 -0.006613 0.000000 0.000000 0.000000
# 2 -0.003417 0.020830 -0.010674 0.000000 0.000000 0.000000
# 3 -0.006613 -0.010674 0.017091 0.000000 0.000000 0.000000
# 4 0.000000 0.000000 0.000000 0.035103 0.000000 0.000000
# 5 0.000000 0.000000 0.000000 0.000000 1.234240 0.000000
# 6 0.000000 0.000000 0.000000 0.000000 0.000000 1.989702
#
#
# Mechanical properties :
#
#
# Convention : Reuss Voigt Hill
#
# Bulk Modulus (GPa) = 20.23799 39.37381 29.80590
# Shear Modulus (GPa) = 1.46725 13.70244 7.58484
#
# Velocity S-wave (km/s) = 0.91199 2.78701 2.07354
# Velocity P-wave (km/s) = 3.54699 5.71630 4.75695
#
# Compressibility (1/GPa) = 0.04941202
#
# Stress axis : x y z
#
# Youngs Moduli (GPa) = 18.90417 48.00843 58.50879
#
# Poissons Ratio (x) = 0.16405 0.38693
# Poissons Ratio (y) = 0.06460 0.62450
# Poissons Ratio (z) = 0.12502 0.51242
#
# Static dielectric constant tensor:
#      x y z
#    x 1.637100 0.000000 0.000000 
#    y 0.000000 1.615390 0.000000 
#    z 0.000000 0.000000 1.626610 
# 
# From -- ./inp_files/11723.got.cif
#   From: 2010.05.17/outbox.cif.g08.bks.cpg/sg59_6_cif.got.tgz:11723.got - 2010.06.03 14:40:33.
