data_PCOD9446827
_publ_section_title
;
Structure prediction by ZEFSAII (Michael W. Deem and Ramdas Pophale) SiO2 
 PCOD9446827
Probable space group: P M M N
;
_chemical_formula_sum "Si O2"
_cell_formula_units_Z 48
_cell_length_a 19.003774
_cell_length_b 7.323239
_cell_length_c 15.436000
_cell_angle_alpha 90.000000
_cell_angle_beta 90.000000
_cell_angle_gamma 90.000000
_cell_volume 2148.215446
_symmetry_space_group_name_H-M "P M M N"
_symmetry_group_IT_number 59
_space_group.IT_coordinate_system_code '2'
_symmetry_cell_setting 'orthorhombic'
loop_
_space_group_symop_operation_xyz
x,y,z
1/2-x,1/2-y,z
1/2+x,-y,-z
-x,1/2+y,-z
-x,-y,-z
1/2+x,1/2+y,-z
1/2-x,y,z
x,1/2-y,z
loop_
_atom_site_type_symbol
_atom_site_label
_atom_site_fract_x
_atom_site_fract_y
_atom_site_fract_z
Si Si1 0.952791 0.527126 0.622561
Si Si2 0.327500 0.027028 0.723686
Si Si3 0.414907 0.039903 0.187026
Si Si4 0.170088 0.473417 0.028477
Si Si5 0.391621 0.459552 0.552515
Si Si6 0.568241 0.970751 0.126254
O O1 0.955399 0.750000 0.621848
O O2 0.929817 0.462877 0.717486
O O3 0.030990 0.464211 0.596836
O O4 0.902614 0.465137 0.543744
O O5 0.250000 0.974926 0.754528
O O6 0.329849 0.250000 0.722461
O O7 0.341591 0.961324 0.626180
O O8 0.388388 0.969268 0.788924
O O9 0.395112 0.250000 0.202485
O O10 0.356335 0.963397 0.122626
O O11 0.488565 0.035455 0.134808
O O12 0.250000 0.528432 0.009046
O O13 0.169190 0.250000 0.028126
O O14 0.113381 0.530296 0.956497
O O15 0.369592 0.250000 0.540427
O O16 0.565781 0.750000 0.125569
#
# Coordination Sequence:
#
# PCOD9446827 Si02
#       6
#     8   8   8   8   8   8
#     4   9  17  28  44  66  92 119 149 186 229 273
#     4   9  16  26  43  68  94 117 149 196 238 269
#     4  10  19  31  48  71  97 123 153 193 236 279
#     4   9  18  32  49  69  94 125 158 191 231 279
#     4   9  16  28  45  65  89 119 154 188 225 269
#     4  10  18  30  50  72  91 119 160 197 230 274
#
# _framework density 22.344128000000001
#
# number of rings (size 3 to 8) (size 9 to 14) (size 15 to 20)
#    0.000    2.667    1.667    1.000    0.000    2.000 
#    0.000    0.833    0.000   10.000    0.000    0.000 
#    0.000    4.000    0.000    0.000    0.000    0.000 
#
# Total GULP energy -267964.855237 kJ/mol
# GULP energy per Si atom -5582.601151 kJ/mol
# Density = 2.229327 g / cm^3
# Si number density = 22.344128 Si / 1000 Ang^3
#
#
#
# Elastic Constant Matrix: (Units=GPa)
#
#
# Indices 1 2 3 4 5 6 
#
# 1 31.3136 -9.3332 14.4948 0.0000 0.0000 0.0000
# 2 -9.3332 90.7269 -3.2090 0.0000 0.0000 0.0000
# 3 14.4948 -3.2090 137.2004 0.0000 0.0000 0.0000
# 4 0.0000 0.0000 0.0000 -0.9433 0.0000 0.0000
# 5 0.0000 0.0000 0.0000 0.0000 21.9485 0.0000
# 6 0.0000 0.0000 0.0000 0.0000 0.0000 8.8284
#
#
#
# Elastic Compliance Matrix: (Units=1/GPa)
#
#
# Indices 1 2 3 4 5 6 
#
# 1 0.034614 0.003434 -0.003577 0.000000 0.000000 0.000000
# 2 0.003434 0.011372 -0.000097 0.000000 0.000000 0.000000
# 3 -0.003577 -0.000097 0.007664 0.000000 0.000000 0.000000
# 4 0.000000 0.000000 0.000000 -1.060149 0.000000 0.000000
# 5 0.000000 0.000000 0.000000 0.000000 0.045561 0.000000
# 6 0.000000 0.000000 0.000000 0.000000 0.000000 0.113271
#
#
# Mechanical properties :
#
#
# Convention : Reuss Voigt Hill
#
# Bulk Modulus (GPa) = 18.80687 29.23847 24.02267
# Shear Modulus (GPa) = -6.02799 23.11928 8.54564
#
# Velocity S-wave (km/s) = -1.64428 3.22015 1.95777
# Velocity P-wave (km/s) = 2.19780 5.19035 3.98560
#
# Compressibility (1/GPa) = 0.05317205
#
# Stress axis : x y z
#
# Youngs Moduli (GPa) = 28.88994 87.93568 130.47682
#
# Poissons Ratio (x) = -0.30200 0.46666
# Poissons Ratio (y) = -0.09922 0.01264
# Poissons Ratio (z) = 0.10333 0.00852
#
# Static dielectric constant tensor:
#      x y z
#    x 1.761700 0.000000 0.000000 
#    y 0.000000 1.820680 0.000000 
#    z 0.000000 0.000000 1.843220 
# 
# From -- ./inp_files/20745.got.cif
#   From: 2010.05.17/outbox.cif.g08.bks.cpg/sg59_11_cif.got.tgz:20745.got - 2010.06.03 14:40:33.
