data_PCOD9446413
_publ_section_title
;
Structure prediction by ZEFSAII (Michael W. Deem and Ramdas Pophale) SiO2 
 PCOD9446413
Probable space group: P M M N
;
_chemical_formula_sum "Si O2"
_cell_formula_units_Z 56
_cell_length_a 14.384245
_cell_length_b 27.107458
_cell_length_c 9.272656
_cell_angle_alpha 90.000000
_cell_angle_beta 90.000000
_cell_angle_gamma 90.000000
_cell_volume 3615.596969
_symmetry_space_group_name_H-M "P M M N"
_symmetry_group_IT_number 59
_space_group.IT_coordinate_system_code '2'
_symmetry_cell_setting 'orthorhombic'
loop_
_space_group_symop_operation_xyz
x,y,z
1/2-x,1/2-y,z
1/2+x,-y,-z
-x,1/2+y,-z
-x,-y,-z
1/2+x,1/2+y,-z
1/2-x,y,z
x,1/2-y,z
loop_
_atom_site_type_symbol
_atom_site_label
_atom_site_fract_x
_atom_site_fract_y
_atom_site_fract_z
Si Si1 0.142176 0.518694 0.531016
Si Si2 0.141386 0.463652 0.037443
Si Si3 0.857763 0.442132 0.139376
Si Si4 0.528837 0.888044 0.786353
Si Si5 0.140475 0.192508 0.042017
Si Si6 0.528064 0.581310 0.466958
Si Si7 0.356793 0.119276 0.788760
O O1 0.250000 0.521216 0.488365
O O2 0.136114 0.532558 0.701720
O O3 0.099348 0.464497 0.514247
O O4 0.073300 0.556265 0.449024
O O5 0.250000 0.465691 0.078759
O O6 0.113250 0.517422 0.980030
O O7 0.134983 0.426203 0.901466
O O8 0.082742 0.437816 0.162091
O O9 0.750000 0.429696 0.115545
O O10 0.926802 0.396229 0.146757
O O11 0.525476 0.888201 0.614630
O O12 0.580970 0.841282 0.851192
O O13 0.250000 0.186933 0.078354
O O14 0.116738 0.250000 0.045383
O O15 0.129685 0.168142 0.884161
O O16 0.567900 0.612099 0.334620
O O17 0.250000 0.118289 0.733057
#
# Coordination Sequence:
#
# PCOD9446413 Si02
#       7
#     8   8   8   8   8   8   8
#     4   9  17  28  41  61  96 133 155 176 211 258
#     4   9  16  27  42  62  91 127 155 178 214 262
#     4   9  16  28  44  63  91 129 162 181 204 255
#     4  10  19  28  45  69  93 117 148 191 233 265
#     4   9  19  36  53  67  86 115 148 185 236 286
#     4  10  18  27  44  68  91 121 156 186 217 255
#     4   9  16  28  48  65  85 120 157 183 211 264
#
# _framework density 15.488451
#
# number of rings (size 3 to 8) (size 9 to 14) (size 15 to 20)
#    0.000    2.714    1.429    2.143    0.000    2.286 
#    0.000    0.714    0.000    2.143    0.000    0.000 
#    0.000    1.143    0.000    0.000    0.000    0.000 
#
# Total GULP energy -312117.157420 kJ/mol
# GULP energy per Si atom -5573.520668 kJ/mol
# Density = 1.545320 g / cm^3
# Si number density = 15.488451 Si / 1000 Ang^3
#
#
#
# Elastic Constant Matrix: (Units=GPa)
#
#
# Indices 1 2 3 4 5 6 
#
# 1 84.7708 38.0948 20.2235 0.0000 0.0000 0.0000
# 2 38.0948 80.7584 17.3436 0.0000 0.0000 0.0000
# 3 20.2235 17.3436 20.8785 0.0000 0.0000 0.0000
# 4 0.0000 0.0000 0.0000 11.3412 0.0000 0.0000
# 5 0.0000 0.0000 0.0000 0.0000 17.7152 0.0000
# 6 0.0000 0.0000 0.0000 0.0000 0.0000 20.9891
#
#
#
# Elastic Compliance Matrix: (Units=1/GPa)
#
#
# Indices 1 2 3 4 5 6 
#
# 1 0.017139 -0.005501 -0.012032 0.000000 0.000000 0.000000
# 2 -0.005501 0.016837 -0.008658 0.000000 0.000000 0.000000
# 3 -0.012032 -0.008658 0.066743 0.000000 0.000000 0.000000
# 4 0.000000 0.000000 0.000000 0.088174 0.000000 0.000000
# 5 0.000000 0.000000 0.000000 0.000000 0.056449 0.000000
# 6 0.000000 0.000000 0.000000 0.000000 0.000000 0.047644
#
#
# Mechanical properties :
#
#
# Convention : Reuss Voigt Hill
#
# Bulk Modulus (GPa) = 20.68796 37.52572 29.10684
# Shear Modulus (GPa) = 13.83208 17.39214 15.61211
#
# Velocity S-wave (km/s) = 2.99165 3.35462 3.17832
# Velocity P-wave (km/s) = 5.03183 6.26781 5.68352
#
# Compressibility (1/GPa) = 0.04833728
#
# Stress axis : x y z
#
# Youngs Moduli (GPa) = 58.34707 59.39393 14.98291
#
# Poissons Ratio (x) = 0.32671 0.18027
# Poissons Ratio (y) = 0.32095 0.12972
# Poissons Ratio (z) = 0.70202 0.51423
#
# Static dielectric constant tensor:
#      x y z
#    x 1.546820 0.000000 0.000000 
#    y 0.000000 1.486990 0.000000 
#    z 0.000000 0.000000 1.524630 
# 
# From -- ./inp_files/9726.got.cif
#   From: 2010.05.17/outbox.cif.g08.bks.cpg/sg59_5_cif.got.tgz:9726.got - 2010.06.03 14:40:33.
