data_PCOD9446644
_publ_section_title
;
Structure prediction by ZEFSAII (Michael W. Deem and Ramdas Pophale) SiO2 
 PCOD9446644
Probable space group: P M M N
;
_chemical_formula_sum "Si O2"
_cell_formula_units_Z 48
_cell_length_a 18.570481
_cell_length_b 7.639984
_cell_length_c 17.113071
_cell_angle_alpha 90.000000
_cell_angle_beta 90.000000
_cell_angle_gamma 90.000000
_cell_volume 2427.971329
_symmetry_space_group_name_H-M "P M M N"
_symmetry_group_IT_number 59
_space_group.IT_coordinate_system_code '2'
_symmetry_cell_setting 'orthorhombic'
loop_
_space_group_symop_operation_xyz
x,y,z
1/2-x,1/2-y,z
1/2+x,-y,-z
-x,1/2+y,-z
-x,-y,-z
1/2+x,1/2+y,-z
1/2-x,y,z
x,1/2-y,z
loop_
_atom_site_type_symbol
_atom_site_label
_atom_site_fract_x
_atom_site_fract_y
_atom_site_fract_z
Si Si1 0.328914 0.035476 0.159276
Si Si2 0.915478 0.539115 0.509592
Si Si3 0.332096 0.036023 0.645508
Si Si4 0.611657 0.548743 0.679546
Si Si5 0.022290 0.041861 0.087626
Si Si6 0.961145 0.954250 0.248860
O O1 0.250000 0.981125 0.132217
O O2 0.330187 0.250000 0.160269
O O3 0.343429 0.973596 0.248153
O O4 0.396993 0.977879 0.108118
O O5 0.909532 0.750000 0.511671
O O6 0.869570 0.478469 0.435363
O O7 0.887930 0.469690 0.593207
O O8 0.000000 0.500000 0.500000
O O9 0.250000 0.975702 0.652831
O O10 0.330147 0.250000 0.644776
O O11 0.385901 0.983594 0.715293
O O12 0.635547 0.750000 0.671741
O O13 0.529145 0.546261 0.710256
O O14 0.022393 0.250000 0.096771
O O15 0.970379 0.972261 0.156001
O O16 0.000000 0.000000 0.000000
O O17 0.968834 0.750000 0.269529
#
# Coordination Sequence:
#
# PCOD9446644 Si02
#       6
#     8   8   8   8   8   8
#     4   8  15  29  49  74 101 126 157 201 248 290
#     4  10  18  29  47  71  99 134 173 215 255 293
#     4   9  18  31  47  71 101 134 176 220 255 289
#     4   9  17  28  47  73  99 129 167 208 250 297
#     4  10  20  35  56  80 103 128 162 201 244 300
#     4  10  18  31  52  73  97 131 166 204 249 297
#
# _framework density 19.769593
#
# number of rings (size 3 to 8) (size 9 to 14) (size 15 to 20)
#    0.000    2.667    1.667    2.000    0.000    0.667 
#    0.000    4.167    0.000   22.000    0.000    4.667 
#    0.000    0.000    0.000    0.000    0.000    0.000 
#
# Total GULP energy -267700.010380 kJ/mol
# GULP energy per Si atom -5577.083550 kJ/mol
# Density = 1.972460 g / cm^3
# Si number density = 19.769593 Si / 1000 Ang^3
#
#
#
# Elastic Constant Matrix: (Units=GPa)
#
#
# Indices 1 2 3 4 5 6 
#
# 1 139.8114 -3.2219 78.4192 0.0000 0.0000 0.0000
# 2 -3.2219 42.8122 -4.8553 0.0000 0.0000 0.0000
# 3 78.4192 -4.8553 154.2387 0.0000 0.0000 0.0000
# 4 0.0000 0.0000 0.0000 13.5145 0.0000 0.0000
# 5 0.0000 0.0000 0.0000 0.0000 19.7690 0.0000
# 6 0.0000 0.0000 0.0000 0.0000 0.0000 13.6990
#
#
#
# Elastic Compliance Matrix: (Units=1/GPa)
#
#
# Indices 1 2 3 4 5 6 
#
# 1 0.010007 0.000177 -0.005082 0.000000 0.000000 0.000000
# 2 0.000177 0.023445 0.000648 0.000000 0.000000 0.000000
# 3 -0.005082 0.000648 0.009088 0.000000 0.000000 0.000000
# 4 0.000000 0.000000 0.000000 0.073995 0.000000 0.000000
# 5 0.000000 0.000000 0.000000 0.000000 0.050584 0.000000
# 6 0.000000 0.000000 0.000000 0.000000 0.000000 0.072998
#
#
# Mechanical properties :
#
#
# Convention : Reuss Voigt Hill
#
# Bulk Modulus (GPa) = 29.39039 53.06071 41.22555
# Shear Modulus (GPa) = 19.23276 27.16452 23.19864
#
# Velocity S-wave (km/s) = 3.12243 3.71085 3.42928
# Velocity P-wave (km/s) = 5.28187 6.72743 6.04800
#
# Compressibility (1/GPa) = 0.03402473
#
# Stress axis : x y z
#
# Youngs Moduli (GPa) = 99.92758 42.65370 110.03650
#
# Poissons Ratio (x) = -0.00754 0.55925
# Poissons Ratio (y) = -0.01766 -0.07132
# Poissons Ratio (z) = 0.50787 -0.02765
#
# Static dielectric constant tensor:
#      x y z
#    x 1.683660 0.000000 0.000000 
#    y 0.000000 1.771680 0.000000 
#    z 0.000000 0.000000 1.704770 
# 
# From -- ./inp_files/25438.got.cif
#   From: 2010.05.17/outbox.cif.g08.bks.cpg/sg59_13_cif.got.tgz:25438.got - 2010.06.03 14:40:33.
