data_PCOD9446215
_publ_section_title
;
Structure prediction by ZEFSAII (Michael W. Deem and Ramdas Pophale) SiO2 
 PCOD9446215
Probable space group: P M M N
;
_chemical_formula_sum "Si O2"
_cell_formula_units_Z 56
_cell_length_a 8.048887
_cell_length_b 29.526137
_cell_length_c 13.787737
_cell_angle_alpha 90.000000
_cell_angle_beta 90.000000
_cell_angle_gamma 90.000000
_cell_volume 3276.690722
_symmetry_space_group_name_H-M "P M M N"
_symmetry_group_IT_number 59
_space_group.IT_coordinate_system_code '2'
_symmetry_cell_setting 'orthorhombic'
loop_
_space_group_symop_operation_xyz
x,y,z
1/2-x,1/2-y,z
1/2+x,-y,-z
-x,1/2+y,-z
-x,-y,-z
1/2+x,1/2+y,-z
1/2-x,y,z
x,1/2-y,z
loop_
_atom_site_type_symbol
_atom_site_label
_atom_site_fract_x
_atom_site_fract_y
_atom_site_fract_z
Si Si1 0.447863 0.300868 0.240752
Si Si2 0.948791 0.520366 0.602497
Si Si3 0.557432 0.943431 0.906566
Si Si4 0.548386 0.300929 0.016740
Si Si5 0.441805 0.603804 0.715541
Si Si6 0.443028 0.611760 0.086480
Si Si7 0.546584 0.469007 0.795513
O O1 0.250000 0.301371 0.251957
O O2 0.509022 0.250000 0.265365
O O3 0.521173 0.343309 0.298513
O O4 0.489254 0.308344 0.126953
O O5 0.750000 0.523208 0.607254
O O6 0.005500 0.487647 0.690894
O O7 0.000000 0.500000 0.500000
O O8 0.018690 0.570161 0.627122
O O9 0.750000 0.945599 0.936815
O O10 0.546120 0.914350 0.807402
O O11 0.496985 0.993113 0.874695
O O12 0.455107 0.919132 0.990062
O O13 0.750000 0.303317 0.019088
O O14 0.500152 0.250000 0.988204
O O15 0.483874 0.340104 0.945735
O O16 0.250000 0.598523 0.742524
O O17 0.250000 0.619764 0.110396
O O18 0.514237 0.580209 0.171470
O O19 0.750000 0.468646 0.796545
#
# Coordination Sequence:
#
# PCOD9446215 Si02
#       7
#     8   8   8   8   8   8   8
#     4  10  19  30  45  66  95 129 162 196 234 275
#     4  10  20  36  54  72  94 119 153 200 248 300
#     4  10  18  28  41  61  92 124 156 193 229 269
#     4   9  17  27  40  61  90 124 161 195 224 263
#     4  11  20  31  48  70  95 127 161 195 236 286
#     4  10  17  27  43  62  88 124 158 187 226 273
#     4   8  17  30  44  64  89 117 151 191 233 279
#
# _framework density 17.090415
#
# number of rings (size 3 to 8) (size 9 to 14) (size 15 to 20)
#    0.000    2.286    1.429    3.857    0.000    0.857 
#    0.000    3.571    0.000    0.000    0.000    1.000 
#    0.000    3.429    0.000    0.000    0.000    0.000 
#
# Total GULP energy -312243.329137 kJ/mol
# GULP energy per Si atom -5575.773735 kJ/mol
# Density = 1.705152 g / cm^3
# Si number density = 17.090415 Si / 1000 Ang^3
#
#
#
# Elastic Constant Matrix: (Units=GPa)
#
#
# Indices 1 2 3 4 5 6 
#
# 1 32.3540 10.5827 0.6062 0.0000 0.0000 0.0000
# 2 10.5827 156.5391 55.6059 0.0000 0.0000 0.0000
# 3 0.6062 55.6059 56.1612 0.0000 0.0000 0.0000
# 4 0.0000 0.0000 0.0000 20.8261 0.0000 0.0000
# 5 0.0000 0.0000 0.0000 0.0000 4.2728 0.0000
# 6 0.0000 0.0000 0.0000 0.0000 0.0000 16.0828
#
#
#
# Elastic Compliance Matrix: (Units=1/GPa)
#
#
# Indices 1 2 3 4 5 6 
#
# 1 0.031882 -0.003136 0.002761 0.000000 0.000000 0.000000
# 2 -0.003136 0.010162 -0.010028 0.000000 0.000000 0.000000
# 3 0.002761 -0.010028 0.027705 0.000000 0.000000 0.000000
# 4 0.000000 0.000000 0.000000 0.048017 0.000000 0.000000
# 5 0.000000 0.000000 0.000000 0.000000 0.234039 0.000000
# 6 0.000000 0.000000 0.000000 0.000000 0.000000 0.062178
#
#
# Mechanical properties :
#
#
# Convention : Reuss Voigt Hill
#
# Bulk Modulus (GPa) = 20.43188 42.07153 31.25171
# Shear Modulus (GPa) = 11.08390 20.12030 15.60210
#
# Velocity S-wave (km/s) = 2.54942 3.43488 3.02473
# Velocity P-wave (km/s) = 4.54391 6.35623 5.52489
#
# Compressibility (1/GPa) = 0.04894312
#
# Stress axis : x y z
#
# Youngs Moduli (GPa) = 31.36553 98.40245 36.09465
#
# Poissons Ratio (x) = 0.30860 -0.09966
# Poissons Ratio (y) = 0.09837 0.36196
# Poissons Ratio (z) = -0.08660 0.98678
#
# Static dielectric constant tensor:
#      x y z
#    x 1.609690 0.000000 0.000000 
#    y 0.000000 1.636740 0.000000 
#    z 0.000000 0.000000 1.551010 
# 
# From -- ./inp_files/21755.got.cif
#   From: 2010.05.17/outbox.cif.g08.bks.cpg/sg59_11_cif.got.tgz:21755.got - 2010.06.03 14:40:33.
