data_PCOD9446925
_publ_section_title
;
Structure prediction by ZEFSAII (Michael W. Deem and Ramdas Pophale) SiO2 
 PCOD9446925
Probable space group: P M M N
;
_chemical_formula_sum "Si O2"
_cell_formula_units_Z 48
_cell_length_a 19.565865
_cell_length_b 8.651859
_cell_length_c 16.317031
_cell_angle_alpha 90.000000
_cell_angle_beta 90.000000
_cell_angle_gamma 90.000000
_cell_volume 2762.165041
_symmetry_space_group_name_H-M "P M M N"
_symmetry_group_IT_number 59
_space_group.IT_coordinate_system_code '2'
_symmetry_cell_setting 'orthorhombic'
loop_
_space_group_symop_operation_xyz
x,y,z
1/2-x,1/2-y,z
1/2+x,-y,-z
-x,1/2+y,-z
-x,-y,-z
1/2+x,1/2+y,-z
1/2-x,y,z
x,1/2-y,z
loop_
_atom_site_type_symbol
_atom_site_label
_atom_site_fract_x
_atom_site_fract_y
_atom_site_fract_z
Si Si1 0.750000 0.065151 0.917114
Si Si2 0.024231 0.934801 0.870526
Si Si3 0.620710 0.565248 0.627858
Si Si4 0.606387 0.564755 0.976727
Si Si5 0.250000 0.935243 0.276242
Si Si6 0.927222 0.065177 0.467641
Si Si7 0.523793 0.934124 0.308293
O O1 0.750000 0.250000 0.927022
O O2 0.750000 0.029511 0.820239
O O3 0.818808 0.996221 0.955681
O O4 0.027735 0.750000 0.861158
O O5 0.076178 0.990338 0.940717
O O6 0.038215 0.014973 0.784168
O O7 0.948352 0.974611 0.904925
O O8 0.617511 0.750000 0.625785
O O9 0.683643 0.506543 0.681070
O O10 0.624792 0.499939 0.535099
O O11 0.550779 0.501144 0.667743
O O12 0.606784 0.750000 0.984958
O O13 0.250000 0.750000 0.286208
O O14 0.928008 0.250000 0.469018
O O15 0.923650 0.003701 0.375055
O O16 0.000000 0.000000 0.500000
O O17 0.522336 0.750000 0.316236
#
# Coordination Sequence:
#
# PCOD9446925 Si02
#       7
#     4   8   8   8   4   8   8
#     4  11  23  37  55  78 107 142 179 219 263 317
#     4  10  20  35  55  80 108 139 178 223 271 320
#     4  11  21  34  51  75 106 139 174 213 259 308
#     4  10  21  36  55  78 107 141 177 220 270 322
#     4  11  23  37  53  76 105 140 177 211 253 307
#     4  10  18  31  50  73 101 133 168 208 253 298
#     4  11  20  32  52  78 106 136 173 216 260 308
#
# _framework density 17.377673999999999
#
# number of rings (size 3 to 8) (size 9 to 14) (size 15 to 20)
#    0.000    1.500    0.000    9.000    0.000    6.000 
#    0.000    0.000    0.000    1.000    0.000    7.000 
#    0.000    0.000    0.000    0.000    0.000    0.000 
#
# Total GULP energy -268120.796403 kJ/mol
# GULP energy per Si atom -5585.849925 kJ/mol
# Density = 1.733812 g / cm^3
# Si number density = 17.377674 Si / 1000 Ang^3
#
#
#
# Elastic Constant Matrix: (Units=GPa)
#
#
# Indices 1 2 3 4 5 6 
#
# 1 81.9002 37.1178 37.7039 0.0000 0.0000 0.0000
# 2 37.1178 134.2843 57.2005 0.0000 0.0000 0.0000
# 3 37.7039 57.2005 120.2532 0.0000 0.0000 0.0000
# 4 0.0000 0.0000 0.0000 33.6699 0.0000 0.0000
# 5 0.0000 0.0000 0.0000 0.0000 11.1900 0.0000
# 6 0.0000 0.0000 0.0000 0.0000 0.0000 26.6215
#
#
#
# Elastic Compliance Matrix: (Units=1/GPa)
#
#
# Indices 1 2 3 4 5 6 
#
# 1 0.015006 -0.002688 -0.003426 0.000000 0.000000 0.000000
# 2 -0.002688 0.009821 -0.003829 0.000000 0.000000 0.000000
# 3 -0.003426 -0.003829 0.011211 0.000000 0.000000 0.000000
# 4 0.000000 0.000000 0.000000 0.029700 0.000000 0.000000
# 5 0.000000 0.000000 0.000000 0.000000 0.089366 0.000000
# 6 0.000000 0.000000 0.000000 0.000000 0.000000 0.037564
#
#
# Mechanical properties :
#
#
# Convention : Reuss Voigt Hill
#
# Bulk Modulus (GPa) = 61.91334 66.72024 64.31679
# Shear Modulus (GPa) = 22.94243 27.92399 25.43321
#
# Velocity S-wave (km/s) = 3.63743 4.01295 3.82980
# Velocity P-wave (km/s) = 7.30388 7.74269 7.52648
#
# Compressibility (1/GPa) = 0.01615161
#
# Stress axis : x y z
#
# Youngs Moduli (GPa) = 66.64186 101.82468 89.19738
#
# Poissons Ratio (x) = 0.27374 0.30560
# Poissons Ratio (y) = 0.17916 0.34150
# Poissons Ratio (z) = 0.22832 0.38984
#
# Static dielectric constant tensor:
#      x y z
#    x 1.602310 0.000000 0.000000 
#    y 0.000000 1.576080 0.000000 
#    z 0.000000 0.000000 1.609300 
# 
# From -- ./inp_files/23747.got.cif
#   From: 2010.05.17/outbox.cif.g08.bks.cpg/sg59_12_cif.got.tgz:23747.got - 2010.06.03 14:40:33.
