data_PCOD9446434
_publ_section_title
;
Structure prediction by ZEFSAII (Michael W. Deem and Ramdas Pophale) SiO2 
 PCOD9446434
Probable space group: P M M N
;
_chemical_formula_sum "Si O2"
_cell_formula_units_Z 56
_cell_length_a 33.352751
_cell_length_b 7.794454
_cell_length_c 14.026336
_cell_angle_alpha 90.000000
_cell_angle_beta 90.000000
_cell_angle_gamma 90.000000
_cell_volume 3646.377246
_symmetry_space_group_name_H-M "P M M N"
_symmetry_group_IT_number 59
_space_group.IT_coordinate_system_code '2'
_symmetry_cell_setting 'orthorhombic'
loop_
_space_group_symop_operation_xyz
x,y,z
1/2-x,1/2-y,z
1/2+x,-y,-z
-x,1/2+y,-z
-x,-y,-z
1/2+x,1/2+y,-z
1/2-x,y,z
x,1/2-y,z
loop_
_atom_site_type_symbol
_atom_site_label
_atom_site_fract_x
_atom_site_fract_y
_atom_site_fract_z
Si Si1 0.479201 0.458598 0.641023
Si Si2 0.295630 0.750000 0.137217
Si Si3 0.936991 0.452180 0.550417
Si Si4 0.646355 0.941964 0.634935
Si Si5 0.477252 0.046624 0.853341
Si Si6 0.644124 0.548298 0.862545
Si Si7 0.559149 0.542325 0.950704
Si Si8 0.295885 0.750000 0.368884
O O1 0.479215 0.250000 0.639856
O O2 0.448893 0.519255 0.559510
O O3 0.524016 0.514269 0.609560
O O4 0.469773 0.521140 0.747398
O O5 0.250000 0.750000 0.102526
O O6 0.320325 0.580068 0.109395
O O7 0.294300 0.750000 0.253069
O O8 0.932359 0.250000 0.568961
O O9 0.895897 0.538622 0.581742
O O10 0.662241 0.750000 0.622133
O O11 0.638531 0.967171 0.748176
O O12 0.678393 0.083487 0.603223
O O13 0.469635 0.250000 0.849300
O O14 0.523626 0.020132 0.882009
O O15 0.451672 0.978590 0.942842
O O16 0.652133 0.750000 0.882756
O O17 0.602856 0.495029 0.913432
O O18 0.557192 0.750000 0.950762
O O19 0.250000 0.750000 0.403083
#
# Coordination Sequence:
#
# PCOD9446434 Si02
#       8
#     8   4   8   8   8   8   8   4
#     4   9  18  29  41  59  84 118 154 189 227 263
#     4   9  18  30  46  66  89 119 149 183 226 266
#     4  10  18  28  42  61  87 118 153 190 225 262
#     4  10  18  29  46  66  90 120 150 182 220 264
#     4   9  17  28  42  59  84 117 151 189 225 259
#     4   9  18  29  44  66  90 118 150 182 216 264
#     4   9  17  28  41  61  86 114 150 186 222 262
#     4   9  18  32  46  66  93 117 149 187 222 268
#
# _framework density 15.357708000000001
#
# number of rings (size 3 to 8) (size 9 to 14) (size 15 to 20)
#    0.000    2.714    0.714    1.286    1.000    1.714 
#    0.000    2.857    0.000    0.000    0.000    0.000 
#    0.000    2.286    0.000    7.286    0.000    0.286 
#
# Total GULP energy -312108.914248 kJ/mol
# GULP energy per Si atom -5573.373469 kJ/mol
# Density = 1.532275 g / cm^3
# Si number density = 15.357708 Si / 1000 Ang^3
#
#
#
# Elastic Constant Matrix: (Units=GPa)
#
#
# Indices 1 2 3 4 5 6 
#
# 1 113.5520 46.1537 30.0338 0.0000 0.0000 0.0000
# 2 46.1537 58.4843 21.9445 0.0000 0.0000 0.0000
# 3 30.0338 21.9445 60.0586 0.0000 0.0000 0.0000
# 4 0.0000 0.0000 0.0000 11.3820 0.0000 0.0000
# 5 0.0000 0.0000 0.0000 0.0000 16.2687 0.0000
# 6 0.0000 0.0000 0.0000 0.0000 0.0000 19.0591
#
#
#
# Elastic Compliance Matrix: (Units=1/GPa)
#
#
# Indices 1 2 3 4 5 6 
#
# 1 0.013512 -0.009419 -0.003315 0.000000 0.000000 0.000000
# 2 -0.009419 0.026381 -0.004929 0.000000 0.000000 0.000000
# 3 -0.003315 -0.004929 0.020109 0.000000 0.000000 0.000000
# 4 0.000000 0.000000 0.000000 0.087858 0.000000 0.000000
# 5 0.000000 0.000000 0.000000 0.000000 0.061468 0.000000
# 6 0.000000 0.000000 0.000000 0.000000 0.000000 0.052468
#
#
# Mechanical properties :
#
#
# Convention : Reuss Voigt Hill
#
# Bulk Modulus (GPa) = 40.52609 47.59546 44.06077
# Shear Modulus (GPa) = 16.37469 18.27281 17.32375
#
# Velocity S-wave (km/s) = 3.26884 3.45311 3.36224
# Velocity P-wave (km/s) = 6.37907 6.85253 6.62003
#
# Compressibility (1/GPa) = 0.02467546
#
# Stress axis : x y z
#
# Youngs Moduli (GPa) = 74.00907 37.90562 49.72817
#
# Poissons Ratio (x) = 0.35704 0.16487
# Poissons Ratio (y) = 0.69710 0.24511
# Poissons Ratio (z) = 0.24537 0.18684
#
# Static dielectric constant tensor:
#      x y z
#    x 1.482530 0.000000 0.000000 
#    y 0.000000 1.545690 0.000000 
#    z 0.000000 0.000000 1.510070 
# 
# From -- ./inp_files/24991.got.cif
#   From: 2010.05.17/outbox.cif.g08.bks.cpg/sg59_13_cif.got.tgz:24991.got - 2010.06.03 14:40:33.
