data_PCOD9446286
_publ_section_title
;
Structure prediction by ZEFSAII (Michael W. Deem and Ramdas Pophale) SiO2 
 PCOD9446286
Probable space group: P M M N
;
_chemical_formula_sum "Si O2"
_cell_formula_units_Z 64
_cell_length_a 23.433417
_cell_length_b 17.392279
_cell_length_c 9.194521
_cell_angle_alpha 90.000000
_cell_angle_beta 90.000000
_cell_angle_gamma 90.000000
_cell_volume 3747.323819
_symmetry_space_group_name_H-M "P M M N"
_symmetry_group_IT_number 59
_space_group.IT_coordinate_system_code '2'
_symmetry_cell_setting 'orthorhombic'
loop_
_space_group_symop_operation_xyz
x,y,z
1/2-x,1/2-y,z
1/2+x,-y,-z
-x,1/2+y,-z
-x,-y,-z
1/2+x,1/2+y,-z
1/2-x,y,z
x,1/2-y,z
loop_
_atom_site_type_symbol
_atom_site_label
_atom_site_fract_x
_atom_site_fract_y
_atom_site_fract_z
Si Si1 0.477393 0.427195 0.283423
Si Si2 0.553105 0.162842 0.473773
Si Si3 0.418892 0.463912 0.805503
Si Si4 0.187172 0.505596 0.617013
Si Si5 0.513587 0.658594 0.024579
Si Si6 0.387600 0.904001 0.032152
Si Si7 0.155316 0.665542 0.750451
Si Si8 0.623746 0.042679 0.664717
O O1 0.494573 0.375064 0.420631
O O2 0.471551 0.510223 0.732890
O O3 0.476825 0.376693 0.136725
O O4 0.419247 0.472821 0.303582
O O5 0.546820 0.250000 0.526094
O O6 0.593260 0.164371 0.328841
O O7 0.586563 0.108601 0.584465
O O8 0.365039 0.462567 0.697552
O O9 0.400465 0.518032 0.941416
O O10 0.443189 0.384505 0.866776
O O11 0.250000 0.472049 0.638858
O O12 0.186328 0.592019 0.683983
O O13 0.171364 0.515897 0.448332
O O14 0.518974 0.750000 0.024524
O O15 0.449165 0.633345 0.065845
O O16 0.354442 0.849602 0.920352
O O17 0.356491 0.923980 0.181282
O O18 0.179866 0.750000 0.722591
#
# Coordination Sequence:
#
# PCOD9446286 Si02
#       8
#     8   8   8   8   8   8   8   8
#     4  11  17  32  53  76 111 148 167 205 266 332
#     4  10  19  29  45  75 110 147 176 199 247 318
#     4  10  18  35  54  77 103 139 180 209 263 319
#     4  10  22  38  55  72  96 140 192 228 256 308
#     4  11  19  29  52  85 116 136 166 212 267 330
#     4  10  17  30  52  80 111 141 163 204 259 323
#     4   9  17  32  53  75 104 142 177 208 251 306
#     4  11  20  32  51  75 110 143 174 217 264 313
#
# _framework density 17.078854
#
# number of rings (size 3 to 8) (size 9 to 14) (size 15 to 20)
#    0.000    1.750    7.500    1.875    0.000    1.250 
#    0.000    2.500    0.000    0.375    0.000    0.000 
#    0.000    0.000    0.000    0.000    0.000    0.000 
#
# Total GULP energy -357025.619675 kJ/mol
# GULP energy per Si atom -5578.525307 kJ/mol
# Density = 1.703998 g / cm^3
# Si number density = 17.078854 Si / 1000 Ang^3
#
#
#
# Elastic Constant Matrix: (Units=GPa)
#
#
# Indices 1 2 3 4 5 6 
#
# 1 57.4693 16.5285 20.7165 0.0000 0.0000 0.0000
# 2 16.5285 65.1347 9.1321 0.0000 0.0000 0.0000
# 3 20.7165 9.1321 68.1609 0.0000 0.0000 0.0000
# 4 0.0000 0.0000 0.0000 18.6109 0.0000 0.0000
# 5 0.0000 0.0000 0.0000 0.0000 5.5016 0.0000
# 6 0.0000 0.0000 0.0000 0.0000 0.0000 2.9038
#
#
#
# Elastic Compliance Matrix: (Units=1/GPa)
#
#
# Indices 1 2 3 4 5 6 
#
# 1 0.020741 -0.004463 -0.005706 0.000000 0.000000 0.000000
# 2 -0.004463 0.016607 -0.000868 0.000000 0.000000 0.000000
# 3 -0.005706 -0.000868 0.016522 0.000000 0.000000 0.000000
# 4 0.000000 0.000000 0.000000 0.053732 0.000000 0.000000
# 5 0.000000 0.000000 0.000000 0.000000 0.181765 0.000000
# 6 0.000000 0.000000 0.000000 0.000000 0.000000 0.344378
#
#
# Mechanical properties :
#
#
# Convention : Reuss Voigt Hill
#
# Bulk Modulus (GPa) = 31.45182 31.50213 31.47697
# Shear Modulus (GPa) = 7.50279 15.02910 11.26595
#
# Velocity S-wave (km/s) = 2.09823 2.96967 2.57114
# Velocity P-wave (km/s) = 4.93211 5.49943 5.22348
#
# Compressibility (1/GPa) = 0.03179466
#
# Stress axis : x y z
#
# Youngs Moduli (GPa) = 48.21337 60.21499 60.52622
#
# Poissons Ratio (x) = 0.26876 0.34536
# Poissons Ratio (y) = 0.21519 0.05256
# Poissons Ratio (z) = 0.27510 0.05229
#
# Static dielectric constant tensor:
#      x y z
#    x 1.576700 0.000000 0.000000 
#    y 0.000000 1.582960 0.000000 
#    z 0.000000 0.000000 1.616460 
# 
# From -- ./inp_files/12306.got.cif
#   From: 2010.05.17/outbox.cif.g08.bks.cpg/sg59_7_cif.got.tgz:12306.got - 2010.06.03 14:40:33.
