data_PCOD9446694
_publ_section_title
;
Structure prediction by ZEFSAII (Michael W. Deem and Ramdas Pophale) SiO2 
 PCOD9446694
Probable space group: P M M N
;
_chemical_formula_sum "Si O2"
_cell_formula_units_Z 48
_cell_length_a 8.977979
_cell_length_b 21.208862
_cell_length_c 15.107764
_cell_angle_alpha 90.000000
_cell_angle_beta 90.000000
_cell_angle_gamma 90.000000
_cell_volume 2876.710401
_symmetry_space_group_name_H-M "P M M N"
_symmetry_group_IT_number 59
_space_group.IT_coordinate_system_code '2'
_symmetry_cell_setting 'orthorhombic'
loop_
_space_group_symop_operation_xyz
x,y,z
1/2-x,1/2-y,z
1/2+x,-y,-z
-x,1/2+y,-z
-x,-y,-z
1/2+x,1/2+y,-z
1/2-x,y,z
x,1/2-y,z
loop_
_atom_site_type_symbol
_atom_site_label
_atom_site_fract_x
_atom_site_fract_y
_atom_site_fract_z
Si Si1 0.926541 0.047158 0.430288
Si Si2 0.575214 0.847109 0.812434
Si Si3 0.425650 0.445626 0.939712
Si Si4 0.570983 0.820023 0.608578
Si Si5 0.424154 0.974710 0.773926
Si Si6 0.072805 0.818872 0.993721
O O1 0.750000 0.050870 0.445121
O O2 0.994391 0.117966 0.431826
O O3 0.950603 0.020026 0.330715
O O4 0.000000 0.000000 0.500000
O O5 0.750000 0.836847 0.828831
O O6 0.539545 0.822373 0.714229
O O7 0.480244 0.819534 0.891915
O O8 0.533539 0.920718 0.808828
O O9 0.250000 0.444336 0.959492
O O10 0.444615 0.465571 0.837129
O O11 0.500000 0.500000 0.000000
O O12 0.495788 0.378249 0.960645
O O13 0.750000 0.825983 0.598668
O O14 0.526736 0.750000 0.575799
O O15 0.250000 0.954291 0.784955
O O16 0.250000 0.826637 0.997247
O O17 0.033542 0.750000 0.031678
#
# Coordination Sequence:
#
# PCOD9446694 Si02
#       6
#     8   8   8   8   8   8
#     4  10  20  35  55  79 106 136 172 215 263 315
#     4  10  18  29  49  75 103 136 172 210 254 308
#     4  11  21  34  54  77 103 136 176 217 256 306
#     4   9  18  32  50  75 107 138 169 209 259 315
#     4   9  19  34  52  75 104 135 170 212 260 311
#     4  11  23  35  47  68 103 143 180 220 264 307
#
# _framework density 16.685725000000001
#
# number of rings (size 3 to 8) (size 9 to 14) (size 15 to 20)
#    0.000    2.000    1.667    2.500    0.000    4.333 
#    0.000    0.000    0.000    1.000    0.000    2.333 
#    0.000    0.000    0.000    0.000    0.000    0.000 
#
# Total GULP energy -267707.273710 kJ/mol
# GULP energy per Si atom -5577.234869 kJ/mol
# Density = 1.664775 g / cm^3
# Si number density = 16.685725 Si / 1000 Ang^3
#
#
#
# Elastic Constant Matrix: (Units=GPa)
#
#
# Indices 1 2 3 4 5 6 
#
# 1 67.4706 73.6304 38.8462 0.0000 0.0000 0.0000
# 2 73.6304 168.1214 65.2119 0.0000 0.0000 0.0000
# 3 38.8462 65.2119 61.1932 0.0000 0.0000 0.0000
# 4 0.0000 0.0000 0.0000 17.5125 0.0000 0.0000
# 5 0.0000 0.0000 0.0000 0.0000 24.3033 0.0000
# 6 0.0000 0.0000 0.0000 0.0000 0.0000 24.8679
#
#
#
# Elastic Compliance Matrix: (Units=1/GPa)
#
#
# Indices 1 2 3 4 5 6 
#
# 1 0.030983 -0.010126 -0.008878 0.000000 0.000000 0.000000
# 2 -0.010126 0.013448 -0.007904 0.000000 0.000000 0.000000
# 3 -0.008878 -0.007904 0.030400 0.000000 0.000000 0.000000
# 4 0.000000 0.000000 0.000000 0.057102 0.000000 0.000000
# 5 0.000000 0.000000 0.000000 0.000000 0.041147 0.000000
# 6 0.000000 0.000000 0.000000 0.000000 0.000000 0.040213
#
#
# Mechanical properties :
#
#
# Convention : Reuss Voigt Hill
#
# Bulk Modulus (GPa) = 47.57994 72.46246 60.02120
# Shear Modulus (GPa) = 18.24071 21.27651 19.75861
#
# Velocity S-wave (km/s) = 3.30993 3.57477 3.44490
# Velocity P-wave (km/s) = 6.57151 7.78208 7.20228
#
# Compressibility (1/GPa) = 0.02101726
#
# Stress axis : x y z
#
# Youngs Moduli (GPa) = 32.27617 74.35797 32.89462
#
# Poissons Ratio (x) = 0.75292 0.29202
# Poissons Ratio (y) = 0.32682 0.25999
# Poissons Ratio (z) = 0.28653 0.58771
#
# Static dielectric constant tensor:
#      x y z
#    x 1.558010 0.000000 0.000000 
#    y 0.000000 1.587330 0.000000 
#    z 0.000000 0.000000 1.556620 
# 
# From -- ./inp_files/20715.got.cif
#   From: 2010.05.17/outbox.cif.g08.bks.cpg/sg59_11_cif.got.tgz:20715.got - 2010.06.03 14:40:33.
