data_PCOD9446862
_publ_section_title
;
Structure prediction by ZEFSAII (Michael W. Deem and Ramdas Pophale) SiO2 
 PCOD9446862
Probable space group: P M M N
;
_chemical_formula_sum "Si O2"
_cell_formula_units_Z 40
_cell_length_a 18.788717
_cell_length_b 8.545731
_cell_length_c 13.993815
_cell_angle_alpha 90.000000
_cell_angle_beta 90.000000
_cell_angle_gamma 90.000000
_cell_volume 2246.893414
_symmetry_space_group_name_H-M "P M M N"
_symmetry_group_IT_number 59
_space_group.IT_coordinate_system_code '2'
_symmetry_cell_setting 'orthorhombic'
loop_
_space_group_symop_operation_xyz
x,y,z
1/2-x,1/2-y,z
1/2+x,-y,-z
-x,1/2+y,-z
-x,-y,-z
1/2+x,1/2+y,-z
1/2-x,y,z
x,1/2-y,z
loop_
_atom_site_type_symbol
_atom_site_label
_atom_site_fract_x
_atom_site_fract_y
_atom_site_fract_z
Si Si1 0.830911 0.062697 0.193843
Si Si2 0.600152 0.937693 0.385161
Si Si3 0.538050 0.562473 0.710488
Si Si4 0.668915 0.940803 0.586380
Si Si5 0.031515 0.436135 0.901803
O O1 0.750000 0.023263 0.167568
O O2 0.837120 0.250000 0.202808
O O3 0.850982 0.987300 0.295779
O O4 0.890043 0.003423 0.120038
O O5 0.592379 0.750000 0.385534
O O6 0.635844 0.987927 0.484311
O O7 0.523514 0.013480 0.364284
O O8 0.537080 0.750000 0.719953
O O9 0.614108 0.511591 0.669062
O O10 0.516257 0.488925 0.811467
O O11 0.750000 0.995179 0.597466
O O12 0.670152 0.750000 0.586166
O O13 0.034995 0.250000 0.904091
O O14 0.000000 0.500000 0.000000
#
# Coordination Sequence:
#
# PCOD9446862 Si02
#       5
#     8   8   8   8   8
#     4  10  20  34  53  80 111 137 167 213 263 307
#     4  10  18  30  51  76 105 140 176 212 251 302
#     4  10  19  33  53  75 102 135 173 217 261 307
#     4   9  18  31  48  73 105 141 178 213 250 297
#     4  11  22  38  59  79 102 133 172 215 262 317
#
# _framework density 17.802358000000002
#
# number of rings (size 3 to 8) (size 9 to 14) (size 15 to 20)
#    0.000    2.000    0.000    7.200    0.000    2.400 
#    0.000    4.000    0.000   10.800    0.000    0.000 
#    0.000    0.000    0.000    0.000    0.000    0.000 
#
# Total GULP energy -223344.276254 kJ/mol
# GULP energy per Si atom -5583.606906 kJ/mol
# Density = 1.776184 g / cm^3
# Si number density = 17.802358 Si / 1000 Ang^3
#
#
#
# Elastic Constant Matrix: (Units=GPa)
#
#
# Indices 1 2 3 4 5 6 
#
# 1 117.1189 -6.9109 56.1147 0.0000 0.0000 0.0000
# 2 -6.9109 31.6438 -4.4488 0.0000 0.0000 0.0000
# 3 56.1147 -4.4488 69.7777 0.0000 0.0000 0.0000
# 4 0.0000 0.0000 0.0000 24.4710 0.0000 0.0000
# 5 0.0000 0.0000 0.0000 0.0000 17.9744 0.0000
# 6 0.0000 0.0000 0.0000 0.0000 0.0000 24.0649
#
#
#
# Elastic Compliance Matrix: (Units=1/GPa)
#
#
# Indices 1 2 3 4 5 6 
#
# 1 0.013959 0.001484 -0.011131 0.000000 0.000000 0.000000
# 2 0.001484 0.032045 0.000850 0.000000 0.000000 0.000000
# 3 -0.011131 0.000850 0.023337 0.000000 0.000000 0.000000
# 4 0.000000 0.000000 0.000000 0.040865 0.000000 0.000000
# 5 0.000000 0.000000 0.000000 0.000000 0.055635 0.000000
# 6 0.000000 0.000000 0.000000 0.000000 0.000000 0.041554
#
#
# Mechanical properties :
#
#
# Convention : Reuss Voigt Hill
#
# Bulk Modulus (GPa) = 19.32505 34.22781 26.77643
# Shear Modulus (GPa) = 20.64077 24.88776 22.76427
#
# Velocity S-wave (km/s) = 3.40875 3.74305 3.57980
# Velocity P-wave (km/s) = 5.13533 6.16026 5.67100
#
# Compressibility (1/GPa) = 0.05174632
#
# Stress axis : x y z
#
# Youngs Moduli (GPa) = 71.63770 31.20579 42.85033
#
# Poissons Ratio (x) = -0.04630 0.47698
# Poissons Ratio (y) = -0.10629 -0.03642
# Poissons Ratio (z) = 0.79741 -0.02652
#
# Static dielectric constant tensor:
#      x y z
#    x 1.622360 0.000000 0.000000 
#    y 0.000000 1.601430 0.000000 
#    z 0.000000 0.000000 1.579580 
# 
# From -- ./inp_files/20125.got.cif
#   From: 2010.05.17/outbox.cif.g08.bks.cpg/sg59_11_cif.got.tgz:20125.got - 2010.06.03 14:40:33.
