data_PCOD9446946
_publ_section_title
;
Structure prediction by ZEFSAII (Michael W. Deem and Ramdas Pophale) SiO2 
 PCOD9446946
Probable space group: P M M N
;
_chemical_formula_sum "Si O2"
_cell_formula_units_Z 64
_cell_length_a 20.383172
_cell_length_b 8.496634
_cell_length_c 20.812551
_cell_angle_alpha 90.000000
_cell_angle_beta 90.000000
_cell_angle_gamma 90.000000
_cell_volume 3604.491414
_symmetry_space_group_name_H-M "P M M N"
_symmetry_group_IT_number 59
_space_group.IT_coordinate_system_code '2'
_symmetry_cell_setting 'orthorhombic'
loop_
_space_group_symop_operation_xyz
x,y,z
1/2-x,1/2-y,z
1/2+x,-y,-z
-x,1/2+y,-z
-x,-y,-z
1/2+x,1/2+y,-z
1/2-x,y,z
x,1/2-y,z
loop_
_atom_site_type_symbol
_atom_site_label
_atom_site_fract_x
_atom_site_fract_y
_atom_site_fract_z
Si Si1 0.570615 0.937243 0.976271
Si Si2 0.410938 0.940543 0.802968
Si Si3 0.555581 0.062681 0.836891
Si Si4 0.325039 0.940312 0.413751
Si Si5 0.590446 0.938594 0.701628
Si Si6 0.175164 0.940553 0.921365
Si Si7 0.557706 0.441013 0.335912
Si Si8 0.928562 0.440814 0.478708
O O1 0.568435 0.750000 0.977380
O O2 0.581820 0.995893 0.903803
O O3 0.500000 0.000000 0.000000
O O4 0.626756 0.997684 0.023919
O O5 0.414048 0.750000 0.803313
O O6 0.354721 0.989233 0.852352
O O7 0.404942 0.992318 0.728737
O O8 0.480917 0.001639 0.828245
O O9 0.555342 0.250000 0.839046
O O10 0.593818 0.004498 0.773693
O O11 0.250000 0.991684 0.422649
O O12 0.325989 0.750000 0.413319
O O13 0.373171 0.993797 0.471156
O O14 0.354964 0.999754 0.346858
O O15 0.591687 0.750000 0.704159
O O16 0.518649 0.986682 0.673806
O O17 0.250000 0.993214 0.929443
O O18 0.174185 0.750000 0.923375
O O19 0.559305 0.250000 0.336551
O O20 0.582773 0.494200 0.405199
O O21 0.929504 0.250000 0.479350
O O22 0.000000 0.500000 0.500000
#
# Coordination Sequence:
#
# PCOD9446946 Si02
#       8
#     8   8   8   8   8   8   8   8
#     4  12  23  37  58  85 115 150 191 238 284 334
#     4   9  17  32  53  78 111 146 184 230 274 330
#     4  11  21  34  56  85 113 141 178 229 282 334
#     4  10  21  35  51  76 112 150 186 229 283 340
#     4  10  19  34  55  79 107 140 180 229 276 330
#     4  10  21  37  57  82 115 154 191 231 284 341
#     4   8  15  28  49  77 105 134 176 227 273 312
#     4  10  18  31  51  76 107 143 184 230 275 325
#
# _framework density 17.755624999999998
#
# number of rings (size 3 to 8) (size 9 to 14) (size 15 to 20)
#    0.000    2.000    2.500    3.375    0.000    0.500 
#    0.000    1.250    0.000    7.500    0.000    0.000 
#    0.000    4.250    0.000    0.000    0.000    0.000 
#
# Total GULP energy -357135.895610 kJ/mol
# GULP energy per Si atom -5580.248369 kJ/mol
# Density = 1.771521 g / cm^3
# Si number density = 17.755625 Si / 1000 Ang^3
#
#
#
# Elastic Constant Matrix: (Units=GPa)
#
#
# Indices 1 2 3 4 5 6 
#
# 1 130.3598 28.0049 96.8795 0.0000 0.0000 0.0000
# 2 28.0049 27.9093 30.4842 0.0000 0.0000 0.0000
# 3 96.8795 30.4842 186.5633 0.0000 0.0000 0.0000
# 4 0.0000 0.0000 0.0000 21.5186 0.0000 0.0000
# 5 0.0000 0.0000 0.0000 0.0000 26.0699 0.0000
# 6 0.0000 0.0000 0.0000 0.0000 0.0000 20.1705
#
#
#
# Elastic Compliance Matrix: (Units=1/GPa)
#
#
# Indices 1 2 3 4 5 6 
#
# 1 0.013589 -0.007216 -0.005878 0.000000 0.000000 0.000000
# 2 -0.007216 0.047446 -0.004005 0.000000 0.000000 0.000000
# 3 -0.005878 -0.004005 0.009067 0.000000 0.000000 0.000000
# 4 0.000000 0.000000 0.000000 0.046471 0.000000 0.000000
# 5 0.000000 0.000000 0.000000 0.000000 0.038358 0.000000
# 6 0.000000 0.000000 0.000000 0.000000 0.000000 0.049577
#
#
# Mechanical properties :
#
#
# Convention : Reuss Voigt Hill
#
# Bulk Modulus (GPa) = 27.85207 72.84107 50.34657
# Shear Modulus (GPa) = 19.94609 26.18272 23.06440
#
# Velocity S-wave (km/s) = 3.35530 3.84424 3.60806
# Velocity P-wave (km/s) = 5.54357 7.79856 6.76567
#
# Compressibility (1/GPa) = 0.03590398
#
# Stress axis : x y z
#
# Youngs Moduli (GPa) = 73.58682 21.07656 110.29260
#
# Poissons Ratio (x) = 0.15209 0.64826
# Poissons Ratio (y) = 0.53100 0.44177
# Poissons Ratio (z) = 0.43252 0.08442
#
# Static dielectric constant tensor:
#      x y z
#    x 1.579910 0.000000 0.000000 
#    y 0.000000 1.604480 0.000000 
#    z 0.000000 0.000000 1.621970 
# 
# From -- ./inp_files/30691.got.cif
#   From: 2010.05.17/outbox.cif.g08.bks.cpg/sg59_16_cif.got.tgz:30691.got - 2010.06.03 14:40:33.
