data_PCOD9446298
_publ_section_title
;
Structure prediction by ZEFSAII (Michael W. Deem and Ramdas Pophale) SiO2 
 PCOD9446298
Probable space group: P M M N
;
_chemical_formula_sum "Si O2"
_cell_formula_units_Z 58
_cell_length_a 17.105818
_cell_length_b 10.144326
_cell_length_c 17.438651
_cell_angle_alpha 90.000000
_cell_angle_beta 90.000000
_cell_angle_gamma 90.000000
_cell_volume 3026.076692
_symmetry_space_group_name_H-M "P M M N"
_symmetry_group_IT_number 59
_space_group.IT_coordinate_system_code '2'
_symmetry_cell_setting 'orthorhombic'
loop_
_space_group_symop_operation_xyz
x,y,z
1/2-x,1/2-y,z
1/2+x,-y,-z
-x,1/2+y,-z
-x,-y,-z
1/2+x,1/2+y,-z
1/2-x,y,z
x,1/2-y,z
loop_
_atom_site_type_symbol
_atom_site_label
_atom_site_fract_x
_atom_site_fract_y
_atom_site_fract_z
Si Si1 0.882245 0.035455 0.058812
Si Si2 0.661944 0.095678 0.220289
Si Si3 0.165028 0.908483 0.514888
Si Si4 0.161175 0.904800 0.176968
Si Si5 0.062881 0.106320 0.080844
Si Si6 0.250000 0.750000 0.982158
Si Si7 0.457327 0.593866 0.640059
Si Si8 0.103847 0.596232 0.347658
O O1 0.854453 0.009511 0.145469
O O2 0.819089 0.135280 0.023395
O O3 0.969955 0.093892 0.068083
O O4 0.894908 0.915667 0.000656
O O5 0.750000 0.074561 0.248904
O O6 0.658646 0.250000 0.193728
O O7 0.599678 0.080631 0.286955
O O8 0.250000 0.960675 0.539047
O O9 0.166889 0.750000 0.526414
O O10 0.092520 0.953154 0.566294
O O11 0.152134 0.931008 0.424935
O O12 0.250000 0.941950 0.155292
O O13 0.151828 0.750000 0.157142
O O14 0.150894 0.917134 0.268567
O O15 0.096837 0.993001 0.135384
O O16 0.079978 0.250000 0.113678
O O17 0.476742 0.750000 0.631879
O O18 0.532002 0.503749 0.652253
O O19 0.078114 0.750000 0.352054
#
# Coordination Sequence:
#
# PCOD9446298 Si02
#       8
#     8   8   8   8   8   2   8   8
#     4  11  22  37  63  85 115 154 197 235 286 348
#     4  10  17  31  54  82 108 138 187 234 272 325
#     4   9  17  32  55  82 111 143 188 237 277 325
#     4  10  23  40  62  85 112 157 207 244 286 352
#     4  11  25  41  59  90 125 148 186 248 307 345
#     4  12  20  40  66  88 106 160 208 232 272 356
#     4  10  20  32  54  85 114 145 180 229 288 340
#     4  10  20  36  56  80 111 149 190 235 281 334
#
# _framework density 19.166733000000001
#
# number of rings (size 3 to 8) (size 9 to 14) (size 15 to 20)
#    0.000    1.793    2.069    2.069    1.931    5.793 
#    0.000    0.690    0.000    4.552    0.000    0.000 
#    0.000    0.000    0.000    0.000    0.000    0.000 
#
# Total GULP energy -323166.341746 kJ/mol
# GULP energy per Si atom -5571.833478 kJ/mol
# Density = 1.912311 g / cm^3
# Si number density = 19.166733 Si / 1000 Ang^3
#
#
#
# Elastic Constant Matrix: (Units=GPa)
#
#
# Indices 1 2 3 4 5 6 
#
# 1 125.4416 45.7254 11.4215 0.0000 0.0000 0.0000
# 2 45.7254 47.1063 12.4543 0.0000 0.0000 0.0000
# 3 11.4215 12.4543 60.9176 0.0000 0.0000 0.0000
# 4 0.0000 0.0000 0.0000 12.8182 0.0000 0.0000
# 5 0.0000 0.0000 0.0000 0.0000 -6.0707 0.0000
# 6 0.0000 0.0000 0.0000 0.0000 0.0000 25.7841
#
#
#
# Elastic Compliance Matrix: (Units=1/GPa)
#
#
# Indices 1 2 3 4 5 6 
#
# 1 0.012338 -0.012014 0.000143 0.000000 0.000000 0.000000
# 2 -0.012014 0.034141 -0.004727 0.000000 0.000000 0.000000
# 3 0.000143 -0.004727 0.017355 0.000000 0.000000 0.000000
# 4 0.000000 0.000000 0.000000 0.078014 0.000000 0.000000
# 5 0.000000 0.000000 0.000000 0.000000 -0.164727 0.000000
# 6 0.000000 0.000000 0.000000 0.000000 0.000000 0.038784
#
#
# Mechanical properties :
#
#
# Convention : Reuss Voigt Hill
#
# Bulk Modulus (GPa) = 32.64055 41.40754 37.02404
# Shear Modulus (GPa) = 84.29676 17.43062 50.86369
#
# Velocity S-wave (km/s) = 6.63899 3.01893 5.15704
# Velocity P-wave (km/s) = 8.70833 5.81401 7.40398
#
# Compressibility (1/GPa) = 0.03063674
#
# Stress axis : x y z
#
# Youngs Moduli (GPa) = 81.04891 29.29066 57.61932
#
# Poissons Ratio (x) = 0.35191 -0.00824
# Poissons Ratio (y) = 0.97375 0.27238
# Poissons Ratio (z) = -0.01159 0.13847
#
# Static dielectric constant tensor:
#      x y z
#    x 1.662540 0.000000 0.000000 
#    y 0.000000 1.639720 0.000000 
#    z 0.000000 0.000000 1.714150 
# 
# From -- ./inp_files/27905.got.cif
#   From: 2010.05.17/outbox.cif.g08.bks.cpg/sg59_14_cif.got.tgz:27905.got - 2010.06.03 14:40:33.
