data_PCOD9446069
_publ_section_title
;
Structure prediction by ZEFSAII (Michael W. Deem and Ramdas Pophale) SiO2 
 PCOD9446069
Probable space group: P N N M
;
_chemical_formula_sum "Si O2"
_cell_formula_units_Z 48
_cell_length_a 18.000000
_cell_length_b 15.000000
_cell_length_c 9.000000
_cell_angle_alpha 90.000000
_cell_angle_beta 90.000000
_cell_angle_gamma 90.000000
_cell_volume 2430.000000
_symmetry_space_group_name_H-M "P N N M"
_symmetry_group_IT_number 58
_symmetry_cell_setting 'orthorhombic'
loop_
_space_group_symop_operation_xyz
x,y,z
-x,-y,z
1/2+x,1/2-y,1/2-z
1/2-x,1/2+y,1/2-z
-x,-y,-z
x,y,-z
1/2-x,1/2+y,1/2+z
1/2+x,1/2-y,1/2+z
loop_
_atom_site_type_symbol
_atom_site_label
_atom_site_fract_x
_atom_site_fract_y
_atom_site_fract_z
Si Si1 0.092372 0.824952 0.324109
Si Si2 0.834387 0.516067 0.823943
Si Si3 0.563691 0.362599 0.324408
Si Si4 0.897748 0.683046 0.673369
Si Si5 0.429938 0.128651 0.826313
Si Si6 0.829813 0.999298 0.324740
O O1 0.074125 0.822591 0.500000
O O2 0.107282 0.722897 0.282510
O O3 0.019034 0.859021 0.241764
O O4 0.157385 0.895334 0.301557
O O5 0.844913 0.608606 0.739764
O O6 0.898773 0.449767 0.772832
O O7 0.754187 0.475203 0.785389
O O8 0.836448 0.530958 0.000000
O O9 0.559941 0.361239 0.500000
O O10 0.604209 0.274592 0.262594
O O11 0.609429 0.446376 0.266664
O O12 0.884060 0.699310 0.500000
O O13 0.982124 0.645365 0.687941
O O14 0.414569 0.108711 0.000000
O O15 0.841841 0.981411 0.500000
#
# Coordination Sequence:
#
# PCOD9446069 Si02
#       6
#     8   8   8   8   8   8
#     4   9  19  38  61  80 106 147 189 227 273 333
#     4  11  23  36  54  84 117 148 185 230 275 321
#     4  11  22  36  58  87 113 139 182 236 280 322
#     4  10  21  39  61  82 108 146 188 227 276 336
#     4   9  19  36  58  82 107 144 189 228 275 333
#     4  10  22  39  56  79 115 155 187 219 273 337
#
# _framework density 19.753086
#
# number of rings (size 3 to 8) (size 9 to 14) (size 15 to 20)
#    0.000    2.000    0.000    4.500    0.000   10.667 
#    0.000    1.667    0.000    0.000    0.000    0.000 
#    0.000    0.000    0.000    0.000    0.000    0.000 
#
# Total GULP energy -268043.741939 kJ/mol
# GULP energy per Si atom -5584.244624 kJ/mol
# Density = 1.970813 g / cm^3
# Si number density = 19.753086 Si / 1000 Ang^3
#
#
#
# Elastic Constant Matrix: (Units=GPa)
#
#
# Indices 1 2 3 4 5 6 
#
# 1 9.5533 11.0337 14.9838 0.0000 0.0000 0.0000
# 2 11.0337 59.6868 24.7392 0.0000 0.0000 0.0000
# 3 14.9838 24.7392 23.3658 0.0000 0.0000 0.0000
# 4 0.0000 0.0000 0.0000 32.8615 0.0000 0.0000
# 5 0.0000 0.0000 0.0000 0.0000 20.8129 0.0000
# 6 0.0000 0.0000 0.0000 0.0000 0.0000 -12.6232
#
#
#
# Elastic Compliance Matrix: (Units=1/GPa)
#
#
# Indices 1 2 3 4 5 6 
#
# 1 -1.329676 -0.191781 1.055736 0.000000 0.000000 0.000000
# 2 -0.191781 0.002196 0.120659 0.000000 0.000000 0.000000
# 3 1.055736 0.120659 -0.761965 0.000000 0.000000 0.000000
# 4 0.000000 0.000000 0.000000 0.030431 0.000000 0.000000
# 5 0.000000 0.000000 0.000000 0.000000 0.048047 0.000000
# 6 0.000000 0.000000 0.000000 0.000000 0.000000 -0.079219
#
#
# Mechanical properties :
#
#
# Convention : Reuss Voigt Hill
#
# Bulk Modulus (GPa) = -8.31814 21.56881 6.62533
# Shear Modulus (GPa) = -1.21966 11.00020 4.89027
#
# Velocity S-wave (km/s) = -0.78664 2.36240 1.57514
# Velocity P-wave (km/s) = 2.24617 4.28768 2.58253
#
# Compressibility (1/GPa) = -0.12021916
#
# Stress axis : x y z
#
# Youngs Moduli (GPa) = -0.75206 455.42739 -1.31240
#
# Poissons Ratio (x) = 87.34248 1.38554
# Poissons Ratio (y) = -0.14423 0.15835
# Poissons Ratio (z) = 0.79398 -54.95134
#
# Static dielectric constant tensor:
#      x y z
#    x 1.697350 0.000000 0.000000 
#    y 0.000000 1.723580 0.000000 
#    z 0.000000 0.000000 1.659650 
# 
# From -- ./inp_files/5893.got.cif
#   From: 2010.05.17/outbox.ucp.g08.bks.cvg/sg58_3_cif.got.tgz:5893.got - 2010.06.11 16:41:41.
