data_PCOD9446773
_publ_section_title
;
Structure prediction by ZEFSAII (Michael W. Deem and Ramdas Pophale) SiO2 
 PCOD9446773
Probable space group: P M M N
;
_chemical_formula_sum "Si O2"
_cell_formula_units_Z 56
_cell_length_a 20.023919
_cell_length_b 7.608697
_cell_length_c 15.959420
_cell_angle_alpha 90.000000
_cell_angle_beta 90.000000
_cell_angle_gamma 90.000000
_cell_volume 2431.512315
_symmetry_space_group_name_H-M "P M M N"
_symmetry_group_IT_number 59
_space_group.IT_coordinate_system_code '2'
_symmetry_cell_setting 'orthorhombic'
loop_
_space_group_symop_operation_xyz
x,y,z
1/2-x,1/2-y,z
1/2+x,-y,-z
-x,1/2+y,-z
-x,-y,-z
1/2+x,1/2+y,-z
1/2-x,y,z
x,1/2-y,z
loop_
_atom_site_type_symbol
_atom_site_label
_atom_site_fract_x
_atom_site_fract_y
_atom_site_fract_z
Si Si1 0.322227 0.455865 0.787950
Si Si2 0.062456 0.553770 0.900127
Si Si3 0.325047 0.962486 0.023753
Si Si4 0.467430 0.945439 0.586221
Si Si5 0.178497 0.455403 0.587278
Si Si6 0.528926 0.533599 0.757244
Si Si7 0.323370 0.041290 0.220691
O O1 0.250000 0.521261 0.816698
O O2 0.329432 0.250000 0.810856
O O3 0.382125 0.561928 0.826606
O O4 0.321015 0.463189 0.688136
O O5 0.042474 0.750000 0.928484
O O6 0.001276 0.471385 0.847334
O O7 0.109169 0.472329 0.973307
O O8 0.250000 0.023722 0.997010
O O9 0.325565 0.750000 0.014971
O O10 0.329339 0.010942 0.121001
O O11 0.491324 0.750000 0.600500
O O12 0.486437 0.030885 0.676124
O O13 0.500000 0.000000 0.500000
O O14 0.389358 0.951948 0.566006
O O15 0.250000 0.523840 0.556775
O O16 0.173623 0.250000 0.563452
O O17 0.526513 0.750000 0.764731
O O18 0.605771 0.477939 0.743635
O O19 0.250000 0.969912 0.246727
O O20 0.321566 0.250000 0.236581
#
# Coordination Sequence:
#
# PCOD9446773 Si02
#       7
#     8   8   8   8   8   8   8
#     4   9  17  28  44  70 105 139 171 209 249 297
#     4  10  18  30  48  72 104 140 177 214 256 314
#     4   9  18  31  47  72 106 140 174 214 263 316
#     4  11  22  38  59  83 112 145 182 230 282 335
#     4   9  18  34  55  80 111 144 177 216 266 326
#     4   9  19  35  54  78 104 133 177 226 268 318
#     4   9  18  35  57  75  96 133 181 227 268 313
#
# _framework density 23.030934999999999
#
# number of rings (size 3 to 8) (size 9 to 14) (size 15 to 20)
#    0.000    2.571    1.429    1.714    0.000    2.286 
#    0.000    5.714    0.000    2.571    0.000    0.000 
#    0.000    0.000    0.000    0.000    0.000    0.000 
#
# Total GULP energy -311956.757526 kJ/mol
# GULP energy per Si atom -5570.656384 kJ/mol
# Density = 2.297852 g / cm^3
# Si number density = 23.030935 Si / 1000 Ang^3
#
#
#
# Elastic Constant Matrix: (Units=GPa)
#
#
# Indices 1 2 3 4 5 6 
#
# 1 143.8233 -1.3897 26.6229 0.0000 0.0000 0.0000
# 2 -1.3897 38.4652 -1.6023 0.0000 0.0000 0.0000
# 3 26.6229 -1.6023 35.1166 0.0000 0.0000 0.0000
# 4 0.0000 0.0000 0.0000 15.5379 0.0000 0.0000
# 5 0.0000 0.0000 0.0000 0.0000 6.1995 0.0000
# 6 0.0000 0.0000 0.0000 0.0000 0.0000 6.8200
#
#
#
# Elastic Compliance Matrix: (Units=1/GPa)
#
#
# Indices 1 2 3 4 5 6 
#
# 1 0.008088 0.000037 -0.006130 0.000000 0.000000 0.000000
# 2 0.000037 0.026047 0.001161 0.000000 0.000000 0.000000
# 3 -0.006130 0.001161 0.033177 0.000000 0.000000 0.000000
# 4 0.000000 0.000000 0.000000 0.064359 0.000000 0.000000
# 5 0.000000 0.000000 0.000000 0.000000 0.161304 0.000000
# 6 0.000000 0.000000 0.000000 0.000000 0.000000 0.146628
#
#
# Mechanical properties :
#
#
# Convention : Reuss Voigt Hill
#
# Bulk Modulus (GPa) = 17.40745 29.40746 23.40745
# Shear Modulus (GPa) = 10.66969 18.62975 14.64972
#
# Velocity S-wave (km/s) = 2.15472 2.84720 2.52482
# Velocity P-wave (km/s) = 3.71014 4.85851 4.32263
#
# Compressibility (1/GPa) = 0.05744667
#
# Stress axis : x y z
#
# Youngs Moduli (GPa) = 123.63884 38.39189 30.14146
#
# Poissons Ratio (x) = -0.00141 0.18477
# Poissons Ratio (y) = -0.00456 -0.03498
# Poissons Ratio (z) = 0.75792 -0.04456
#
# Static dielectric constant tensor:
#      x y z
#    x 1.781800 0.000000 0.000000 
#    y 0.000000 1.973780 0.000000 
#    z 0.000000 0.000000 11.728930 
# 
# From -- ./inp_files/24276.got.cif
#   From: 2010.05.17/outbox.cif.g08.bks.cpg/sg59_13_cif.got.tgz:24276.got - 2010.06.03 14:40:33.
