data_PCOD9446507
_publ_section_title
;
Structure prediction by ZEFSAII (Michael W. Deem and Ramdas Pophale) SiO2 
 PCOD9446507
Probable space group: P M M N
;
_chemical_formula_sum "Si O2"
_cell_formula_units_Z 48
_cell_length_a 14.269180
_cell_length_b 7.432345
_cell_length_c 21.761885
_cell_angle_alpha 90.000000
_cell_angle_beta 90.000000
_cell_angle_gamma 90.000000
_cell_volume 2307.923388
_symmetry_space_group_name_H-M "P M M N"
_symmetry_group_IT_number 59
_space_group.IT_coordinate_system_code '2'
_symmetry_cell_setting 'orthorhombic'
loop_
_space_group_symop_operation_xyz
x,y,z
1/2-x,1/2-y,z
1/2+x,-y,-z
-x,1/2+y,-z
-x,-y,-z
1/2+x,1/2+y,-z
1/2-x,y,z
x,1/2-y,z
loop_
_atom_site_type_symbol
_atom_site_label
_atom_site_fract_x
_atom_site_fract_y
_atom_site_fract_z
Si Si1 0.643991 0.966225 0.466811
Si Si2 0.860281 0.033684 0.953999
Si Si3 0.358286 0.029239 0.281223
Si Si4 0.642345 0.029734 0.090744
Si Si5 0.451733 0.036063 0.407491
Si Si6 0.524576 0.544085 0.834145
O O1 0.750000 0.030915 0.455022
O O2 0.648629 0.750000 0.470585
O O3 0.603408 0.034208 0.532339
O O4 0.562393 0.006634 0.417823
O O5 0.750000 0.991751 0.948700
O O6 0.869891 0.250000 0.951288
O O7 0.914694 0.956012 0.896445
O O8 0.889978 0.973439 0.022328
O O9 0.250000 0.972865 0.279358
O O10 0.357234 0.250000 0.280362
O O11 0.408991 0.969560 0.343772
O O12 0.415879 0.966059 0.221659
O O13 0.750000 0.976941 0.098810
O O14 0.640007 0.250000 0.090340
O O15 0.573616 0.963255 0.143675
O O16 0.436904 0.250000 0.407374
O O17 0.504715 0.750000 0.816058
#
# Coordination Sequence:
#
# PCOD9446507 Si02
#       6
#     8   8   8   8   8   8
#     4   9  17  30  49  71  94 121 152 187 228 267
#     4   9  17  29  44  62  87 118 147 179 225 273
#     4   9  17  29  45  67  95 121 144 176 221 269
#     4   8  15  28  44  62  86 116 148 182 223 268
#     4   9  17  30  48  69  93 123 156 185 217 263
#     4  10  18  28  46  69  89 113 148 187 221 257
#
# _framework density 20.797917000000002
#
# number of rings (size 3 to 8) (size 9 to 14) (size 15 to 20)
#    0.000    3.000    0.000    2.500    0.000    3.333 
#    0.000    1.667    0.000    7.000    0.000    0.000 
#    0.000    0.000    0.000    0.000    0.000    0.000 
#
# Total GULP energy -267820.906307 kJ/mol
# GULP energy per Si atom -5579.602215 kJ/mol
# Density = 2.075058 g / cm^3
# Si number density = 20.797917 Si / 1000 Ang^3
#
#
#
# Elastic Constant Matrix: (Units=GPa)
#
#
# Indices 1 2 3 4 5 6 
#
# 1 155.8347 -2.1004 106.2900 0.0000 0.0000 0.0000
# 2 -2.1004 62.2939 2.6016 0.0000 0.0000 0.0000
# 3 106.2900 2.6016 152.4672 0.0000 0.0000 0.0000
# 4 0.0000 0.0000 0.0000 10.7796 0.0000 0.0000
# 5 0.0000 0.0000 0.0000 0.0000 29.8610 0.0000
# 6 0.0000 0.0000 0.0000 0.0000 0.0000 11.1490
#
#
#
# Elastic Compliance Matrix: (Units=1/GPa)
#
#
# Indices 1 2 3 4 5 6 
#
# 1 0.012271 0.000772 -0.008568 0.000000 0.000000 0.000000
# 2 0.000772 0.016113 -0.000813 0.000000 0.000000 0.000000
# 3 -0.008568 -0.000813 0.012546 0.000000 0.000000 0.000000
# 4 0.000000 0.000000 0.000000 0.092768 0.000000 0.000000
# 5 0.000000 0.000000 0.000000 0.000000 0.033488 0.000000
# 6 0.000000 0.000000 0.000000 0.000000 0.000000 0.089694
#
#
# Mechanical properties :
#
#
# Convention : Reuss Voigt Hill
#
# Bulk Modulus (GPa) = 42.17356 64.90870 53.54113
# Shear Modulus (GPa) = 17.73029 27.94488 22.83758
#
# Velocity S-wave (km/s) = 2.92293 3.66954 3.31731
# Velocity P-wave (km/s) = 5.63145 7.01648 6.36177
#
# Compressibility (1/GPa) = 0.02371154
#
# Stress axis : x y z
#
# Youngs Moduli (GPa) = 81.49036 62.06204 79.70879
#
# Poissons Ratio (x) = -0.04789 0.68294
# Poissons Ratio (y) = -0.06288 0.06479
# Poissons Ratio (z) = 0.69821 0.05045
#
# Static dielectric constant tensor:
#      x y z
#    x 1.746970 0.000000 0.000000 
#    y 0.000000 1.807320 0.000000 
#    z 0.000000 0.000000 1.717410 
# 
# From -- ./inp_files/26889.got.cif
#   From: 2010.05.17/outbox.cif.g08.bks.cpg/sg59_14_cif.got.tgz:26889.got - 2010.06.03 14:40:33.
