data_PCOD9446806
_publ_section_title
;
Structure prediction by ZEFSAII (Michael W. Deem and Ramdas Pophale) SiO2 
 PCOD9446806
Probable space group: P M M N
;
_chemical_formula_sum "Si O2"
_cell_formula_units_Z 64
_cell_length_a 20.411487
_cell_length_b 7.760272
_cell_length_c 20.978148
_cell_angle_alpha 90.000000
_cell_angle_beta 90.000000
_cell_angle_gamma 90.000000
_cell_volume 3322.911184
_symmetry_space_group_name_H-M "P M M N"
_symmetry_group_IT_number 59
_space_group.IT_coordinate_system_code '2'
_symmetry_cell_setting 'orthorhombic'
loop_
_space_group_symop_operation_xyz
x,y,z
1/2-x,1/2-y,z
1/2+x,-y,-z
-x,1/2+y,-z
-x,-y,-z
1/2+x,1/2+y,-z
1/2-x,y,z
x,1/2-y,z
loop_
_atom_site_type_symbol
_atom_site_label
_atom_site_fract_x
_atom_site_fract_y
_atom_site_fract_z
Si Si1 0.945300 0.546653 0.830509
Si Si2 0.579919 0.450763 0.694051
Si Si3 0.428022 0.544963 0.026268
Si Si4 0.675672 0.461233 0.077963
Si Si5 0.932796 0.049532 0.334777
Si Si6 0.426955 0.541961 0.523919
Si Si7 0.824951 0.039250 0.583700
Si Si8 0.906790 0.460978 0.197517
O O1 0.946178 0.750000 0.819499
O O2 0.908652 0.468702 0.769548
O O3 0.919567 0.513844 0.901101
O O4 0.021040 0.485589 0.826955
O O5 0.569107 0.250000 0.679217
O O6 0.511172 0.540876 0.677110
O O7 0.638573 0.512463 0.649097
O O8 0.423424 0.750000 0.026278
O O9 0.500000 0.500000 0.000000
O O10 0.373178 0.478543 0.977513
O O11 0.750000 0.516926 0.068621
O O12 0.674899 0.250000 0.077473
O O13 0.646681 0.515253 0.146299
O O14 0.913613 0.250000 0.337378
O O15 0.918187 0.973771 0.404102
O O16 0.900782 0.976509 0.270269
O O17 0.500000 0.500000 0.500000
O O18 0.423013 0.750000 0.526013
O O19 0.371847 0.482319 0.474237
O O20 0.750000 0.980073 0.579326
O O21 0.823364 0.250000 0.582616
O O22 0.906565 0.250000 0.198730
#
# Coordination Sequence:
#
# PCOD9446806 Si02
#       8
#     8   8   8   8   8   8   8   8
#     4  10  19  33  52  75 103 131 163 213 262 302
#     4  10  18  30  50  75  98 128 170 212 255 307
#     4  11  20  32  52  79 105 135 175 215 259 305
#     4   9  17  30  49  73 102 134 169 209 251 301
#     4   9  17  28  47  73 103 130 160 208 258 300
#     4  10  18  30  49  74 102 134 172 214 260 304
#     4   9  18  32  49  71 103 140 176 216 261 311
#     4   8  14  27  45  69  97 126 159 198 248 296
#
# _framework density 19.260221000000001
#
# number of rings (size 3 to 8) (size 9 to 14) (size 15 to 20)
#    0.000    2.500    2.500    1.875    0.000    0.000 
#    0.000    1.250    0.000   12.375    0.000    0.000 
#    0.000    1.250    0.000    0.000    0.000    0.000 
#
# Total GULP energy -356924.818794 kJ/mol
# GULP energy per Si atom -5576.950294 kJ/mol
# Density = 1.921638 g / cm^3
# Si number density = 19.260221 Si / 1000 Ang^3
#
#
#
# Elastic Constant Matrix: (Units=GPa)
#
#
# Indices 1 2 3 4 5 6 
#
# 1 127.7795 -2.0146 92.8330 0.0000 0.0000 0.0000
# 2 -2.0146 29.2219 -1.5259 0.0000 0.0000 0.0000
# 3 92.8330 -1.5259 194.5939 0.0000 0.0000 0.0000
# 4 0.0000 0.0000 0.0000 14.0921 0.0000 0.0000
# 5 0.0000 0.0000 0.0000 0.0000 26.8523 0.0000
# 6 0.0000 0.0000 0.0000 0.0000 0.0000 13.5420
#
#
#
# Elastic Compliance Matrix: (Units=1/GPa)
#
#
# Indices 1 2 3 4 5 6 
#
# 1 0.011985 0.000528 -0.005714 0.000000 0.000000 0.000000
# 2 0.000528 0.034258 0.000017 0.000000 0.000000 0.000000
# 3 -0.005714 0.000017 0.007865 0.000000 0.000000 0.000000
# 4 0.000000 0.000000 0.000000 0.070962 0.000000 0.000000
# 5 0.000000 0.000000 0.000000 0.000000 0.037241 0.000000
# 6 0.000000 0.000000 0.000000 0.000000 0.000000 0.073844
#
#
# Mechanical properties :
#
#
# Convention : Reuss Voigt Hill
#
# Bulk Modulus (GPa) = 22.84644 58.90892 40.87768
# Shear Modulus (GPa) = 19.15100 28.38413 23.76757
#
# Velocity S-wave (km/s) = 3.15672 3.84307 3.51668
# Velocity P-wave (km/s) = 5.01739 7.09538 6.14486
#
# Compressibility (1/GPa) = 0.04377049
#
# Stress axis : x y z
#
# Youngs Moduli (GPa) = 83.43597 29.19011 127.14981
#
# Poissons Ratio (x) = -0.01541 0.72648
# Poissons Ratio (y) = -0.04405 -0.00214
# Poissons Ratio (z) = 0.47671 -0.00049
#
# Static dielectric constant tensor:
#      x y z
#    x 1.633280 0.000000 0.000000 
#    y 0.000000 1.736820 0.000000 
#    z 0.000000 0.000000 1.693380 
# 
# From -- ./inp_files/30986.got.cif
#   From: 2010.05.17/outbox.cif.g08.bks.cpg/sg59_16_cif.got.tgz:30986.got - 2010.06.03 14:40:33.
