data_PCOD9446898
_publ_section_title
;
Structure prediction by ZEFSAII (Michael W. Deem and Ramdas Pophale) SiO2 
 PCOD9446898
Probable space group: P M M N
;
_chemical_formula_sum "Si O2"
_cell_formula_units_Z 40
_cell_length_a 20.113068
_cell_length_b 11.409634
_cell_length_c 10.443482
_cell_angle_alpha 90.000000
_cell_angle_beta 90.000000
_cell_angle_gamma 90.000000
_cell_volume 2396.598911
_symmetry_space_group_name_H-M "P M M N"
_symmetry_group_IT_number 59
_space_group.IT_coordinate_system_code '2'
_symmetry_cell_setting 'orthorhombic'
loop_
_space_group_symop_operation_xyz
x,y,z
1/2-x,1/2-y,z
1/2+x,-y,-z
-x,1/2+y,-z
-x,-y,-z
1/2+x,1/2+y,-z
1/2-x,y,z
x,1/2-y,z
loop_
_atom_site_type_symbol
_atom_site_label
_atom_site_fract_x
_atom_site_fract_y
_atom_site_fract_z
Si Si1 0.938272 0.113485 0.374137
Si Si2 0.590728 0.531872 0.621615
Si Si3 0.170330 0.250000 0.777278
Si Si4 0.670813 0.750000 0.525263
Si Si5 0.931712 0.110923 0.875213
Si Si6 0.413853 0.463970 0.872433
O O1 0.924597 0.250000 0.371995
O O2 0.017732 0.091660 0.375881
O O3 0.908936 0.053620 0.500033
O O4 0.911724 0.050022 0.248450
O O5 0.642513 0.635346 0.595992
O O6 0.596274 0.454899 0.749787
O O7 0.250000 0.250000 0.781663
O O8 0.149312 0.250000 0.625812
O O9 0.139381 0.137223 0.847290
O O10 0.750000 0.750000 0.526758
O O11 0.917403 0.250000 0.877498
O O12 0.012183 0.093806 0.873990
O O13 0.906559 0.040387 0.999471
#
# Coordination Sequence:
#
# PCOD9446898 Si02
#       6
#     8   8   4   4   8   8
#     4  10  18  30  54  80 113 143 179 240 276 330
#     4  10  20  32  53  83 110 145 186 223 291 334
#     4  11  22  39  61  81 115 153 192 235 269 336
#     4  11  22  39  59  81 117 149 192 241 273 336
#     4  10  20  34  56  84 120 146 172 243 291 329
#     4  10  20  34  55  84 116 147 189 224 282 338
#
# _framework density 16.690317
#
# number of rings (size 3 to 8) (size 9 to 14) (size 15 to 20)
#    0.000    1.800    4.000    1.200    0.000    0.800 
#    0.000    2.000    0.000    7.200    0.000    0.000 
#    0.000    0.000    0.000    0.000    0.000    0.000 
#
# Total GULP energy -223197.180772 kJ/mol
# GULP energy per Si atom -5579.929519 kJ/mol
# Density = 1.665233 g / cm^3
# Si number density = 16.690317 Si / 1000 Ang^3
#
#
#
# Elastic Constant Matrix: (Units=GPa)
#
#
# Indices 1 2 3 4 5 6 
#
# 1 48.7227 51.8321 42.0352 0.0000 0.0000 0.0000
# 2 51.8321 187.0843 95.1325 0.0000 0.0000 0.0000
# 3 42.0352 95.1325 171.1636 0.0000 0.0000 0.0000
# 4 0.0000 0.0000 0.0000 19.7867 0.0000 0.0000
# 5 0.0000 0.0000 0.0000 0.0000 12.0348 0.0000
# 6 0.0000 0.0000 0.0000 0.0000 0.0000 14.2365
#
#
#
# Elastic Compliance Matrix: (Units=1/GPa)
#
#
# Indices 1 2 3 4 5 6 
#
# 1 0.030902 -0.006555 -0.003946 0.000000 0.000000 0.000000
# 2 -0.006555 0.008841 -0.003304 0.000000 0.000000 0.000000
# 3 -0.003946 -0.003304 0.008648 0.000000 0.000000 0.000000
# 4 0.000000 0.000000 0.000000 0.050539 0.000000 0.000000
# 5 0.000000 0.000000 0.000000 0.000000 0.083092 0.000000
# 6 0.000000 0.000000 0.000000 0.000000 0.000000 0.070242
#
#
# Mechanical properties :
#
#
# Convention : Reuss Voigt Hill
#
# Bulk Modulus (GPa) = 48.12057 87.21891 67.66974
# Shear Modulus (GPa) = 17.43363 23.74297 20.58830
#
# Velocity S-wave (km/s) = 3.23543 3.77578 3.51600
# Velocity P-wave (km/s) = 6.54610 8.44863 7.55747
#
# Compressibility (1/GPa) = 0.02078113
#
# Stress axis : x y z
#
# Youngs Moduli (GPa) = 32.36056 113.10305 115.63503
#
# Poissons Ratio (x) = 0.74139 0.45627
# Poissons Ratio (y) = 0.21212 0.38209
# Poissons Ratio (z) = 0.12769 0.37372
#
# Static dielectric constant tensor:
#      x y z
#    x 1.536210 0.000000 0.000000 
#    y 0.000000 1.530630 0.000000 
#    z 0.000000 0.000000 1.562660 
# 
# From -- ./inp_files/11176.got.cif
#   From: 2010.05.17/outbox.cif.g08.bks.cpg/sg59_6_cif.got.tgz:11176.got - 2010.06.03 14:40:33.
