data_PCOD9446116
_publ_section_title
;
Structure prediction by ZEFSAII (Michael W. Deem and Ramdas Pophale) SiO2 
 PCOD9446116
Probable space group: P N N M
;
_chemical_formula_sum "Si O2"
_cell_formula_units_Z 48
_cell_length_a 9.000000
_cell_length_b 15.000000
_cell_length_c 18.000000
_cell_angle_alpha 90.000000
_cell_angle_beta 90.000000
_cell_angle_gamma 90.000000
_cell_volume 2430.000000
_symmetry_space_group_name_H-M "P N N M"
_symmetry_group_IT_number 58
_symmetry_cell_setting 'orthorhombic'
loop_
_space_group_symop_operation_xyz
x,y,z
-x,-y,z
1/2+x,1/2-y,1/2-z
1/2-x,1/2+y,1/2-z
-x,-y,-z
x,y,-z
1/2-x,1/2+y,1/2+z
1/2+x,1/2-y,1/2+z
loop_
_atom_site_type_symbol
_atom_site_label
_atom_site_fract_x
_atom_site_fract_y
_atom_site_fract_z
Si Si1 0.036549 0.101249 0.911486
Si Si2 0.224213 0.776122 0.914777
Si Si3 0.077413 0.403303 0.662401
Si Si4 0.154936 0.112657 0.682144
Si Si5 0.701646 0.593301 0.804295
Si Si6 0.220661 0.700401 0.331716
O O1 0.926358 0.179377 0.881624
O O2 0.199389 0.139866 0.894371
O O3 0.013898 0.096664 0.000000
O O4 0.000000 0.000000 0.882443
O O5 0.335121 0.860591 0.906650
O O6 0.290511 0.687068 0.877188
O O7 0.197252 0.754157 0.000000
O O8 0.198726 0.407344 0.729108
O O9 0.000000 0.500000 0.653746
O O10 0.950539 0.329064 0.675896
O O11 0.208964 0.158754 0.757678
O O12 0.977573 0.102141 0.693488
O O13 0.219739 0.011517 0.668265
O O14 0.743753 0.692170 0.839350
#
# Coordination Sequence:
#
# PCOD9446116 Si02
#       6
#     8   8   8   8   8   8
#     4  10  24  43  66  95 130 173 210 260 332 397
#     4  11  24  44  64  90 134 178 220 265 324 394
#     4  12  23  37  62 103 126 162 211 274 338 384
#     4  11  24  41  65  94 126 174 220 266 330 383
#     4  11  23  40  62  96 128 165 214 271 327 379
#     4  12  22  37  66  93 130 163 212 270 319 396
#
# _framework density 19.753086
#
# number of rings (size 3 to 8) (size 9 to 14) (size 15 to 20)
#    0.000    0.833    5.000    2.000    4.667    1.000 
#    0.000    2.500    0.000    2.000    0.000    0.000 
#    0.000    0.000    0.000    0.000    0.000    0.000 
#
# Total GULP energy -267252.499749 kJ/mol
# GULP energy per Si atom -5567.760411 kJ/mol
# Density = 1.970813 g / cm^3
# Si number density = 19.753086 Si / 1000 Ang^3
#
#
#
# Elastic Constant Matrix: (Units=GPa)
#
#
# Indices 1 2 3 4 5 6 
#
# 1 79.4450 32.9515 16.6132 0.0000 0.0000 0.0000
# 2 32.9515 180.2387 23.1333 0.0000 0.0000 0.0000
# 3 16.6132 23.1333 27.4409 0.0000 0.0000 0.0000
# 4 0.0000 0.0000 0.0000 26.1554 0.0000 0.0000
# 5 0.0000 0.0000 0.0000 0.0000 17.4371 0.0000
# 6 0.0000 0.0000 0.0000 0.0000 0.0000 42.3256
#
#
#
# Elastic Compliance Matrix: (Units=1/GPa)
#
#
# Indices 1 2 3 4 5 6 
#
# 1 0.014891 -0.001755 -0.007536 0.000000 0.000000 0.000000
# 2 -0.001755 0.006428 -0.004357 0.000000 0.000000 0.000000
# 3 -0.007536 -0.004357 0.044677 0.000000 0.000000 0.000000
# 4 0.000000 0.000000 0.000000 0.038233 0.000000 0.000000
# 5 0.000000 0.000000 0.000000 0.000000 0.057349 0.000000
# 6 0.000000 0.000000 0.000000 0.000000 0.000000 0.023626
#
#
# Mechanical properties :
#
#
# Convention : Reuss Voigt Hill
#
# Bulk Modulus (GPa) = 25.83883 48.05785 36.94834
# Shear Modulus (GPa) = 22.18279 31.47873 26.83076
#
# Velocity S-wave (km/s) = 3.35476 3.99634 3.68952
# Velocity P-wave (km/s) = 5.30238 6.75843 6.07419
#
# Compressibility (1/GPa) = 0.03870144
#
# Stress axis : x y z
#
# Youngs Moduli (GPa) = 67.15389 155.56356 22.38293
#
# Poissons Ratio (x) = 0.27305 0.16867
# Poissons Ratio (y) = 0.11787 0.09751
# Poissons Ratio (z) = 0.50605 0.67771
#
# Static dielectric constant tensor:
#      x y z
#    x 1.804320 0.000000 0.000000 
#    y 0.000000 1.722680 0.000000 
#    z 0.000000 0.000000 1.719640 
# 
# From -- ./inp_files/25257.got.cif
#   From: 2010.05.17/outbox.ucp.g08.bks.cvg/sg58_13_cif.got.tgz:25257.got - 2010.06.11 16:41:41.
