data_PCOD9446282
_publ_section_title
;
Structure prediction by ZEFSAII (Michael W. Deem and Ramdas Pophale) SiO2 
 PCOD9446282
Probable space group: P M M N
;
_chemical_formula_sum "Si O2"
_cell_formula_units_Z 48
_cell_length_a 18.847797
_cell_length_b 12.722456
_cell_length_c 12.705805
_cell_angle_alpha 90.000000
_cell_angle_beta 90.000000
_cell_angle_gamma 90.000000
_cell_volume 3046.728386
_symmetry_space_group_name_H-M "P M M N"
_symmetry_group_IT_number 59
_space_group.IT_coordinate_system_code '2'
_symmetry_cell_setting 'orthorhombic'
loop_
_space_group_symop_operation_xyz
x,y,z
1/2-x,1/2-y,z
1/2+x,-y,-z
-x,1/2+y,-z
-x,-y,-z
1/2+x,1/2+y,-z
1/2-x,y,z
x,1/2-y,z
loop_
_atom_site_type_symbol
_atom_site_label
_atom_site_fract_x
_atom_site_fract_y
_atom_site_fract_z
Si Si1 0.408258 0.042099 0.414694
Si Si2 0.669775 0.750000 0.578642
Si Si3 0.069882 0.874649 0.580783
Si Si4 0.167589 0.250000 0.165672
Si Si5 0.333807 0.625001 0.017974
Si Si6 0.588711 0.963069 0.831829
Si Si7 0.932357 0.374690 0.180962
O O1 0.365483 0.142278 0.455666
O O2 0.489110 0.083352 0.417886
O O3 0.393532 0.020358 0.291860
O O4 0.395021 0.942671 0.488902
O O5 0.750000 0.750000 0.546033
O O6 0.664722 0.750000 0.706433
O O7 0.071961 0.750000 0.560787
O O8 0.095143 0.894275 0.700373
O O9 0.250000 0.250000 0.134425
O O10 0.127507 0.144424 0.132309
O O11 0.250000 0.596733 0.017932
O O12 0.338511 0.750000 0.040117
O O13 0.378939 0.557547 0.101066
O O14 0.372093 0.607258 0.905566
O O15 0.504018 0.941650 0.839900
O O16 0.952800 0.250000 0.178140
#
# Coordination Sequence:
#
# PCOD9446282 Si02
#       7
#     8   4   8   4   8   8   8
#     4   9  17  28  47  74  99 124 156 193 246 286
#     4   9  16  28  44  65  97 130 161 187 226 293
#     4   9  16  29  50  73  99 123 155 204 239 280
#     4   9  16  26  46  73  96 122 151 193 247 287
#     4  10  21  34  48  67  95 131 163 195 241 293
#     4  10  17  30  50  73  99 121 158 204 242 287
#     4   9  17  32  52  72  94 125 165 204 234 276
#
# _framework density 15.754605
#
# number of rings (size 3 to 8) (size 9 to 14) (size 15 to 20)
#    0.000    2.667    1.667    1.000    0.000    1.333 
#    0.000    0.833    0.000    1.500    0.000    1.167 
#    0.000    0.000    0.000    0.000    0.000    0.000 
#
# Total GULP energy -267208.528765 kJ/mol
# GULP energy per Si atom -5566.844349 kJ/mol
# Density = 1.571875 g / cm^3
# Si number density = 15.754605 Si / 1000 Ang^3
#
#
#
# Elastic Constant Matrix: (Units=GPa)
#
#
# Indices 1 2 3 4 5 6 
#
# 1 41.2433 26.4293 34.7742 0.0000 0.0000 0.0000
# 2 26.4293 88.4982 67.1077 0.0000 0.0000 0.0000
# 3 34.7742 67.1077 91.0138 0.0000 0.0000 0.0000
# 4 0.0000 0.0000 0.0000 26.4881 0.0000 0.0000
# 5 0.0000 0.0000 0.0000 0.0000 9.4502 0.0000
# 6 0.0000 0.0000 0.0000 0.0000 0.0000 5.4430
#
#
#
# Elastic Compliance Matrix: (Units=1/GPa)
#
#
# Indices 1 2 3 4 5 6 
#
# 1 0.035790 -0.000724 -0.013141 0.000000 0.000000 0.000000
# 2 -0.000724 0.025644 -0.018632 0.000000 0.000000 0.000000
# 3 -0.013141 -0.018632 0.029746 0.000000 0.000000 0.000000
# 4 0.000000 0.000000 0.000000 0.037753 0.000000 0.000000
# 5 0.000000 0.000000 0.000000 0.000000 0.105818 0.000000
# 6 0.000000 0.000000 0.000000 0.000000 0.000000 0.183723
#
#
# Mechanical properties :
#
#
# Convention : Reuss Voigt Hill
#
# Bulk Modulus (GPa) = 38.18651 53.04195 45.61423
# Shear Modulus (GPa) = 10.15855 14.43919 12.29887
#
# Velocity S-wave (km/s) = 2.54204 3.03067 2.79705
# Velocity P-wave (km/s) = 5.73645 6.78139 6.28069
#
# Compressibility (1/GPa) = 0.02618726
#
# Stress axis : x y z
#
# Youngs Moduli (GPa) = 27.94096 38.99511 33.61796
#
# Poissons Ratio (x) = 0.02823 0.44176
# Poissons Ratio (y) = 0.02022 0.62636
# Poissons Ratio (z) = 0.36716 0.72655
#
# Static dielectric constant tensor:
#      x y z
#    x 1.523370 0.000000 0.000000 
#    y 0.000000 1.494240 0.000000 
#    z 0.000000 0.000000 1.530270 
# 
# From -- ./inp_files/9079.got.cif
#   From: 2010.05.17/outbox.cif.g08.bks.cpg/sg59_5_cif.got.tgz:9079.got - 2010.06.03 14:40:33.
