data_PCOD9446046
_publ_section_title
;
Structure prediction by ZEFSAII (Michael W. Deem and Ramdas Pophale) SiO2 
 PCOD9446046
Probable space group: P N N M
;
_chemical_formula_sum "Si O2"
_cell_formula_units_Z 48
_cell_length_a 30.000000
_cell_length_b 9.000000
_cell_length_c 9.000000
_cell_angle_alpha 90.000000
_cell_angle_beta 90.000000
_cell_angle_gamma 90.000000
_cell_volume 2430.000000
_symmetry_space_group_name_H-M "P N N M"
_symmetry_group_IT_number 58
_symmetry_cell_setting 'orthorhombic'
loop_
_space_group_symop_operation_xyz
x,y,z
-x,-y,z
1/2+x,1/2-y,1/2-z
1/2-x,1/2+y,1/2-z
-x,-y,-z
x,y,-z
1/2-x,1/2+y,1/2+z
1/2+x,1/2-y,1/2+z
loop_
_atom_site_type_symbol
_atom_site_label
_atom_site_fract_x
_atom_site_fract_y
_atom_site_fract_z
Si Si1 0.046919 0.295479 0.179695
Si Si2 0.884418 0.951095 0.828688
Si Si3 0.700491 0.081118 0.679081
Si Si4 0.892736 0.473265 0.675504
Si Si5 0.556196 0.734967 0.671301
Si Si6 0.706801 0.407703 0.821528
O O1 0.063523 0.444835 0.256160
O O2 0.996052 0.248056 0.215520
O O3 0.088062 0.190358 0.228516
O O4 0.048617 0.305101 0.000000
O O5 0.924394 0.069753 0.834027
O O6 0.839174 0.982864 0.738285
O O7 0.870160 0.925785 0.000000
O O8 0.695905 0.085647 0.500000
O O9 0.706388 0.245621 0.745882
O O10 0.654370 0.015027 0.747012
O O11 0.746256 0.990237 0.713936
O O12 0.889010 0.498203 0.500000
O O13 0.908015 0.308919 0.719036
O O14 0.559617 0.794163 0.500000
O O15 0.704229 0.395088 0.000000
#
# Coordination Sequence:
#
# PCOD9446046 Si02
#       6
#     8   8   8   8   8   8
#     4  10  20  39  65  91 123 165 211 256 306 369
#     4  10  21  39  65  93 125 164 205 252 306 365
#     4  11  25  45  67  92 124 163 205 249 307 373
#     4  12  25  40  61  91 127 165 209 258 311 362
#     4  10  22  39  62  93 126 166 213 254 302 370
#     4  11  25  43  66  96 125 158 203 254 309 367
#
# _framework density 19.753086
#
# number of rings (size 3 to 8) (size 9 to 14) (size 15 to 20)
#    0.000    1.333    1.667    3.500    2.333    8.000 
#    0.000    0.000    0.000    3.000    0.000    0.000 
#    0.000    0.000    0.000    0.000    0.000    0.000 
#
# Total GULP energy -267643.389133 kJ/mol
# GULP energy per Si atom -5575.903940 kJ/mol
# Density = 1.970813 g / cm^3
# Si number density = 19.753086 Si / 1000 Ang^3
#
#
#
# Elastic Constant Matrix: (Units=GPa)
#
#
# Indices 1 2 3 4 5 6 
#
# 1 155.8609 6.4630 49.5670 0.0000 0.0000 0.0000
# 2 6.4630 15.9258 -0.3971 0.0000 0.0000 0.0000
# 3 49.5670 -0.3971 57.6827 0.0000 0.0000 0.0000
# 4 0.0000 0.0000 0.0000 18.2857 0.0000 0.0000
# 5 0.0000 0.0000 0.0000 0.0000 32.1009 0.0000
# 6 0.0000 0.0000 0.0000 0.0000 0.0000 39.7302
#
#
#
# Elastic Compliance Matrix: (Units=1/GPa)
#
#
# Indices 1 2 3 4 5 6 
#
# 1 0.009061 -0.003872 -0.007813 0.000000 0.000000 0.000000
# 2 -0.003872 0.064457 0.003771 0.000000 0.000000 0.000000
# 3 -0.007813 0.003771 0.024076 0.000000 0.000000 0.000000
# 4 0.000000 0.000000 0.000000 0.054688 0.000000 0.000000
# 5 0.000000 0.000000 0.000000 0.000000 0.031152 0.000000
# 6 0.000000 0.000000 0.000000 0.000000 0.000000 0.025170
#
#
# Mechanical properties :
#
#
# Convention : Reuss Voigt Hill
#
# Bulk Modulus (GPa) = 12.23005 37.85946 25.04476
# Shear Modulus (GPa) = 19.86599 29.61246 24.73922
#
# Velocity S-wave (km/s) = 3.17474 3.87606 3.54280
# Velocity P-wave (km/s) = 4.43211 6.26417 5.42602
#
# Compressibility (1/GPa) = 0.08176584
#
# Stress axis : x y z
#
# Youngs Moduli (GPa) = 110.36010 15.51427 41.53524
#
# Poissons Ratio (x) = 0.06007 0.32452
# Poissons Ratio (y) = 0.42732 -0.15663
# Poissons Ratio (z) = 0.86225 -0.05850
#
# Static dielectric constant tensor:
#      x y z
#    x 1.648210 0.000000 0.000000 
#    y 0.000000 1.756060 0.000000 
#    z 0.000000 0.000000 1.681290 
# 
# From -- ./inp_files/2898.got.cif
#   From: 2010.05.17/outbox.ucp.g08.bks.cvg/sg58_2_cif.got.tgz:2898.got - 2010.06.11 16:41:41.
