data_PCOD9446915
_publ_section_title
;
Structure prediction by ZEFSAII (Michael W. Deem and Ramdas Pophale) SiO2 
 PCOD9446915
Probable space group: P M M N
;
_chemical_formula_sum "Si O2"
_cell_formula_units_Z 48
_cell_length_a 13.675358
_cell_length_b 24.296297
_cell_length_c 8.328920
_cell_angle_alpha 90.000000
_cell_angle_beta 90.000000
_cell_angle_gamma 90.000000
_cell_volume 2767.371620
_symmetry_space_group_name_H-M "P M M N"
_symmetry_group_IT_number 59
_space_group.IT_coordinate_system_code '2'
_symmetry_cell_setting 'orthorhombic'
loop_
_space_group_symop_operation_xyz
x,y,z
1/2-x,1/2-y,z
1/2+x,-y,-z
-x,1/2+y,-z
-x,-y,-z
1/2+x,1/2+y,-z
1/2-x,y,z
x,1/2-y,z
loop_
_atom_site_type_symbol
_atom_site_label
_atom_site_fract_x
_atom_site_fract_y
_atom_site_fract_z
Si Si1 0.366843 0.314129 0.132498
Si Si2 0.441690 0.366559 0.459778
Si Si3 0.452028 0.003199 0.829103
Si Si4 0.633130 0.875402 0.196766
Si Si5 0.857034 0.984465 0.620708
Si Si6 0.357591 0.581958 0.634449
O O1 0.250000 0.322106 0.147197
O O2 0.386128 0.250000 0.100534
O O3 0.411580 0.330567 0.305086
O O4 0.398166 0.349197 0.975167
O O5 0.416762 0.349512 0.642841
O O6 0.379881 0.423074 0.437663
O O7 0.556042 0.380680 0.435030
O O8 0.393062 0.059710 0.808006
O O9 0.546562 0.002084 0.714676
O O10 0.391041 0.947476 0.798191
O O11 0.500000 0.000000 0.000000
O O12 0.750000 0.868273 0.211510
O O13 0.750000 0.984957 0.703864
O O14 0.851816 0.028067 0.478200
O O15 0.250000 0.607407 0.642898
#
# Coordination Sequence:
#
# PCOD9446915 Si02
#       6
#     8   8   8   8   8   8
#     4  10  23  39  54  79 108 134 176 229 274 319
#     4  11  19  35  58  79 105 146 182 213 269 322
#     4  11  20  30  46  74 111 145 177 211 252 315
#     4  11  20  33  54  77 105 141 179 218 261 316
#     4  10  18  31  49  75 109 141 172 209 250 309
#     4  10  19  33  52  77 111 140 173 216 254 310
#
# _framework density 17.344978999999999
#
# number of rings (size 3 to 8) (size 9 to 14) (size 15 to 20)
#    0.000    1.500    3.333    5.000    0.000    3.333 
#    0.000    1.667    0.000    0.500    0.000    0.000 
#    0.000    0.000    0.000    0.000    0.000    0.000 
#
# Total GULP energy -267438.631598 kJ/mol
# GULP energy per Si atom -5571.638158 kJ/mol
# Density = 1.730550 g / cm^3
# Si number density = 17.344979 Si / 1000 Ang^3
#
#
#
# Elastic Constant Matrix: (Units=GPa)
#
#
# Indices 1 2 3 4 5 6 
#
# 1 100.1810 12.6588 18.2190 0.0000 0.0000 0.0000
# 2 12.6588 27.5874 12.3820 0.0000 0.0000 0.0000
# 3 18.2190 12.3820 91.9228 0.0000 0.0000 0.0000
# 4 0.0000 0.0000 0.0000 20.9951 0.0000 0.0000
# 5 0.0000 0.0000 0.0000 0.0000 17.1772 0.0000
# 6 0.0000 0.0000 0.0000 0.0000 0.0000 15.1785
#
#
#
# Elastic Compliance Matrix: (Units=1/GPa)
#
#
# Indices 1 2 3 4 5 6 
#
# 1 0.010805 -0.004254 -0.001568 0.000000 0.000000 0.000000
# 2 -0.004254 0.040256 -0.004579 0.000000 0.000000 0.000000
# 3 -0.001568 -0.004579 0.011806 0.000000 0.000000 0.000000
# 4 0.000000 0.000000 0.000000 0.047630 0.000000 0.000000
# 5 0.000000 0.000000 0.000000 0.000000 0.058217 0.000000
# 6 0.000000 0.000000 0.000000 0.000000 0.000000 0.065883
#
#
# Mechanical properties :
#
#
# Convention : Reuss Voigt Hill
#
# Bulk Modulus (GPa) = 23.77363 34.02343 28.89853
# Shear Modulus (GPa) = 18.55833 22.43226 20.49530
#
# Velocity S-wave (km/s) = 3.27456 3.60015 3.44121
# Velocity P-wave (km/s) = 5.29463 6.07781 5.69969
#
# Compressibility (1/GPa) = 0.04206342
#
# Stress axis : x y z
#
# Youngs Moduli (GPa) = 92.55238 24.84118 84.69980
#
# Poissons Ratio (x) = 0.10567 0.13285
# Poissons Ratio (y) = 0.39371 0.38787
# Poissons Ratio (z) = 0.14517 0.11376
#
# Static dielectric constant tensor:
#      x y z
#    x 1.610100 0.000000 0.000000 
#    y 0.000000 1.568310 0.000000 
#    z 0.000000 0.000000 1.527220 
# 
# From -- ./inp_files/9204.got.cif
#   From: 2010.05.17/outbox.cif.g08.bks.cpg/sg59_5_cif.got.tgz:9204.got - 2010.06.03 14:40:33.
