data_PCOD9446317
_publ_section_title
;
Structure prediction by ZEFSAII (Michael W. Deem and Ramdas Pophale) SiO2 
 PCOD9446317
Probable space group: P M M N
;
_chemical_formula_sum "Si O2"
_cell_formula_units_Z 56
_cell_length_a 15.775638
_cell_length_b 14.012522
_cell_length_c 12.767838
_cell_angle_alpha 90.000000
_cell_angle_beta 90.000000
_cell_angle_gamma 90.000000
_cell_volume 2822.413256
_symmetry_space_group_name_H-M "P M M N"
_symmetry_group_IT_number 59
_space_group.IT_coordinate_system_code '2'
_symmetry_cell_setting 'orthorhombic'
loop_
_space_group_symop_operation_xyz
x,y,z
1/2-x,1/2-y,z
1/2+x,-y,-z
-x,1/2+y,-z
-x,-y,-z
1/2+x,1/2+y,-z
1/2-x,y,z
x,1/2-y,z
loop_
_atom_site_type_symbol
_atom_site_label
_atom_site_fract_x
_atom_site_fract_y
_atom_site_fract_z
Si Si1 0.408321 0.457079 0.022974
Si Si2 0.119104 0.143239 0.624787
Si Si3 0.654644 0.147104 0.886798
Si Si4 0.506096 0.863865 0.784133
Si Si5 0.417161 0.852645 0.335791
Si Si6 0.922702 0.958697 0.571334
Si Si7 0.154158 0.495197 0.813392
O O1 0.354159 0.550931 0.049876
O O2 0.426423 0.389718 0.122618
O O3 0.500000 0.500000 0.000000
O O4 0.370462 0.425862 0.911535
O O5 0.151599 0.250000 0.640578
O O6 0.130860 0.106847 0.506302
O O7 0.017097 0.147392 0.641390
O O8 0.151160 0.067018 0.708129
O O9 0.750000 0.150701 0.844639
O O10 0.638714 0.250000 0.941369
O O11 0.592747 0.139892 0.788671
O O12 0.492785 0.750000 0.780947
O O13 0.541815 0.902983 0.672865
O O14 0.418582 0.922876 0.805369
O O15 0.381750 0.750000 0.369585
O O16 0.377440 0.945675 0.387699
O O17 0.000000 0.000000 0.500000
O O18 0.250000 0.532377 0.827369
#
# Coordination Sequence:
#
# PCOD9446317 Si02
#       7
#     8   8   8   8   8   8   8
#     4  10  21  38  58  84 115 151 198 246 291 349
#     4  10  20  36  60  86 114 156 208 249 286 350
#     4  10  19  33  57  86 116 148 182 230 294 355
#     4  11  22  39  64  92 120 156 207 257 306 357
#     4   9  16  30  56  86 114 147 193 242 287 340
#     4  10  17  35  61  89 117 150 199 252 297 341
#     4  11  23  40  60  87 125 162 196 246 310 369
#
# _framework density 19.841176999999998
#
# number of rings (size 3 to 8) (size 9 to 14) (size 15 to 20)
#    0.000    1.857    4.286    1.714    0.000    4.000 
#    0.000    0.714    0.000    1.286    0.000    0.000 
#    0.000    0.000    0.000    0.000    0.000    0.000 
#
# Total GULP energy -311867.539748 kJ/mol
# GULP energy per Si atom -5569.063210 kJ/mol
# Density = 1.979602 g / cm^3
# Si number density = 19.841177 Si / 1000 Ang^3
#
#
#
# Elastic Constant Matrix: (Units=GPa)
#
#
# Indices 1 2 3 4 5 6 
#
# 1 50.1508 27.7036 32.2905 0.0000 0.0000 0.0000
# 2 27.7036 126.6070 47.9443 0.0000 0.0000 0.0000
# 3 32.2905 47.9443 121.6664 0.0000 0.0000 0.0000
# 4 0.0000 0.0000 0.0000 4.7696 0.0000 0.0000
# 5 0.0000 0.0000 0.0000 0.0000 -7.8008 0.0000
# 6 0.0000 0.0000 0.0000 0.0000 0.0000 10.1786
#
#
#
# Elastic Compliance Matrix: (Units=1/GPa)
#
#
# Indices 1 2 3 4 5 6 
#
# 1 0.025318 -0.003521 -0.005332 0.000000 0.000000 0.000000
# 2 -0.003521 0.009773 -0.002917 0.000000 0.000000 0.000000
# 3 -0.005332 -0.002917 0.010784 0.000000 0.000000 0.000000
# 4 0.000000 0.000000 0.000000 0.209660 0.000000 0.000000
# 5 0.000000 0.000000 0.000000 0.000000 -0.128192 0.000000
# 6 0.000000 0.000000 0.000000 0.000000 0.000000 0.098245
#
#
# Mechanical properties :
#
#
# Convention : Reuss Voigt Hill
#
# Bulk Modulus (GPa) = 44.77146 57.14455 50.95801
# Shear Modulus (GPa) = 19.48761 14.12853 16.80807
#
# Velocity S-wave (km/s) = 3.13738 2.67138 2.91371
# Velocity P-wave (km/s) = 5.97813 6.19504 6.08755
#
# Compressibility (1/GPa) = 0.02233566
#
# Stress axis : x y z
#
# Youngs Moduli (GPa) = 39.49775 102.31777 92.73187
#
# Poissons Ratio (x) = 0.36024 0.49445
# Poissons Ratio (y) = 0.13906 0.27049
# Poissons Ratio (z) = 0.21060 0.29845
#
# Static dielectric constant tensor:
#      x y z
#    x 1.755220 0.000000 0.000000 
#    y 0.000000 1.745790 0.000000 
#    z 0.000000 0.000000 1.540400 
# 
# From -- ./inp_files/16933.got.cif
#   From: 2010.05.17/outbox.cif.g08.bks.cpg/sg59_9_cif.got.tgz:16933.got - 2010.06.03 14:40:33.
