data_PCOD9446835
_publ_section_title
;
Structure prediction by ZEFSAII (Michael W. Deem and Ramdas Pophale) SiO2 
 PCOD9446835
Probable space group: P M M N
;
_chemical_formula_sum "Si O2"
_cell_formula_units_Z 48
_cell_length_a 17.007201
_cell_length_b 8.495821
_cell_length_c 18.935143
_cell_angle_alpha 90.000000
_cell_angle_beta 90.000000
_cell_angle_gamma 90.000000
_cell_volume 2735.941376
_symmetry_space_group_name_H-M "P M M N"
_symmetry_group_IT_number 59
_space_group.IT_coordinate_system_code '2'
_symmetry_cell_setting 'orthorhombic'
loop_
_space_group_symop_operation_xyz
x,y,z
1/2-x,1/2-y,z
1/2+x,-y,-z
-x,1/2+y,-z
-x,-y,-z
1/2+x,1/2+y,-z
1/2-x,y,z
x,1/2-y,z
loop_
_atom_site_type_symbol
_atom_site_label
_atom_site_fract_x
_atom_site_fract_y
_atom_site_fract_z
Si Si1 0.577241 0.435454 0.202332
Si Si2 0.569484 0.063490 0.710720
Si Si3 0.663307 0.441727 0.337011
Si Si4 0.993352 0.439493 0.420705
Si Si5 0.514744 0.064067 0.922091
Si Si6 0.838217 0.938063 0.832988
O O1 0.585463 0.250000 0.188967
O O2 0.499727 0.467720 0.249611
O O3 0.645436 0.489154 0.255780
O O4 0.558113 0.520398 0.129352
O O5 0.555686 0.250000 0.716936
O O6 0.560960 0.010788 0.629932
O O7 0.644781 0.016704 0.756797
O O8 0.750000 0.494307 0.359278
O O9 0.662312 0.250000 0.337292
O O10 0.590703 0.490689 0.386542
O O11 0.997269 0.250000 0.418469
O O12 0.000000 0.500000 0.500000
O O13 0.523812 0.250000 0.923632
O O14 0.593486 0.992982 0.886384
O O15 0.500000 0.000000 0.000000
O O16 0.750000 0.977825 0.857124
O O17 0.844028 0.750000 0.825413
#
# Coordination Sequence:
#
# PCOD9446835 Si02
#       6
#     8   8   8   8   8   8
#     4   9  16  29  50  73  97 126 162 203 246 296
#     4  10  18  30  50  73  98 129 166 203 241 297
#     4   8  15  29  50  74  97 124 161 205 250 295
#     4  10  19  32  51  73 100 133 169 210 255 306
#     4  11  21  34  53  75 103 137 173 210 250 303
#     4  10  20  35  55  78 104 132 166 213 263 306
#
# _framework density 17.544233999999999
#
# number of rings (size 3 to 8) (size 9 to 14) (size 15 to 20)
#    0.000    2.333    0.000    7.500    0.000    1.333 
#    0.000    1.667    0.000   24.000    0.000    0.000 
#    0.000    0.000    0.000    0.000    0.000    0.000 
#
# Total GULP energy -267422.769781 kJ/mol
# GULP energy per Si atom -5571.307704 kJ/mol
# Density = 1.750430 g / cm^3
# Si number density = 17.544234 Si / 1000 Ang^3
#
#
#
# Elastic Constant Matrix: (Units=GPa)
#
#
# Indices 1 2 3 4 5 6 
#
# 1 83.6628 24.0752 44.2974 0.0000 0.0000 0.0000
# 2 24.0752 52.2652 27.5886 0.0000 0.0000 0.0000
# 3 44.2974 27.5886 144.3298 0.0000 0.0000 0.0000
# 4 0.0000 0.0000 0.0000 32.3012 0.0000 0.0000
# 5 0.0000 0.0000 0.0000 0.0000 18.0680 0.0000
# 6 0.0000 0.0000 0.0000 0.0000 0.0000 8.4072
#
#
#
# Elastic Compliance Matrix: (Units=1/GPa)
#
#
# Indices 1 2 3 4 5 6 
#
# 1 0.015412 -0.005119 -0.003752 0.000000 0.000000 0.000000
# 2 -0.005119 0.022981 -0.002822 0.000000 0.000000 0.000000
# 3 -0.003752 -0.002822 0.008619 0.000000 0.000000 0.000000
# 4 0.000000 0.000000 0.000000 0.030959 0.000000 0.000000
# 5 0.000000 0.000000 0.000000 0.000000 0.055347 0.000000
# 6 0.000000 0.000000 0.000000 0.000000 0.000000 0.118945
#
#
# Mechanical properties :
#
#
# Convention : Reuss Voigt Hill
#
# Bulk Modulus (GPa) = 42.32369 52.46447 47.39408
# Shear Modulus (GPa) = 17.63521 24.04170 20.83846
#
# Velocity S-wave (km/s) = 3.17391 3.70584 3.45014
# Velocity P-wave (km/s) = 6.13253 6.94838 6.55316
#
# Compressibility (1/GPa) = 0.02362743
#
# Stress axis : x y z
#
# Youngs Moduli (GPa) = 64.88314 43.51493 116.01696
#
# Poissons Ratio (x) = 0.22275 0.43527
# Poissons Ratio (y) = 0.33214 0.32736
# Poissons Ratio (z) = 0.24343 0.12278
#
# Static dielectric constant tensor:
#      x y z
#    x 1.654390 0.000000 0.000000 
#    y 0.000000 1.583010 0.000000 
#    z 0.000000 0.000000 1.614190 
# 
# From -- ./inp_files/27779.got.cif
#   From: 2010.05.17/outbox.cif.g08.bks.cpg/sg59_14_cif.got.tgz:27779.got - 2010.06.03 14:40:33.
