data_PCOD9446868
_publ_section_title
;
Structure prediction by ZEFSAII (Michael W. Deem and Ramdas Pophale) SiO2 
 PCOD9446868
Probable space group: P M M N
;
_chemical_formula_sum "Si O2"
_cell_formula_units_Z 40
_cell_length_a 26.545139
_cell_length_b 9.308790
_cell_length_c 7.491515
_cell_angle_alpha 90.000000
_cell_angle_beta 90.000000
_cell_angle_gamma 90.000000
_cell_volume 1851.176764
_symmetry_space_group_name_H-M "P M M N"
_symmetry_group_IT_number 59
_space_group.IT_coordinate_system_code '2'
_symmetry_cell_setting 'orthorhombic'
loop_
_space_group_symop_operation_xyz
x,y,z
1/2-x,1/2-y,z
1/2+x,-y,-z
-x,1/2+y,-z
-x,-y,-z
1/2+x,1/2+y,-z
1/2-x,y,z
x,1/2-y,z
loop_
_atom_site_type_symbol
_atom_site_label
_atom_site_fract_x
_atom_site_fract_y
_atom_site_fract_z
Si Si1 0.551760 0.089143 0.187603
Si Si2 0.848486 0.913586 0.257185
Si Si3 0.541404 0.410817 0.763938
Si Si4 0.750000 0.577628 0.668982
Si Si5 0.140298 0.411415 0.313405
Si Si6 0.750000 0.421416 0.288305
O O1 0.562202 0.250000 0.255201
O O2 0.600309 0.988565 0.198494
O O3 0.504709 0.014896 0.285623
O O4 0.538958 0.101077 0.978587
O O5 0.843876 0.750000 0.192514
O O6 0.851453 0.908104 0.473061
O O7 0.800234 0.008385 0.207909
O O8 0.535942 0.250000 0.689977
O O9 0.595495 0.479277 0.722503
O O10 0.750000 0.750000 0.619248
O O11 0.696045 0.553415 0.762712
O O12 0.750000 0.476168 0.494722
O O13 0.125706 0.250000 0.255219
O O14 0.750000 0.250000 0.278023
#
# Coordination Sequence:
#
# PCOD9446868 Si02
#       6
#     8   8   8   4   8   4
#     4  10  21  37  55  75 101 136 176 216 259 308
#     4  10  20  35  55  79 106 137 173 212 255 304
#     4  10  21  36  54  76 103 136 172 212 261 313
#     4   8  16  32  51  74 105 138 172 208 250 302
#     4   9  18  33  54  78 104 135 172 213 253 301
#     4  10  18  30  51  78 107 138 170 208 256 304
#
# _framework density 21.607876999999998
#
# number of rings (size 3 to 8) (size 9 to 14) (size 15 to 20)
#    0.000    2.400    0.000    3.900    0.000    7.200 
#    0.000    1.000    0.000    4.800    0.000    0.000 
#    0.000    0.000    0.000    0.000    0.000    0.000 
#
# Total GULP energy -223327.956330 kJ/mol
# GULP energy per Si atom -5583.198908 kJ/mol
# Density = 2.155870 g / cm^3
# Si number density = 21.607877 Si / 1000 Ang^3
#
#
#
# Elastic Constant Matrix: (Units=GPa)
#
#
# Indices 1 2 3 4 5 6 
#
# 1 141.4061 90.2081 -22.9128 0.0000 0.0000 0.0000
# 2 90.2081 186.8462 -0.8199 0.0000 0.0000 0.0000
# 3 -22.9128 -0.8199 33.7996 0.0000 0.0000 0.0000
# 4 0.0000 0.0000 0.0000 17.0493 0.0000 0.0000
# 5 0.0000 0.0000 0.0000 0.0000 26.9087 0.0000
# 6 0.0000 0.0000 0.0000 0.0000 0.0000 32.8917
#
#
#
# Elastic Compliance Matrix: (Units=1/GPa)
#
#
# Indices 1 2 3 4 5 6 
#
# 1 0.012070 -0.005792 0.008042 0.000000 0.000000 0.000000
# 2 -0.005792 0.008132 -0.003729 0.000000 0.000000 0.000000
# 3 0.008042 -0.003729 0.034947 0.000000 0.000000 0.000000
# 4 0.000000 0.000000 0.000000 0.058653 0.000000 0.000000
# 5 0.000000 0.000000 0.000000 0.000000 0.037163 0.000000
# 6 0.000000 0.000000 0.000000 0.000000 0.000000 0.030403
#
#
# Mechanical properties :
#
#
# Convention : Reuss Voigt Hill
#
# Bulk Modulus (GPa) = 19.16077 55.00030 37.08053
# Shear Modulus (GPa) = 24.78645 35.07504 29.93075
#
# Velocity S-wave (km/s) = 3.39056 4.03333 3.72583
# Velocity P-wave (km/s) = 4.92084 6.87018 5.97554
#
# Compressibility (1/GPa) = 0.05218998
#
# Stress axis : x y z
#
# Youngs Moduli (GPa) = 82.85195 122.97216 28.61468
#
# Poissons Ratio (x) = 0.71224 -0.23011
# Poissons Ratio (y) = 0.47987 0.10671
# Poissons Ratio (z) = -0.66626 0.45857
#
# Static dielectric constant tensor:
#      x y z
#    x 1.782930 0.000000 0.000000 
#    y 0.000000 1.761560 0.000000 
#    z 0.000000 0.000000 1.831050 
# 
# From -- ./inp_files/12415.got.cif
#   From: 2010.05.17/outbox.cif.g08.bks.cpg/sg59_7_cif.got.tgz:12415.got - 2010.06.03 14:40:33.
