data_PCOD9446501
_publ_section_title
;
Structure prediction by ZEFSAII (Michael W. Deem and Ramdas Pophale) SiO2 
 PCOD9446501
Probable space group: P M M N
;
_chemical_formula_sum "Si O2"
_cell_formula_units_Z 64
_cell_length_a 7.654828
_cell_length_b 30.691701
_cell_length_c 15.546207
_cell_angle_alpha 90.000000
_cell_angle_beta 90.000000
_cell_angle_gamma 90.000000
_cell_volume 3652.421087
_symmetry_space_group_name_H-M "P M M N"
_symmetry_group_IT_number 59
_space_group.IT_coordinate_system_code '2'
_symmetry_cell_setting 'orthorhombic'
loop_
_space_group_symop_operation_xyz
x,y,z
1/2-x,1/2-y,z
1/2+x,-y,-z
-x,1/2+y,-z
-x,-y,-z
1/2+x,1/2+y,-z
1/2-x,y,z
x,1/2-y,z
loop_
_atom_site_type_symbol
_atom_site_label
_atom_site_fract_x
_atom_site_fract_y
_atom_site_fract_z
Si Si1 0.539158 0.201549 0.783818
Si Si2 0.048552 0.964802 0.629750
Si Si3 0.043440 0.609339 0.956389
Si Si4 0.535165 0.462346 0.176621
Si Si5 0.961620 0.559773 0.132455
Si Si6 0.546745 0.887355 0.299132
Si Si7 0.546959 0.444556 0.553353
Si Si8 0.463498 0.701117 0.016575
O O1 0.750000 0.200373 0.783094
O O2 0.483182 0.250000 0.757646
O O3 0.473659 0.162773 0.725178
O O4 0.485085 0.194984 0.883342
O O5 0.250000 0.950727 0.636766
O O6 0.973130 0.958672 0.724701
O O7 0.974272 0.942152 0.543661
O O8 0.041019 0.016008 0.605644
O O9 0.250000 0.613632 0.940047
O O10 0.973686 0.577386 0.882661
O O11 0.973710 0.658649 0.965231
O O12 0.021805 0.584784 0.047473
O O13 0.750000 0.462749 0.176979
O O14 0.483277 0.509348 0.138058
O O15 0.750000 0.561068 0.132211
O O16 0.024289 0.584882 0.218123
O O17 0.750000 0.898165 0.306461
O O18 0.464641 0.902043 0.388552
O O19 0.750000 0.457277 0.545269
O O20 0.250000 0.700971 0.015060
O O21 0.518268 0.750000 0.989666
#
# Coordination Sequence:
#
# PCOD9446501 Si02
#       8
#     8   8   8   8   8   8   8   8
#     4   9  17  30  47  66  91 119 148 188 229 266
#     4   9  17  32  47  63  90 117 145 188 234 271
#     4  10  18  28  46  65  83 116 155 183 211 266
#     4   9  17  30  45  62  87 119 151 182 225 266
#     4  10  19  30  41  58  91 125 147 179 222 258
#     4  11  20  30  46  65  92 125 151 185 227 271
#     4  10  19  29  47  68  86 115 154 189 224 273
#     4   8  14  25  41  63  88 110 138 181 222 251
#
# _framework density 17.522622999999999
#
# number of rings (size 3 to 8) (size 9 to 14) (size 15 to 20)
#    0.000    2.500    2.500    1.875    0.000    1.250 
#    0.000    0.625    0.000    0.375    0.000    0.875 
#    0.000    5.000    0.000    0.000    0.000    0.125 
#
# Total GULP energy -356836.436698 kJ/mol
# GULP energy per Si atom -5575.569323 kJ/mol
# Density = 1.748274 g / cm^3
# Si number density = 17.522623 Si / 1000 Ang^3
#
#
#
# Elastic Constant Matrix: (Units=GPa)
#
#
# Indices 1 2 3 4 5 6 
#
# 1 30.9408 -1.0370 -2.1571 0.0000 0.0000 0.0000
# 2 -1.0370 142.6315 70.7738 0.0000 0.0000 0.0000
# 3 -2.1571 70.7738 96.7596 0.0000 0.0000 0.0000
# 4 0.0000 0.0000 0.0000 26.1303 0.0000 0.0000
# 5 0.0000 0.0000 0.0000 0.0000 8.3874 0.0000
# 6 0.0000 0.0000 0.0000 0.0000 0.0000 12.3163
#
#
#
# Elastic Compliance Matrix: (Units=1/GPa)
#
#
# Indices 1 2 3 4 5 6 
#
# 1 0.032373 -0.000193 0.000863 0.000000 0.000000 0.000000
# 2 -0.000193 0.011007 -0.008055 0.000000 0.000000 0.000000
# 3 0.000863 -0.008055 0.016246 0.000000 0.000000 0.000000
# 4 0.000000 0.000000 0.000000 0.038270 0.000000 0.000000
# 5 0.000000 0.000000 0.000000 0.000000 0.119226 0.000000
# 6 0.000000 0.000000 0.000000 0.000000 0.000000 0.081193
#
#
# Mechanical properties :
#
#
# Convention : Reuss Voigt Hill
#
# Bulk Modulus (GPa) = 22.29361 45.05459 33.67410
# Shear Modulus (GPa) = 15.24221 22.88363 19.06292
#
# Velocity S-wave (km/s) = 2.95254 3.61771 3.30192
# Velocity P-wave (km/s) = 4.93697 6.57408 5.81344
#
# Compressibility (1/GPa) = 0.04485591
#
# Stress axis : x y z
#
# Youngs Moduli (GPa) = 30.88952 90.85521 61.55436
#
# Poissons Ratio (x) = 0.01751 -0.05310
# Poissons Ratio (y) = 0.00595 0.49581
# Poissons Ratio (z) = -0.02665 0.73183
#
# Static dielectric constant tensor:
#      x y z
#    x 1.662470 0.000000 0.000000 
#    y 0.000000 1.596850 0.000000 
#    z 0.000000 0.000000 1.600130 
# 
# From -- ./inp_files/21914.got.cif
#   From: 2010.05.17/outbox.cif.g08.bks.cpg/sg59_11_cif.got.tgz:21914.got - 2010.06.03 14:40:33.
