data_PCOD9446154
_publ_section_title
;
Structure prediction by ZEFSAII (Michael W. Deem and Ramdas Pophale) SiO2 
 PCOD9446154
Probable space group: P M M N
;
_chemical_formula_sum "Si O2"
_cell_formula_units_Z 48
_cell_length_a 16.559671
_cell_length_b 15.287411
_cell_length_c 9.583803
_cell_angle_alpha 90.000000
_cell_angle_beta 90.000000
_cell_angle_gamma 90.000000
_cell_volume 2426.182824
_symmetry_space_group_name_H-M "P M M N"
_symmetry_group_IT_number 59
_space_group.IT_coordinate_system_code '2'
_symmetry_cell_setting 'orthorhombic'
loop_
_space_group_symop_operation_xyz
x,y,z
1/2-x,1/2-y,z
1/2+x,-y,-z
-x,1/2+y,-z
-x,-y,-z
1/2+x,1/2+y,-z
1/2-x,y,z
x,1/2-y,z
loop_
_atom_site_type_symbol
_atom_site_label
_atom_site_fract_x
_atom_site_fract_y
_atom_site_fract_z
Si Si1 0.911618 0.018364 0.563487
Si Si2 0.419051 0.150779 0.284326
Si Si3 0.035801 0.652983 0.201214
Si Si4 0.078173 0.063944 0.984285
Si Si5 0.161523 0.889165 0.966391
Si Si6 0.112588 0.653402 0.656464
O O1 0.927700 0.082226 0.694074
O O2 0.865264 0.074822 0.447575
O O3 0.880362 0.925451 0.620282
O O4 0.000000 0.000000 0.500000
O O5 0.389954 0.250000 0.304544
O O6 0.515318 0.150277 0.318666
O O7 0.411529 0.120485 0.123512
O O8 0.033070 0.750000 0.262384
O O9 0.093505 0.651717 0.065539
O O10 0.947793 0.622785 0.146760
O O11 0.148823 0.994169 0.965600
O O12 0.000000 0.000000 0.000000
O O13 0.250000 0.866389 0.019041
O O14 0.150288 0.858116 0.808520
O O15 0.132733 0.750000 0.600702
#
# Coordination Sequence:
#
# PCOD9446154 Si02
#       6
#     8   8   8   8   8   8
#     4  10  19  33  51  82 119 145 185 233 287 339
#     4  10  17  30  55  83 109 139 185 238 283 328
#     4  11  20  34  60  88 114 145 188 239 283 336
#     4  10  16  32  54  82 108 141 185 233 283 325
#     4  11  22  36  56  82 117 155 189 228 282 344
#     4  10  19  32  51  79 116 150 178 221 281 343
#
# _framework density 19.784162999999999
#
# number of rings (size 3 to 8) (size 9 to 14) (size 15 to 20)
#    0.000    1.667    6.667    2.500    0.000    2.000 
#    0.000    0.833    0.000    4.000    0.000    0.000 
#    0.000    0.000    0.000    0.000    0.000    0.000 
#
# Total GULP energy -267697.710730 kJ/mol
# GULP energy per Si atom -5577.035640 kJ/mol
# Density = 1.973913 g / cm^3
# Si number density = 19.784163 Si / 1000 Ang^3
#
#
#
# Elastic Constant Matrix: (Units=GPa)
#
#
# Indices 1 2 3 4 5 6 
#
# 1 18.2372 1.5847 -9.1468 0.0000 0.0000 0.0000
# 2 1.5847 168.4578 40.0525 0.0000 0.0000 0.0000
# 3 -9.1468 40.0525 73.1584 0.0000 0.0000 0.0000
# 4 0.0000 0.0000 0.0000 18.6168 0.0000 0.0000
# 5 0.0000 0.0000 0.0000 0.0000 2.8789 0.0000
# 6 0.0000 0.0000 0.0000 0.0000 0.0000 -2.2005
#
#
#
# Elastic Compliance Matrix: (Units=1/GPa)
#
#
# Indices 1 2 3 4 5 6 
#
# 1 0.059535 -0.002678 0.008910 0.000000 0.000000 0.000000
# 2 -0.002678 0.006945 -0.004137 0.000000 0.000000 0.000000
# 3 0.008910 -0.004137 0.017048 0.000000 0.000000 0.000000
# 4 0.000000 0.000000 0.000000 0.053715 0.000000 0.000000
# 5 0.000000 0.000000 0.000000 0.000000 0.347357 0.000000
# 6 0.000000 0.000000 0.000000 0.000000 0.000000 -0.454443
#
#
# Mechanical properties :
#
#
# Convention : Reuss Voigt Hill
#
# Bulk Modulus (GPa) = 11.40041 36.09267 23.74654
# Shear Modulus (GPa) = 90.56970 19.01656 54.79313
#
# Velocity S-wave (km/s) = 6.77335 3.10369 5.26836
# Velocity P-wave (km/s) = 8.18205 5.57913 7.00259
#
# Compressibility (1/GPa) = 0.08771618
#
# Stress axis : x y z
#
# Youngs Moduli (GPa) = 16.79696 143.98748 58.65808
#
# Poissons Ratio (x) = 0.38566 -0.52264
# Poissons Ratio (y) = 0.04499 0.24268
# Poissons Ratio (z) = -0.14966 0.59570
#
# Static dielectric constant tensor:
#      x y z
#    x 1.697350 0.000000 0.000000 
#    y 0.000000 1.754450 0.000000 
#    z 0.000000 0.000000 1.717120 
# 
# From -- ./inp_files/10264.got.cif
#   From: 2010.05.17/outbox.cif.g08.bks.cpg/sg59_6_cif.got.tgz:10264.got - 2010.06.03 14:40:33.
