data_PCOD9446332
_publ_section_title
;
Structure prediction by ZEFSAII (Michael W. Deem and Ramdas Pophale) SiO2 
 PCOD9446332
Probable space group: P M M N
;
_chemical_formula_sum "Si O2"
_cell_formula_units_Z 56
_cell_length_a 25.322343
_cell_length_b 7.582489
_cell_length_c 17.007098
_cell_angle_alpha 90.000000
_cell_angle_beta 90.000000
_cell_angle_gamma 90.000000
_cell_volume 3265.471445
_symmetry_space_group_name_H-M "P M M N"
_symmetry_group_IT_number 59
_space_group.IT_coordinate_system_code '2'
_symmetry_cell_setting 'orthorhombic'
loop_
_space_group_symop_operation_xyz
x,y,z
1/2-x,1/2-y,z
1/2+x,-y,-z
-x,1/2+y,-z
-x,-y,-z
1/2+x,1/2+y,-z
1/2-x,y,z
x,1/2-y,z
loop_
_atom_site_type_symbol
_atom_site_label
_atom_site_fract_x
_atom_site_fract_y
_atom_site_fract_z
Si Si1 0.809418 0.534765 0.911822
Si Si2 0.442795 0.539004 0.537824
Si Si3 0.916989 0.536436 0.985855
Si Si4 0.481952 0.545320 0.698003
Si Si5 0.407506 0.957525 0.377181
Si Si6 0.990191 0.458981 0.127928
Si Si7 0.309217 0.037321 0.268959
O O1 0.750000 0.478101 0.933624
O O2 0.809198 0.750000 0.912754
O O3 0.858039 0.476208 0.965479
O O4 0.819524 0.481396 0.821184
O O5 0.500000 0.500000 0.500000
O O6 0.436366 0.750000 0.545419
O O7 0.446706 0.467475 0.626713
O O8 0.404372 0.476920 0.467784
O O9 0.917373 0.750000 0.983847
O O10 0.958550 0.472078 0.919330
O O11 0.940996 0.482888 0.069474
O O12 0.465909 0.750000 0.705837
O O13 0.542490 0.541481 0.667279
O O14 0.481010 0.465817 0.785184
O O15 0.419873 0.750000 0.380693
O O16 0.354526 0.981143 0.328177
O O17 0.999855 0.250000 0.137700
O O18 0.250000 0.978022 0.290419
O O19 0.309076 0.250000 0.268250
#
# Coordination Sequence:
#
# PCOD9446332 Si02
#       7
#     8   8   8   8   8   8   8
#     4   8  14  26  44  62  78 101 136 171 197 231
#     4   8  15  26  39  57  79 103 130 159 191 228
#     4   9  16  26  40  59  82 104 129 163 203 243
#     4   9  16  28  44  58  77 108 142 166 188 231
#     4  10  18  26  39  61  87 108 128 163 207 239
#     4   9  17  27  40  58  80 108 137 165 197 236
#     4   9  17  29  44  60  79 107 141 167 189 230
#
# _framework density 17.149132000000002
#
# number of rings (size 3 to 8) (size 9 to 14) (size 15 to 20)
#    0.000    3.143    0.000    2.143    0.000    3.714 
#    0.000    3.571    0.000    1.286    0.000    1.000 
#    0.000    5.714    0.000    0.000    0.000    0.000 
#
# Total GULP energy -311770.404514 kJ/mol
# GULP energy per Si atom -5567.328652 kJ/mol
# Density = 1.711010 g / cm^3
# Si number density = 17.149132 Si / 1000 Ang^3
#
#
#
# Elastic Constant Matrix: (Units=GPa)
#
#
# Indices 1 2 3 4 5 6 
#
# 1 84.8133 -9.2458 60.4305 0.0000 0.0000 0.0000
# 2 -9.2458 37.0074 -0.3004 0.0000 0.0000 0.0000
# 3 60.4305 -0.3004 156.6256 0.0000 0.0000 0.0000
# 4 0.0000 0.0000 0.0000 1.1373 0.0000 0.0000
# 5 0.0000 0.0000 0.0000 0.0000 27.4317 0.0000
# 6 0.0000 0.0000 0.0000 0.0000 0.0000 13.5767
#
#
#
# Elastic Compliance Matrix: (Units=1/GPa)
#
#
# Indices 1 2 3 4 5 6 
#
# 1 0.016879 0.004164 -0.006504 0.000000 0.000000 0.000000
# 2 0.004164 0.028049 -0.001553 0.000000 0.000000 0.000000
# 3 -0.006504 -0.001553 0.008891 0.000000 0.000000 0.000000
# 4 0.000000 0.000000 0.000000 0.879264 0.000000 0.000000
# 5 0.000000 0.000000 0.000000 0.000000 0.036454 0.000000
# 6 0.000000 0.000000 0.000000 0.000000 0.000000 0.073655
#
#
# Mechanical properties :
#
#
# Convention : Reuss Voigt Hill
#
# Bulk Modulus (GPa) = 21.72329 42.24609 31.98469
# Shear Modulus (GPa) = 4.68900 23.59995 14.14448
#
# Velocity S-wave (km/s) = 1.65535 3.71369 2.87504
# Velocity P-wave (km/s) = 4.04331 6.56328 5.45092
#
# Compressibility (1/GPa) = 0.04603354
#
# Stress axis : x y z
#
# Youngs Moduli (GPa) = 59.24510 35.65139 112.47002
#
# Poissons Ratio (x) = -0.14846 0.73155
# Poissons Ratio (y) = -0.24671 0.17465
# Poissons Ratio (z) = 0.38535 0.05536
#
# Static dielectric constant tensor:
#      x y z
#    x 1.560660 0.000000 0.000000 
#    y 0.000000 1.672410 0.000000 
#    z 0.000000 0.000000 1.618920 
# 
# From -- ./inp_files/26421.got.cif
#   From: 2010.05.17/outbox.cif.g08.bks.cpg/sg59_14_cif.got.tgz:26421.got - 2010.06.03 14:40:33.
