data_PCOD9446740
_publ_section_title
;
Structure prediction by ZEFSAII (Michael W. Deem and Ramdas Pophale) SiO2 
 PCOD9446740
Probable space group: P M M N
;
_chemical_formula_sum "Si O2"
_cell_formula_units_Z 64
_cell_length_a 9.071993
_cell_length_b 19.538228
_cell_length_c 20.183110
_cell_angle_alpha 90.000000
_cell_angle_beta 90.000000
_cell_angle_gamma 90.000000
_cell_volume 3577.469723
_symmetry_space_group_name_H-M "P M M N"
_symmetry_group_IT_number 59
_space_group.IT_coordinate_system_code '2'
_symmetry_cell_setting 'orthorhombic'
loop_
_space_group_symop_operation_xyz
x,y,z
1/2-x,1/2-y,z
1/2+x,-y,-z
-x,1/2+y,-z
-x,-y,-z
1/2+x,1/2+y,-z
1/2-x,y,z
x,1/2-y,z
loop_
_atom_site_type_symbol
_atom_site_label
_atom_site_fract_x
_atom_site_fract_y
_atom_site_fract_z
Si Si1 0.926890 0.441070 0.639469
Si Si2 0.919499 0.596576 0.956269
Si Si3 0.570947 0.176810 0.311190
Si Si4 0.071262 0.930062 0.578889
Si Si5 0.571427 0.328133 0.540020
Si Si6 0.579718 0.064383 0.913316
Si Si7 0.922754 0.967473 0.219084
Si Si8 0.422640 0.626499 0.826107
O O1 0.750000 0.447849 0.642485
O O2 0.963877 0.366923 0.608442
O O3 0.991339 0.497891 0.588705
O O4 0.996370 0.452827 0.711767
O O5 0.750000 0.615260 0.965049
O O6 0.925071 0.516072 0.934781
O O7 0.992329 0.634663 0.894412
O O8 0.005503 0.603034 0.025169
O O9 0.750000 0.175386 0.309530
O O10 0.526446 0.250000 0.340205
O O11 0.529157 0.113263 0.355807
O O12 0.520566 0.169866 0.235812
O O13 0.250000 0.939641 0.576923
O O14 0.027438 0.880369 0.518553
O O15 0.750000 0.324671 0.535408
O O16 0.516662 0.250000 0.534550
O O17 0.750000 0.083281 0.905477
O O18 0.494619 0.070416 0.843950
O O19 0.750000 0.951391 0.225499
O O20 0.933241 0.048034 0.200010
O O21 0.250000 0.640922 0.837270
#
# Coordination Sequence:
#
# PCOD9446740 Si02
#       8
#     8   8   8   8   8   8   8   8
#     4  11  21  32  50  77 106 135 166 208 259 308
#     4   9  16  25  39  61  90 128 164 198 242 297
#     4   9  16  27  46  71  95 125 170 217 256 298
#     4  10  18  33  55  77  99 130 170 212 256 303
#     4   9  19  35  55  78 102 131 171 214 253 300
#     4   9  16  26  41  65  95 126 160 202 249 294
#     4  10  18  30  47  69  98 131 167 206 249 300
#     4   9  16  27  42  63  91 125 164 210 252 290
#
# _framework density 17.889738000000001
#
# number of rings (size 3 to 8) (size 9 to 14) (size 15 to 20)
#    0.000    2.500    1.250    2.250    0.000    5.000 
#    0.000    0.625    0.000    5.625    0.000    0.875 
#    0.000    7.000    0.000    0.000    0.000    0.000 
#
# Total GULP energy -356654.233779 kJ/mol
# GULP energy per Si atom -5572.722403 kJ/mol
# Density = 1.784902 g / cm^3
# Si number density = 17.889738 Si / 1000 Ang^3
#
#
#
# Elastic Constant Matrix: (Units=GPa)
#
#
# Indices 1 2 3 4 5 6 
#
# 1 72.1309 25.0718 49.4258 0.0000 0.0000 0.0000
# 2 25.0718 61.9804 39.9066 0.0000 0.0000 0.0000
# 3 49.4258 39.9066 109.9141 0.0000 0.0000 0.0000
# 4 0.0000 0.0000 0.0000 11.8690 0.0000 0.0000
# 5 0.0000 0.0000 0.0000 0.0000 22.5978 0.0000
# 6 0.0000 0.0000 0.0000 0.0000 0.0000 11.5045
#
#
#
# Elastic Compliance Matrix: (Units=1/GPa)
#
#
# Indices 1 2 3 4 5 6 
#
# 1 0.020477 -0.003073 -0.008092 0.000000 0.000000 0.000000
# 2 -0.003073 0.021518 -0.006431 0.000000 0.000000 0.000000
# 3 -0.008092 -0.006431 0.015072 0.000000 0.000000 0.000000
# 4 0.000000 0.000000 0.000000 0.084253 0.000000 0.000000
# 5 0.000000 0.000000 0.000000 0.000000 0.044252 0.000000
# 6 0.000000 0.000000 0.000000 0.000000 0.000000 0.086922
#
#
# Mechanical properties :
#
#
# Convention : Reuss Voigt Hill
#
# Bulk Modulus (GPa) = 45.71518 52.53711 49.12615
# Shear Modulus (GPa) = 15.87420 17.83567 16.85493
#
# Velocity S-wave (km/s) = 2.98205 3.16092 3.07279
# Velocity P-wave (km/s) = 6.12096 6.53856 6.33321
#
# Compressibility (1/GPa) = 0.02187457
#
# Stress axis : x y z
#
# Youngs Moduli (GPa) = 48.83583 46.47375 66.34957
#
# Poissons Ratio (x) = 0.14281 0.53692
# Poissons Ratio (y) = 0.15006 0.42667
# Poissons Ratio (z) = 0.39519 0.29885
#
# Static dielectric constant tensor:
#      x y z
#    x 1.598450 0.000000 0.000000 
#    y 0.000000 1.613560 0.000000 
#    z 0.000000 0.000000 1.625460 
# 
# From -- ./inp_files/29350.got.cif
#   From: 2010.05.17/outbox.cif.g08.bks.cpg/sg59_15_cif.got.tgz:29350.got - 2010.06.03 14:40:33.
