data_PCOD9446355
_publ_section_title
;
Structure prediction by ZEFSAII (Michael W. Deem and Ramdas Pophale) SiO2 
 PCOD9446355
Probable space group: P M M N
;
_chemical_formula_sum "Si O2"
_cell_formula_units_Z 64
_cell_length_a 9.156529
_cell_length_b 22.442883
_cell_length_c 20.836564
_cell_angle_alpha 90.000000
_cell_angle_beta 90.000000
_cell_angle_gamma 90.000000
_cell_volume 4281.891170
_symmetry_space_group_name_H-M "P M M N"
_symmetry_group_IT_number 59
_space_group.IT_coordinate_system_code '2'
_symmetry_cell_setting 'orthorhombic'
loop_
_space_group_symop_operation_xyz
x,y,z
1/2-x,1/2-y,z
1/2+x,-y,-z
-x,1/2+y,-z
-x,-y,-z
1/2+x,1/2+y,-z
1/2-x,y,z
x,1/2-y,z
loop_
_atom_site_type_symbol
_atom_site_label
_atom_site_fract_x
_atom_site_fract_y
_atom_site_fract_z
Si Si1 0.076496 0.030391 0.726704
Si Si2 0.423005 0.541834 0.406803
Si Si3 0.578091 0.389172 0.248862
Si Si4 0.919963 0.448538 0.856200
Si Si5 0.425761 0.063417 0.983844
Si Si6 0.923571 0.587717 0.529786
Si Si7 0.082093 0.092391 0.121928
Si Si8 0.074180 0.180971 0.362625
O O1 0.250000 0.040629 0.727583
O O2 0.004905 0.050532 0.660211
O O3 0.999699 0.059849 0.788387
O O4 0.052634 0.958802 0.733189
O O5 0.250000 0.550636 0.399563
O O6 0.446932 0.473440 0.430233
O O7 0.488342 0.581668 0.463949
O O8 0.750000 0.378196 0.251633
O O9 0.518837 0.380569 0.176749
O O10 0.495682 0.348650 0.300040
O O11 0.750000 0.431354 0.854522
O O12 0.924004 0.520381 0.868472
O O13 0.004601 0.418874 0.915918
O O14 0.250000 0.056693 0.978858
O O15 0.456123 0.102852 0.047262
O O16 0.500000 0.000000 0.000000
O O17 0.750000 0.591533 0.516204
O O18 0.968163 0.642261 0.575125
O O19 0.250000 0.110353 0.132691
O O20 0.250000 0.176770 0.357320
O O21 0.033671 0.250000 0.368654
#
# Coordination Sequence:
#
# PCOD9446355 Si02
#       8
#     8   8   8   8   8   8   8   8
#     4  10  18  27  40  59  83 111 141 175 213 255
#     4  10  18  28  45  64  84 110 138 176 217 257
#     4  10  19  28  41  60  81 105 138 178 216 253
#     4   9  16  24  35  52  76 106 138 172 207 246
#     4   9  15  23  34  50  72 102 137 172 206 241
#     4   9  18  31  45  63  84 107 137 175 214 260
#     4   8  15  25  37  51  72 103 137 172 206 242
#     4  10  20  34  50  64  82 111 143 176 217 263
#
# _framework density 14.946668000000001
#
# number of rings (size 3 to 8) (size 9 to 14) (size 15 to 20)
#    0.000    2.625    1.250    2.625    0.000    5.750 
#    0.000    0.000    0.000    0.000    0.000    0.000 
#    0.000    0.000    0.000    1.125    0.000   20.125 
#
# Total GULP energy -356474.771797 kJ/mol
# GULP energy per Si atom -5569.918309 kJ/mol
# Density = 1.491265 g / cm^3
# Si number density = 14.946668 Si / 1000 Ang^3
#
#
#
# Elastic Constant Matrix: (Units=GPa)
#
#
# Indices 1 2 3 4 5 6 
#
# 1 67.5622 26.9854 78.8345 0.0000 0.0000 0.0000
# 2 26.9854 35.6893 36.4749 0.0000 0.0000 0.0000
# 3 78.8345 36.4749 167.6811 0.0000 0.0000 0.0000
# 4 0.0000 0.0000 0.0000 6.9115 0.0000 0.0000
# 5 0.0000 0.0000 0.0000 0.0000 31.9696 0.0000
# 6 0.0000 0.0000 0.0000 0.0000 0.0000 10.0903
#
#
#
# Elastic Compliance Matrix: (Units=1/GPa)
#
#
# Indices 1 2 3 4 5 6 
#
# 1 0.037020 -0.013121 -0.014551 0.000000 0.000000 0.000000
# 2 -0.013121 0.040680 -0.002680 0.000000 0.000000 0.000000
# 3 -0.014551 -0.002680 0.013388 0.000000 0.000000 0.000000
# 4 0.000000 0.000000 0.000000 0.144686 0.000000 0.000000
# 5 0.000000 0.000000 0.000000 0.000000 0.031280 0.000000
# 6 0.000000 0.000000 0.000000 0.000000 0.000000 0.099105
#
#
# Mechanical properties :
#
#
# Convention : Reuss Voigt Hill
#
# Bulk Modulus (GPa) = 32.91184 61.72468 47.31826
# Shear Modulus (GPa) = 11.44192 18.37015 14.90603
#
# Velocity S-wave (km/s) = 2.76980 3.50958 3.16140
# Velocity P-wave (km/s) = 5.68299 7.60323 6.71213
#
# Compressibility (1/GPa) = 0.03038420
#
# Stress axis : x y z
#
# Youngs Moduli (GPa) = 27.01218 24.58229 74.69528
#
# Poissons Ratio (x) = 0.32254 1.08688
# Poissons Ratio (y) = 0.35442 0.20020
# Poissons Ratio (z) = 0.39305 0.06589
#
# Static dielectric constant tensor:
#      x y z
#    x 1.494560 0.000000 0.000000 
#    y 0.000000 1.461090 0.000000 
#    z 0.000000 0.000000 1.511500 
# 
# From -- ./inp_files/26466.got.cif
#   From: 2010.05.17/outbox.cif.g08.bks.cpg/sg59_14_cif.got.tgz:26466.got - 2010.06.03 14:40:33.
