data_PCOD9446253
_publ_section_title
;
Structure prediction by ZEFSAII (Michael W. Deem and Ramdas Pophale) SiO2 
 PCOD9446253
Probable space group: P M M N
;
_chemical_formula_sum "Si O2"
_cell_formula_units_Z 64
_cell_length_a 8.905470
_cell_length_b 30.257613
_cell_length_c 12.122867
_cell_angle_alpha 90.000000
_cell_angle_beta 90.000000
_cell_angle_gamma 90.000000
_cell_volume 3266.606707
_symmetry_space_group_name_H-M "P M M N"
_symmetry_group_IT_number 59
_space_group.IT_coordinate_system_code '2'
_symmetry_cell_setting 'orthorhombic'
loop_
_space_group_symop_operation_xyz
x,y,z
1/2-x,1/2-y,z
1/2+x,-y,-z
-x,1/2+y,-z
-x,-y,-z
1/2+x,1/2+y,-z
1/2-x,y,z
x,1/2-y,z
loop_
_atom_site_type_symbol
_atom_site_label
_atom_site_fract_x
_atom_site_fract_y
_atom_site_fract_z
Si Si1 0.932032 0.618023 0.385913
Si Si2 0.575335 0.797032 0.253194
Si Si3 0.572437 0.119878 0.373296
Si Si4 0.426447 0.449925 0.216361
Si Si5 0.996030 0.200973 0.000705
Si Si6 0.579044 0.799338 0.747321
Si Si7 0.070662 0.392582 0.995454
Si Si8 0.928965 0.545255 0.216053
O O1 0.750000 0.618621 0.388683
O O2 0.986228 0.659345 0.310819
O O3 0.974859 0.572770 0.324359
O O4 0.996098 0.622328 0.507441
O O5 0.750000 0.795781 0.284578
O O6 0.504509 0.750000 0.286838
O O7 0.571097 0.798456 0.120249
O O8 0.750000 0.119009 0.384423
O O9 0.514528 0.076576 0.310073
O O10 0.522521 0.162263 0.301037
O O11 0.250000 0.449724 0.242486
O O12 0.446540 0.422717 0.102997
O O13 0.485197 0.499503 0.203843
O O14 0.916897 0.250000 0.002517
O O15 0.077992 0.201335 0.119229
O O16 0.954857 0.148689 0.000322
O O17 0.750000 0.807358 0.710955
O O18 0.532713 0.750000 0.711396
O O19 0.250000 0.378006 0.992752
O O20 0.046756 0.422160 0.887572
O O21 0.750000 0.536493 0.220870
#
# Coordination Sequence:
#
# PCOD9446253 Si02
#       8
#     8   8   8   8   8   8   8   8
#     4  10  21  38  60  85 116 155 198 247 294 348
#     4   9  16  28  53  90 124 152 187 233 285 342
#     4  12  26  42  60  83 116 158 202 251 301 351
#     4  11  23  40  63  88 118 154 197 245 295 356
#     4  10  17  28  56  97 131 155 185 230 286 346
#     4  10  20  36  62  93 124 159 199 241 286 346
#     4  10  18  32  57  90 126 157 186 233 292 353
#     4  10  21  38  61  90 122 153 190 241 302 358
#
# _framework density 19.592196999999999
#
# number of rings (size 3 to 8) (size 9 to 14) (size 15 to 20)
#    0.000    1.750    2.500    3.000    0.000    4.500 
#    0.000    1.875    0.000    0.750    0.000    1.750 
#    0.000    0.000    0.000    0.000    0.000    0.000 
#
# Total GULP energy -356476.487895 kJ/mol
# GULP energy per Si atom -5569.945123 kJ/mol
# Density = 1.954760 g / cm^3
# Si number density = 19.592197 Si / 1000 Ang^3
#
#
#
# Elastic Constant Matrix: (Units=GPa)
#
#
# Indices 1 2 3 4 5 6 
#
# 1 35.6123 40.2486 20.6044 0.0000 0.0000 0.0000
# 2 40.2486 153.9323 45.3767 0.0000 0.0000 0.0000
# 3 20.6044 45.3767 99.7715 0.0000 0.0000 0.0000
# 4 0.0000 0.0000 0.0000 10.6759 0.0000 0.0000
# 5 0.0000 0.0000 0.0000 0.0000 2.5823 0.0000
# 6 0.0000 0.0000 0.0000 0.0000 0.0000 15.5085
#
#
#
# Elastic Compliance Matrix: (Units=1/GPa)
#
#
# Indices 1 2 3 4 5 6 
#
# 1 0.041315 -0.009571 -0.004179 0.000000 0.000000 0.000000
# 2 -0.009571 0.009719 -0.002444 0.000000 0.000000 0.000000
# 3 -0.004179 -0.002444 0.011998 0.000000 0.000000 0.000000
# 4 0.000000 0.000000 0.000000 0.093669 0.000000 0.000000
# 5 0.000000 0.000000 0.000000 0.000000 0.387258 0.000000
# 6 0.000000 0.000000 0.000000 0.000000 0.000000 0.064481
#
#
# Mechanical properties :
#
#
# Convention : Reuss Voigt Hill
#
# Bulk Modulus (GPa) = 32.63301 55.75282 44.19292
# Shear Modulus (GPa) = 7.68000 17.95909 12.81955
#
# Velocity S-wave (km/s) = 1.98203 3.03090 2.56074
# Velocity P-wave (km/s) = 4.68297 6.38490 5.59898
#
# Compressibility (1/GPa) = 0.03064382
#
# Stress axis : x y z
#
# Youngs Moduli (GPa) = 24.20444 102.88939 83.35065
#
# Poissons Ratio (x) = 0.98471 0.34836
# Poissons Ratio (y) = 0.23165 0.20370
# Poissons Ratio (z) = 0.10116 0.25145
#
# Static dielectric constant tensor:
#      x y z
#    x 1.690190 0.000000 0.000000 
#    y 0.000000 1.721120 0.000000 
#    z 0.000000 0.000000 1.659700 
# 
# From -- ./inp_files/14930.got.cif
#   From: 2010.05.17/outbox.cif.g08.bks.cpg/sg59_8_cif.got.tgz:14930.got - 2010.06.03 14:40:33.
