data_PCOD9446730
_publ_section_title
;
Structure prediction by ZEFSAII (Michael W. Deem and Ramdas Pophale) SiO2 
 PCOD9446730
Probable space group: P M M N
;
_chemical_formula_sum "Si O2"
_cell_formula_units_Z 48
_cell_length_a 21.678893
_cell_length_b 7.483737
_cell_length_c 15.501271
_cell_angle_alpha 90.000000
_cell_angle_beta 90.000000
_cell_angle_gamma 90.000000
_cell_volume 2514.912778
_symmetry_space_group_name_H-M "P M M N"
_symmetry_group_IT_number 59
_space_group.IT_coordinate_system_code '2'
_symmetry_cell_setting 'orthorhombic'
loop_
_space_group_symop_operation_xyz
x,y,z
1/2-x,1/2-y,z
1/2+x,-y,-z
-x,1/2+y,-z
-x,-y,-z
1/2+x,1/2+y,-z
1/2-x,y,z
x,1/2-y,z
loop_
_atom_site_type_symbol
_atom_site_label
_atom_site_fract_x
_atom_site_fract_y
_atom_site_fract_z
Si Si1 0.682625 0.967950 0.886221
Si Si2 0.152734 0.464694 0.307827
Si Si3 0.315643 0.957726 0.498637
Si Si4 0.555122 0.035138 0.432639
Si Si5 0.545276 0.536060 0.920858
Si Si6 0.013358 0.466926 0.268137
O O1 0.750000 0.025930 0.920555
O O2 0.682493 0.750000 0.889275
O O3 0.678794 0.019895 0.785032
O O4 0.616947 0.027355 0.927030
O O5 0.158708 0.250000 0.311096
O O6 0.181165 0.536690 0.394903
O O7 0.080500 0.510923 0.306376
O O8 0.250000 0.038126 0.525876
O O9 0.314910 0.750000 0.524571
O O10 0.379397 0.036345 0.534144
O O11 0.559487 0.250000 0.428255
O O12 0.536296 0.969343 0.337415
O O13 0.500000 0.000000 0.500000
O O14 0.549998 0.750000 0.912759
O O15 0.515418 0.469987 0.830745
O O16 0.500000 0.500000 0.000000
O O17 0.009257 0.250000 0.265391
#
# Coordination Sequence:
#
# PCOD9446730 Si02
#       6
#     8   8   8   8   8   8
#     4   8  14  25  43  66  89 115 147 179 215 266
#     4   9  15  26  45  66  86 113 150 182 211 258
#     4  10  20  29  38  60  94 124 147 179 224 264
#     4  10  18  30  47  64  87 119 154 186 215 256
#     4   9  17  30  48  68  90 115 145 185 228 270
#     4   8  15  28  46  66  87 114 148 184 220 257
#
# _framework density 19.08615
#
# number of rings (size 3 to 8) (size 9 to 14) (size 15 to 20)
#    0.000    3.000    1.667    2.500    0.000    1.000 
#    0.000    4.167    0.000    2.500    0.000    2.333 
#    0.000    0.000    0.000    0.000    0.000    0.000 
#
# Total GULP energy -267422.722423 kJ/mol
# GULP energy per Si atom -5571.306717 kJ/mol
# Density = 1.904271 g / cm^3
# Si number density = 19.086150 Si / 1000 Ang^3
#
#
#
# Elastic Constant Matrix: (Units=GPa)
#
#
# Indices 1 2 3 4 5 6 
#
# 1 195.0340 8.5520 90.8006 0.0000 0.0000 0.0000
# 2 8.5520 51.4059 0.7881 0.0000 0.0000 0.0000
# 3 90.8006 0.7881 98.3645 0.0000 0.0000 0.0000
# 4 0.0000 0.0000 0.0000 13.1322 0.0000 0.0000
# 5 0.0000 0.0000 0.0000 0.0000 15.9636 0.0000
# 6 0.0000 0.0000 0.0000 0.0000 0.0000 6.8134
#
#
#
# Elastic Compliance Matrix: (Units=1/GPa)
#
#
# Indices 1 2 3 4 5 6 
#
# 1 0.009089 -0.001384 -0.008379 0.000000 0.000000 0.000000
# 2 -0.001384 0.019666 0.001120 0.000000 0.000000 0.000000
# 3 -0.008379 0.001120 0.017892 0.000000 0.000000 0.000000
# 4 0.000000 0.000000 0.000000 0.076149 0.000000 0.000000
# 5 0.000000 0.000000 0.000000 0.000000 0.062643 0.000000
# 6 0.000000 0.000000 0.000000 0.000000 0.000000 0.146769
#
#
# Mechanical properties :
#
#
# Convention : Reuss Voigt Hill
#
# Bulk Modulus (GPa) = 34.05872 60.56511 47.31192
# Shear Modulus (GPa) = 13.91673 23.49275 18.70474
#
# Velocity S-wave (km/s) = 2.70321 3.51220 3.13392
# Velocity P-wave (km/s) = 5.25610 6.94613 6.15936
#
# Compressibility (1/GPa) = 0.02936106
#
# Stress axis : x y z
#
# Youngs Moduli (GPa) = 110.02459 50.84914 55.89130
#
# Poissons Ratio (x) = 0.07035 0.46831
# Poissons Ratio (y) = 0.15223 -0.06258
# Poissons Ratio (z) = 0.92188 -0.05693
#
# Static dielectric constant tensor:
#      x y z
#    x 1.719840 0.000000 0.000000 
#    y 0.000000 1.736000 0.000000 
#    z 0.000000 0.000000 1.648370 
# 
# From -- ./inp_files/18661.got.cif
#   From: 2010.05.17/outbox.cif.g08.bks.cpg/sg59_10_cif.got.tgz:18661.got - 2010.06.03 14:40:33.
