data_PCOD9446957
_publ_section_title
;
Structure prediction by ZEFSAII (Michael W. Deem and Ramdas Pophale) SiO2 
 PCOD9446957
Probable space group: P M M N
;
_chemical_formula_sum "Si O2"
_cell_formula_units_Z 56
_cell_length_a 20.270694
_cell_length_b 7.504747
_cell_length_c 18.036438
_cell_angle_alpha 90.000000
_cell_angle_beta 90.000000
_cell_angle_gamma 90.000000
_cell_volume 2743.818923
_symmetry_space_group_name_H-M "P M M N"
_symmetry_group_IT_number 59
_space_group.IT_coordinate_system_code '2'
_symmetry_cell_setting 'orthorhombic'
loop_
_space_group_symop_operation_xyz
x,y,z
1/2-x,1/2-y,z
1/2+x,-y,-z
-x,1/2+y,-z
-x,-y,-z
1/2+x,1/2+y,-z
1/2-x,y,z
x,1/2-y,z
loop_
_atom_site_type_symbol
_atom_site_label
_atom_site_fract_x
_atom_site_fract_y
_atom_site_fract_z
Si Si1 0.822441 0.038794 0.087520
Si Si2 0.551334 0.032555 0.807505
Si Si3 0.922452 0.035187 0.642119
Si Si4 0.929925 0.967698 0.392896
Si Si5 0.573023 0.463835 0.969844
Si Si6 0.095887 0.463798 0.772841
Si Si7 0.325183 0.039384 0.485928
O O1 0.750000 0.962298 0.078065
O O2 0.819122 0.250000 0.073852
O O3 0.847557 0.017994 0.171253
O O4 0.875039 0.964253 0.029269
O O5 0.553094 0.250000 0.807375
O O6 0.580090 0.975549 0.727988
O O7 0.581186 0.970897 0.885314
O O8 0.474532 0.977709 0.805774
O O9 0.925027 0.250000 0.642880
O O10 0.992904 0.974985 0.606366
O O11 0.859952 0.981575 0.593649
O O12 0.931497 0.750000 0.396164
O O13 0.901897 0.021673 0.312377
O O14 0.879867 0.032443 0.455997
O O15 0.579720 0.250000 0.966771
O O16 0.500000 0.500000 0.000000
O O17 0.094678 0.250000 0.771106
O O18 0.250000 0.968181 0.489785
O O19 0.320254 0.250000 0.501368
#
# Coordination Sequence:
#
# PCOD9446957 Si02
#       7
#     8   8   8   8   8   8   8
#     4  10  21  33  44  67 105 138 160 192 244 297
#     4   8  15  29  50  75  97 117 153 206 249 280
#     4   9  17  32  53  74  96 123 162 210 248 283
#     4   8  16  31  52  75  98 125 161 203 245 290
#     4  10  18  31  52  73  97 128 164 202 241 285
#     4   9  16  30  52  74  94 121 161 203 239 284
#     4  10  20  33  48  69 100 134 164 198 246 299
#
# _framework density 20.409510999999998
#
# number of rings (size 3 to 8) (size 9 to 14) (size 15 to 20)
#    0.000    2.857    1.429    2.143    0.000    1.143 
#    0.000    6.429    0.000    2.571    0.000    0.000 
#    0.000    0.000    0.000    0.000    0.000    0.000 
#
# Total GULP energy -312293.885959 kJ/mol
# GULP energy per Si atom -5576.676535 kJ/mol
# Density = 2.036306 g / cm^3
# Si number density = 20.409511 Si / 1000 Ang^3
#
#
#
# Elastic Constant Matrix: (Units=GPa)
#
#
# Indices 1 2 3 4 5 6 
#
# 1 106.2256 -0.8581 53.1088 0.0000 0.0000 0.0000
# 2 -0.8581 52.5773 -5.4381 0.0000 0.0000 0.0000
# 3 53.1088 -5.4381 96.1694 0.0000 0.0000 0.0000
# 4 0.0000 0.0000 0.0000 33.3326 0.0000 0.0000
# 5 0.0000 0.0000 0.0000 0.0000 17.5105 0.0000
# 6 0.0000 0.0000 0.0000 0.0000 0.0000 13.7925
#
#
#
# Elastic Compliance Matrix: (Units=1/GPa)
#
#
# Indices 1 2 3 4 5 6 
#
# 1 0.013019 -0.000534 -0.007220 0.000000 0.000000 0.000000
# 2 -0.000534 0.019153 0.001378 0.000000 0.000000 0.000000
# 3 -0.007220 0.001378 0.014463 0.000000 0.000000 0.000000
# 4 0.000000 0.000000 0.000000 0.030001 0.000000 0.000000
# 5 0.000000 0.000000 0.000000 0.000000 0.057109 0.000000
# 6 0.000000 0.000000 0.000000 0.000000 0.000000 0.072503
#
#
# Mechanical properties :
#
#
# Convention : Reuss Voigt Hill
#
# Bulk Modulus (GPa) = 29.51260 38.73304 34.12282
# Shear Modulus (GPa) = 21.71125 26.80446 24.25786
#
# Velocity S-wave (km/s) = 3.26510 3.62792 3.45128
# Velocity P-wave (km/s) = 5.35781 6.04717 5.71290
#
# Compressibility (1/GPa) = 0.03388384
#
# Stress axis : x y z
#
# Youngs Moduli (GPa) = 76.80872 52.20998 69.13978
#
# Poissons Ratio (x) = 0.02790 0.49919
# Poissons Ratio (y) = 0.04104 -0.09528
# Poissons Ratio (z) = 0.55456 -0.07195
#
# Static dielectric constant tensor:
#      x y z
#    x 1.708240 0.000000 0.000000 
#    y 0.000000 1.783810 0.000000 
#    z 0.000000 0.000000 1.735220 
# 
# From -- ./inp_files/28113.got.cif
#   From: 2010.05.17/outbox.cif.g08.bks.cpg/sg59_15_cif.got.tgz:28113.got - 2010.06.03 14:40:33.
