data_PCOD9446438
_publ_section_title
;
Structure prediction by ZEFSAII (Michael W. Deem and Ramdas Pophale) SiO2 
 PCOD9446438
Probable space group: P M M N
;
_chemical_formula_sum "Si O2"
_cell_formula_units_Z 64
_cell_length_a 9.306903
_cell_length_b 25.182850
_cell_length_c 18.978480
_cell_angle_alpha 90.000000
_cell_angle_beta 90.000000
_cell_angle_gamma 90.000000
_cell_volume 4448.068766
_symmetry_space_group_name_H-M "P M M N"
_symmetry_group_IT_number 59
_space_group.IT_coordinate_system_code '2'
_symmetry_cell_setting 'orthorhombic'
loop_
_space_group_symop_operation_xyz
x,y,z
1/2-x,1/2-y,z
1/2+x,-y,-z
-x,1/2+y,-z
-x,-y,-z
1/2+x,1/2+y,-z
1/2-x,y,z
x,1/2-y,z
loop_
_atom_site_type_symbol
_atom_site_label
_atom_site_fract_x
_atom_site_fract_y
_atom_site_fract_z
Si Si1 0.915708 0.578646 0.534422
Si Si2 0.416472 0.186814 0.221488
Si Si3 0.918903 0.503434 0.272253
Si Si4 0.084654 0.958069 0.403527
Si Si5 0.581406 0.384007 0.332921
Si Si6 0.077614 0.010013 0.890691
Si Si7 0.078112 0.811127 0.925351
Si Si8 0.421729 0.582512 0.999741
O O1 0.750000 0.595497 0.529264
O O2 0.915686 0.518148 0.564711
O O3 0.993324 0.576010 0.459079
O O4 0.004750 0.611897 0.591492
O O5 0.250000 0.169836 0.219014
O O6 0.420479 0.250000 0.233751
O O7 0.501213 0.156753 0.282362
O O8 0.494000 0.177544 0.146783
O O9 0.750000 0.517678 0.277738
O O10 0.930560 0.442135 0.296662
O O11 0.964979 0.508213 0.191064
O O12 0.010868 0.537418 0.327432
O O13 0.250000 0.940826 0.399616
O O14 0.750000 0.371846 0.339974
O O15 0.250000 0.016202 0.893355
O O16 0.043963 0.955275 0.932385
O O17 0.002664 0.056791 0.934406
O O18 0.250000 0.815183 0.912047
O O19 0.048036 0.750000 0.946622
O O20 0.040782 0.856910 0.981067
O O21 0.250000 0.579327 0.010946
#
# Coordination Sequence:
#
# PCOD9446438 Si02
#       8
#     8   8   8   8   8   8   8   8
#     4   9  16  26  39  56  80 108 136 165 198 234
#     4  10  20  31  42  59  83 108 136 172 210 246
#     4   9  17  28  41  58  81 109 140 172 206 245
#     4   9  16  25  38  57  80 106 136 167 198 234
#     4  10  18  28  43  60  80 108 141 174 205 241
#     4   9  17  28  41  58  82 112 141 169 206 251
#     4   9  17  30  47  63  80 106 139 174 212 251
#     4   9  17  29  43  60  82 107 138 174 209 248
#
# _framework density 14.388267000000001
#
# number of rings (size 3 to 8) (size 9 to 14) (size 15 to 20)
#    0.000    2.750    0.000    2.250    0.000    7.250 
#    0.000    2.500    0.000    0.000    0.000    0.000 
#    0.000    1.000    0.000    6.500    0.000    4.500 
#
# Total GULP energy -356580.660259 kJ/mol
# GULP energy per Si atom -5571.572817 kJ/mol
# Density = 1.435552 g / cm^3
# Si number density = 14.388267 Si / 1000 Ang^3
#
#
#
# Elastic Constant Matrix: (Units=GPa)
#
#
# Indices 1 2 3 4 5 6 
#
# 1 74.9635 28.1410 52.3861 0.0000 0.0000 0.0000
# 2 28.1410 39.7874 26.9062 0.0000 0.0000 0.0000
# 3 52.3861 26.9062 109.9499 0.0000 0.0000 0.0000
# 4 0.0000 0.0000 0.0000 24.0003 0.0000 0.0000
# 5 0.0000 0.0000 0.0000 0.0000 27.0597 0.0000
# 6 0.0000 0.0000 0.0000 0.0000 0.0000 18.5522
#
#
#
# Elastic Compliance Matrix: (Units=1/GPa)
#
#
# Indices 1 2 3 4 5 6 
#
# 1 0.023292 -0.010748 -0.008467 0.000000 0.000000 0.000000
# 2 -0.010748 0.035077 -0.003463 0.000000 0.000000 0.000000
# 3 -0.008467 -0.003463 0.013977 0.000000 0.000000 0.000000
# 4 0.000000 0.000000 0.000000 0.041666 0.000000 0.000000
# 5 0.000000 0.000000 0.000000 0.000000 0.036955 0.000000
# 6 0.000000 0.000000 0.000000 0.000000 0.000000 0.053902
#
#
# Mechanical properties :
#
#
# Convention : Reuss Voigt Hill
#
# Bulk Modulus (GPa) = 37.05159 48.84083 42.94621
# Shear Modulus (GPa) = 19.28851 21.74027 20.51439
#
# Velocity S-wave (km/s) = 3.66535 3.89134 3.78004
# Velocity P-wave (km/s) = 6.61213 7.36265 6.99746
#
# Compressibility (1/GPa) = 0.02698939
#
# Stress axis : x y z
#
# Youngs Moduli (GPa) = 42.93389 28.50854 71.54732
#
# Poissons Ratio (x) = 0.30640 0.60581
# Poissons Ratio (y) = 0.46145 0.24777
# Poissons Ratio (z) = 0.36353 0.09873
#
# Static dielectric constant tensor:
#      x y z
#    x 1.483320 0.000000 0.000000 
#    y 0.000000 1.459990 0.000000 
#    z 0.000000 0.000000 1.457020 
# 
# From -- ./inp_files/26574.got.cif
#   From: 2010.05.17/outbox.cif.g08.bks.cpg/sg59_14_cif.got.tgz:26574.got - 2010.06.03 14:40:33.
