data_PCOD9446579
_publ_section_title
;
Structure prediction by ZEFSAII (Michael W. Deem and Ramdas Pophale) SiO2 
 PCOD9446579
Probable space group: P M M N
;
_chemical_formula_sum "Si O2"
_cell_formula_units_Z 64
_cell_length_a 14.413327
_cell_length_b 8.776394
_cell_length_c 32.060968
_cell_angle_alpha 90.000000
_cell_angle_beta 90.000000
_cell_angle_gamma 90.000000
_cell_volume 4055.617443
_symmetry_space_group_name_H-M "P M M N"
_symmetry_group_IT_number 59
_space_group.IT_coordinate_system_code '2'
_symmetry_cell_setting 'orthorhombic'
loop_
_space_group_symop_operation_xyz
x,y,z
1/2-x,1/2-y,z
1/2+x,-y,-z
-x,1/2+y,-z
-x,-y,-z
1/2+x,1/2+y,-z
1/2-x,y,z
x,1/2-y,z
loop_
_atom_site_type_symbol
_atom_site_label
_atom_site_fract_x
_atom_site_fract_y
_atom_site_fract_z
Si Si1 0.641656 0.431961 0.858810
Si Si2 0.642571 0.933845 0.020563
Si Si3 0.098795 0.432673 0.485893
Si Si4 0.141712 0.933025 0.315981
Si Si5 0.454519 0.933110 0.402349
Si Si6 0.350349 0.568160 0.570299
Si Si7 0.137467 0.074587 0.228936
Si Si8 0.966938 0.932358 0.936313
O O1 0.750000 0.480171 0.864569
O O2 0.638655 0.250000 0.861526
O O3 0.611051 0.484173 0.812681
O O4 0.577884 0.503835 0.894318
O O5 0.750000 0.982462 0.025009
O O6 0.640195 0.750000 0.023732
O O7 0.568779 0.002670 0.053034
O O8 0.600961 0.975321 0.975028
O O9 0.100962 0.250000 0.485993
O O10 0.108946 0.495123 0.439097
O O11 0.156967 0.500247 0.523710
O O12 0.000000 0.500000 0.500000
O O13 0.250000 0.976323 0.321760
O O14 0.138681 0.750000 0.311841
O O15 0.084667 0.975303 0.357108
O O16 0.106236 0.005183 0.272933
O O17 0.453499 0.750000 0.406931
O O18 0.559547 0.993047 0.408680
O O19 0.250000 0.540655 0.591177
O O20 0.365382 0.750000 0.567641
O O21 0.250000 0.068202 0.230259
O O22 0.109394 0.250000 0.225225
O O23 0.971350 0.750000 0.934660
#
# Coordination Sequence:
#
# PCOD9446579 Si02
#       8
#     8   8   8   8   8   8   8   8
#     4  10  19  30  46  68  95 126 157 190 230 278
#     4   9  18  32  47  64  92 129 164 199 239 280
#     4  10  18  29  45  63  86 114 145 182 221 262
#     4   9  18  32  48  67  93 123 151 179 218 271
#     4  10  19  31  48  69  93 121 152 185 221 264
#     4  10  20  33  48  65  88 119 153 190 230 267
#     4   9  17  29  46  68  93 120 150 186 227 270
#     4  10  19  30  46  69  95 123 160 202 239 278
#
# _framework density 15.780581
#
# number of rings (size 3 to 8) (size 9 to 14) (size 15 to 20)
#    0.000    2.375    0.000    4.875    0.000    6.000 
#    0.000    1.250    0.000    0.000    0.000    0.875 
#    0.000    3.000    0.000    0.000    0.000    0.000 
#
# Total GULP energy -356604.814503 kJ/mol
# GULP energy per Si atom -5571.950227 kJ/mol
# Density = 1.574466 g / cm^3
# Si number density = 15.780581 Si / 1000 Ang^3
#
#
#
# Elastic Constant Matrix: (Units=GPa)
#
#
# Indices 1 2 3 4 5 6 
#
# 1 95.8190 30.9503 54.8075 0.0000 0.0000 0.0000
# 2 30.9503 56.7912 41.6221 0.0000 0.0000 0.0000
# 3 54.8075 41.6221 128.1680 0.0000 0.0000 0.0000
# 4 0.0000 0.0000 0.0000 28.2288 0.0000 0.0000
# 5 0.0000 0.0000 0.0000 0.0000 23.5845 0.0000
# 6 0.0000 0.0000 0.0000 0.0000 0.0000 15.6507
#
#
#
# Elastic Compliance Matrix: (Units=1/GPa)
#
#
# Indices 1 2 3 4 5 6 
#
# 1 0.014623 -0.004444 -0.004810 0.000000 0.000000 0.000000
# 2 -0.004444 0.024459 -0.006043 0.000000 0.000000 0.000000
# 3 -0.004810 -0.006043 0.011821 0.000000 0.000000 0.000000
# 4 0.000000 0.000000 0.000000 0.035425 0.000000 0.000000
# 5 0.000000 0.000000 0.000000 0.000000 0.042401 0.000000
# 6 0.000000 0.000000 0.000000 0.000000 0.000000 0.063895
#
#
# Mechanical properties :
#
#
# Convention : Reuss Voigt Hill
#
# Bulk Modulus (GPa) = 49.23647 59.50420 54.37033
# Shear Modulus (GPa) = 21.74034 23.71934 22.72984
#
# Velocity S-wave (km/s) = 3.71572 3.88115 3.79934
# Velocity P-wave (km/s) = 7.04820 7.60747 7.33317
#
# Compressibility (1/GPa) = 0.02031015
#
# Stress axis : x y z
#
# Youngs Moduli (GPa) = 68.38505 40.88489 84.59252
#
# Poissons Ratio (x) = 0.18170 0.40688
# Poissons Ratio (y) = 0.30391 0.51115
# Poissons Ratio (z) = 0.32893 0.24705
#
# Static dielectric constant tensor:
#      x y z
#    x 1.537310 0.000000 0.000000 
#    y 0.000000 1.527980 0.000000 
#    z 0.000000 0.000000 1.523570 
# 
# From -- ./inp_files/33312.got.cif
#   From: 2010.05.17/outbox.cif.g08.bks.cpg/sg59_17_cif.got.tgz:33312.got - 2010.06.03 14:40:33.
