data_PCOD9446784
_publ_section_title
;
Structure prediction by ZEFSAII (Michael W. Deem and Ramdas Pophale) SiO2 
 PCOD9446784
Probable space group: P M M N
;
_chemical_formula_sum "Si O2"
_cell_formula_units_Z 56
_cell_length_a 14.576215
_cell_length_b 8.541501
_cell_length_c 20.955986
_cell_angle_alpha 90.000000
_cell_angle_beta 90.000000
_cell_angle_gamma 90.000000
_cell_volume 2609.077991
_symmetry_space_group_name_H-M "P M M N"
_symmetry_group_IT_number 59
_space_group.IT_coordinate_system_code '2'
_symmetry_cell_setting 'orthorhombic'
loop_
_space_group_symop_operation_xyz
x,y,z
1/2-x,1/2-y,z
1/2+x,-y,-z
-x,1/2+y,-z
-x,-y,-z
1/2+x,1/2+y,-z
1/2-x,y,z
x,1/2-y,z
loop_
_atom_site_type_symbol
_atom_site_label
_atom_site_fract_x
_atom_site_fract_y
_atom_site_fract_z
Si Si1 0.050978 0.562399 0.647409
Si Si2 0.849479 0.063297 0.614037
Si Si3 0.600761 0.936765 0.482791
Si Si4 0.951073 0.438241 0.211887
Si Si5 0.150645 0.567269 0.183642
Si Si6 0.382644 0.425391 0.053214
Si Si7 0.897966 0.428933 0.077000
O O1 0.056019 0.750000 0.641555
O O2 0.943129 0.514465 0.639727
O O3 0.081857 0.513218 0.718190
O O4 0.110345 0.487038 0.590601
O O5 0.750000 0.017993 0.642553
O O6 0.859968 0.250000 0.620690
O O7 0.844149 0.018027 0.539289
O O8 0.607143 0.750000 0.488574
O O9 0.500000 0.000000 0.500000
O O10 0.946654 0.250000 0.208252
O O11 0.058323 0.484303 0.206786
O O12 0.896655 0.495444 0.149042
O O13 0.250000 0.507282 0.206240
O O14 0.144134 0.750000 0.200108
O O15 0.149810 0.544453 0.107087
O O16 0.351288 0.250000 0.068253
O O17 0.358066 0.473583 0.981516
O O18 0.493074 0.422240 0.061140
O O19 0.863432 0.250000 0.075997
#
# Coordination Sequence:
#
# PCOD9446784 Si02
#       7
#     8   8   8   8   8   8   8
#     4  10  19  32  49  69  96 127 159 192 230 279
#     4  10  20  33  49  70  96 125 158 195 234 276
#     4  10  18  30  49  70  93 121 155 194 235 276
#     4   9  19  32  46  65  89 121 154 183 219 265
#     4  10  20  31  43  61  87 120 154 187 224 266
#     4   9  16  26  42  62  82 108 142 180 222 261
#     4   8  14  26  42  61  84 107 138 179 218 255
#
# _framework density 21.463519999999999
#
# number of rings (size 3 to 8) (size 9 to 14) (size 15 to 20)
#    0.000    2.571    0.000    5.571    0.000    7.429 
#    0.000    2.857    0.000    0.000    0.000    1.000 
#    0.000    8.000    0.000    0.000    0.000    0.000 
#
# Total GULP energy -312193.951554 kJ/mol
# GULP energy per Si atom -5574.891992 kJ/mol
# Density = 2.141467 g / cm^3
# Si number density = 21.463520 Si / 1000 Ang^3
#
#
#
# Elastic Constant Matrix: (Units=GPa)
#
#
# Indices 1 2 3 4 5 6 
#
# 1 30.6809 -7.6263 -11.7611 0.0000 0.0000 0.0000
# 2 -7.6263 32.5898 5.5896 0.0000 0.0000 0.0000
# 3 -11.7611 5.5896 151.1875 0.0000 0.0000 0.0000
# 4 0.0000 0.0000 0.0000 23.2497 0.0000 0.0000
# 5 0.0000 0.0000 0.0000 0.0000 -10.0137 0.0000
# 6 0.0000 0.0000 0.0000 0.0000 0.0000 -7.1002
#
#
#
# Elastic Compliance Matrix: (Units=1/GPa)
#
#
# Indices 1 2 3 4 5 6 
#
# 1 0.035500 0.007884 0.002470 0.000000 0.000000 0.000000
# 2 0.007884 0.032631 -0.000593 0.000000 0.000000 0.000000
# 3 0.002470 -0.000593 0.006828 0.000000 0.000000 0.000000
# 4 0.000000 0.000000 0.000000 0.043011 0.000000 0.000000
# 5 0.000000 0.000000 0.000000 0.000000 -0.099863 0.000000
# 6 0.000000 0.000000 0.000000 0.000000 0.000000 -0.140842
#
#
# Mechanical properties :
#
#
# Convention : Reuss Voigt Hill
#
# Bulk Modulus (GPa) = 10.58413 20.76249 15.67331
# Shear Modulus (GPa) = -45.14175 16.44424 -14.34875
#
# Velocity S-wave (km/s) = -4.59102 2.77094 -2.58838
# Velocity P-wave (km/s) = 4.81263 4.46451 1.27074
#
# Compressibility (1/GPa) = 0.09448103
#
# Stress axis : x y z
#
# Youngs Moduli (GPa) = 28.16896 30.64562 146.44746
#
# Poissons Ratio (x) = -0.24160 -0.36174
# Poissons Ratio (y) = -0.22208 0.08686
# Poissons Ratio (z) = -0.06958 0.01818
#
# Static dielectric constant tensor:
#      x y z
#    x 1.756650 0.000000 0.000000 
#    y 0.000000 1.723280 0.000000 
#    z 0.000000 0.000000 1.851410 
# 
# From -- ./inp_files/28107.got.cif
#   From: 2010.05.17/outbox.cif.g08.bks.cpg/sg59_15_cif.got.tgz:28107.got - 2010.06.03 14:40:33.
