data_PCOD9446398
_publ_section_title
;
Structure prediction by ZEFSAII (Michael W. Deem and Ramdas Pophale) SiO2 
 PCOD9446398
Probable space group: P M M N
;
_chemical_formula_sum "Si O2"
_cell_formula_units_Z 64
_cell_length_a 8.932578
_cell_length_b 14.246045
_cell_length_c 32.541014
_cell_angle_alpha 90.000000
_cell_angle_beta 90.000000
_cell_angle_gamma 90.000000
_cell_volume 4140.971207
_symmetry_space_group_name_H-M "P M M N"
_symmetry_group_IT_number 59
_space_group.IT_coordinate_system_code '2'
_symmetry_cell_setting 'orthorhombic'
loop_
_space_group_symop_operation_xyz
x,y,z
1/2-x,1/2-y,z
1/2+x,-y,-z
-x,1/2+y,-z
-x,-y,-z
1/2+x,1/2+y,-z
1/2-x,y,z
x,1/2-y,z
loop_
_atom_site_type_symbol
_atom_site_label
_atom_site_fract_x
_atom_site_fract_y
_atom_site_fract_z
Si Si1 0.930195 0.139392 0.811221
Si Si2 0.928943 0.965758 0.436535
Si Si3 0.423124 0.136786 0.971089
Si Si4 0.077708 0.363947 0.725875
Si Si5 0.430294 0.538559 0.105946
Si Si6 0.569922 0.641191 0.521025
Si Si7 0.428997 0.860503 0.359858
Si Si8 0.567376 0.643539 0.937379
O O1 0.750000 0.132162 0.807853
O O2 0.965453 0.250000 0.817207
O O3 0.982546 0.082189 0.851115
O O4 0.002649 0.106220 0.768611
O O5 0.750000 0.969924 0.432784
O O6 0.965422 0.897836 0.475332
O O7 0.999878 0.921732 0.395909
O O8 0.993156 0.068079 0.448018
O O9 0.250000 0.106025 0.967344
O O10 0.424449 0.250000 0.970064
O O11 0.515103 0.097603 0.933143
O O12 0.480289 0.111580 0.016813
O O13 0.250000 0.393814 0.723545
O O14 0.074425 0.250000 0.726664
O O15 0.989666 0.391061 0.684754
O O16 0.250000 0.541249 0.106756
O O17 0.478231 0.432041 0.096370
O O18 0.750000 0.635855 0.525903
O O19 0.524853 0.750000 0.525472
O O20 0.250000 0.867206 0.360749
O O21 0.469566 0.750000 0.365634
O O22 0.750000 0.645385 0.938827
O O23 0.517069 0.750000 0.929974
#
# Coordination Sequence:
#
# PCOD9446398 Si02
#       8
#     8   8   8   8   8   8   8   8
#     4   9  17  28  40  58  86 112 133 164 209 259
#     4  10  19  30  46  69  95 123 159 199 234 271
#     4   9  17  28  41  58  83 113 140 169 208 251
#     4   9  17  29  45  64  86 113 143 174 212 261
#     4  10  18  27  43  64  83 108 142 176 209 248
#     4   9  18  32  47  64  92 129 164 198 235 272
#     4  10  19  30  46  68  94 123 152 184 225 270
#     4   8  15  28  43  59  81 109 141 176 212 248
#
# _framework density 15.455311999999999
#
# number of rings (size 3 to 8) (size 9 to 14) (size 15 to 20)
#    0.000    2.750    0.000    3.000    0.000    4.750 
#    0.000    1.250    0.000    1.125    0.000    0.875 
#    0.000    5.000    0.000    0.000    0.000    0.000 
#
# Total GULP energy -356662.820480 kJ/mol
# GULP energy per Si atom -5572.856570 kJ/mol
# Density = 1.542013 g / cm^3
# Si number density = 15.455312 Si / 1000 Ang^3
#
#
#
# Elastic Constant Matrix: (Units=GPa)
#
#
# Indices 1 2 3 4 5 6 
#
# 1 27.5017 32.7375 44.5077 0.0000 0.0000 0.0000
# 2 32.7375 87.5644 71.8462 0.0000 0.0000 0.0000
# 3 44.5077 71.8462 147.0703 0.0000 0.0000 0.0000
# 4 0.0000 0.0000 0.0000 26.0947 0.0000 0.0000
# 5 0.0000 0.0000 0.0000 0.0000 24.5044 0.0000
# 6 0.0000 0.0000 0.0000 0.0000 0.0000 16.2214
#
#
#
# Elastic Compliance Matrix: (Units=1/GPa)
#
#
# Indices 1 2 3 4 5 6 
#
# 1 0.085263 -0.017868 -0.017074 0.000000 0.000000 0.000000
# 2 -0.017868 0.022804 -0.005733 0.000000 0.000000 0.000000
# 3 -0.017074 -0.005733 0.014767 0.000000 0.000000 0.000000
# 4 0.000000 0.000000 0.000000 0.038322 0.000000 0.000000
# 5 0.000000 0.000000 0.000000 0.000000 0.040809 0.000000
# 6 0.000000 0.000000 0.000000 0.000000 0.000000 0.061647
#
#
# Mechanical properties :
#
#
# Convention : Reuss Voigt Hill
#
# Bulk Modulus (GPa) = 24.10527 62.25768 43.18147
# Shear Modulus (GPa) = 13.93569 20.90045 17.41807
#
# Velocity S-wave (km/s) = 3.00605 3.68137 3.36072
# Velocity P-wave (km/s) = 5.26109 7.64460 6.56197
#
# Compressibility (1/GPa) = 0.04148470
#
# Stress axis : x y z
#
# Youngs Moduli (GPa) = 11.72835 43.85168 67.71712
#
# Poissons Ratio (x) = 0.78353 1.15624
# Poissons Ratio (y) = 0.20956 0.38822
# Poissons Ratio (z) = 0.20026 0.25140
#
# Static dielectric constant tensor:
#      x y z
#    x 1.518100 0.000000 0.000000 
#    y 0.000000 1.513940 0.000000 
#    z 0.000000 0.000000 1.500980 
# 
# From -- ./inp_files/33240.got.cif
#   From: 2010.05.17/outbox.cif.g08.bks.cpg/sg59_17_cif.got.tgz:33240.got - 2010.06.03 14:40:33.
