data_PCOD9446697
_publ_section_title
;
Structure prediction by ZEFSAII (Michael W. Deem and Ramdas Pophale) SiO2 
 PCOD9446697
Probable space group: P M M N
;
_chemical_formula_sum "Si O2"
_cell_formula_units_Z 56
_cell_length_a 21.302183
_cell_length_b 7.672968
_cell_length_c 16.059220
_cell_angle_alpha 90.000000
_cell_angle_beta 90.000000
_cell_angle_gamma 90.000000
_cell_volume 2624.895062
_symmetry_space_group_name_H-M "P M M N"
_symmetry_group_IT_number 59
_space_group.IT_coordinate_system_code '2'
_symmetry_cell_setting 'orthorhombic'
loop_
_space_group_symop_operation_xyz
x,y,z
1/2-x,1/2-y,z
1/2+x,-y,-z
-x,1/2+y,-z
-x,-y,-z
1/2+x,1/2+y,-z
1/2-x,y,z
x,1/2-y,z
loop_
_atom_site_type_symbol
_atom_site_label
_atom_site_fract_x
_atom_site_fract_y
_atom_site_fract_z
Si Si1 0.821208 0.951690 0.877718
Si Si2 0.978971 0.548018 0.269986
Si Si3 0.320611 0.948168 0.936246
Si Si4 0.681064 0.962713 0.546202
Si Si5 0.938943 0.539334 0.443513
Si Si6 0.117084 0.037964 0.287054
Si Si7 0.536216 0.550772 0.086334
O O1 0.750000 0.949481 0.845590
O O2 0.838498 0.750000 0.896884
O O3 0.863573 0.021237 0.804568
O O4 0.822115 0.051986 0.963518
O O5 0.958962 0.750000 0.260533
O O6 0.049396 0.537943 0.304586
O O7 0.941256 0.471360 0.348339
O O8 0.979897 0.466842 0.176822
O O9 0.250000 0.020489 0.914486
O O10 0.322948 0.750000 0.904766
O O11 0.387599 0.035614 0.916488
O O12 0.750000 0.022455 0.521032
O O13 0.680899 0.750000 0.543548
O O14 0.623471 0.022862 0.489986
O O15 0.665544 0.010974 0.641351
O O16 0.936464 0.750000 0.438578
O O17 0.000000 0.500000 0.500000
O O18 0.113664 0.250000 0.285710
O O19 0.517144 0.750000 0.093766
O O20 0.500000 0.500000 0.000000
#
# Coordination Sequence:
#
# PCOD9446697 Si02
#       7
#     8   8   8   8   8   8   8
#     4   9  17  29  47  73 105 139 177 223 275 333
#     4  10  22  36  52  78 110 141 180 228 280 331
#     4  10  21  37  56  78 107 146 191 237 287 343
#     4   9  17  30  51  79 108 138 177 223 266 313
#     4  10  19  35  57  80 107 142 180 221 269 324
#     4  10  18  29  49  77 105 138 179 219 268 329
#     4  11  23  39  58  83 115 150 191 243 293 340
#
# _framework density 21.334185000000002
#
# number of rings (size 3 to 8) (size 9 to 14) (size 15 to 20)
#    0.000    2.143    1.429    2.143    0.000    6.571 
#    0.000    0.714    0.000    5.143    0.000    0.000 
#    0.000    0.000    0.000    0.000    0.000    0.000 
#
# Total GULP energy -312015.150599 kJ/mol
# GULP energy per Si atom -5571.699118 kJ/mol
# Density = 2.128563 g / cm^3
# Si number density = 21.334185 Si / 1000 Ang^3
#
#
#
# Elastic Constant Matrix: (Units=GPa)
#
#
# Indices 1 2 3 4 5 6 
#
# 1 119.0100 -9.6891 47.5689 0.0000 0.0000 0.0000
# 2 -9.6891 36.7391 7.3959 0.0000 0.0000 0.0000
# 3 47.5689 7.3959 116.7147 0.0000 0.0000 0.0000
# 4 0.0000 0.0000 0.0000 4.0645 0.0000 0.0000
# 5 0.0000 0.0000 0.0000 0.0000 35.7454 0.0000
# 6 0.0000 0.0000 0.0000 0.0000 0.0000 17.2235
#
#
#
# Elastic Compliance Matrix: (Units=1/GPa)
#
#
# Indices 1 2 3 4 5 6 
#
# 1 0.010507 0.003680 -0.004516 0.000000 0.000000 0.000000
# 2 0.003680 0.028860 -0.003329 0.000000 0.000000 0.000000
# 3 -0.004516 -0.003329 0.010619 0.000000 0.000000 0.000000
# 4 0.000000 0.000000 0.000000 0.246034 0.000000 0.000000
# 5 0.000000 0.000000 0.000000 0.000000 0.027976 0.000000
# 6 0.000000 0.000000 0.000000 0.000000 0.000000 0.058060
#
#
# Mechanical properties :
#
#
# Convention : Reuss Voigt Hill
#
# Bulk Modulus (GPa) = 24.00516 40.33500 32.17008
# Shear Modulus (GPa) = 12.36797 26.55255 19.46026
#
# Velocity S-wave (km/s) = 2.41036 3.53172 3.02348
# Velocity P-wave (km/s) = 4.36152 5.96473 5.22498
#
# Compressibility (1/GPa) = 0.04165770
#
# Stress axis : x y z
#
# Youngs Moduli (GPa) = 95.17326 34.65056 94.16902
#
# Poissons Ratio (x) = -0.12752 0.42522
# Poissons Ratio (y) = -0.35024 0.31345
# Poissons Ratio (z) = 0.42976 0.11534
#
# Static dielectric constant tensor:
#      x y z
#    x 1.843780 0.000000 0.000000 
#    y 0.000000 1.710200 0.000000 
#    z 0.000000 0.000000 1.798430 
# 
# From -- ./inp_files/24216.got.cif
#   From: 2010.05.17/outbox.cif.g08.bks.cpg/sg59_13_cif.got.tgz:24216.got - 2010.06.03 14:40:33.
