data_PCOD9446392
_publ_section_title
;
Structure prediction by ZEFSAII (Michael W. Deem and Ramdas Pophale) SiO2 
 PCOD9446392
Probable space group: P M M N
;
_chemical_formula_sum "Si O2"
_cell_formula_units_Z 48
_cell_length_a 8.805959
_cell_length_b 27.507325
_cell_length_c 11.822626
_cell_angle_alpha 90.000000
_cell_angle_beta 90.000000
_cell_angle_gamma 90.000000
_cell_volume 2863.775498
_symmetry_space_group_name_H-M "P M M N"
_symmetry_group_IT_number 59
_space_group.IT_coordinate_system_code '2'
_symmetry_cell_setting 'orthorhombic'
loop_
_space_group_symop_operation_xyz
x,y,z
1/2-x,1/2-y,z
1/2+x,-y,-z
-x,1/2+y,-z
-x,-y,-z
1/2+x,1/2+y,-z
1/2-x,y,z
x,1/2-y,z
loop_
_atom_site_type_symbol
_atom_site_label
_atom_site_fract_x
_atom_site_fract_y
_atom_site_fract_z
Si Si1 0.430836 0.942399 0.120728
Si Si2 0.078374 0.877615 0.671267
Si Si3 0.933176 0.693925 0.496402
Si Si4 0.921868 0.451201 0.537296
Si Si5 0.933287 0.046843 0.143684
Si Si6 0.928880 0.877817 0.299095
O O1 0.250000 0.944303 0.131868
O O2 0.491766 0.894156 0.183146
O O3 0.498750 0.993362 0.168547
O O4 0.469155 0.942080 0.987322
O O5 0.250000 0.861368 0.700461
O O6 0.088899 0.917512 0.572438
O O7 0.013615 0.908669 0.776508
O O8 0.990735 0.834138 0.608344
O O9 0.750000 0.691578 0.496408
O O10 0.980967 0.750000 0.496233
O O11 0.983576 0.666507 0.380089
O O12 0.750000 0.457521 0.582530
O O13 0.000000 0.500000 0.500000
O O14 0.031388 0.424037 0.623456
O O15 0.750000 0.043624 0.156988
O O16 0.750000 0.872178 0.280525
#
# Coordination Sequence:
#
# PCOD9446392 Si02
#       6
#     8   8   8   8   8   8
#     4  10  19  30  47  71  99 131 165 197 227 267
#     4   9  18  31  47  68  93 122 154 189 232 282
#     4   9  19  35  53  72  92 116 151 198 248 291
#     4  10  18  27  42  66  95 123 153 189 230 280
#     4   9  18  32  48  69 100 133 162 192 228 274
#     4  10  19  31  47  66  92 125 158 194 237 283
#
# _framework density 16.761089999999999
#
# number of rings (size 3 to 8) (size 9 to 14) (size 15 to 20)
#    0.000    2.500    0.000    2.500    0.000    4.333 
#    0.000    0.000    0.000    1.000    0.000    4.667 
#    0.000    0.000    0.000    0.000    0.000    0.000 
#
# Total GULP energy -267243.583443 kJ/mol
# GULP energy per Si atom -5567.574655 kJ/mol
# Density = 1.672294 g / cm^3
# Si number density = 16.761090 Si / 1000 Ang^3
#
#
#
# Elastic Constant Matrix: (Units=GPa)
#
#
# Indices 1 2 3 4 5 6 
#
# 1 19.9948 30.1451 16.7101 0.0000 0.0000 0.0000
# 2 30.1451 115.7365 50.7543 0.0000 0.0000 0.0000
# 3 16.7101 50.7543 87.3517 0.0000 0.0000 0.0000
# 4 0.0000 0.0000 0.0000 25.0877 0.0000 0.0000
# 5 0.0000 0.0000 0.0000 0.0000 23.3073 0.0000
# 6 0.0000 0.0000 0.0000 0.0000 0.0000 19.5758
#
#
#
# Elastic Compliance Matrix: (Units=1/GPa)
#
#
# Indices 1 2 3 4 5 6 
#
# 1 0.083641 -0.019819 -0.004485 0.000000 0.000000 0.000000
# 2 -0.019819 0.016291 -0.005674 0.000000 0.000000 0.000000
# 3 -0.004485 -0.005674 0.015603 0.000000 0.000000 0.000000
# 4 0.000000 0.000000 0.000000 0.039860 0.000000 0.000000
# 5 0.000000 0.000000 0.000000 0.000000 0.042905 0.000000
# 6 0.000000 0.000000 0.000000 0.000000 0.000000 0.051084
#
#
# Mechanical properties :
#
#
# Convention : Reuss Voigt Hill
#
# Bulk Modulus (GPa) = 17.99249 46.47801 32.23525
# Shear Modulus (GPa) = 15.25020 21.95905 18.60463
#
# Velocity S-wave (km/s) = 3.01966 3.62349 3.33526
# Velocity P-wave (km/s) = 4.78704 6.73024 5.84003
#
# Compressibility (1/GPa) = 0.05557873
#
# Stress axis : x y z
#
# Youngs Moduli (GPa) = 11.95591 61.38495 64.09091
#
# Poissons Ratio (x) = 1.21656 0.28745
# Poissons Ratio (y) = 0.23695 0.36366
# Poissons Ratio (z) = 0.05362 0.34831
#
# Static dielectric constant tensor:
#      x y z
#    x 1.601080 0.000000 0.000000 
#    y 0.000000 1.532000 0.000000 
#    z 0.000000 0.000000 1.602510 
# 
# From -- ./inp_files/14457.got.cif
#   From: 2010.05.17/outbox.cif.g08.bks.cpg/sg59_8_cif.got.tgz:14457.got - 2010.06.03 14:40:33.
