data_PCOD9446354
_publ_section_title
;
Structure prediction by ZEFSAII (Michael W. Deem and Ramdas Pophale) SiO2 
 PCOD9446354
Probable space group: P M M N
;
_chemical_formula_sum "Si O2"
_cell_formula_units_Z 64
_cell_length_a 25.481382
_cell_length_b 9.261298
_cell_length_c 18.688140
_cell_angle_alpha 90.000000
_cell_angle_beta 90.000000
_cell_angle_gamma 90.000000
_cell_volume 4410.226720
_symmetry_space_group_name_H-M "P M M N"
_symmetry_group_IT_number 59
_space_group.IT_coordinate_system_code '2'
_symmetry_cell_setting 'orthorhombic'
loop_
_space_group_symop_operation_xyz
x,y,z
1/2-x,1/2-y,z
1/2+x,-y,-z
-x,1/2+y,-z
-x,-y,-z
1/2+x,1/2+y,-z
1/2-x,y,z
x,1/2-y,z
loop_
_atom_site_type_symbol
_atom_site_label
_atom_site_fract_x
_atom_site_fract_y
_atom_site_fract_z
Si Si1 0.922016 0.083884 0.033245
Si Si2 0.081178 0.577758 0.493736
Si Si3 0.690240 0.423548 0.442869
Si Si4 0.498400 0.581603 0.234027
Si Si5 0.540232 0.583197 0.900160
Si Si6 0.311816 0.418560 0.706540
Si Si7 0.885116 0.581726 0.166162
Si Si8 0.004507 0.078094 0.385598
O O1 0.907847 0.250000 0.021127
O O2 0.981200 0.081923 0.066321
O O3 0.886903 0.008795 0.093634
O O4 0.924640 0.995792 0.959569
O O5 0.077710 0.750000 0.478451
O O6 0.141911 0.537211 0.505666
O O7 0.051634 0.488044 0.432848
O O8 0.048220 0.553178 0.567137
O O9 0.750000 0.465605 0.464160
O O10 0.689289 0.250000 0.436105
O O11 0.679091 0.493248 0.365718
O O12 0.484126 0.750000 0.241816
O O13 0.463119 0.502392 0.174299
O O14 0.557488 0.575765 0.202576
O O15 0.497539 0.500791 0.309612
O O16 0.555002 0.750000 0.889961
O O17 0.250000 0.425013 0.722067
O O18 0.326196 0.250000 0.694621
O O19 0.344556 0.471765 0.774256
O O20 0.873960 0.750000 0.150065
O O21 0.010381 0.250000 0.376592
#
# Coordination Sequence:
#
# PCOD9446354 Si02
#       8
#     8   8   8   8   8   8   8   8
#     4   9  16  25  38  56  77 103 134 165 197 231
#     4   9  18  31  44  59  82 110 139 172 209 250
#     4   9  17  29  45  63  82 106 137 173 212 251
#     4  10  18  27  40  58  81 108 138 170 204 243
#     4   9  16  26  39  55  78 105 132 163 196 232
#     4   9  17  28  41  58  81 108 138 172 207 241
#     4   9  17  27  39  56  79 109 141 170 202 241
#     4  10  19  29  42  60  82 110 142 173 207 248
#
# _framework density 14.511725999999999
#
# number of rings (size 3 to 8) (size 9 to 14) (size 15 to 20)
#    0.000    2.750    0.000    2.250    0.000    5.000 
#    0.000    0.000    0.000    0.000    0.000    0.000 
#    0.000    1.000    0.000    2.750    0.000    4.000 
#
# Total GULP energy -356530.035152 kJ/mol
# GULP energy per Si atom -5570.781799 kJ/mol
# Density = 1.447870 g / cm^3
# Si number density = 14.511726 Si / 1000 Ang^3
#
#
#
# Elastic Constant Matrix: (Units=GPa)
#
#
# Indices 1 2 3 4 5 6 
#
# 1 40.6836 20.2735 13.1720 0.0000 0.0000 0.0000
# 2 20.2735 79.3093 51.3395 0.0000 0.0000 0.0000
# 3 13.1720 51.3395 78.0964 0.0000 0.0000 0.0000
# 4 0.0000 0.0000 0.0000 29.3830 0.0000 0.0000
# 5 0.0000 0.0000 0.0000 0.0000 23.8718 0.0000
# 6 0.0000 0.0000 0.0000 0.0000 0.0000 14.2062
#
#
#
# Elastic Compliance Matrix: (Units=1/GPa)
#
#
# Indices 1 2 3 4 5 6 
#
# 1 0.028168 -0.007181 -0.000030 0.000000 0.000000 0.000000
# 2 -0.007181 0.023780 -0.014421 0.000000 0.000000 0.000000
# 3 -0.000030 -0.014421 0.022290 0.000000 0.000000 0.000000
# 4 0.000000 0.000000 0.000000 0.034033 0.000000 0.000000
# 5 0.000000 0.000000 0.000000 0.000000 0.041890 0.000000
# 6 0.000000 0.000000 0.000000 0.000000 0.000000 0.070392
#
#
# Mechanical properties :
#
#
# Convention : Reuss Voigt Hill
#
# Bulk Modulus (GPa) = 32.28618 40.85105 36.56861
# Shear Modulus (GPa) = 18.23861 21.04582 19.64222
#
# Velocity S-wave (km/s) = 3.54901 3.81236 3.68304
# Velocity P-wave (km/s) = 6.25225 6.89857 6.58335
#
# Compressibility (1/GPa) = 0.03097301
#
# Stress axis : x y z
#
# Youngs Moduli (GPa) = 35.50117 42.05218 44.86258
#
# Poissons Ratio (x) = 0.30197 0.00136
# Poissons Ratio (y) = 0.25493 0.64699
# Poissons Ratio (z) = 0.00108 0.60646
#
# Static dielectric constant tensor:
#      x y z
#    x 1.473300 0.000000 0.000000 
#    y 0.000000 1.488570 0.000000 
#    z 0.000000 0.000000 1.456950 
# 
# From -- ./inp_files/28538.got.cif
#   From: 2010.05.17/outbox.cif.g08.bks.cpg/sg59_15_cif.got.tgz:28538.got - 2010.06.03 14:40:33.
