data_PCOD9446266
_publ_section_title
;
Structure prediction by ZEFSAII (Michael W. Deem and Ramdas Pophale) SiO2 
 PCOD9446266
Probable space group: P M M N
;
_chemical_formula_sum "Si O2"
_cell_formula_units_Z 56
_cell_length_a 7.464851
_cell_length_b 22.282065
_cell_length_c 17.370139
_cell_angle_alpha 90.000000
_cell_angle_beta 90.000000
_cell_angle_gamma 90.000000
_cell_volume 2889.215088
_symmetry_space_group_name_H-M "P M M N"
_symmetry_group_IT_number 59
_space_group.IT_coordinate_system_code '2'
_symmetry_cell_setting 'orthorhombic'
loop_
_space_group_symop_operation_xyz
x,y,z
1/2-x,1/2-y,z
1/2+x,-y,-z
-x,1/2+y,-z
-x,-y,-z
1/2+x,1/2+y,-z
1/2-x,y,z
x,1/2-y,z
loop_
_atom_site_type_symbol
_atom_site_label
_atom_site_fract_x
_atom_site_fract_y
_atom_site_fract_z
Si Si1 0.031023 0.013077 0.797669
Si Si2 0.033598 0.588658 0.520380
Si Si3 0.966102 0.124216 0.198828
Si Si4 0.459485 0.021778 0.624930
Si Si5 0.964939 0.937078 0.044027
Si Si6 0.468783 0.818038 0.641450
Si Si7 0.460585 0.317012 0.039839
O O1 0.250000 0.014761 0.798535
O O2 0.969538 0.028819 0.711179
O O3 0.970671 0.054157 0.868309
O O4 0.976529 0.944322 0.814377
O O5 0.250000 0.586502 0.519619
O O6 0.966475 0.534031 0.575069
O O7 0.976306 0.648435 0.563803
O O8 0.975584 0.577348 0.433158
O O9 0.750000 0.124244 0.199225
O O10 0.026304 0.146281 0.282499
O O11 0.023951 0.167389 0.130196
O O12 0.250000 0.007614 0.635198
O O13 0.750000 0.931671 0.045185
O O14 0.035099 0.876393 0.003392
O O15 0.000000 0.000000 0.000000
O O16 0.250000 0.818359 0.642540
O O17 0.528930 0.750000 0.645231
O O18 0.250000 0.314208 0.020858
O O19 0.535168 0.250000 0.024487
#
# Coordination Sequence:
#
# PCOD9446266 Si02
#       7
#     8   8   8   8   8   8   8
#     4   9  16  28  48  70  93 118 149 192 234 269
#     4   9  16  27  43  64  88 114 147 181 216 264
#     4  10  17  29  49  72  94 121 158 192 224 274
#     4   9  16  28  45  64  88 116 143 181 227 265
#     4  10  19  32  50  70  93 123 158 196 237 280
#     4   9  16  26  43  67  93 121 152 185 223 270
#     4  10  21  34  46  66  99 132 157 188 236 289
#
# _framework density 19.382425999999999
#
# number of rings (size 3 to 8) (size 9 to 14) (size 15 to 20)
#    0.000    2.571    2.857    0.429    0.000    0.857 
#    0.000    2.143    0.000    2.143    0.000    2.000 
#    0.000    0.000    0.000    0.000    0.000    0.000 
#
# Total GULP energy -312297.257402 kJ/mol
# GULP energy per Si atom -5576.736739 kJ/mol
# Density = 1.933831 g / cm^3
# Si number density = 19.382426 Si / 1000 Ang^3
#
#
#
# Elastic Constant Matrix: (Units=GPa)
#
#
# Indices 1 2 3 4 5 6 
#
# 1 54.3562 -0.6251 -1.6763 0.0000 0.0000 0.0000
# 2 -0.6251 117.7040 60.7557 0.0000 0.0000 0.0000
# 3 -1.6763 60.7557 129.3632 0.0000 0.0000 0.0000
# 4 0.0000 0.0000 0.0000 25.7662 0.0000 0.0000
# 5 0.0000 0.0000 0.0000 0.0000 10.1790 0.0000
# 6 0.0000 0.0000 0.0000 0.0000 0.0000 9.0674
#
#
#
# Elastic Compliance Matrix: (Units=1/GPa)
#
#
# Indices 1 2 3 4 5 6 
#
# 1 0.018405 -0.000033 0.000254 0.000000 0.000000 0.000000
# 2 -0.000033 0.011215 -0.005267 0.000000 0.000000 0.000000
# 3 0.000254 -0.005267 0.010207 0.000000 0.000000 0.000000
# 4 0.000000 0.000000 0.000000 0.038811 0.000000 0.000000
# 5 0.000000 0.000000 0.000000 0.000000 0.098241 0.000000
# 6 0.000000 0.000000 0.000000 0.000000 0.000000 0.110285
#
#
# Mechanical properties :
#
#
# Convention : Reuss Voigt Hill
#
# Bulk Modulus (GPa) = 33.63241 46.48134 40.05687
# Shear Modulus (GPa) = 16.27775 25.20046 20.73910
#
# Velocity S-wave (km/s) = 2.90111 3.60970 3.27463
# Velocity P-wave (km/s) = 5.34898 6.43479 5.91684
#
# Compressibility (1/GPa) = 0.02973323
#
# Stress axis : x y z
#
# Youngs Moduli (GPa) = 54.33414 89.16950 97.96899
#
# Poissons Ratio (x) = 0.00299 -0.02491
# Poissons Ratio (y) = 0.00182 0.51604
# Poissons Ratio (z) = -0.01381 0.46969
#
# Static dielectric constant tensor:
#      x y z
#    x 1.749300 0.000000 0.000000 
#    y 0.000000 1.676150 0.000000 
#    z 0.000000 0.000000 1.678330 
# 
# From -- ./inp_files/26003.got.cif
#   From: 2010.05.17/outbox.cif.g08.bks.cpg/sg59_14_cif.got.tgz:26003.got - 2010.06.03 14:40:33.
