data_PCOD9446856
_publ_section_title
;
Structure prediction by ZEFSAII (Michael W. Deem and Ramdas Pophale) SiO2 
 PCOD9446856
Probable space group: P M M N
;
_chemical_formula_sum "Si O2"
_cell_formula_units_Z 56
_cell_length_a 14.865457
_cell_length_b 7.994577
_cell_length_c 23.040191
_cell_angle_alpha 90.000000
_cell_angle_beta 90.000000
_cell_angle_gamma 90.000000
_cell_volume 2738.166355
_symmetry_space_group_name_H-M "P M M N"
_symmetry_group_IT_number 59
_space_group.IT_coordinate_system_code '2'
_symmetry_cell_setting 'orthorhombic'
loop_
_space_group_symop_operation_xyz
x,y,z
1/2-x,1/2-y,z
1/2+x,-y,-z
-x,1/2+y,-z
-x,-y,-z
1/2+x,1/2+y,-z
1/2-x,y,z
x,1/2-y,z
loop_
_atom_site_type_symbol
_atom_site_label
_atom_site_fract_x
_atom_site_fract_y
_atom_site_fract_z
Si Si1 0.645245 0.951367 0.039193
Si Si2 0.146279 0.955366 0.744470
Si Si3 0.648059 0.545212 0.906634
Si Si4 0.648619 0.943827 0.480244
Si Si5 0.956844 0.054465 0.370165
Si Si6 0.529212 0.447504 0.147788
Si Si7 0.850536 0.443661 0.609086
O O1 0.750000 0.991858 0.050548
O O2 0.636009 0.750000 0.041918
O O3 0.583145 0.029935 0.087921
O O4 0.625424 0.004372 0.973032
O O5 0.250000 0.008386 0.747905
O O6 0.146295 0.750000 0.745049
O O7 0.098789 0.009864 0.684954
O O8 0.088043 0.015877 0.799274
O O9 0.750000 0.492179 0.893546
O O10 0.647937 0.750000 0.906468
O O11 0.570764 0.484223 0.863530
O O12 0.750000 0.979835 0.457937
O O13 0.644664 0.750000 0.497817
O O14 0.577909 0.974037 0.429674
O O15 0.636032 0.044931 0.539377
O O16 0.937449 0.250000 0.375907
O O17 0.063356 0.030056 0.362871
O O18 0.519239 0.250000 0.159099
O O19 0.750000 0.512641 0.620864
O O20 0.851554 0.250000 0.626030
#
# Coordination Sequence:
#
# PCOD9446856 Si02
#       7
#     8   8   8   8   8   8   8
#     4   9  17  29  45  68 100 133 160 194 249 308
#     4   9  19  34  50  72 102 131 161 202 250 294
#     4   8  15  28  46  70 100 130 160 198 247 301
#     4  10  20  34  54  81 110 137 169 210 252 299
#     4  11  21  34  53  74 101 138 175 210 251 300
#     4  10  18  30  51  74  95 126 169 211 246 285
#     4  10  21  37  56  78 105 135 166 204 253 305
#
# _framework density 20.451643000000001
#
# number of rings (size 3 to 8) (size 9 to 14) (size 15 to 20)
#    0.000    2.429    0.000    3.857    0.000    3.143 
#    0.000    2.143    0.000    7.286    0.000    0.000 
#    0.000    0.000    0.000    0.000    0.000    0.000 
#
# Total GULP energy -312587.255992 kJ/mol
# GULP energy per Si atom -5581.915286 kJ/mol
# Density = 2.040509 g / cm^3
# Si number density = 20.451643 Si / 1000 Ang^3
#
#
#
# Elastic Constant Matrix: (Units=GPa)
#
#
# Indices 1 2 3 4 5 6 
#
# 1 97.1844 -7.6144 49.2709 0.0000 0.0000 0.0000
# 2 -7.6144 16.2082 -4.5598 0.0000 0.0000 0.0000
# 3 49.2709 -4.5598 47.9315 0.0000 0.0000 0.0000
# 4 0.0000 0.0000 0.0000 11.0507 0.0000 0.0000
# 5 0.0000 0.0000 0.0000 0.0000 35.1222 0.0000
# 6 0.0000 0.0000 0.0000 0.0000 0.0000 17.5336
#
#
#
# Elastic Compliance Matrix: (Units=1/GPa)
#
#
# Indices 1 2 3 4 5 6 
#
# 1 0.021742 0.004035 -0.021966 0.000000 0.000000 0.000000
# 2 0.004035 0.064142 0.001955 0.000000 0.000000 0.000000
# 3 -0.021966 0.001955 0.043629 0.000000 0.000000 0.000000
# 4 0.000000 0.000000 0.000000 0.090492 0.000000 0.000000
# 5 0.000000 0.000000 0.000000 0.000000 0.028472 0.000000
# 6 0.000000 0.000000 0.000000 0.000000 0.000000 0.057033
#
#
# Mechanical properties :
#
#
# Convention : Reuss Voigt Hill
#
# Bulk Modulus (GPa) = 10.25011 26.16861 18.20936
# Shear Modulus (GPa) = 13.51409 21.02311 17.26860
#
# Velocity S-wave (km/s) = 2.57336 3.20963 2.90894
# Velocity P-wave (km/s) = 3.72187 5.15352 4.49506
#
# Compressibility (1/GPa) = 0.09755996
#
# Stress axis : x y z
#
# Youngs Moduli (GPa) = 45.99345 15.59033 22.92059
#
# Poissons Ratio (x) = -0.06290 0.50347
# Poissons Ratio (y) = -0.18556 -0.04480
# Poissons Ratio (z) = 1.01029 -0.03047
#
# Static dielectric constant tensor:
#      x y z
#    x 1.749590 0.000000 0.000000 
#    y 0.000000 1.729240 0.000000 
#    z 0.000000 0.000000 1.698390 
# 
# From -- ./inp_files/30307.got.cif
#   From: 2010.05.17/outbox.cif.g08.bks.cpg/sg59_16_cif.got.tgz:30307.got - 2010.06.03 14:40:33.
