data_PCOD9446657
_publ_section_title
;
Structure prediction by ZEFSAII (Michael W. Deem and Ramdas Pophale) SiO2 
 PCOD9446657
Probable space group: P M M N
;
_chemical_formula_sum "Si O2"
_cell_formula_units_Z 56
_cell_length_a 7.384829
_cell_length_b 14.712364
_cell_length_c 23.765363
_cell_angle_alpha 90.000000
_cell_angle_beta 90.000000
_cell_angle_gamma 90.000000
_cell_volume 2582.066106
_symmetry_space_group_name_H-M "P M M N"
_symmetry_group_IT_number 59
_space_group.IT_coordinate_system_code '2'
_symmetry_cell_setting 'orthorhombic'
loop_
_space_group_symop_operation_xyz
x,y,z
1/2-x,1/2-y,z
1/2+x,-y,-z
-x,1/2+y,-z
-x,-y,-z
1/2+x,1/2+y,-z
1/2-x,y,z
x,1/2-y,z
loop_
_atom_site_type_symbol
_atom_site_label
_atom_site_fract_x
_atom_site_fract_y
_atom_site_fract_z
Si Si1 0.969539 0.644790 0.528053
Si Si2 0.471392 0.646024 0.085878
Si Si3 0.972199 0.854846 0.749271
Si Si4 0.457596 0.024310 0.147998
Si Si5 0.536846 0.955997 0.637429
Si Si6 0.467749 0.352265 0.599092
Si Si7 0.968429 0.144565 0.041245
O O1 0.750000 0.638170 0.526068
O O2 0.012796 0.750000 0.540802
O O3 0.037859 0.581298 0.578090
O O4 0.033198 0.625553 0.464568
O O5 0.250000 0.644382 0.085831
O O6 0.525523 0.750000 0.096170
O O7 0.537593 0.572856 0.130801
O O8 0.526425 0.619927 0.022159
O O9 0.750000 0.853822 0.750074
O O10 0.029039 0.750000 0.752666
O O11 0.035530 0.914409 0.802305
O O12 0.032956 0.902842 0.691659
O O13 0.250000 0.006542 0.164712
O O14 0.459005 0.082124 0.090539
O O15 0.750000 0.935632 0.636065
O O16 0.516817 0.064428 0.638960
O O17 0.250000 0.349006 0.597171
O O18 0.529852 0.250000 0.613606
O O19 0.750000 0.139388 0.043015
O O20 0.018766 0.250000 0.050606
#
# Coordination Sequence:
#
# PCOD9446657 Si02
#       7
#     8   8   8   8   8   8   8
#     4   8  14  26  46  70  93 120 153 185 225 279
#     4   8  15  28  45  66  92 120 150 185 227 273
#     4   9  18  31  46  68  97 122 146 182 226 268
#     4  10  18  29  48  70  91 120 156 189 221 261
#     4  10  18  29  48  70  91 120 157 192 223 260
#     4   9  18  32  48  67  93 122 150 185 232 280
#     4   9  17  29  45  66  93 122 149 183 231 278
#
# _framework density 21.688058999999999
#
# number of rings (size 3 to 8) (size 9 to 14) (size 15 to 20)
#    0.000    3.000    0.000    3.429    0.000    2.857 
#    0.000    1.429    0.000    7.286    0.000    0.000 
#    0.000    0.000    0.000    0.000    0.000    0.000 
#
# Total GULP energy -312618.590806 kJ/mol
# GULP energy per Si atom -5582.474836 kJ/mol
# Density = 2.163870 g / cm^3
# Si number density = 21.688059 Si / 1000 Ang^3
#
#
#
# Elastic Constant Matrix: (Units=GPa)
#
#
# Indices 1 2 3 4 5 6 
#
# 1 73.4529 -6.3309 0.8060 0.0000 0.0000 0.0000
# 2 -6.3309 131.9027 85.5266 0.0000 0.0000 0.0000
# 3 0.8060 85.5266 82.2902 0.0000 0.0000 0.0000
# 4 0.0000 0.0000 0.0000 39.3175 0.0000 0.0000
# 5 0.0000 0.0000 0.0000 0.0000 6.6822 0.0000
# 6 0.0000 0.0000 0.0000 0.0000 0.0000 7.7688
#
#
#
# Elastic Compliance Matrix: (Units=1/GPa)
#
#
# Indices 1 2 3 4 5 6 
#
# 1 0.013841 0.002307 -0.002533 0.000000 0.000000 0.000000
# 2 0.002307 0.023634 -0.024586 0.000000 0.000000 0.000000
# 3 -0.002533 -0.024586 0.037730 0.000000 0.000000 0.000000
# 4 0.000000 0.000000 0.000000 0.025434 0.000000 0.000000
# 5 0.000000 0.000000 0.000000 0.000000 0.149652 0.000000
# 6 0.000000 0.000000 0.000000 0.000000 0.000000 0.128721
#
#
# Mechanical properties :
#
#
# Convention : Reuss Voigt Hill
#
# Bulk Modulus (GPa) = 39.09307 49.73881 44.41594
# Shear Modulus (GPa) = 11.43744 24.59663 18.01704
#
# Velocity S-wave (km/s) = 2.29893 3.37131 2.88537
# Velocity P-wave (km/s) = 5.01109 6.17558 5.62356
#
# Compressibility (1/GPa) = 0.02557998
#
# Stress axis : x y z
#
# Youngs Moduli (GPa) = 72.25032 42.31268 26.50444
#
# Poissons Ratio (x) = -0.09760 0.06714
# Poissons Ratio (y) = -0.16666 0.65163
# Poissons Ratio (z) = 0.18301 1.04029
#
# Static dielectric constant tensor:
#      x y z
#    x 1.856960 0.000000 0.000000 
#    y 0.000000 1.780080 0.000000 
#    z 0.000000 0.000000 1.759440 
# 
# From -- ./inp_files/30092.got.cif
#   From: 2010.05.17/outbox.cif.g08.bks.cpg/sg59_16_cif.got.tgz:30092.got - 2010.06.03 14:40:33.
