data_PCOD9446028
_publ_section_title
;
Structure prediction by ZEFSAII (Michael W. Deem and Ramdas Pophale) SiO2 
 PCOD9446028
Probable space group: P N N M
;
_chemical_formula_sum "Si O2"
_cell_formula_units_Z 64
_cell_length_a 12.000000
_cell_length_b 30.000000
_cell_length_c 9.000000
_cell_angle_alpha 90.000000
_cell_angle_beta 90.000000
_cell_angle_gamma 90.000000
_cell_volume 3240.000000
_symmetry_space_group_name_H-M "P N N M"
_symmetry_group_IT_number 58
_symmetry_cell_setting 'orthorhombic'
loop_
_space_group_symop_operation_xyz
x,y,z
-x,-y,z
1/2+x,1/2-y,1/2-z
1/2-x,1/2+y,1/2-z
-x,-y,-z
x,y,-z
1/2-x,1/2+y,1/2+z
1/2+x,1/2-y,1/2+z
loop_
_atom_site_type_symbol
_atom_site_label
_atom_site_fract_x
_atom_site_fract_y
_atom_site_fract_z
Si Si1 0.835566 0.157909 0.327555
Si Si2 0.424613 0.167541 0.675222
Si Si3 0.491773 0.267987 0.321946
Si Si4 0.445306 0.612757 0.834745
Si Si5 0.694558 0.321071 0.329094
Si Si6 0.120458 0.381051 0.326622
Si Si7 0.369008 0.987078 0.824210
Si Si8 0.127735 0.012392 0.670884
O O1 0.813624 0.167275 0.500000
O O2 0.721361 0.145749 0.248447
O O3 0.905032 0.199037 0.258343
O O4 0.921222 0.115791 0.317775
O O5 0.431369 0.160650 0.500000
O O6 0.466496 0.217176 0.711884
O O7 0.298624 0.167028 0.729648
O O8 0.503477 0.132792 0.756065
O O9 0.482192 0.275055 0.500000
O O10 0.620123 0.278831 0.281931
O O11 0.394030 0.639924 0.699290
O O12 0.387847 0.565411 0.835684
O O13 0.424555 0.633690 0.000000
O O14 0.728062 0.316815 0.500000
O O15 0.119154 0.370527 0.500000
O O16 0.136564 0.433757 0.308425
O O17 0.500000 0.000000 0.776796
O O18 0.249768 0.003025 0.748055
O O19 0.362900 0.999457 0.000000
O O20 0.132843 0.994567 0.500000
O O21 0.000000 0.000000 0.730247
#
# Coordination Sequence:
#
# PCOD9446028 Si02
#       8
#     8   8   8   8   8   8   8   8
#     4  10  20  37  63  91 124 161 199 246 296 352
#     4  11  24  40  60  87 119 155 199 245 294 357
#     4   9  21  40  60  87 120 156 195 242 296 350
#     4   9  19  36  59  89 121 156 196 242 296 354
#     4  10  21  38  59  84 117 154 195 241 291 349
#     4  11  24  41  61  87 121 161 203 247 300 360
#     4  10  24  44  63  88 125 164 208 258 311 372
#     4  10  21  38  63  94 125 156 201 256 308 368
#
# _framework density 19.753086
#
# number of rings (size 3 to 8) (size 9 to 14) (size 15 to 20)
#    0.000    2.000    0.000    2.250    3.500    5.000 
#    0.000    0.000    0.000    0.000    0.000    0.000 
#    0.000    0.000    0.000    0.000    0.000    0.000 
#
# Total GULP energy -356536.356534 kJ/mol
# GULP energy per Si atom -5570.880571 kJ/mol
# Density = 1.970813 g / cm^3
# Si number density = 19.753086 Si / 1000 Ang^3
#
#
#
# Elastic Constant Matrix: (Units=GPa)
#
#
# Indices 1 2 3 4 5 6 
#
# 1 83.4332 -16.1737 12.8263 0.0000 0.0000 0.0000
# 2 -16.1737 0.6177 12.1581 0.0000 0.0000 0.0000
# 3 12.8263 12.1581 28.8517 0.0000 0.0000 0.0000
# 4 0.0000 0.0000 0.0000 14.9758 0.0000 0.0000
# 5 0.0000 0.0000 0.0000 0.0000 21.0165 0.0000
# 6 0.0000 0.0000 0.0000 0.0000 0.0000 -15.4229
#
#
#
# Elastic Compliance Matrix: (Units=1/GPa)
#
#
# Indices 1 2 3 4 5 6 
#
# 1 0.005523 -0.026448 0.008690 0.000000 0.000000 0.000000
# 2 -0.026448 -0.095273 0.051906 0.000000 0.000000 0.000000
# 3 0.008690 0.051906 0.008923 0.000000 0.000000 0.000000
# 4 0.000000 0.000000 0.000000 0.066774 0.000000 0.000000
# 5 0.000000 0.000000 0.000000 0.000000 0.047582 0.000000
# 6 0.000000 0.000000 0.000000 0.000000 0.000000 -0.064839
#
#
# Mechanical properties :
#
#
# Convention : Reuss Voigt Hill
#
# Bulk Modulus (GPa) = -79.80077 14.50267 -32.64905
# Shear Modulus (GPa) = -48.17738 11.05334 -18.56202
#
# Velocity S-wave (km/s) = -4.94396 2.36810 -3.06878
# Velocity P-wave (km/s) = 8.54852 3.85164 5.39639
#
# Compressibility (1/GPa) = -0.01253121
#
# Stress axis : x y z
#
# Youngs Moduli (GPa) = 181.07438 -10.49613 112.06532
#
# Poissons Ratio (x) = -0.27761 -0.97388
# Poissons Ratio (y) = 4.78914 -5.81688
# Poissons Ratio (z) = -1.57359 0.54481
#
# Static dielectric constant tensor:
#      x y z
#    x 1.707060 0.000000 0.000000 
#    y 0.000000 1.724960 0.000000 
#    z 0.000000 0.000000 1.692670 
# 
# From -- ./inp_files/4840.got.cif
#   From: 2010.05.17/outbox.ucp.g08.bks.cvg/sg58_3_cif.got.tgz:4840.got - 2010.06.11 16:41:41.
