data_PCOD9446051
_publ_section_title
;
Structure prediction by ZEFSAII (Michael W. Deem and Ramdas Pophale) SiO2 
 PCOD9446051
Probable space group: P N N M
;
_chemical_formula_sum "Si O2"
_cell_formula_units_Z 48
_cell_length_a 12.000000
_cell_length_b 24.000000
_cell_length_c 9.000000
_cell_angle_alpha 90.000000
_cell_angle_beta 90.000000
_cell_angle_gamma 90.000000
_cell_volume 2592.000000
_symmetry_space_group_name_H-M "P N N M"
_symmetry_group_IT_number 58
_symmetry_cell_setting 'orthorhombic'
loop_
_space_group_symop_operation_xyz
x,y,z
-x,-y,z
1/2+x,1/2-y,1/2-z
1/2-x,1/2+y,1/2-z
-x,-y,-z
x,y,-z
1/2-x,1/2+y,1/2+z
1/2+x,1/2-y,1/2+z
loop_
_atom_site_type_symbol
_atom_site_label
_atom_site_fract_x
_atom_site_fract_y
_atom_site_fract_z
Si Si1 0.938517 0.553636 0.822946
Si Si2 0.868537 0.721614 0.674081
Si Si3 0.812287 0.847515 0.678660
Si Si4 0.575155 0.851686 0.174022
Si Si5 0.000996 0.935051 0.680741
Si Si6 0.731126 0.622206 0.819982
O O1 0.018487 0.603568 0.780268
O O2 0.000000 0.500000 0.758688
O O3 0.817007 0.573214 0.771480
O O4 0.929268 0.546578 0.000000
O O5 0.841023 0.714741 0.500000
O O6 0.863845 0.786744 0.708616
O O7 0.783666 0.680066 0.759662
O O8 0.995659 0.701607 0.694282
O O9 0.791244 0.851530 0.500000
O O10 0.699762 0.846671 0.771524
O O11 0.892118 0.898978 0.720340
O O12 0.569034 0.867309 0.000000
O O13 0.004767 0.936896 0.500000
O O14 0.109198 0.898834 0.727312
O O15 0.000000 0.000000 0.730652
O O16 0.731822 0.625935 0.000000
#
# Coordination Sequence:
#
# PCOD9446051 Si02
#       6
#     8   8   8   8   8   8
#     4   9  18  32  55  83 108 138 180 227 269 316
#     4   9  20  37  55  79 108 142 177 220 277 328
#     4  10  21  36  57  80 107 142 181 226 273 324
#     4  10  21  36  54  79 111 142 178 222 275 330
#     4   9  19  34  56  83 109 142 184 228 273 322
#     4   9  18  33  56  83 107 138 179 224 270 320
#
# _framework density 18.518519000000001
#
# number of rings (size 3 to 8) (size 9 to 14) (size 15 to 20)
#    0.000    2.667    0.000    0.500    4.667    1.667 
#    0.000    0.833    0.000    1.000    0.000    0.000 
#    0.000    0.000    0.000    0.000    0.000    0.000 
#
# Total GULP energy -267238.048993 kJ/mol
# GULP energy per Si atom -5567.459354 kJ/mol
# Density = 1.847637 g / cm^3
# Si number density = 18.518519 Si / 1000 Ang^3
#
#
#
# Elastic Constant Matrix: (Units=GPa)
#
#
# Indices 1 2 3 4 5 6 
#
# 1 79.8366 29.7579 -7.9730 0.0000 0.0000 0.0000
# 2 29.7579 36.4011 -14.8190 0.0000 0.0000 0.0000
# 3 -7.9730 -14.8190 -31.1979 0.0000 0.0000 0.0000
# 4 0.0000 0.0000 0.0000 19.9995 0.0000 0.0000
# 5 0.0000 0.0000 0.0000 0.0000 38.5775 0.0000
# 6 0.0000 0.0000 0.0000 0.0000 0.0000 22.9117
#
#
#
# Elastic Compliance Matrix: (Units=1/GPa)
#
#
# Indices 1 2 3 4 5 6 
#
# 1 0.017867 -0.013797 0.001988 0.000000 0.000000 0.000000
# 2 -0.013797 0.033674 -0.012469 0.000000 0.000000 0.000000
# 3 0.001988 -0.012469 -0.026638 0.000000 0.000000 0.000000
# 4 0.000000 0.000000 0.000000 0.050001 0.000000 0.000000
# 5 0.000000 0.000000 0.000000 0.000000 0.025922 0.000000
# 6 0.000000 0.000000 0.000000 0.000000 0.000000 0.043646
#
#
# Mechanical properties :
#
#
# Convention : Reuss Voigt Hill
#
# Bulk Modulus (GPa) = -42.27455 10.99684 -15.63886
# Shear Modulus (GPa) = 27.00598 21.50266 24.25432
#
# Velocity S-wave (km/s) = 3.82294 3.41125 3.62295
# Velocity P-wave (km/s) = 1.84155 4.63322 3.00628
#
# Compressibility (1/GPa) = -0.02365489
#
# Stress axis : x y z
#
# Youngs Moduli (GPa) = 55.97009 29.69613 -37.53982
#
# Poissons Ratio (x) = 0.40972 0.07461
# Poissons Ratio (y) = 0.77222 -0.46810
# Poissons Ratio (z) = -0.11124 0.37029
#
# Static dielectric constant tensor:
#      x y z
#    x 1.731620 0.000000 0.000000 
#    y 0.000000 0.025780 0.000000 
#    z 0.000000 0.000000 1.630810 
# 
# From -- ./inp_files/4190.got.cif
#   From: 2010.05.17/outbox.ucp.g08.bks.cvg/sg58_3_cif.got.tgz:4190.got - 2010.06.11 16:41:41.
