data_PCOD9446049
_publ_section_title
;
Structure prediction by ZEFSAII (Michael W. Deem and Ramdas Pophale) SiO2 
 PCOD9446049
Probable space group: P N N M
;
_chemical_formula_sum "Si O2"
_cell_formula_units_Z 64
_cell_length_a 24.000000
_cell_length_b 15.000000
_cell_length_c 9.000000
_cell_angle_alpha 90.000000
_cell_angle_beta 90.000000
_cell_angle_gamma 90.000000
_cell_volume 3240.000000
_symmetry_space_group_name_H-M "P N N M"
_symmetry_group_IT_number 58
_symmetry_cell_setting 'orthorhombic'
loop_
_space_group_symop_operation_xyz
x,y,z
-x,-y,z
1/2+x,1/2-y,1/2-z
1/2-x,1/2+y,1/2-z
-x,-y,-z
x,y,-z
1/2-x,1/2+y,1/2+z
1/2+x,1/2-y,1/2+z
loop_
_atom_site_type_symbol
_atom_site_label
_atom_site_fract_x
_atom_site_fract_y
_atom_site_fract_z
Si Si1 0.580197 0.250789 0.819514
Si Si2 0.389700 0.351175 0.326822
Si Si3 0.705467 0.510458 0.679772
Si Si4 0.828351 0.504471 0.323812
Si Si5 0.500711 0.400329 0.821637
Si Si6 0.049803 0.436800 0.318190
Si Si7 0.182359 0.678504 0.170048
Si Si8 0.694334 0.317280 0.176172
O O1 0.552366 0.342005 0.768308
O O2 0.544610 0.165896 0.771689
O O3 0.644745 0.252631 0.774928
O O4 0.579063 0.248275 0.000000
O O5 0.403093 0.370199 0.500000
O O6 0.343025 0.421927 0.276364
O O7 0.443842 0.355876 0.227667
O O8 0.362885 0.254276 0.318928
O O9 0.706632 0.507279 0.500000
O O10 0.767928 0.538407 0.730832
O O11 0.693046 0.412317 0.742575
O O12 0.829264 0.521324 0.500000
O O13 0.887976 0.537394 0.266730
O O14 0.826411 0.399965 0.285753
O O15 0.500000 0.500000 0.761872
O O16 0.503913 0.403785 0.000000
O O17 0.049350 0.441587 0.500000
O O18 0.000000 0.500000 0.265669
O O19 0.243642 0.719824 0.194252
O O20 0.182240 0.642247 0.000000
O O21 0.686277 0.333836 0.000000
#
# Coordination Sequence:
#
# PCOD9446049 Si02
#       8
#     8   8   8   8   8   8   8   8
#     4   9  18  31  51  77 104 133 169 214 256 298
#     4  10  21  34  51  75 104 138 173 207 250 309
#     4   9  18  32  50  75 105 133 164 208 254 301
#     4   9  18  32  53  76 100 130 167 210 257 300
#     4  10  21  36  54  78 107 136 171 216 261 304
#     4   9  18  30  48  76 103 128 167 214 255 299
#     4   9  19  33  51  75 104 134 166 206 253 309
#     4   9  17  32  54  76 100 132 168 206 255 305
#
# _framework density 19.753086
#
# number of rings (size 3 to 8) (size 9 to 14) (size 15 to 20)
#    0.000    2.750    0.000    0.750    3.500    2.250 
#    0.000    0.625    0.000    1.875    0.000    0.000 
#    0.000    0.000    0.000    0.000    0.000    0.000 
#
# Total GULP energy -356481.672063 kJ/mol
# GULP energy per Si atom -5570.026126 kJ/mol
# Density = 1.970813 g / cm^3
# Si number density = 19.753086 Si / 1000 Ang^3
#
#
#
# Elastic Constant Matrix: (Units=GPa)
#
#
# Indices 1 2 3 4 5 6 
#
# 1 71.9480 19.2751 -2.4520 0.0000 0.0000 0.0000
# 2 19.2751 38.3982 -6.9190 0.0000 0.0000 0.0000
# 3 -2.4520 -6.9190 -17.3031 0.0000 0.0000 0.0000
# 4 0.0000 0.0000 0.0000 6.0866 0.0000 0.0000
# 5 0.0000 0.0000 0.0000 0.0000 18.4500 0.0000
# 6 0.0000 0.0000 0.0000 0.0000 0.0000 25.5717
#
#
#
# Elastic Compliance Matrix: (Units=1/GPa)
#
#
# Indices 1 2 3 4 5 6 
#
# 1 0.016044 -0.007895 0.000883 0.000000 0.000000 0.000000
# 2 -0.007895 0.028177 -0.010148 0.000000 0.000000 0.000000
# 3 0.000883 -0.010148 -0.053860 0.000000 0.000000 0.000000
# 4 0.000000 0.000000 0.000000 0.164294 0.000000 0.000000
# 5 0.000000 0.000000 0.000000 0.000000 0.054200 0.000000
# 6 0.000000 0.000000 0.000000 0.000000 0.000000 0.039106
#
#
# Mechanical properties :
#
#
# Convention : Reuss Voigt Hill
#
# Bulk Modulus (GPa) = -22.74867 12.53901 -5.10483
# Shear Modulus (GPa) = 18.68265 15.56428 17.12346
#
# Velocity S-wave (km/s) = 3.07874 2.81008 2.94747
# Velocity P-wave (km/s) = 1.04721 4.10979 2.99892
#
# Compressibility (1/GPa) = -0.04395861
#
# Stress axis : x y z
#
# Youngs Moduli (GPa) = 62.32859 35.48981 -18.56663
#
# Poissons Ratio (x) = 0.28018 0.01640
# Poissons Ratio (y) = 0.49206 -0.18842
# Poissons Ratio (z) = -0.05505 0.36017
#
# Static dielectric constant tensor:
#      x y z
#    x 1.711670 0.000000 0.000000 
#    y 0.000000 1.707170 0.000000 
#    z 0.000000 0.000000 1.665080 
# 
# From -- ./inp_files/10042.got.cif
#   From: 2010.05.17/outbox.ucp.g08.bks.cvg/sg58_6_cif.got.tgz:10042.got - 2010.06.11 16:41:41.
