data_PCOD9446690
_publ_section_title
;
Structure prediction by ZEFSAII (Michael W. Deem and Ramdas Pophale) SiO2 
 PCOD9446690
Probable space group: P M M N
;
_chemical_formula_sum "Si O2"
_cell_formula_units_Z 64
_cell_length_a 8.978261
_cell_length_b 20.280868
_cell_length_c 20.104671
_cell_angle_alpha 90.000000
_cell_angle_beta 90.000000
_cell_angle_gamma 90.000000
_cell_volume 3660.797745
_symmetry_space_group_name_H-M "P M M N"
_symmetry_group_IT_number 59
_space_group.IT_coordinate_system_code '2'
_symmetry_cell_setting 'orthorhombic'
loop_
_space_group_symop_operation_xyz
x,y,z
1/2-x,1/2-y,z
1/2+x,-y,-z
-x,1/2+y,-z
-x,-y,-z
1/2+x,1/2+y,-z
1/2-x,y,z
x,1/2-y,z
loop_
_atom_site_type_symbol
_atom_site_label
_atom_site_fract_x
_atom_site_fract_y
_atom_site_fract_z
Si Si1 0.926858 0.443449 0.903080
Si Si2 0.918751 0.924671 0.741525
Si Si3 0.921027 0.327340 0.169512
Si Si4 0.925459 0.078175 0.049983
Si Si5 0.429118 0.673954 0.494219
Si Si6 0.070470 0.582441 0.374534
Si Si7 0.074200 0.059430 0.766332
Si Si8 0.577816 0.937357 0.584972
O O1 0.750000 0.441845 0.892633
O O2 0.980234 0.517974 0.919827
O O3 0.006467 0.417631 0.836716
O O4 0.963351 0.408025 0.973154
O O5 0.750000 0.945173 0.758744
O O6 0.925663 0.917212 0.662472
O O7 0.966225 0.859449 0.778995
O O8 0.031079 0.982024 0.763106
O O9 0.750000 0.342822 0.189843
O O10 0.937413 0.250000 0.166151
O O11 0.944720 0.360275 0.097981
O O12 0.750000 0.058509 0.051390
O O13 0.250000 0.674243 0.500796
O O14 0.480668 0.750000 0.503632
O O15 0.463989 0.644540 0.421120
O O16 0.492287 0.618336 0.543920
O O17 0.250000 0.576642 0.366878
O O18 0.022378 0.513851 0.411772
O O19 0.999107 0.586741 0.301552
O O20 0.250000 0.068797 0.765119
O O21 0.750000 0.938901 0.562173
#
# Coordination Sequence:
#
# PCOD9446690 Si02
#       8
#     8   8   8   8   8   8   8   8
#     4  10  18  29  49  74 101 131 162 208 259 302
#     4  10  20  34  50  72 101 134 172 210 252 302
#     4  10  20  33  49  70 100 137 173 210 249 296
#     4   9  18  31  47  71 100 131 169 208 248 296
#     4  10  21  36  55  79 106 136 172 215 262 314
#     4   9  19  36  55  77 106 137 172 215 262 313
#     4  11  20  31  51  78 104 129 164 211 262 311
#     4   9  19  34  53  76 103 136 173 214 257 305
#
# _framework density 17.482527999999999
#
# number of rings (size 3 to 8) (size 9 to 14) (size 15 to 20)
#    0.000    2.250    1.250    3.000    0.000    4.500 
#    0.000    2.500    0.000    0.750    0.000    3.500 
#    0.000    0.000    0.000    0.000    0.000    0.000 
#
# Total GULP energy -356752.244624 kJ/mol
# GULP energy per Si atom -5574.253822 kJ/mol
# Density = 1.744274 g / cm^3
# Si number density = 17.482528 Si / 1000 Ang^3
#
#
#
# Elastic Constant Matrix: (Units=GPa)
#
#
# Indices 1 2 3 4 5 6 
#
# 1 40.1450 13.9702 26.4982 0.0000 0.0000 0.0000
# 2 13.9702 43.8767 22.8710 0.0000 0.0000 0.0000
# 3 26.4982 22.8710 64.2983 0.0000 0.0000 0.0000
# 4 0.0000 0.0000 0.0000 14.9674 0.0000 0.0000
# 5 0.0000 0.0000 0.0000 0.0000 28.7040 0.0000
# 6 0.0000 0.0000 0.0000 0.0000 0.0000 18.1043
#
#
#
# Elastic Compliance Matrix: (Units=1/GPa)
#
#
# Indices 1 2 3 4 5 6 
#
# 1 0.034908 -0.004439 -0.012807 0.000000 0.000000 0.000000
# 2 -0.004439 0.028543 -0.008324 0.000000 0.000000 0.000000
# 3 -0.012807 -0.008324 0.023791 0.000000 0.000000 0.000000
# 4 0.000000 0.000000 0.000000 0.066812 0.000000 0.000000
# 5 0.000000 0.000000 0.000000 0.000000 0.034838 0.000000
# 6 0.000000 0.000000 0.000000 0.000000 0.000000 0.055235
#
#
# Mechanical properties :
#
#
# Convention : Reuss Voigt Hill
#
# Bulk Modulus (GPa) = 27.69831 30.55543 29.12687
# Shear Modulus (GPa) = 16.27067 18.02051 17.14559
#
# Velocity S-wave (km/s) = 3.05402 3.21405 3.13505
# Velocity P-wave (km/s) = 5.32108 5.59367 5.45907
#
# Compressibility (1/GPa) = 0.03610329
#
# Stress axis : x y z
#
# Youngs Moduli (GPa) = 28.64678 35.03470 42.03235
#
# Poissons Ratio (x) = 0.15551 0.53831
# Poissons Ratio (y) = 0.12716 0.34986
# Poissons Ratio (z) = 0.36688 0.29161
#
# Static dielectric constant tensor:
#      x y z
#    x 1.614170 0.000000 0.000000 
#    y 0.000000 1.583820 0.000000 
#    z 0.000000 0.000000 1.618600 
# 
# From -- ./inp_files/28467.got.cif
#   From: 2010.05.17/outbox.cif.g08.bks.cpg/sg59_15_cif.got.tgz:28467.got - 2010.06.03 14:40:33.
