data_PCOD9446368
_publ_section_title
;
Structure prediction by ZEFSAII (Michael W. Deem and Ramdas Pophale) SiO2 
 PCOD9446368
Probable space group: P M M N
;
_chemical_formula_sum "Si O2"
_cell_formula_units_Z 56
_cell_length_a 7.621790
_cell_length_b 27.297736
_cell_length_c 15.206772
_cell_angle_alpha 90.000000
_cell_angle_beta 90.000000
_cell_angle_gamma 90.000000
_cell_volume 3163.884657
_symmetry_space_group_name_H-M "P M M N"
_symmetry_group_IT_number 59
_space_group.IT_coordinate_system_code '2'
_symmetry_cell_setting 'orthorhombic'
loop_
_space_group_symop_operation_xyz
x,y,z
1/2-x,1/2-y,z
1/2+x,-y,-z
-x,1/2+y,-z
-x,-y,-z
1/2+x,1/2+y,-z
1/2-x,y,z
x,1/2-y,z
loop_
_atom_site_type_symbol
_atom_site_label
_atom_site_fract_x
_atom_site_fract_y
_atom_site_fract_z
Si Si1 0.539164 0.933887 0.576503
Si Si2 0.961107 0.387354 0.978895
Si Si3 0.460471 0.434308 0.807532
Si Si4 0.460627 0.046726 0.615432
Si Si5 0.039066 0.694660 0.886030
Si Si6 0.047070 0.965963 0.888841
Si Si7 0.540516 0.615352 0.748236
O O1 0.750000 0.930122 0.571600
O O2 0.470303 0.931359 0.476602
O O3 0.478573 0.894782 0.648962
O O4 0.497449 0.988494 0.611730
O O5 0.750000 0.387990 0.987465
O O6 0.003861 0.391205 0.876463
O O7 0.024741 0.340658 0.034743
O O8 0.030852 0.436292 0.028715
O O9 0.250000 0.439792 0.800994
O O10 0.526801 0.431494 0.707555
O O11 0.533330 0.483992 0.852806
O O12 0.250000 0.052506 0.614110
O O13 0.250000 0.696705 0.893489
O O14 0.971367 0.750000 0.889397
O O15 0.999041 0.666654 0.795055
O O16 0.250000 0.976160 0.910346
O O17 0.040760 0.926457 0.810310
O O18 0.750000 0.608350 0.750558
#
# Coordination Sequence:
#
# PCOD9446368 Si02
#       7
#     8   8   8   8   8   8   8
#     4   9  17  28  41  62  89 118 150 183 218 250
#     4   9  18  29  43  62  85 111 142 181 222 264
#     4  10  18  27  41  61  87 121 155 183 210 249
#     4   9  17  28  42  59  86 123 157 183 207 245
#     4   9  19  36  53  67  85 111 143 179 224 278
#     4   9  17  29  41  58  86 122 156 179 207 253
#     4  10  18  27  44  69  93 115 144 184 225 262
#
# _framework density 17.699760999999999
#
# number of rings (size 3 to 8) (size 9 to 14) (size 15 to 20)
#    0.000    2.714    1.429    1.714    0.000    4.286 
#    0.000    0.000    0.000    0.000    0.000    1.000 
#    0.000    5.714    0.000    0.000    0.000    0.000 
#
# Total GULP energy -312047.182960 kJ/mol
# GULP energy per Si atom -5572.271124 kJ/mol
# Density = 1.765948 g / cm^3
# Si number density = 17.699761 Si / 1000 Ang^3
#
#
#
# Elastic Constant Matrix: (Units=GPa)
#
#
# Indices 1 2 3 4 5 6 
#
# 1 39.3466 3.0621 4.6832 0.0000 0.0000 0.0000
# 2 3.0621 64.9219 68.1022 0.0000 0.0000 0.0000
# 3 4.6832 68.1022 183.2381 0.0000 0.0000 0.0000
# 4 0.0000 0.0000 0.0000 12.8301 0.0000 0.0000
# 5 0.0000 0.0000 0.0000 0.0000 9.6070 0.0000
# 6 0.0000 0.0000 0.0000 0.0000 0.0000 9.9042
#
#
#
# Elastic Compliance Matrix: (Units=1/GPa)
#
#
# Indices 1 2 3 4 5 6 
#
# 1 0.025521 -0.000851 -0.000336 0.000000 0.000000 0.000000
# 2 -0.000851 0.025274 -0.009372 0.000000 0.000000 0.000000
# 3 -0.000336 -0.009372 0.008949 0.000000 0.000000 0.000000
# 4 0.000000 0.000000 0.000000 0.077942 0.000000 0.000000
# 5 0.000000 0.000000 0.000000 0.000000 0.104091 0.000000
# 6 0.000000 0.000000 0.000000 0.000000 0.000000 0.100967
#
#
# Mechanical properties :
#
#
# Convention : Reuss Voigt Hill
#
# Bulk Modulus (GPa) = 25.88886 48.80019 37.34452
# Shear Modulus (GPa) = 13.27185 20.57887 16.92536
#
# Velocity S-wave (km/s) = 2.74128 3.41348 3.09568
# Velocity P-wave (km/s) = 4.96768 6.57014 5.82429
#
# Compressibility (1/GPa) = 0.03862665
#
# Stress axis : x y z
#
# Youngs Moduli (GPa) = 39.18279 39.56657 111.74468
#
# Poissons Ratio (x) = 0.03369 0.03753
# Poissons Ratio (y) = 0.03336 1.04722
# Poissons Ratio (z) = 0.01316 0.37080
#
# Static dielectric constant tensor:
#      x y z
#    x 1.651220 0.000000 0.000000 
#    y 0.000000 1.582320 0.000000 
#    z 0.000000 0.000000 1.666450 
# 
# From -- ./inp_files/21765.got.cif
#   From: 2010.05.17/outbox.cif.g08.bks.cpg/sg59_11_cif.got.tgz:21765.got - 2010.06.03 14:40:33.
