data_PCOD9446034
_publ_section_title
;
Structure prediction by ZEFSAII (Michael W. Deem and Ramdas Pophale) SiO2 
 PCOD9446034
Probable space group: P N N M
;
_chemical_formula_sum "Si O2"
_cell_formula_units_Z 48
_cell_length_a 15.000000
_cell_length_b 18.000000
_cell_length_c 9.000000
_cell_angle_alpha 90.000000
_cell_angle_beta 90.000000
_cell_angle_gamma 90.000000
_cell_volume 2430.000000
_symmetry_space_group_name_H-M "P N N M"
_symmetry_group_IT_number 58
_symmetry_cell_setting 'orthorhombic'
loop_
_space_group_symop_operation_xyz
x,y,z
-x,-y,z
1/2+x,1/2-y,1/2-z
1/2-x,1/2+y,1/2-z
-x,-y,-z
x,y,-z
1/2-x,1/2+y,1/2+z
1/2+x,1/2-y,1/2+z
loop_
_atom_site_type_symbol
_atom_site_label
_atom_site_fract_x
_atom_site_fract_y
_atom_site_fract_z
Si Si1 0.254545 0.574083 0.322662
Si Si2 0.761501 0.273058 0.823703
Si Si3 0.904622 0.529202 0.680035
Si Si4 0.072656 0.300887 0.675752
Si Si5 0.055366 0.075440 0.668287
Si Si6 0.438420 0.299944 0.324611
O O1 0.261632 0.569528 0.500000
O O2 0.220586 0.654687 0.272853
O O3 0.181748 0.515076 0.267101
O O4 0.352243 0.564673 0.253777
O O5 0.660063 0.248712 0.797729
O O6 0.834329 0.210014 0.788043
O O7 0.771519 0.288946 0.000000
O O8 0.905107 0.520533 0.500000
O O9 0.899977 0.615747 0.711937
O O10 0.000000 0.500000 0.735016
O O11 0.049921 0.297015 0.500000
O O12 0.990257 0.273739 0.772638
O O13 0.076420 0.099112 0.500000
O O14 0.991029 0.135575 0.741998
O O15 0.000000 0.000000 0.665804
O O16 0.446902 0.310945 0.500000
#
# Coordination Sequence:
#
# PCOD9446034 Si02
#       6
#     8   8   8   8   8   8
#     4  11  22  38  65  94 120 156 204 251 297 357
#     4  10  22  38  59  86 122 161 195 240 304 361
#     4   9  19  35  58  89 120 154 196 241 294 355
#     4  10  20  38  61  84 119 161 195 240 301 360
#     4  11  25  43  61  85 121 165 204 248 309 364
#     4  11  23  39  62  92 120 155 204 252 297 356
#
# _framework density 19.753086
#
# number of rings (size 3 to 8) (size 9 to 14) (size 15 to 20)
#    0.000    1.667    1.667    2.500    2.333    4.000 
#    0.000    1.667    0.000    4.500    0.000    0.000 
#    0.000    0.000    0.000    0.000    0.000    0.000 
#
# Total GULP energy -268030.390930 kJ/mol
# GULP energy per Si atom -5583.966478 kJ/mol
# Density = 1.970813 g / cm^3
# Si number density = 19.753086 Si / 1000 Ang^3
#
#
#
# Elastic Constant Matrix: (Units=GPa)
#
#
# Indices 1 2 3 4 5 6 
#
# 1 76.5177 11.0261 23.9569 0.0000 0.0000 0.0000
# 2 11.0261 61.5746 13.9738 0.0000 0.0000 0.0000
# 3 23.9569 13.9738 34.1254 0.0000 0.0000 0.0000
# 4 0.0000 0.0000 0.0000 11.6243 0.0000 0.0000
# 5 0.0000 0.0000 0.0000 0.0000 -55.5401 0.0000
# 6 0.0000 0.0000 0.0000 0.0000 0.0000 34.4059
#
#
#
# Elastic Compliance Matrix: (Units=1/GPa)
#
#
# Indices 1 2 3 4 5 6 
#
# 1 0.016758 -0.000365 -0.011615 0.000000 0.000000 0.000000
# 2 -0.000365 0.017912 -0.007079 0.000000 0.000000 0.000000
# 3 -0.011615 -0.007079 0.040356 0.000000 0.000000 0.000000
# 4 0.000000 0.000000 0.000000 0.086027 0.000000 0.000000
# 5 0.000000 0.000000 0.000000 0.000000 -0.018005 0.000000
# 6 0.000000 0.000000 0.000000 0.000000 0.000000 0.029065
#
#
# Mechanical properties :
#
#
# Convention : Reuss Voigt Hill
#
# Bulk Modulus (GPa) = 27.09340 30.01460 28.55400
# Shear Modulus (GPa) = 22.46855 6.31543 14.39199
#
# Velocity S-wave (km/s) = 3.37630 1.79001 2.70218
# Velocity P-wave (km/s) = 5.38006 4.41589 4.92164
#
# Compressibility (1/GPa) = 0.03690936
#
# Stress axis : x y z
#
# Youngs Moduli (GPa) = 59.67284 55.82783 24.77923
#
# Poissons Ratio (x) = 0.02037 0.28781
# Poissons Ratio (y) = 0.02177 0.17540
# Poissons Ratio (z) = 0.69311 0.39518
#
# Static dielectric constant tensor:
#      x y z
#    x 1.675300 0.000000 0.000000 
#    y 0.000000 1.729440 0.000000 
#    z 0.000000 0.000000 1.666550 
# 
# From -- ./inp_files/5832.got.cif
#   From: 2010.05.17/outbox.ucp.g08.bks.cvg/sg58_3_cif.got.tgz:5832.got - 2010.06.11 16:41:41.
