data_PCOD9446211
_publ_section_title
;
Structure prediction by ZEFSAII (Michael W. Deem and Ramdas Pophale) SiO2 
 PCOD9446211
Probable space group: P M M N
;
_chemical_formula_sum "Si O2"
_cell_formula_units_Z 48
_cell_length_a 22.397710
_cell_length_b 7.884462
_cell_length_c 15.836694
_cell_angle_alpha 90.000000
_cell_angle_beta 90.000000
_cell_angle_gamma 90.000000
_cell_volume 2796.663452
_symmetry_space_group_name_H-M "P M M N"
_symmetry_group_IT_number 59
_space_group.IT_coordinate_system_code '2'
_symmetry_cell_setting 'orthorhombic'
loop_
_space_group_symop_operation_xyz
x,y,z
1/2-x,1/2-y,z
1/2+x,-y,-z
-x,1/2+y,-z
-x,-y,-z
1/2+x,1/2+y,-z
1/2-x,y,z
x,1/2-y,z
loop_
_atom_site_type_symbol
_atom_site_label
_atom_site_fract_x
_atom_site_fract_y
_atom_site_fract_z
Si Si1 0.096408 0.042609 0.846451
Si Si2 0.818625 0.958224 0.304692
Si Si3 0.462871 0.550354 0.203860
Si Si4 0.567733 0.547905 0.974336
Si Si5 0.963995 0.949465 0.613957
Si Si6 0.408062 0.448527 0.554874
O O1 0.095065 0.250000 0.846651
O O2 0.145879 0.988631 0.779529
O O3 0.030347 0.985892 0.816084
O O4 0.105176 0.988878 0.943969
O O5 0.750000 0.011246 0.305523
O O6 0.819717 0.750000 0.305203
O O7 0.856155 0.019741 0.385904
O O8 0.467624 0.750000 0.217649
O O9 0.424001 0.520654 0.119871
O O10 0.441086 0.472426 0.291387
O O11 0.572286 0.750000 0.969402
O O12 0.500000 0.500000 0.000000
O O13 0.973433 0.750000 0.597862
O O14 0.921804 0.017655 0.538800
O O15 0.028909 0.034643 0.603977
O O16 0.394109 0.250000 0.544432
#
# Coordination Sequence:
#
# PCOD9446211 Si02
#       6
#     8   8   8   8   8   8
#     4   8  14  24  38  58  85 112 136 172 208 244
#     4   9  15  25  44  66  86 113 146 176 211 256
#     4  10  17  27  42  60  86 114 142 178 217 258
#     4   9  16  25  38  59  87 115 142 170 208 252
#     4  10  18  26  41  63  87 116 144 175 221 268
#     4   9  17  29  42  61  88 114 144 181 216 257
#
# _framework density 17.163308000000001
#
# number of rings (size 3 to 8) (size 9 to 14) (size 15 to 20)
#    0.000    2.833    1.667    2.500    0.000    0.667 
#    0.000    0.000    0.000    0.500    0.000    1.167 
#    0.000    9.333    0.000    0.000    0.000    0.000 
#
# Total GULP energy -267232.111434 kJ/mol
# GULP energy per Si atom -5567.335655 kJ/mol
# Density = 1.712424 g / cm^3
# Si number density = 17.163308 Si / 1000 Ang^3
#
#
#
# Elastic Constant Matrix: (Units=GPa)
#
#
# Indices 1 2 3 4 5 6 
#
# 1 76.4066 1.3367 58.5252 0.0000 0.0000 0.0000
# 2 1.3367 16.9922 0.5623 0.0000 0.0000 0.0000
# 3 58.5252 0.5623 170.4325 0.0000 0.0000 0.0000
# 4 0.0000 0.0000 0.0000 17.2378 0.0000 0.0000
# 5 0.0000 0.0000 0.0000 0.0000 17.7870 0.0000
# 6 0.0000 0.0000 0.0000 0.0000 0.0000 7.3794
#
#
#
# Elastic Compliance Matrix: (Units=1/GPa)
#
#
# Indices 1 2 3 4 5 6 
#
# 1 0.017783 -0.001197 -0.006103 0.000000 0.000000 0.000000
# 2 -0.001197 0.058937 0.000217 0.000000 0.000000 0.000000
# 3 -0.006103 0.000217 0.007962 0.000000 0.000000 0.000000
# 4 0.000000 0.000000 0.000000 0.058012 0.000000 0.000000
# 5 0.000000 0.000000 0.000000 0.000000 0.056221 0.000000
# 6 0.000000 0.000000 0.000000 0.000000 0.000000 0.135512
#
#
# Mechanical properties :
#
#
# Convention : Reuss Voigt Hill
#
# Bulk Modulus (GPa) = 14.18099 42.74220 28.46160
# Shear Modulus (GPa) = 13.43726 22.04132 17.73929
#
# Velocity S-wave (km/s) = 2.80108 3.58748 3.21839
# Velocity P-wave (km/s) = 4.32917 6.48978 5.51630
#
# Compressibility (1/GPa) = 0.07051692
#
# Stress axis : x y z
#
# Youngs Moduli (GPa) = 56.23251 16.96714 125.59132
#
# Poissons Ratio (x) = 0.02031 0.76645
# Poissons Ratio (y) = 0.06731 -0.02720
# Poissons Ratio (z) = 0.34317 -0.00367
#
# Static dielectric constant tensor:
#      x y z
#    x 1.541640 0.000000 0.000000 
#    y 0.000000 1.623330 0.000000 
#    z 0.000000 0.000000 1.642680 
# 
# From -- ./inp_files/21243.got.cif
#   From: 2010.05.17/outbox.cif.g08.bks.cpg/sg59_11_cif.got.tgz:21243.got - 2010.06.03 14:40:33.
