data_PCOD9446525
_publ_section_title
;
Structure prediction by ZEFSAII (Michael W. Deem and Ramdas Pophale) SiO2 
 PCOD9446525
Probable space group: P M M N
;
_chemical_formula_sum "Si O2"
_cell_formula_units_Z 64
_cell_length_a 19.421367
_cell_length_b 8.478160
_cell_length_c 22.301938
_cell_angle_alpha 90.000000
_cell_angle_beta 90.000000
_cell_angle_gamma 90.000000
_cell_volume 3672.180394
_symmetry_space_group_name_H-M "P M M N"
_symmetry_group_IT_number 59
_space_group.IT_coordinate_system_code '2'
_symmetry_cell_setting 'orthorhombic'
loop_
_space_group_symop_operation_xyz
x,y,z
1/2-x,1/2-y,z
1/2+x,-y,-z
-x,1/2+y,-z
-x,-y,-z
1/2+x,1/2+y,-z
1/2-x,y,z
x,1/2-y,z
loop_
_atom_site_type_symbol
_atom_site_label
_atom_site_fract_x
_atom_site_fract_y
_atom_site_fract_z
Si Si1 0.582745 0.559699 0.150923
Si Si2 0.882508 0.064213 0.270757
Si Si3 0.674810 0.561647 0.387603
Si Si4 0.828864 0.441001 0.907833
Si Si5 0.570201 0.441925 0.804219
Si Si6 0.475450 0.935287 0.319571
Si Si7 0.531557 0.436318 0.438641
Si Si8 0.076509 0.060757 0.985204
O O1 0.587295 0.750000 0.155383
O O2 0.630224 0.483304 0.202133
O O3 0.503532 0.513183 0.166760
O O4 0.596401 0.512527 0.082565
O O5 0.897925 0.250000 0.274687
O O6 0.828977 0.018441 0.322041
O O7 0.949195 0.962733 0.290525
O O8 0.750000 0.524620 0.414789
O O9 0.670043 0.750000 0.380369
O O10 0.607202 0.506528 0.423636
O O11 0.750000 0.494143 0.908760
O O12 0.829730 0.250000 0.907693
O O13 0.869440 0.494447 0.848164
O O14 0.870932 0.497936 0.965428
O O15 0.570400 0.250000 0.802691
O O16 0.573193 0.493577 0.734670
O O17 0.464036 0.750000 0.329836
O O18 0.481215 0.020142 0.383121
O O19 0.500000 0.500000 0.500000
O O20 0.538818 0.250000 0.441542
O O21 0.075091 0.250000 0.986684
O O22 0.000000 0.000000 0.000000
#
# Coordination Sequence:
#
# PCOD9446525 Si02
#       8
#     8   8   8   8   8   8   8   8
#     4   9  17  31  49  68  96 130 168 213 259 314
#     4  10  18  28  46  74 103 128 163 210 256 305
#     4  10  20  35  55  78 107 144 182 218 264 322
#     4  10  20  35  53  74 103 137 174 217 270 328
#     4   8  14  28  49  72  96 126 165 207 256 308
#     4   9  16  29  49  72 102 133 167 209 254 305
#     4  11  21  34  54  81 113 145 183 225 266 310
#     4  11  21  34  53  75 101 133 177 226 272 327
#
# _framework density 17.428336999999999
#
# number of rings (size 3 to 8) (size 9 to 14) (size 15 to 20)
#    0.000    2.250    1.250    5.625    0.000    2.250 
#    0.000    1.250    0.000    1.500    0.000    1.750 
#    0.000    0.000    0.000    0.000    0.000    0.000 
#
# Total GULP energy -356660.864315 kJ/mol
# GULP energy per Si atom -5572.826005 kJ/mol
# Density = 1.738867 g / cm^3
# Si number density = 17.428337 Si / 1000 Ang^3
#
#
#
# Elastic Constant Matrix: (Units=GPa)
#
#
# Indices 1 2 3 4 5 6 
#
# 1 92.4761 20.1834 63.0938 0.0000 0.0000 0.0000
# 2 20.1834 43.6560 26.5702 0.0000 0.0000 0.0000
# 3 63.0938 26.5702 156.9637 0.0000 0.0000 0.0000
# 4 0.0000 0.0000 0.0000 29.0515 0.0000 0.0000
# 5 0.0000 0.0000 0.0000 0.0000 18.2824 0.0000
# 6 0.0000 0.0000 0.0000 0.0000 0.0000 12.1324
#
#
#
# Elastic Compliance Matrix: (Units=1/GPa)
#
#
# Indices 1 2 3 4 5 6 
#
# 1 0.015430 -0.003745 -0.005568 0.000000 0.000000 0.000000
# 2 -0.003745 0.026446 -0.002971 0.000000 0.000000 0.000000
# 3 -0.005568 -0.002971 0.009112 0.000000 0.000000 0.000000
# 4 0.000000 0.000000 0.000000 0.034422 0.000000 0.000000
# 5 0.000000 0.000000 0.000000 0.000000 0.054697 0.000000
# 6 0.000000 0.000000 0.000000 0.000000 0.000000 0.082424
#
#
# Mechanical properties :
#
#
# Convention : Reuss Voigt Hill
#
# Bulk Modulus (GPa) = 37.85116 56.97673 47.41394
# Shear Modulus (GPa) = 19.53832 24.10981 21.82406
#
# Velocity S-wave (km/s) = 3.35187 3.72340 3.54251
# Velocity P-wave (km/s) = 6.06179 7.15877 6.63300
#
# Compressibility (1/GPa) = 0.02641927
#
# Stress axis : x y z
#
# Youngs Moduli (GPa) = 64.80839 37.81267 109.74265
#
# Poissons Ratio (x) = 0.14160 0.61110
# Poissons Ratio (y) = 0.24269 0.32610
# Poissons Ratio (z) = 0.36088 0.11236
#
# Static dielectric constant tensor:
#      x y z
#    x 1.565340 0.000000 0.000000 
#    y 0.000000 1.593980 0.000000 
#    z 0.000000 0.000000 1.623050 
# 
# From -- ./inp_files/32319.got.cif
#   From: 2010.05.17/outbox.cif.g08.bks.cpg/sg59_17_cif.got.tgz:32319.got - 2010.06.03 14:40:33.
