data_PCOD9446611
_publ_section_title
;
Structure prediction by ZEFSAII (Michael W. Deem and Ramdas Pophale) SiO2 
 PCOD9446611
Probable space group: P M M N
;
_chemical_formula_sum "Si O2"
_cell_formula_units_Z 48
_cell_length_a 8.334059
_cell_length_b 21.308704
_cell_length_c 15.657516
_cell_angle_alpha 90.000000
_cell_angle_beta 90.000000
_cell_angle_gamma 90.000000
_cell_volume 2780.586894
_symmetry_space_group_name_H-M "P M M N"
_symmetry_group_IT_number 59
_space_group.IT_coordinate_system_code '2'
_symmetry_cell_setting 'orthorhombic'
loop_
_space_group_symop_operation_xyz
x,y,z
1/2-x,1/2-y,z
1/2+x,-y,-z
-x,1/2+y,-z
-x,-y,-z
1/2+x,1/2+y,-z
1/2-x,y,z
x,1/2-y,z
loop_
_atom_site_type_symbol
_atom_site_label
_atom_site_fract_x
_atom_site_fract_y
_atom_site_fract_z
Si Si1 0.057287 0.682579 0.487861
Si Si2 0.561249 0.991277 0.263208
Si Si3 0.445527 0.552679 0.567324
Si Si4 0.562597 0.845317 0.300959
Si Si5 0.440592 0.818914 0.113181
Si Si6 0.942429 0.956931 0.077390
O O1 0.250000 0.681779 0.494788
O O2 0.998315 0.750000 0.520856
O O3 0.997452 0.620635 0.535637
O O4 0.013262 0.677985 0.388239
O O5 0.750000 0.007083 0.253782
O O6 0.551533 0.920796 0.299928
O O7 0.493555 0.985672 0.167471
O O8 0.495133 0.035756 0.337370
O O9 0.500000 0.500000 0.500000
O O10 0.250000 0.551754 0.568385
O O11 0.750000 0.828277 0.297484
O O12 0.480275 0.822633 0.214173
O O13 0.250000 0.820552 0.101606
O O14 0.499720 0.750000 0.082452
O O15 0.508958 0.883387 0.073571
O O16 0.750000 0.957951 0.080969
O O17 0.000000 0.000000 0.000000
#
# Coordination Sequence:
#
# PCOD9446611 Si02
#       6
#     8   8   8   8   8   8
#     4  10  20  30  42  65  97 131 165 205 252 297
#     4   8  16  30  48  70  95 124 163 207 249 292
#     4  10  18  31  49  68  94 128 168 209 244 290
#     4  10  18  29  46  69  98 132 168 203 246 301
#     4  10  20  33  50  74 105 136 167 207 255 310
#     4  10  20  35  55  78 104 134 169 213 263 315
#
# _framework density 17.262543999999998
#
# number of rings (size 3 to 8) (size 9 to 14) (size 15 to 20)
#    0.000    2.333    1.667    3.000    0.000    3.667 
#    0.000    0.833    0.000    1.000    0.000    4.667 
#    0.000    0.000    0.000    0.000    0.000    0.000 
#
# Total GULP energy -267484.475070 kJ/mol
# GULP energy per Si atom -5572.593231 kJ/mol
# Density = 1.722325 g / cm^3
# Si number density = 17.262544 Si / 1000 Ang^3
#
#
#
# Elastic Constant Matrix: (Units=GPa)
#
#
# Indices 1 2 3 4 5 6 
#
# 1 20.0508 24.1274 9.9516 0.0000 0.0000 0.0000
# 2 24.1274 152.3981 83.5777 0.0000 0.0000 0.0000
# 3 9.9516 83.5777 95.1398 0.0000 0.0000 0.0000
# 4 0.0000 0.0000 0.0000 178.9369 0.0000 0.0000
# 5 0.0000 0.0000 0.0000 0.0000 16.7179 0.0000
# 6 0.0000 0.0000 0.0000 0.0000 0.0000 19.1077
#
#
#
# Elastic Compliance Matrix: (Units=1/GPa)
#
#
# Indices 1 2 3 4 5 6 
#
# 1 0.062450 -0.012166 0.004155 0.000000 0.000000 0.000000
# 2 -0.012166 0.015032 -0.011933 0.000000 0.000000 0.000000
# 3 0.004155 -0.011933 0.020559 0.000000 0.000000 0.000000
# 4 0.000000 0.000000 0.000000 0.005589 0.000000 0.000000
# 5 0.000000 0.000000 0.000000 0.000000 0.059816 0.000000
# 6 0.000000 0.000000 0.000000 0.000000 0.000000 0.052335
#
#
# Mechanical properties :
#
#
# Convention : Reuss Voigt Hill
#
# Bulk Modulus (GPa) = 17.19567 55.87804 36.53685
# Shear Modulus (GPa) = 18.17842 52.94797 35.56319
#
# Velocity S-wave (km/s) = 3.24860 5.54425 4.54380
# Velocity P-wave (km/s) = 4.90450 8.56883 6.98137
#
# Compressibility (1/GPa) = 0.05815418
#
# Stress axis : x y z
#
# Youngs Moduli (GPa) = 16.01274 66.52559 48.64133
#
# Poissons Ratio (x) = 0.80933 -0.20210
# Poissons Ratio (y) = 0.19481 0.58041
# Poissons Ratio (z) = -0.06653 0.79382
#
# Static dielectric constant tensor:
#      x y z
#    x 1.602800 0.000000 0.000000 
#    y 0.000000 1.623270 0.000000 
#    z 0.000000 0.000000 1.579010 
# 
# From -- ./inp_files/20697.got.cif
#   From: 2010.05.17/outbox.cif.g08.bks.cpg/sg59_11_cif.got.tgz:20697.got - 2010.06.03 14:40:33.
