data_PCOD9446087
_publ_section_title
;
Structure prediction by ZEFSAII (Michael W. Deem and Ramdas Pophale) SiO2 
 PCOD9446087
Probable space group: P N N M
;
_chemical_formula_sum "Si O2"
_cell_formula_units_Z 60
_cell_length_a 12.000000
_cell_length_b 12.000000
_cell_length_c 21.000000
_cell_angle_alpha 90.000000
_cell_angle_beta 90.000000
_cell_angle_gamma 90.000000
_cell_volume 3024.000000
_symmetry_space_group_name_H-M "P N N M"
_symmetry_group_IT_number 58
_symmetry_cell_setting 'orthorhombic'
loop_
_space_group_symop_operation_xyz
x,y,z
-x,-y,z
1/2+x,1/2-y,1/2-z
1/2-x,1/2+y,1/2-z
-x,-y,-z
x,y,-z
1/2-x,1/2+y,1/2+z
1/2+x,1/2-y,1/2+z
loop_
_atom_site_type_symbol
_atom_site_label
_atom_site_fract_x
_atom_site_fract_y
_atom_site_fract_z
Si Si1 0.615793 0.141899 0.352003
Si Si2 0.316677 0.457137 0.924181
Si Si3 0.194079 0.273953 0.651038
Si Si4 0.923649 0.224748 0.077606
Si Si5 0.812002 0.857560 0.220126
Si Si6 0.972822 0.827750 0.424928
Si Si7 0.000000 0.000000 0.849346
Si Si8 0.381858 0.979850 0.780969
O O1 0.700679 0.063407 0.390167
O O2 0.511826 0.185185 0.393956
O O3 0.677599 0.254400 0.328383
O O4 0.589168 0.077776 0.286693
O O5 0.407165 0.366139 0.900935
O O6 0.382532 0.572704 0.914628
O O7 0.301062 0.445442 0.000000
O O8 0.302953 0.250299 0.608893
O O9 0.169203 0.188856 0.708753
O O10 0.084145 0.275114 0.607963
O O11 0.199260 0.393857 0.683542
O O12 0.958489 0.102835 0.105989
O O13 0.921458 0.225889 0.000000
O O14 0.904118 0.946377 0.195834
O O15 0.689314 0.908846 0.223417
O O16 0.982952 0.813317 0.500000
O O17 0.500000 0.000000 0.813575
#
# Coordination Sequence:
#
# PCOD9446087 Si02
#       8
#     8   8   8   8   8   8   4   8
#     4  10  22  36  60  89 116 156 200 245 305 356
#     4   9  18  35  57  84 118 151 192 242 290 351
#     4  11  22  37  61  87 114 161 193 248 308 355
#     4  11  22  40  63  88 121 159 203 250 302 367
#     4  10  22  38  60  85 122 151 204 251 292 363
#     4   9  19  35  56  85 117 153 200 241 287 357
#     4  10  21  42  60  90 117 162 212 246 298 364
#     4  11  23  39  57  83 123 153 192 250 299 360
#
# _framework density 19.841270000000002
#
# number of rings (size 3 to 8) (size 9 to 14) (size 15 to 20)
#    0.000    1.867    1.333    3.400    1.867    2.133 
#    0.000    0.000    0.000    5.600    0.000    0.000 
#    0.000    0.000    0.000    0.000    0.000    0.000 
#
# Total GULP energy -334634.266934 kJ/mol
# GULP energy per Si atom -5577.237782 kJ/mol
# Density = 1.979611 g / cm^3
# Si number density = 19.841270 Si / 1000 Ang^3
#
#
#
# Elastic Constant Matrix: (Units=GPa)
#
#
# Indices 1 2 3 4 5 6 
#
# 1 76.8026 20.6594 35.9271 0.0000 0.0000 0.0000
# 2 20.6594 37.5789 18.5241 0.0000 0.0000 0.0000
# 3 35.9271 18.5241 86.6520 0.0000 0.0000 0.0000
# 4 0.0000 0.0000 0.0000 27.1923 0.0000 0.0000
# 5 0.0000 0.0000 0.0000 0.0000 33.4428 0.0000
# 6 0.0000 0.0000 0.0000 0.0000 0.0000 35.9640
#
#
#
# Elastic Compliance Matrix: (Units=1/GPa)
#
#
# Indices 1 2 3 4 5 6 
#
# 1 0.017576 -0.006785 -0.005837 0.000000 0.000000 0.000000
# 2 -0.006785 0.032365 -0.004105 0.000000 0.000000 0.000000
# 3 -0.005837 -0.004105 0.014838 0.000000 0.000000 0.000000
# 4 0.000000 0.000000 0.000000 0.036775 0.000000 0.000000
# 5 0.000000 0.000000 0.000000 0.000000 0.029902 0.000000
# 6 0.000000 0.000000 0.000000 0.000000 0.000000 0.027806
#
#
# Mechanical properties :
#
#
# Convention : Reuss Voigt Hill
#
# Bulk Modulus (GPa) = 31.92481 39.02831 35.47656
# Shear Modulus (GPa) = 24.61142 27.71467 26.16304
#
# Velocity S-wave (km/s) = 3.52577 3.74146 3.63522
# Velocity P-wave (km/s) = 5.71837 6.19497 5.96144
#
# Compressibility (1/GPa) = 0.03132360
#
# Stress axis : x y z
#
# Youngs Moduli (GPa) = 56.89601 30.89773 67.39439
#
# Poissons Ratio (x) = 0.20966 0.39336
# Poissons Ratio (y) = 0.38607 0.27669
# Poissons Ratio (z) = 0.33208 0.12685
#
# Static dielectric constant tensor:
#      x y z
#    x 1.574910 0.000000 0.000000 
#    y 0.000000 1.763210 0.000000 
#    z 0.000000 0.000000 1.681270 
# 
# From -- ./inp_files/29647.got.cif
#   From: 2010.05.17/outbox.ucp.g08.bks.cvg/sg58_15_cif.got.tgz:29647.got - 2010.06.11 16:41:41.
