data_PCOD9446067
_publ_section_title
;
Structure prediction by ZEFSAII (Michael W. Deem and Ramdas Pophale) SiO2 
 PCOD9446067
Probable space group: P N N M
;
_chemical_formula_sum "Si O2"
_cell_formula_units_Z 48
_cell_length_a 9.000000
_cell_length_b 30.000000
_cell_length_c 9.000000
_cell_angle_alpha 90.000000
_cell_angle_beta 90.000000
_cell_angle_gamma 90.000000
_cell_volume 2430.000000
_symmetry_space_group_name_H-M "P N N M"
_symmetry_group_IT_number 58
_symmetry_cell_setting 'orthorhombic'
loop_
_space_group_symop_operation_xyz
x,y,z
-x,-y,z
1/2+x,1/2-y,1/2-z
1/2-x,1/2+y,1/2-z
-x,-y,-z
x,y,-z
1/2-x,1/2+y,1/2+z
1/2+x,1/2-y,1/2+z
loop_
_atom_site_type_symbol
_atom_site_label
_atom_site_fract_x
_atom_site_fract_y
_atom_site_fract_z
Si Si1 0.928698 0.548698 0.179140
Si Si2 0.266144 0.706951 0.821557
Si Si3 0.463214 0.141493 0.823509
Si Si4 0.007918 0.857687 0.330910
Si Si5 0.703722 0.199196 0.328885
Si Si6 0.578090 0.545913 0.180988
O O1 0.753197 0.546261 0.215768
O O2 0.000000 0.500000 0.214305
O O3 0.997516 0.592112 0.260949
O O4 0.944261 0.555224 0.000000
O O5 0.164547 0.665319 0.772506
O O6 0.423203 0.685702 0.771760
O O7 0.240949 0.753021 0.732898
O O8 0.259168 0.715193 0.000000
O O9 0.591515 0.177677 0.788808
O O10 0.432579 0.139366 0.000000
O O11 0.950048 0.862881 0.500000
O O12 0.174312 0.839743 0.338827
O O13 0.006206 0.907343 0.263428
O O14 0.646484 0.205089 0.500000
O O15 0.500000 0.500000 0.230646
O O16 0.567834 0.546901 0.000000
#
# Coordination Sequence:
#
# PCOD9446067 Si02
#       6
#     8   8   8   8   8   8
#     4  10  21  38  64  93 118 153 204 259 316 374
#     4  11  23  38  61  93 124 159 205 255 307 370
#     4  12  25  41  60  87 127 172 210 249 303 366
#     4   9  19  35  58  87 119 151 192 248 308 362
#     4  11  21  40  65  90 122 159 203 257 312 369
#     4   9  17  32  58  90 118 145 185 243 307 368
#
# _framework density 19.753086
#
# number of rings (size 3 to 8) (size 9 to 14) (size 15 to 20)
#    0.000    1.667    1.667    3.500    2.333    1.667 
#    0.000    2.500    0.000    0.500    0.000    0.000 
#    0.000    0.000    0.000    0.000    0.000    0.000 
#
# Total GULP energy -267335.610206 kJ/mol
# GULP energy per Si atom -5569.491879 kJ/mol
# Density = 1.970813 g / cm^3
# Si number density = 19.753086 Si / 1000 Ang^3
#
#
#
# Elastic Constant Matrix: (Units=GPa)
#
#
# Indices 1 2 3 4 5 6 
#
# 1 21.7149 5.2150 -0.0222 0.0000 0.0000 0.0000
# 2 5.2150 158.0717 31.5400 0.0000 0.0000 0.0000
# 3 -0.0222 31.5400 61.1815 0.0000 0.0000 0.0000
# 4 0.0000 0.0000 0.0000 26.0677 0.0000 0.0000
# 5 0.0000 0.0000 0.0000 0.0000 13.3492 0.0000
# 6 0.0000 0.0000 0.0000 0.0000 0.0000 40.3736
#
#
#
# Elastic Compliance Matrix: (Units=1/GPa)
#
#
# Indices 1 2 3 4 5 6 
#
# 1 0.046463 -0.001712 0.000900 0.000000 0.000000 0.000000
# 2 -0.001712 0.007115 -0.003668 0.000000 0.000000 0.000000
# 3 0.000900 -0.003668 0.018236 0.000000 0.000000 0.000000
# 4 0.000000 0.000000 0.000000 0.038362 0.000000 0.000000
# 5 0.000000 0.000000 0.000000 0.000000 0.074911 0.000000
# 6 0.000000 0.000000 0.000000 0.000000 0.000000 0.024769
#
#
# Mechanical properties :
#
#
# Convention : Reuss Voigt Hill
#
# Bulk Modulus (GPa) = 15.91038 34.93709 25.42373
# Shear Modulus (GPa) = 20.85345 29.57379 25.21362
#
# Velocity S-wave (km/s) = 3.25269 3.87353 3.57661
# Velocity P-wave (km/s) = 4.70943 6.14255 5.47310
#
# Compressibility (1/GPa) = 0.06285206
#
# Stress axis : x y z
#
# Youngs Moduli (GPa) = 21.52229 140.55443 54.83593
#
# Poissons Ratio (x) = 0.24068 -0.04933
# Poissons Ratio (y) = 0.03685 0.20116
# Poissons Ratio (z) = -0.01936 0.51560
#
# Static dielectric constant tensor:
#      x y z
#    x 1.890790 0.000000 0.000000 
#    y 0.000000 1.675470 0.000000 
#    z 0.000000 0.000000 1.678070 
# 
# From -- ./inp_files/2946.got.cif
#   From: 2010.05.17/outbox.ucp.g08.bks.cvg/sg58_2_cif.got.tgz:2946.got - 2010.06.11 16:41:41.
