data_PCOD9446683
_publ_section_title
;
Structure prediction by ZEFSAII (Michael W. Deem and Ramdas Pophale) SiO2 
 PCOD9446683
Probable space group: P M M N
;
_chemical_formula_sum "Si O2"
_cell_formula_units_Z 64
_cell_length_a 20.725569
_cell_length_b 7.694646
_cell_length_c 20.713191
_cell_angle_alpha 90.000000
_cell_angle_beta 90.000000
_cell_angle_gamma 90.000000
_cell_volume 3303.255121
_symmetry_space_group_name_H-M "P M M N"
_symmetry_group_IT_number 59
_space_group.IT_coordinate_system_code '2'
_symmetry_cell_setting 'orthorhombic'
loop_
_space_group_symop_operation_xyz
x,y,z
1/2-x,1/2-y,z
1/2+x,-y,-z
-x,1/2+y,-z
-x,-y,-z
1/2+x,1/2+y,-z
1/2-x,y,z
x,1/2-y,z
loop_
_atom_site_type_symbol
_atom_site_label
_atom_site_fract_x
_atom_site_fract_y
_atom_site_fract_z
Si Si1 0.576032 0.046014 0.333744
Si Si2 0.676827 0.040030 0.591091
Si Si3 0.430783 0.958616 0.030918
Si Si4 0.822685 0.036628 0.068255
Si Si5 0.177167 0.456342 0.557626
Si Si6 0.611492 0.046480 0.195612
Si Si7 0.068198 0.954439 0.312144
Si Si8 0.035184 0.961962 0.170797
O O1 0.565522 0.250000 0.322577
O O2 0.608727 0.972168 0.268133
O O3 0.623219 0.024314 0.393831
O O4 0.504123 0.971096 0.340601
O O5 0.750000 0.979004 0.604976
O O6 0.677418 0.250000 0.594367
O O7 0.622924 0.972689 0.640631
O O8 0.661635 0.993770 0.517046
O O9 0.424878 0.750000 0.032951
O O10 0.430316 0.019288 0.105146
O O11 0.374369 0.024457 0.984437
O O12 0.500000 0.000000 0.000000
O O13 0.750000 0.986560 0.052554
O O14 0.825502 0.250000 0.069290
O O15 0.842904 0.974473 0.139743
O O16 0.250000 0.525486 0.570168
O O17 0.179119 0.250000 0.566089
O O18 0.628281 0.250000 0.201774
O O19 0.538426 0.027263 0.169901
O O20 0.081959 0.750000 0.306054
O O21 0.065219 0.023184 0.238712
O O22 0.032888 0.750000 0.171789
#
# Coordination Sequence:
#
# PCOD9446683 Si02
#       8
#     8   8   8   8   8   8   8   8
#     4  10  20  32  50  76 102 130 167 207 247 293
#     4   9  18  34  55  75  96 128 169 208 248 297
#     4  10  18  29  49  72  94 127 166 202 242 288
#     4   9  17  29  45  68  98 128 161 202 244 286
#     4  10  21  36  53  73  99 132 167 204 249 300
#     4   9  17  30  48  69  93 126 165 200 239 286
#     4   9  18  33  51  73 103 132 160 204 255 300
#     4   9  17  29  47  72  98 124 159 200 245 292
#
# _framework density 19.374827
#
# number of rings (size 3 to 8) (size 9 to 14) (size 15 to 20)
#    0.000    2.625    1.250    0.750    0.000    2.750 
#    0.000    1.875    0.000    5.250    0.000    0.000 
#    0.000    3.000    0.000    0.000    0.000    0.000 
#
# Total GULP energy -356867.006880 kJ/mol
# GULP energy per Si atom -5576.046983 kJ/mol
# Density = 1.933073 g / cm^3
# Si number density = 19.374827 Si / 1000 Ang^3
#
#
#
# Elastic Constant Matrix: (Units=GPa)
#
#
# Indices 1 2 3 4 5 6 
#
# 1 123.5765 -11.8483 94.8126 0.0000 0.0000 0.0000
# 2 -11.8483 28.8676 -9.4106 0.0000 0.0000 0.0000
# 3 94.8126 -9.4106 129.1507 0.0000 0.0000 0.0000
# 4 0.0000 0.0000 0.0000 8.5321 0.0000 0.0000
# 5 0.0000 0.0000 0.0000 0.0000 33.7488 0.0000
# 6 0.0000 0.0000 0.0000 0.0000 0.0000 11.8026
#
#
#
# Elastic Compliance Matrix: (Units=1/GPa)
#
#
# Indices 1 2 3 4 5 6 
#
# 1 0.018830 0.003301 -0.013583 0.000000 0.000000 0.000000
# 2 0.003301 0.036062 0.000205 0.000000 0.000000 0.000000
# 3 -0.013583 0.000205 0.017729 0.000000 0.000000 0.000000
# 4 0.000000 0.000000 0.000000 0.117204 0.000000 0.000000
# 5 0.000000 0.000000 0.000000 0.000000 0.029631 0.000000
# 6 0.000000 0.000000 0.000000 0.000000 0.000000 0.084727
#
#
# Mechanical properties :
#
#
# Convention : Reuss Voigt Hill
#
# Bulk Modulus (GPa) = 19.05994 47.63357 33.34675
# Shear Modulus (GPa) = 14.62722 24.68612 19.65667
#
# Velocity S-wave (km/s) = 2.75063 3.57337 3.18865
# Velocity P-wave (km/s) = 4.46619 6.45477 5.55026
#
# Compressibility (1/GPa) = 0.05246608
#
# Stress axis : x y z
#
# Youngs Moduli (GPa) = 53.10656 27.72981 56.40323
#
# Poissons Ratio (x) = -0.09152 0.76613
# Poissons Ratio (y) = -0.17528 -0.01155
# Poissons Ratio (z) = 0.72135 -0.00568
#
# Static dielectric constant tensor:
#      x y z
#    x 1.652080 0.000000 0.000000 
#    y 0.000000 1.719060 0.000000 
#    z 0.000000 0.000000 1.691590 
# 
# From -- ./inp_files/28183.got.cif
#   From: 2010.05.17/outbox.cif.g08.bks.cpg/sg59_15_cif.got.tgz:28183.got - 2010.06.03 14:40:33.
