data_PCOD9446505
_publ_section_title
;
Structure prediction by ZEFSAII (Michael W. Deem and Ramdas Pophale) SiO2 
 PCOD9446505
Probable space group: P M M N
;
_chemical_formula_sum "Si O2"
_cell_formula_units_Z 64
_cell_length_a 22.057338
_cell_length_b 8.632852
_cell_length_c 19.730488
_cell_angle_alpha 90.000000
_cell_angle_beta 90.000000
_cell_angle_gamma 90.000000
_cell_volume 3757.034825
_symmetry_space_group_name_H-M "P M M N"
_symmetry_group_IT_number 59
_space_group.IT_coordinate_system_code '2'
_symmetry_cell_setting 'orthorhombic'
loop_
_space_group_symop_operation_xyz
x,y,z
1/2-x,1/2-y,z
1/2+x,-y,-z
-x,1/2+y,-z
-x,-y,-z
1/2+x,1/2+y,-z
1/2-x,y,z
x,1/2-y,z
loop_
_atom_site_type_symbol
_atom_site_label
_atom_site_fract_x
_atom_site_fract_y
_atom_site_fract_z
Si Si1 0.511243 0.432518 0.675310
Si Si2 0.679755 0.575310 0.216310
Si Si3 0.181603 0.935841 0.523780
Si Si4 0.882700 0.429377 0.339440
Si Si5 0.441439 0.433275 0.459057
Si Si6 0.994894 0.062184 0.831536
Si Si7 0.617755 0.064583 0.098837
Si Si8 0.938903 0.063797 0.965693
O O1 0.524048 0.250000 0.671828
O O2 0.441796 0.465374 0.654223
O O3 0.550647 0.520001 0.619487
O O4 0.517099 0.483820 0.753911
O O5 0.750000 0.575136 0.233706
O O6 0.655387 0.750000 0.225055
O O7 0.645221 0.460898 0.266311
O O8 0.669942 0.520149 0.139930
O O9 0.250000 0.991343 0.506993
O O10 0.180994 0.750000 0.513889
O O11 0.166515 0.965055 0.602961
O O12 0.123224 0.004144 0.485472
O O13 0.901040 0.250000 0.347181
O O14 0.500000 0.500000 0.500000
O O15 0.443160 0.250000 0.467333
O O16 0.002242 0.250000 0.831973
O O17 0.942869 0.020048 0.886645
O O18 0.056284 0.987360 0.861481
O O19 0.623537 0.250000 0.102980
O O20 0.612053 0.016943 0.019919
O O21 0.940978 0.250000 0.967771
O O22 0.000000 0.000000 0.000000
#
# Coordination Sequence:
#
# PCOD9446505 Si02
#       8
#     8   8   8   8   8   8   8   8
#     4  11  21  33  53  79 108 143 176 213 263 318
#     4  11  23  35  46  64  96 138 180 217 255 306
#     4  10  22  40  60  81 106 138 177 222 273 327
#     4  11  21  34  54  77 104 138 175 217 261 312
#     4  12  24  38  57  80 109 144 182 225 271 321
#     4   9  17  30  48  69  99 131 162 199 248 308
#     4  10  18  28  46  68  94 126 164 209 253 296
#     4   8  15  27  43  67  93 122 156 194 240 292
#
# _framework density 17.03471
#
# number of rings (size 3 to 8) (size 9 to 14) (size 15 to 20)
#    0.000    1.750    2.500    3.000    0.000    3.250 
#    0.000    0.000    0.000    0.000    0.000    0.875 
#    0.000    3.000    0.000    0.000    0.000    0.000 
#
# Total GULP energy -356748.869623 kJ/mol
# GULP energy per Si atom -5574.201088 kJ/mol
# Density = 1.699594 g / cm^3
# Si number density = 17.034710 Si / 1000 Ang^3
#
#
#
# Elastic Constant Matrix: (Units=GPa)
#
#
# Indices 1 2 3 4 5 6 
#
# 1 71.9438 19.9766 39.8069 0.0000 0.0000 0.0000
# 2 19.9766 35.6824 22.6138 0.0000 0.0000 0.0000
# 3 39.8069 22.6138 97.4601 0.0000 0.0000 0.0000
# 4 0.0000 0.0000 0.0000 20.6826 0.0000 0.0000
# 5 0.0000 0.0000 0.0000 0.0000 22.1160 0.0000
# 6 0.0000 0.0000 0.0000 0.0000 0.0000 20.3984
#
#
#
# Elastic Compliance Matrix: (Units=1/GPa)
#
#
# Indices 1 2 3 4 5 6 
#
# 1 0.019270 -0.006800 -0.006293 0.000000 0.000000 0.000000
# 2 -0.006800 0.035256 -0.005403 0.000000 0.000000 0.000000
# 3 -0.006293 -0.005403 0.014085 0.000000 0.000000 0.000000
# 4 0.000000 0.000000 0.000000 0.048350 0.000000 0.000000
# 5 0.000000 0.000000 0.000000 0.000000 0.045216 0.000000
# 6 0.000000 0.000000 0.000000 0.000000 0.000000 0.049023
#
#
# Mechanical properties :
#
#
# Convention : Reuss Voigt Hill
#
# Bulk Modulus (GPa) = 31.62687 41.09787 36.36237
# Shear Modulus (GPa) = 19.32509 20.81868 20.07189
#
# Velocity S-wave (km/s) = 3.37182 3.49969 3.43635
# Velocity P-wave (km/s) = 5.81079 6.36465 6.09402
#
# Compressibility (1/GPa) = 0.03161869
#
# Stress axis : x y z
#
# Youngs Moduli (GPa) = 51.89498 28.36382 70.99981
#
# Poissons Ratio (x) = 0.19287 0.44679
# Poissons Ratio (y) = 0.35288 0.38362
# Poissons Ratio (z) = 0.32656 0.15325
#
# Static dielectric constant tensor:
#      x y z
#    x 1.576230 0.000000 0.000000 
#    y 0.000000 1.614840 0.000000 
#    z 0.000000 0.000000 1.616550 
# 
# From -- ./inp_files/30951.got.cif
#   From: 2010.05.17/outbox.cif.g08.bks.cpg/sg59_16_cif.got.tgz:30951.got - 2010.06.03 14:40:33.
