data_PCOD9446036
_publ_section_title
;
Structure prediction by ZEFSAII (Michael W. Deem and Ramdas Pophale) SiO2 
 PCOD9446036
Probable space group: P N N M
;
_chemical_formula_sum "Si O2"
_cell_formula_units_Z 58
_cell_length_a 9.000000
_cell_length_b 27.000000
_cell_length_c 12.000000
_cell_angle_alpha 90.000000
_cell_angle_beta 90.000000
_cell_angle_gamma 90.000000
_cell_volume 2916.000000
_symmetry_space_group_name_H-M "P N N M"
_symmetry_group_IT_number 58
_symmetry_cell_setting 'orthorhombic'
loop_
_space_group_symop_operation_xyz
x,y,z
-x,-y,z
1/2+x,1/2-y,1/2-z
1/2-x,1/2+y,1/2-z
-x,-y,-z
x,y,-z
1/2-x,1/2+y,1/2+z
1/2+x,1/2-y,1/2+z
loop_
_atom_site_type_symbol
_atom_site_label
_atom_site_fract_x
_atom_site_fract_y
_atom_site_fract_z
Si Si1 0.873110 0.540064 0.294153
Si Si2 0.485772 0.203881 0.714385
Si Si3 0.799036 0.644580 0.374745
Si Si4 0.440147 0.097092 0.626868
Si Si5 0.521746 0.379855 0.369179
Si Si6 0.500000 0.500000 0.000000
Si Si7 0.786053 0.783030 0.128038
Si Si8 0.838392 0.958482 0.717512
O O1 0.854204 0.587404 0.372772
O O2 0.726776 0.508224 0.272322
O O3 0.000000 0.500000 0.326347
O O4 0.921008 0.567441 0.179228
O O5 0.593153 0.178932 0.805644
O O6 0.448650 0.156178 0.638670
O O7 0.342541 0.223739 0.780594
O O8 0.578208 0.245613 0.650771
O O9 0.792413 0.663219 0.500000
O O10 0.632974 0.643019 0.327035
O O11 0.424606 0.082642 0.500000
O O12 0.302450 0.076868 0.696372
O O13 0.502208 0.391309 0.500000
O O14 0.649350 0.338526 0.360200
O O15 0.558892 0.428339 0.300659
O O16 0.588415 0.469820 0.099480
O O17 0.733493 0.776793 0.000000
#
# Coordination Sequence:
#
# PCOD9446036 Si02
#       8
#     8   8   8   8   8   2   8   8
#     4   9  21  35  57  86 119 162 208 256 300 375
#     4  11  22  41  66  93 129 162 209 271 314 399
#     4  10  21  39  61  88 123 164 206 257 317 371
#     4  10  20  38  61  86 124 166 210 253 314 379
#     4  10  22  41  64  89 127 168 210 267 323 384
#     4  12  24  32  60  84 132 164 212 268 304 388
#     4  11  23  41  68  96 125 164 210 263 330 386
#     4  11  21  38  57  92 122 167 210 257 318 366
#
# _framework density 19.890260999999999
#
# number of rings (size 3 to 8) (size 9 to 14) (size 15 to 20)
#    0.000    1.655    2.069    2.483    0.966    1.655 
#    0.000    3.793   10.621    0.000    0.000    0.000 
#    0.000    0.000    0.000    0.000    0.000    0.000 
#
# Total GULP energy -323099.014682 kJ/mol
# GULP energy per Si atom -5570.672667 kJ/mol
# Density = 1.984499 g / cm^3
# Si number density = 19.890261 Si / 1000 Ang^3
#
#
#
# Elastic Constant Matrix: (Units=GPa)
#
#
# Indices 1 2 3 4 5 6 
#
# 1 53.4570 19.2749 19.8291 0.0000 0.0000 0.0000
# 2 19.2749 67.0470 5.0881 0.0000 0.0000 0.0000
# 3 19.8291 5.0881 30.1564 0.0000 0.0000 0.0000
# 4 0.0000 0.0000 0.0000 52.0433 0.0000 0.0000
# 5 0.0000 0.0000 0.0000 0.0000 19.9615 0.0000
# 6 0.0000 0.0000 0.0000 0.0000 0.0000 35.7262
#
#
#
# Elastic Compliance Matrix: (Units=1/GPa)
#
#
# Indices 1 2 3 4 5 6 
#
# 1 0.027334 -0.006578 -0.016863 0.000000 0.000000 0.000000
# 2 -0.006578 0.016692 0.001509 0.000000 0.000000 0.000000
# 3 -0.016863 0.001509 0.043994 0.000000 0.000000 0.000000
# 4 0.000000 0.000000 0.000000 0.019215 0.000000 0.000000
# 5 0.000000 0.000000 0.000000 0.000000 0.050097 0.000000
# 6 0.000000 0.000000 0.000000 0.000000 0.000000 0.027991
#
#
# Mechanical properties :
#
#
# Convention : Reuss Voigt Hill
#
# Bulk Modulus (GPa) = 22.64757 26.56052 24.60405
# Shear Modulus (GPa) = 20.49989 28.64408 24.57199
#
# Velocity S-wave (km/s) = 3.21386 3.79899 3.51861
# Velocity P-wave (km/s) = 5.01825 5.71188 5.37626
#
# Compressibility (1/GPa) = 0.04415484
#
# Stress axis : x y z
#
# Youngs Moduli (GPa) = 36.58492 59.91072 22.73038
#
# Poissons Ratio (x) = 0.39411 0.38330
# Poissons Ratio (y) = 0.24066 -0.03430
# Poissons Ratio (z) = 0.61694 -0.09042
#
# Static dielectric constant tensor:
#      x y z
#    x 1.747170 0.000000 0.000000 
#    y 0.000000 1.686350 0.000000 
#    z 0.000000 0.000000 1.666000 
# 
# From -- ./inp_files/13306.got.cif
#   From: 2010.05.17/outbox.ucp.g08.bks.cvg/sg58_7_cif.got.tgz:13306.got - 2010.06.11 16:41:41.
