data_PCOD9446839
_publ_section_title
;
Structure prediction by ZEFSAII (Michael W. Deem and Ramdas Pophale) SiO2 
 PCOD9446839
Probable space group: P M M N
;
_chemical_formula_sum "Si O2"
_cell_formula_units_Z 64
_cell_length_a 33.911331
_cell_length_b 9.513544
_cell_length_c 10.851994
_cell_angle_alpha 90.000000
_cell_angle_beta 90.000000
_cell_angle_gamma 90.000000
_cell_volume 3501.037092
_symmetry_space_group_name_H-M "P M M N"
_symmetry_group_IT_number 59
_space_group.IT_coordinate_system_code '2'
_symmetry_cell_setting 'orthorhombic'
loop_
_space_group_symop_operation_xyz
x,y,z
1/2-x,1/2-y,z
1/2+x,-y,-z
-x,1/2+y,-z
-x,-y,-z
1/2+x,1/2+y,-z
1/2-x,y,z
x,1/2-y,z
loop_
_atom_site_type_symbol
_atom_site_label
_atom_site_fract_x
_atom_site_fract_y
_atom_site_fract_z
Si Si1 0.079425 0.588117 0.551584
Si Si2 0.704891 0.582453 0.604607
Si Si3 0.015957 0.412063 0.680748
Si Si4 0.443086 0.916223 0.164860
Si Si5 0.796130 0.584048 0.311720
Si Si6 0.568387 0.586360 0.070432
Si Si7 0.133374 0.587178 0.797753
Si Si8 0.868662 0.083116 0.678460
O O1 0.069543 0.750000 0.523429
O O2 0.039922 0.505092 0.584521
O O3 0.107167 0.585038 0.672545
O O4 0.105986 0.533103 0.439957
O O5 0.750000 0.543766 0.635322
O O6 0.700780 0.750000 0.621169
O O7 0.699191 0.554234 0.458109
O O8 0.672038 0.499529 0.679617
O O9 0.016062 0.250000 0.640576
O O10 0.040307 0.420369 0.809780
O O11 0.972029 0.453353 0.721757
O O12 0.449787 0.750000 0.139369
O O13 0.398041 0.935388 0.207307
O O14 0.450856 0.009876 0.046097
O O15 0.750000 0.562094 0.281986
O O16 0.805100 0.750000 0.293781
O O17 0.825655 0.487769 0.235018
O O18 0.576125 0.750000 0.044875
O O19 0.607982 0.501831 0.105220
O O20 0.138027 0.750000 0.834557
O O21 0.861292 0.250000 0.662938
#
# Coordination Sequence:
#
# PCOD9446839 Si02
#       8
#     8   8   8   8   8   8   8   8
#     4   9  18  31  47  72 103 134 166 203 249 299
#     4   9  18  32  51  76 105 136 169 206 246 292
#     4   9  19  34  52  74  99 131 168 213 261 304
#     4  10  21  36  52  72 101 134 172 216 258 299
#     4   9  17  29  47  74 106 134 161 199 248 299
#     4  10  20  34  53  74  97 128 172 217 258 304
#     4  10  18  30  50  74 102 133 165 203 250 300
#     4  10  20  34  51  74 106 139 170 208 251 301
#
# _framework density 18.280297999999998
#
# number of rings (size 3 to 8) (size 9 to 14) (size 15 to 20)
#    0.000    2.500    1.250    1.875    0.000    3.500 
#    0.000    1.250    0.000    0.750    0.000    3.500 
#    0.000    0.000    0.000    0.000    0.000    0.000 
#
# Total GULP energy -357121.643648 kJ/mol
# GULP energy per Si atom -5580.025682 kJ/mol
# Density = 1.823869 g / cm^3
# Si number density = 18.280298 Si / 1000 Ang^3
#
#
#
# Elastic Constant Matrix: (Units=GPa)
#
#
# Indices 1 2 3 4 5 6 
#
# 1 112.7510 51.3557 5.7609 0.0000 0.0000 0.0000
# 2 51.3557 61.3914 15.1927 0.0000 0.0000 0.0000
# 3 5.7609 15.1927 25.2865 0.0000 0.0000 0.0000
# 4 0.0000 0.0000 0.0000 16.7711 0.0000 0.0000
# 5 0.0000 0.0000 0.0000 0.0000 17.2185 0.0000
# 6 0.0000 0.0000 0.0000 0.0000 0.0000 34.3015
#
#
#
# Elastic Compliance Matrix: (Units=1/GPa)
#
#
# Indices 1 2 3 4 5 6 
#
# 1 0.014804 -0.013567 0.004778 0.000000 0.000000 0.000000
# 2 -0.013567 0.031567 -0.015875 0.000000 0.000000 0.000000
# 3 0.004778 -0.015875 0.047996 0.000000 0.000000 0.000000
# 4 0.000000 0.000000 0.000000 0.059626 0.000000 0.000000
# 5 0.000000 0.000000 0.000000 0.000000 0.058077 0.000000
# 6 0.000000 0.000000 0.000000 0.000000 0.000000 0.029153
#
#
# Mechanical properties :
#
#
# Convention : Reuss Voigt Hill
#
# Bulk Modulus (GPa) = 22.20231 38.22750 30.21491
# Shear Modulus (GPa) = 16.36316 22.13284 19.24800
#
# Velocity S-wave (km/s) = 2.99511 3.48336 3.24842
# Velocity P-wave (km/s) = 4.91251 6.09390 5.53482
#
# Compressibility (1/GPa) = 0.04504035
#
# Stress axis : x y z
#
# Youngs Moduli (GPa) = 67.54776 31.67903 20.83493
#
# Poissons Ratio (x) = 0.42978 -0.09956
# Poissons Ratio (y) = 0.91641 0.33076
# Poissons Ratio (z) = -0.32277 0.50291
#
# Static dielectric constant tensor:
#      x y z
#    x 1.634300 0.000000 0.000000 
#    y 0.000000 1.609290 0.000000 
#    z 0.000000 0.000000 1.626590 
# 
# From -- ./inp_files/19252.got.cif
#   From: 2010.05.17/outbox.cif.g08.bks.cpg/sg59_10_cif.got.tgz:19252.got - 2010.06.03 14:40:33.
