data_PCOD9446682
_publ_section_title
;
Structure prediction by ZEFSAII (Michael W. Deem and Ramdas Pophale) SiO2 
 PCOD9446682
Probable space group: P M M N
;
_chemical_formula_sum "Si O2"
_cell_formula_units_Z 64
_cell_length_a 7.357230
_cell_length_b 18.565698
_cell_length_c 22.424142
_cell_angle_alpha 90.000000
_cell_angle_beta 90.000000
_cell_angle_gamma 90.000000
_cell_volume 3062.960877
_symmetry_space_group_name_H-M "P M M N"
_symmetry_group_IT_number 59
_space_group.IT_coordinate_system_code '2'
_symmetry_cell_setting 'orthorhombic'
loop_
_space_group_symop_operation_xyz
x,y,z
1/2-x,1/2-y,z
1/2+x,-y,-z
-x,1/2+y,-z
-x,-y,-z
1/2+x,1/2+y,-z
1/2-x,y,z
x,1/2-y,z
loop_
_atom_site_type_symbol
_atom_site_label
_atom_site_fract_x
_atom_site_fract_y
_atom_site_fract_z
Si Si1 0.471897 0.073695 0.607813
Si Si2 0.528165 0.170751 0.123069
Si Si3 0.968844 0.409103 0.376694
Si Si4 0.029331 0.898531 0.755038
Si Si5 0.966645 0.022761 0.067345
Si Si6 0.971750 0.832678 0.277133
Si Si7 0.464461 0.330515 0.499127
Si Si8 0.029058 0.450180 0.813923
O O1 0.250000 0.071347 0.608093
O O2 0.525690 0.122136 0.664389
O O3 0.535044 0.112370 0.547357
O O4 0.532429 0.991162 0.613008
O O5 0.750000 0.170965 0.121988
O O6 0.467721 0.250000 0.104500
O O7 0.472764 0.153153 0.191128
O O8 0.466954 0.103071 0.083481
O O9 0.750000 0.411353 0.374165
O O10 0.032817 0.382889 0.311769
O O11 0.015940 0.359576 0.432373
O O12 0.250000 0.896592 0.754791
O O13 0.979308 0.979903 0.774342
O O14 0.750000 0.025255 0.074968
O O15 0.032777 0.968017 0.118896
O O16 0.000000 0.000000 0.000000
O O17 0.750000 0.831581 0.277219
O O18 0.032100 0.750000 0.278478
O O19 0.030913 0.877969 0.219147
O O20 0.250000 0.325613 0.511546
O O21 0.540078 0.250000 0.505722
O O22 0.250000 0.447835 0.814368
#
# Coordination Sequence:
#
# PCOD9446682 Si02
#       8
#     8   8   8   8   8   8   8   8
#     4   9  16  28  45  65  88 116 152 190 227 270
#     4   8  14  25  43  67  91 116 151 190 222 256
#     4  10  18  29  49  72  90 112 147 192 235 272
#     4   8  13  23  41  65  89 110 137 184 235 266
#     4   9  17  29  47  68  92 123 154 183 217 261
#     4   9  14  21  39  66  92 117 147 186 231 273
#     4  10  21  34  44  59  90 127 156 184 222 271
#     4   8  13  24  40  62  90 115 142 180 224 265
#
# _framework density 20.894814
#
# number of rings (size 3 to 8) (size 9 to 14) (size 15 to 20)
#    0.000    3.125    1.250    2.250    0.000    2.250 
#    0.000    1.875    0.000    4.125    0.000    0.000 
#    0.000    2.000    0.000    0.000    0.000    0.000 
#
# Total GULP energy -357120.596344 kJ/mol
# GULP energy per Si atom -5580.009318 kJ/mol
# Density = 2.084726 g / cm^3
# Si number density = 20.894814 Si / 1000 Ang^3
#
#
#
# Elastic Constant Matrix: (Units=GPa)
#
#
# Indices 1 2 3 4 5 6 
#
# 1 74.1641 -2.3652 -6.3530 0.0000 0.0000 0.0000
# 2 -2.3652 66.3038 21.3968 0.0000 0.0000 0.0000
# 3 -6.3530 21.3968 125.4769 0.0000 0.0000 0.0000
# 4 0.0000 0.0000 0.0000 20.2504 0.0000 0.0000
# 5 0.0000 0.0000 0.0000 0.0000 12.5918 0.0000
# 6 0.0000 0.0000 0.0000 0.0000 0.0000 -4.4969
#
#
#
# Elastic Compliance Matrix: (Units=1/GPa)
#
#
# Indices 1 2 3 4 5 6 
#
# 1 0.013547 0.000277 0.000639 0.000000 0.000000 0.000000
# 2 0.000277 0.015966 -0.002709 0.000000 0.000000 0.000000
# 3 0.000639 -0.002709 0.008464 0.000000 0.000000 0.000000
# 4 0.000000 0.000000 0.000000 0.049382 0.000000 0.000000
# 5 0.000000 0.000000 0.000000 0.000000 0.079416 0.000000
# 6 0.000000 0.000000 0.000000 0.000000 0.000000 -0.222376
#
#
# Mechanical properties :
#
#
# Convention : Reuss Voigt Hill
#
# Bulk Modulus (GPa) = 29.07697 32.36691 30.72194
# Shear Modulus (GPa) = -123.29966 22.55349 -50.37308
#
# Velocity S-wave (km/s) = -7.69011 3.28896 -4.91531
# Velocity P-wave (km/s) = 8.05632 5.47239 4.18075
#
# Compressibility (1/GPa) = 0.03439148
#
# Stress axis : x y z
#
# Youngs Moduli (GPa) = 73.81623 62.63291 118.15022
#
# Poissons Ratio (x) = -0.01736 -0.07546
# Poissons Ratio (y) = -0.02046 0.32002
# Poissons Ratio (z) = -0.04714 0.16965
#
# Static dielectric constant tensor:
#      x y z
#    x 1.843320 0.000000 0.000000 
#    y 0.000000 1.721870 0.000000 
#    z 0.000000 0.000000 1.732590 
# 
# From -- ./inp_files/27974.got.cif
#   From: 2010.05.17/outbox.cif.g08.bks.cpg/sg59_14_cif.got.tgz:27974.got - 2010.06.03 14:40:33.
