data_PCOD9446498
_publ_section_title
;
Structure prediction by ZEFSAII (Michael W. Deem and Ramdas Pophale) SiO2 
 PCOD9446498
Probable space group: P M M N
;
_chemical_formula_sum "Si O2"
_cell_formula_units_Z 64
_cell_length_a 18.380701
_cell_length_b 9.035161
_cell_length_c 22.136412
_cell_angle_alpha 90.000000
_cell_angle_beta 90.000000
_cell_angle_gamma 90.000000
_cell_volume 3676.251337
_symmetry_space_group_name_H-M "P M M N"
_symmetry_group_IT_number 59
_space_group.IT_coordinate_system_code '2'
_symmetry_cell_setting 'orthorhombic'
loop_
_space_group_symop_operation_xyz
x,y,z
1/2-x,1/2-y,z
1/2+x,-y,-z
-x,1/2+y,-z
-x,-y,-z
1/2+x,1/2+y,-z
1/2-x,y,z
x,1/2-y,z
loop_
_atom_site_type_symbol
_atom_site_label
_atom_site_fract_x
_atom_site_fract_y
_atom_site_fract_z
Si Si1 0.920386 0.927028 0.506512
Si Si2 0.409388 0.075503 0.627751
Si Si3 0.469844 0.574447 0.060116
Si Si4 0.167415 0.072810 0.121111
Si Si5 0.095868 0.426423 0.247981
Si Si6 0.415103 0.574497 0.371534
Si Si7 0.335500 0.574582 0.740834
Si Si8 0.043124 0.425595 0.813079
O O1 0.927436 0.750000 0.513275
O O2 0.884601 0.955254 0.441139
O O3 0.887733 0.997977 0.566899
O O4 0.000000 0.000000 0.500000
O O5 0.397800 0.250000 0.640099
O O6 0.496784 0.050400 0.630994
O O7 0.368618 0.979876 0.677312
O O8 0.463653 0.750000 0.051837
O O9 0.392543 0.508042 0.080803
O O10 0.523366 0.547427 0.117121
O O11 0.500000 0.500000 0.000000
O O12 0.250000 0.029636 0.107297
O O13 0.160018 0.250000 0.112864
O O14 0.149240 0.042945 0.191642
O O15 0.090256 0.250000 0.256013
O O16 0.116306 0.502781 0.310838
O O17 0.018642 0.492551 0.226242
O O18 0.403133 0.750000 0.373537
O O19 0.250000 0.542939 0.743154
O O20 0.346668 0.750000 0.747313
O O21 0.380146 0.489027 0.792243
O O22 0.038595 0.250000 0.801444
#
# Coordination Sequence:
#
# PCOD9446498 Si02
#       8
#     8   8   8   8   8   8   8   8
#     4   9  17  28  43  66  95 126 164 211 265 319
#     4   9  18  31  47  67  95 131 171 217 268 323
#     4  10  21  37  60  88 115 146 183 220 261 311
#     4   9  19  36  57  83 115 147 180 219 264 316
#     4  10  18  29  51  78 104 138 174 214 263 311
#     4  10  18  28  45  72 102 131 169 215 265 320
#     4  11  23  35  50  74 102 136 179 224 271 321
#     4  10  20  35  54  77 105 136 173 216 260 310
#
# _framework density 17.409037000000001
#
# number of rings (size 3 to 8) (size 9 to 14) (size 15 to 20)
#    0.000    2.250    1.250    3.000    0.000    5.750 
#    0.000    0.625    0.000    1.500    0.000    1.750 
#    0.000    0.000    0.000    0.000    0.000    0.000 
#
# Total GULP energy -357024.904342 kJ/mol
# GULP energy per Si atom -5578.514130 kJ/mol
# Density = 1.736941 g / cm^3
# Si number density = 17.409037 Si / 1000 Ang^3
#
#
#
# Elastic Constant Matrix: (Units=GPa)
#
#
# Indices 1 2 3 4 5 6 
#
# 1 71.9372 50.4412 51.2266 0.0000 0.0000 0.0000
# 2 50.4412 79.7393 72.7031 0.0000 0.0000 0.0000
# 3 51.2266 72.7031 143.3070 0.0000 0.0000 0.0000
# 4 0.0000 0.0000 0.0000 34.4325 0.0000 0.0000
# 5 0.0000 0.0000 0.0000 0.0000 13.3972 0.0000
# 6 0.0000 0.0000 0.0000 0.0000 0.0000 18.6674
#
#
#
# Elastic Compliance Matrix: (Units=1/GPa)
#
#
# Indices 1 2 3 4 5 6 
#
# 1 0.025206 -0.014382 -0.001714 0.000000 0.000000 0.000000
# 2 -0.014382 0.031541 -0.010860 0.000000 0.000000 0.000000
# 3 -0.001714 -0.010860 0.013100 0.000000 0.000000 0.000000
# 4 0.000000 0.000000 0.000000 0.029042 0.000000 0.000000
# 5 0.000000 0.000000 0.000000 0.000000 0.074642 0.000000
# 6 0.000000 0.000000 0.000000 0.000000 0.000000 0.053569
#
#
# Mechanical properties :
#
#
# Convention : Reuss Voigt Hill
#
# Bulk Modulus (GPa) = 62.75672 71.52501 67.14087
# Shear Modulus (GPa) = 17.46270 21.34027 19.40149
#
# Velocity S-wave (km/s) = 3.17058 3.50496 3.34196
# Velocity P-wave (km/s) = 7.03776 7.58643 7.31724
#
# Compressibility (1/GPa) = 0.01593455
#
# Stress axis : x y z
#
# Youngs Moduli (GPa) = 39.67333 31.70515 76.33424
#
# Poissons Ratio (x) = 0.45599 0.13081
# Poissons Ratio (y) = 0.57059 0.82901
# Poissons Ratio (z) = 0.06799 0.34433
#
# Static dielectric constant tensor:
#      x y z
#    x 1.573270 0.000000 0.000000 
#    y 0.000000 1.578530 0.000000 
#    z 0.000000 0.000000 1.609320 
# 
# From -- ./inp_files/30799.got.cif
#   From: 2010.05.17/outbox.cif.g08.bks.cpg/sg59_16_cif.got.tgz:30799.got - 2010.06.03 14:40:33.
