data_PCOD9446936
_publ_section_title
;
Structure prediction by ZEFSAII (Michael W. Deem and Ramdas Pophale) SiO2 
 PCOD9446936
Probable space group: P M M N
;
_chemical_formula_sum "Si O2"
_cell_formula_units_Z 64
_cell_length_a 7.502084
_cell_length_b 20.412118
_cell_length_c 21.072974
_cell_angle_alpha 90.000000
_cell_angle_beta 90.000000
_cell_angle_gamma 90.000000
_cell_volume 3226.976659
_symmetry_space_group_name_H-M "P M M N"
_symmetry_group_IT_number 59
_space_group.IT_coordinate_system_code '2'
_symmetry_cell_setting 'orthorhombic'
loop_
_space_group_symop_operation_xyz
x,y,z
1/2-x,1/2-y,z
1/2+x,-y,-z
-x,1/2+y,-z
-x,-y,-z
1/2+x,1/2+y,-z
1/2-x,y,z
x,1/2-y,z
loop_
_atom_site_type_symbol
_atom_site_label
_atom_site_fract_x
_atom_site_fract_y
_atom_site_fract_z
Si Si1 0.033091 0.414503 0.945739
Si Si2 0.541001 0.565165 0.915517
Si Si3 0.464249 0.571238 0.274618
Si Si4 0.968505 0.928560 0.774982
Si Si5 0.462546 0.176453 0.832863
Si Si6 0.037703 0.089684 0.447589
Si Si7 0.468028 0.324552 0.331554
Si Si8 0.964044 0.443241 0.584438
O O1 0.250000 0.414711 0.946598
O O2 0.969647 0.360898 0.895569
O O3 0.976608 0.486545 0.922349
O O4 0.968838 0.406399 0.018256
O O5 0.750000 0.581851 0.914395
O O6 0.468287 0.584177 0.846747
O O7 0.250000 0.567301 0.276598
O O8 0.526319 0.500884 0.247736
O O9 0.508416 0.629876 0.227389
O O10 0.528375 0.580092 0.346917
O O11 0.750000 0.929550 0.775716
O O12 0.022513 0.873499 0.724735
O O13 0.250000 0.181171 0.840959
O O14 0.533155 0.250000 0.825208
O O15 0.250000 0.086807 0.438967
O O16 0.972594 0.143860 0.398344
O O17 0.005545 0.098997 0.522177
O O18 0.967949 0.017276 0.428858
O O19 0.250000 0.323742 0.331302
O O20 0.527505 0.250000 0.323543
O O21 0.750000 0.446924 0.587625
#
# Coordination Sequence:
#
# PCOD9446936 Si02
#       8
#     8   8   8   8   8   8   8   8
#     4   9  17  29  45  68  94 122 155 191 234 281
#     4   9  16  27  47  71  94 119 153 196 235 271
#     4  10  18  31  51  72  95 124 161 204 242 280
#     4   9  15  26  45  70  97 123 154 198 240 273
#     4  10  21  35  48  66  98 133 161 196 244 294
#     4   9  16  28  46  69  95 122 154 191 229 280
#     4   9  16  27  45  70  99 128 156 189 235 287
#     4   9  17  29  47  70  94 119 151 197 244 275
#
# _framework density 19.832806000000001
#
# number of rings (size 3 to 8) (size 9 to 14) (size 15 to 20)
#    0.000    2.750    2.500    0.000    0.000    0.750 
#    0.000    1.250    0.000    7.125    0.000    0.000 
#    0.000    1.000    0.000    0.000    0.000    0.000 
#
# Total GULP energy -356933.491223 kJ/mol
# GULP energy per Si atom -5577.085800 kJ/mol
# Density = 1.978767 g / cm^3
# Si number density = 19.832806 Si / 1000 Ang^3
#
#
#
# Elastic Constant Matrix: (Units=GPa)
#
#
# Indices 1 2 3 4 5 6 
#
# 1 49.8651 -3.7954 -0.2874 0.0000 0.0000 0.0000
# 2 -3.7954 126.7674 104.1947 0.0000 0.0000 0.0000
# 3 -0.2874 104.1947 225.8359 0.0000 0.0000 0.0000
# 4 0.0000 0.0000 0.0000 24.4231 0.0000 0.0000
# 5 0.0000 0.0000 0.0000 0.0000 8.0666 0.0000
# 6 0.0000 0.0000 0.0000 0.0000 0.0000 7.9524
#
#
#
# Elastic Compliance Matrix: (Units=1/GPa)
#
#
# Indices 1 2 3 4 5 6 
#
# 1 0.020123 0.000937 -0.000407 0.000000 0.000000 0.000000
# 2 0.000937 0.012751 -0.005882 0.000000 0.000000 0.000000
# 3 -0.000407 -0.005882 0.007141 0.000000 0.000000 0.000000
# 4 0.000000 0.000000 0.000000 0.040945 0.000000 0.000000
# 5 0.000000 0.000000 0.000000 0.000000 0.123968 0.000000
# 6 0.000000 0.000000 0.000000 0.000000 0.000000 0.125748
#
#
# Mechanical properties :
#
#
# Convention : Reuss Voigt Hill
#
# Bulk Modulus (GPa) = 34.11595 66.96582 50.54088
# Shear Modulus (GPa) = 14.23896 28.24554 21.24225
#
# Velocity S-wave (km/s) = 2.68236 3.77793 3.27627
# Velocity P-wave (km/s) = 5.18002 7.27109 6.31274
#
# Compressibility (1/GPa) = 0.02931180
#
# Stress axis : x y z
#
# Youngs Moduli (GPa) = 49.69430 78.42568 140.03333
#
# Poissons Ratio (x) = -0.07345 0.05693
# Poissons Ratio (y) = -0.04654 0.82364
# Poissons Ratio (z) = 0.02020 0.46128
#
# Static dielectric constant tensor:
#      x y z
#    x 1.775450 0.000000 0.000000 
#    y 0.000000 1.658600 0.000000 
#    z 0.000000 0.000000 1.721830 
# 
# From -- ./inp_files/29790.got.cif
#   From: 2010.05.17/outbox.cif.g08.bks.cpg/sg59_15_cif.got.tgz:29790.got - 2010.06.03 14:40:33.
