data_PCOD9446151
_publ_section_title
;
Structure prediction by ZEFSAII (Michael W. Deem and Ramdas Pophale) SiO2 
 PCOD9446151
Probable space group: P M M N
;
_chemical_formula_sum "Si O2"
_cell_formula_units_Z 28
_cell_length_a 19.297353
_cell_length_b 7.720488
_cell_length_c 9.068387
_cell_angle_alpha 90.000000
_cell_angle_beta 90.000000
_cell_angle_gamma 90.000000
_cell_volume 1351.053476
_symmetry_space_group_name_H-M "P M M N"
_symmetry_group_IT_number 59
_space_group.IT_coordinate_system_code '2'
_symmetry_cell_setting 'orthorhombic'
loop_
_space_group_symop_operation_xyz
x,y,z
1/2-x,1/2-y,z
1/2+x,-y,-z
-x,1/2+y,-z
-x,-y,-z
1/2+x,1/2+y,-z
1/2-x,y,z
x,1/2-y,z
loop_
_atom_site_type_symbol
_atom_site_label
_atom_site_fract_x
_atom_site_fract_y
_atom_site_fract_z
Si Si1 0.371826 0.750000 0.133662
Si Si2 0.750000 0.250000 0.099104
Si Si3 0.898423 0.040185 0.404991
Si Si4 0.043594 0.046767 0.268655
Si Si5 0.750000 0.989516 0.362554
Si Si6 0.250000 0.750000 0.370687
O O1 0.419653 0.581128 0.153985
O O2 0.317217 0.750000 0.269078
O O3 0.320383 0.750000 0.995428
O O4 0.750000 0.090315 0.209069
O O5 0.883946 0.250000 0.399813
O O6 0.829967 0.932499 0.366925
O O7 0.962285 0.009306 0.294538
O O8 0.923400 0.992346 0.569648
O O9 0.052526 0.250000 0.234845
O O10 0.750000 0.089478 0.519466
#
# Coordination Sequence:
#
# PCOD9446151 Si02
#       6
#     4   2   8   8   4   2
#     4  11  20  40  54  91 112 151 199 246 266 363
#     4  10  24  34  66  82 110 166 208 212 310 338
#     4  10  17  31  58  87 117 145 191 239 291 342
#     4  10  20  32  58  92 118 147 187 247 298 335
#     4  11  16  36  59  84 110 158 192 240 283 351
#     4  10  16  30  62  78 108 146 186 244 286 310
#
# _framework density 20.724568000000001
#
# number of rings (size 3 to 8) (size 9 to 14) (size 15 to 20)
#    0.000    1.714    7.143    0.000    2.000    0.000 
#    0.000    7.857    0.000    3.429    0.000    0.000 
#    0.000    0.000    0.000    0.000    0.000    0.000 
#
# Total GULP energy -155988.282766 kJ/mol
# GULP energy per Si atom -5571.010099 kJ/mol
# Density = 2.067740 g / cm^3
# Si number density = 20.724568 Si / 1000 Ang^3
#
#
#
# Elastic Constant Matrix: (Units=GPa)
#
#
# Indices 1 2 3 4 5 6 
#
# 1 185.6306 57.3777 20.4029 0.0000 0.0000 0.0000
# 2 57.3777 112.2909 14.3496 0.0000 0.0000 0.0000
# 3 20.4029 14.3496 53.6218 0.0000 0.0000 0.0000
# 4 0.0000 0.0000 0.0000 -1.2003 0.0000 0.0000
# 5 0.0000 0.0000 0.0000 0.0000 27.6620 0.0000
# 6 0.0000 0.0000 0.0000 0.0000 0.0000 4.9947
#
#
#
# Elastic Compliance Matrix: (Units=1/GPa)
#
#
# Indices 1 2 3 4 5 6 
#
# 1 0.006535 -0.003129 -0.001649 0.000000 0.000000 0.000000
# 2 -0.003129 0.010719 -0.001678 0.000000 0.000000 0.000000
# 3 -0.001649 -0.001678 0.019726 0.000000 0.000000 0.000000
# 4 0.000000 0.000000 0.000000 -0.833140 0.000000 0.000000
# 5 0.000000 0.000000 0.000000 0.000000 0.036151 0.000000
# 6 0.000000 0.000000 0.000000 0.000000 0.000000 0.200213
#
#
# Mechanical properties :
#
#
# Convention : Reuss Voigt Hill
#
# Bulk Modulus (GPa) = 41.54952 59.53373 50.54162
# Shear Modulus (GPa) = -9.27881 23.58548 7.15333
#
# Velocity S-wave (km/s) = -2.11824 3.37715 1.85987
# Velocity P-wave (km/s) = 3.75625 6.63290 5.39003
#
# Compressibility (1/GPa) = 0.02406767
#
# Stress axis : x y z
#
# Youngs Moduli (GPa) = 153.01319 93.29651 50.69516
#
# Poissons Ratio (x) = 0.29189 0.08362
# Poissons Ratio (y) = 0.47872 0.08506
# Poissons Ratio (z) = 0.25239 0.15654
#
# Static dielectric constant tensor:
#      x y z
#    x 1.794690 0.000000 0.000000 
#    y 0.000000 1.807520 0.000000 
#    z 0.000000 0.000000 1.690840 
# 
# From -- ./inp_files/10897.got.cif
#   From: 2010.05.17/outbox.cif.g08.bks.cpg/sg59_6_cif.got.tgz:10897.got - 2010.06.03 14:40:33.
