data_PCOD9446807
_publ_section_title
;
Structure prediction by ZEFSAII (Michael W. Deem and Ramdas Pophale) SiO2 
 PCOD9446807
Probable space group: P M M N
;
_chemical_formula_sum "Si O2"
_cell_formula_units_Z 40
_cell_length_a 8.161189
_cell_length_b 26.844020
_cell_length_c 10.012689
_cell_angle_alpha 90.000000
_cell_angle_beta 90.000000
_cell_angle_gamma 90.000000
_cell_volume 2193.571102
_symmetry_space_group_name_H-M "P M M N"
_symmetry_group_IT_number 59
_space_group.IT_coordinate_system_code '2'
_symmetry_cell_setting 'orthorhombic'
loop_
_space_group_symop_operation_xyz
x,y,z
1/2-x,1/2-y,z
1/2+x,-y,-z
-x,1/2+y,-z
-x,-y,-z
1/2+x,1/2+y,-z
1/2-x,y,z
x,1/2-y,z
loop_
_atom_site_type_symbol
_atom_site_label
_atom_site_fract_x
_atom_site_fract_y
_atom_site_fract_z
Si Si1 0.938827 0.250000 0.631696
Si Si2 0.950889 0.858405 0.649341
Si Si3 0.944731 0.645853 0.340837
Si Si4 0.060272 0.250000 0.335585
Si Si5 0.948093 0.945300 0.845798
Si Si6 0.554044 0.441997 0.851201
O O1 0.750000 0.250000 0.589516
O O2 0.977171 0.198293 0.704547
O O3 0.048994 0.250000 0.497565
O O4 0.750000 0.857501 0.651084
O O5 0.000144 0.863645 0.494209
O O6 0.009239 0.804133 0.701761
O O7 0.005733 0.904115 0.740483
O O8 0.750000 0.652456 0.342815
O O9 0.987575 0.599960 0.246839
O O10 0.250000 0.250000 0.294012
O O11 0.750000 0.945445 0.842903
O O12 0.004027 0.001838 0.816015
O O13 0.002018 0.932803 0.996000
O O14 0.750000 0.441561 0.843761
#
# Coordination Sequence:
#
# PCOD9446807 Si02
#       6
#     4   8   8   4   8   8
#     4  10  18  30  49  74 103 130 158 196 242 290
#     4   8  15  29  51  75  96 124 164 205 242 292
#     4  10  19  33  53  75  99 129 164 201 245 296
#     4   8  14  28  49  72  99 128 158 194 242 296
#     4   9  18  34  52  69  96 134 171 208 253 301
#     4  10  20  33  49  71  99 132 169 209 253 298
#
# _framework density 18.235104
#
# number of rings (size 3 to 8) (size 9 to 14) (size 15 to 20)
#    0.000    2.800    0.000    3.300    0.000    1.600 
#    0.000    6.000    0.000    2.400    0.000    0.000 
#    0.000    0.000    0.000    0.000    0.000    0.000 
#
# Total GULP energy -222876.658346 kJ/mol
# GULP energy per Si atom -5571.916459 kJ/mol
# Density = 1.819360 g / cm^3
# Si number density = 18.235104 Si / 1000 Ang^3
#
#
#
# Elastic Constant Matrix: (Units=GPa)
#
#
# Indices 1 2 3 4 5 6 
#
# 1 24.8141 22.1210 14.4614 0.0000 0.0000 0.0000
# 2 22.1210 189.9837 98.2462 0.0000 0.0000 0.0000
# 3 14.4614 98.2462 72.4564 0.0000 0.0000 0.0000
# 4 0.0000 0.0000 0.0000 -28.0024 0.0000 0.0000
# 5 0.0000 0.0000 0.0000 0.0000 16.5088 0.0000
# 6 0.0000 0.0000 0.0000 0.0000 0.0000 18.8815
#
#
#
# Elastic Compliance Matrix: (Units=1/GPa)
#
#
# Indices 1 2 3 4 5 6 
#
# 1 0.045837 -0.002028 -0.006398 0.000000 0.000000 0.000000
# 2 -0.002028 0.017705 -0.023602 0.000000 0.000000 0.000000
# 3 -0.006398 -0.023602 0.047082 0.000000 0.000000 0.000000
# 4 0.000000 0.000000 0.000000 -0.035711 0.000000 0.000000
# 5 0.000000 0.000000 0.000000 0.000000 0.060574 0.000000
# 6 0.000000 0.000000 0.000000 0.000000 0.000000 0.052962
#
#
# Mechanical properties :
#
#
# Convention : Reuss Voigt Hill
#
# Bulk Modulus (GPa) = 21.47490 61.87905 41.67698
# Shear Modulus (GPa) = 18.65482 11.63930 15.14706
#
# Velocity S-wave (km/s) = 3.20193 2.52918 2.88523
# Velocity P-wave (km/s) = 5.04699 6.52202 5.83133
#
# Compressibility (1/GPa) = 0.04656599
#
# Stress axis : x y z
#
# Youngs Moduli (GPa) = 21.81656 56.48047 21.23975
#
# Poissons Ratio (x) = 0.11457 0.13589
# Poissons Ratio (y) = 0.04425 0.50131
# Poissons Ratio (z) = 0.13958 1.33307
#
# Static dielectric constant tensor:
#      x y z
#    x 1.639390 0.000000 0.000000 
#    y 0.000000 1.667280 0.000000 
#    z 0.000000 0.000000 1.586150 
# 
# From -- ./inp_files/5899.got.cif
#   From: 2010.05.17/outbox.cif.g08.bks.cpg/sg59_3_cif.got.tgz:5899.got - 2010.06.03 14:40:33.
