data_PCOD9446494
_publ_section_title
;
Structure prediction by ZEFSAII (Michael W. Deem and Ramdas Pophale) SiO2 
 PCOD9446494
Probable space group: P M M N
;
_chemical_formula_sum "Si O2"
_cell_formula_units_Z 56
_cell_length_a 19.275505
_cell_length_b 7.710716
_cell_length_c 19.776120
_cell_angle_alpha 90.000000
_cell_angle_beta 90.000000
_cell_angle_gamma 90.000000
_cell_volume 2939.284072
_symmetry_space_group_name_H-M "P M M N"
_symmetry_group_IT_number 59
_space_group.IT_coordinate_system_code '2'
_symmetry_cell_setting 'orthorhombic'
loop_
_space_group_symop_operation_xyz
x,y,z
1/2-x,1/2-y,z
1/2+x,-y,-z
-x,1/2+y,-z
-x,-y,-z
1/2+x,1/2+y,-z
1/2-x,y,z
x,1/2-y,z
loop_
_atom_site_type_symbol
_atom_site_label
_atom_site_fract_x
_atom_site_fract_y
_atom_site_fract_z
Si Si1 0.094334 0.543317 0.102450
Si Si2 0.328623 0.456257 0.964339
Si Si3 0.939492 0.963500 0.144251
Si Si4 0.974877 0.040743 0.574679
Si Si5 0.880632 0.953227 0.752852
Si Si6 0.531667 0.946744 0.288892
Si Si7 0.176424 0.956836 0.384923
O O1 0.091762 0.750000 0.100050
O O2 0.136342 0.488802 0.169498
O O3 0.014636 0.481464 0.114076
O O4 0.130886 0.481779 0.034601
O O5 0.250000 0.526515 0.966314
O O6 0.323402 0.250000 0.953774
O O7 0.377716 0.523019 0.904102
O O8 0.940556 0.750000 0.145803
O O9 0.932250 0.024083 0.222257
O O10 0.973333 0.250000 0.582756
O O11 0.896158 0.974695 0.585679
O O12 0.024139 0.974488 0.636041
O O13 0.000000 0.000000 0.500000
O O14 0.895075 0.750000 0.744964
O O15 0.827794 0.009131 0.695306
O O16 0.951345 0.055281 0.735705
O O17 0.557952 0.750000 0.296409
O O18 0.250000 0.026288 0.411117
O O19 0.176143 0.750000 0.395980
#
# Coordination Sequence:
#
# PCOD9446494 Si02
#       7
#     8   8   8   8   8   8   8
#     4  10  19  32  49  66  89 124 162 193 225 277
#     4  10  20  32  46  67  93 117 147 195 249 287
#     4   8  15  30  51  69  86 115 156 197 233 272
#     4   9  17  29  48  73  98 124 154 190 230 271
#     4  10  18  28  45  70  96 117 145 189 235 275
#     4   8  15  30  49  68  91 120 154 186 220 271
#     4   9  18  33  50  67  92 129 166 192 223 277
#
# _framework density 19.052258999999999
#
# number of rings (size 3 to 8) (size 9 to 14) (size 15 to 20)
#    0.000    2.857    0.000    3.857    0.000    3.429 
#    0.000    2.857    0.000    0.857    0.000    2.000 
#    0.000    0.000    0.000    0.000    0.000    2.286 
#
# Total GULP energy -311875.428918 kJ/mol
# GULP energy per Si atom -5569.204088 kJ/mol
# Density = 1.900889 g / cm^3
# Si number density = 19.052259 Si / 1000 Ang^3
#
#
#
# Elastic Constant Matrix: (Units=GPa)
#
#
# Indices 1 2 3 4 5 6 
#
# 1 92.5416 3.7564 75.3755 0.0000 0.0000 0.0000
# 2 3.7564 33.5391 -10.5739 0.0000 0.0000 0.0000
# 3 75.3755 -10.5739 174.2915 0.0000 0.0000 0.0000
# 4 0.0000 0.0000 0.0000 13.8032 0.0000 0.0000
# 5 0.0000 0.0000 0.0000 0.0000 34.8978 0.0000
# 6 0.0000 0.0000 0.0000 0.0000 0.0000 4.2543
#
#
#
# Elastic Compliance Matrix: (Units=1/GPa)
#
#
# Indices 1 2 3 4 5 6 
#
# 1 0.017290 -0.004378 -0.007743 0.000000 0.000000 0.000000
# 2 -0.004378 0.031506 0.003805 0.000000 0.000000 0.000000
# 3 -0.007743 0.003805 0.009317 0.000000 0.000000 0.000000
# 4 0.000000 0.000000 0.000000 0.072447 0.000000 0.000000
# 5 0.000000 0.000000 0.000000 0.000000 0.028655 0.000000
# 6 0.000000 0.000000 0.000000 0.000000 0.000000 0.235054
#
#
# Mechanical properties :
#
#
# Convention : Reuss Voigt Hill
#
# Bulk Modulus (GPa) = 24.10763 48.60979 36.35871
# Shear Modulus (GPa) = 11.77223 26.04536 18.90880
#
# Velocity S-wave (km/s) = 2.48844 3.70137 3.15377
# Velocity P-wave (km/s) = 4.57573 6.62089 5.69094
#
# Compressibility (1/GPa) = 0.04148064
#
# Stress axis : x y z
#
# Youngs Moduli (GPa) = 57.83524 31.74029 107.33062
#
# Poissons Ratio (x) = 0.13895 0.83108
# Poissons Ratio (y) = 0.25319 -0.40835
# Poissons Ratio (z) = 0.44783 -0.12076
#
# Static dielectric constant tensor:
#      x y z
#    x 1.670540 0.000000 0.000000 
#    y 0.000000 1.709770 0.000000 
#    z 0.000000 0.000000 1.689020 
# 
# From -- ./inp_files/26143.got.cif
#   From: 2010.05.17/outbox.cif.g08.bks.cpg/sg59_14_cif.got.tgz:26143.got - 2010.06.03 14:40:33.
