data_PCOD9446990
_publ_section_title
;
Structure prediction by ZEFSAII (Michael W. Deem and Ramdas Pophale) SiO2 
 PCOD9446990
Probable space group: P M M N
;
_chemical_formula_sum "Si O2"
_cell_formula_units_Z 64
_cell_length_a 8.779043
_cell_length_b 29.926781
_cell_length_c 12.878496
_cell_angle_alpha 90.000000
_cell_angle_beta 90.000000
_cell_angle_gamma 90.000000
_cell_volume 3383.547901
_symmetry_space_group_name_H-M "P M M N"
_symmetry_group_IT_number 59
_space_group.IT_coordinate_system_code '2'
_symmetry_cell_setting 'orthorhombic'
loop_
_space_group_symop_operation_xyz
x,y,z
1/2-x,1/2-y,z
1/2+x,-y,-z
-x,1/2+y,-z
-x,-y,-z
1/2+x,1/2+y,-z
1/2-x,y,z
x,1/2-y,z
loop_
_atom_site_type_symbol
_atom_site_label
_atom_site_fract_x
_atom_site_fract_y
_atom_site_fract_z
Si Si1 0.430586 0.828649 0.343269
Si Si2 0.566681 0.606684 0.633042
Si Si3 0.933027 0.036525 0.782702
Si Si4 0.569004 0.201144 0.424369
Si Si5 0.067432 0.890142 0.049086
Si Si6 0.565817 0.938641 0.848997
Si Si7 0.067861 0.076897 0.590028
Si Si8 0.567649 0.799755 0.127532
O O1 0.250000 0.835362 0.325656
O O2 0.450379 0.802266 0.450923
O O3 0.510289 0.876105 0.362815
O O4 0.502793 0.805374 0.243890
O O5 0.750000 0.607260 0.630463
O O6 0.508983 0.657436 0.622570
O O7 0.519629 0.584515 0.740725
O O8 0.516487 0.579129 0.530296
O O9 0.750000 0.037148 0.774173
O O10 0.980249 0.078613 0.853453
O O11 0.999755 0.040195 0.667155
O O12 0.976963 0.990710 0.839548
O O13 0.750000 0.198345 0.404438
O O14 0.513688 0.250000 0.388984
O O15 0.250000 0.887880 0.049347
O O16 0.000108 0.840801 0.062874
O O17 0.009214 0.914061 0.945623
O O18 0.750000 0.935973 0.858399
O O19 0.250000 0.074628 0.592813
O O20 0.750000 0.803486 0.130035
O O21 0.527248 0.750000 0.089067
#
# Coordination Sequence:
#
# PCOD9446990 Si02
#       8
#     8   8   8   8   8   8   8   8
#     4  10  18  31  52  80 115 150 183 224 276 333
#     4   9  20  37  55  80 113 150 190 233 279 333
#     4  10  21  37  59  87 115 148 186 233 292 345
#     4   9  18  32  52  79 110 146 187 231 280 333
#     4  11  23  39  60  86 115 146 190 239 285 337
#     4  10  22  41  61  80 111 152 194 238 286 339
#     4  10  19  32  54  84 118 151 184 226 277 334
#     4  11  23  37  56  84 116 151 188 226 279 341
#
# _framework density 18.915056
#
# number of rings (size 3 to 8) (size 9 to 14) (size 15 to 20)
#    0.000    2.000    1.250    2.250    0.000    4.750 
#    0.000    0.625    0.000    0.750    0.000    0.000 
#    0.000    0.000    0.000    0.000    0.000    0.000 
#
# Total GULP energy -357311.750825 kJ/mol
# GULP energy per Si atom -5582.996107 kJ/mol
# Density = 1.887200 g / cm^3
# Si number density = 18.915056 Si / 1000 Ang^3
#
#
#
# Elastic Constant Matrix: (Units=GPa)
#
#
# Indices 1 2 3 4 5 6 
#
# 1 24.7760 17.7405 21.7055 0.0000 0.0000 0.0000
# 2 17.7405 67.1622 26.9528 0.0000 0.0000 0.0000
# 3 21.7055 26.9528 85.5012 0.0000 0.0000 0.0000
# 4 0.0000 0.0000 0.0000 54.3449 0.0000 0.0000
# 5 0.0000 0.0000 0.0000 0.0000 22.3175 0.0000
# 6 0.0000 0.0000 0.0000 0.0000 0.0000 20.5666
#
#
#
# Elastic Compliance Matrix: (Units=1/GPa)
#
#
# Indices 1 2 3 4 5 6 
#
# 1 0.058000 -0.010775 -0.011328 0.000000 0.000000 0.000000
# 2 -0.010775 0.019047 -0.003269 0.000000 0.000000 0.000000
# 3 -0.011328 -0.003269 0.015602 0.000000 0.000000 0.000000
# 4 0.000000 0.000000 0.000000 0.018401 0.000000 0.000000
# 5 0.000000 0.000000 0.000000 0.000000 0.044808 0.000000
# 6 0.000000 0.000000 0.000000 0.000000 0.000000 0.048623
#
#
# Mechanical properties :
#
#
# Convention : Reuss Voigt Hill
#
# Bulk Modulus (GPa) = 23.86234 34.47078 29.16656
# Shear Modulus (GPa) = 18.57406 26.84849 22.71128
#
# Velocity S-wave (km/s) = 3.13704 3.77161 3.46887
# Velocity P-wave (km/s) = 5.07585 6.10166 5.61225
#
# Compressibility (1/GPa) = 0.04190705
#
# Stress axis : x y z
#
# Youngs Moduli (GPa) = 17.24127 52.50086 64.09478
#
# Poissons Ratio (x) = 0.56568 0.72604
# Poissons Ratio (y) = 0.18577 0.20953
# Poissons Ratio (z) = 0.19530 0.17163
#
# Static dielectric constant tensor:
#      x y z
#    x 1.635190 0.000000 0.000000 
#    y 0.000000 1.668390 0.000000 
#    z 0.000000 0.000000 1.646540 
# 
# From -- ./inp_files/15030.got.cif
#   From: 2010.05.17/outbox.cif.g08.bks.cpg/sg59_8_cif.got.tgz:15030.got - 2010.06.03 14:40:33.
