data_PCOD9446863
_publ_section_title
;
Structure prediction by ZEFSAII (Michael W. Deem and Ramdas Pophale) SiO2 
 PCOD9446863
Probable space group: P M M N
;
_chemical_formula_sum "Si O2"
_cell_formula_units_Z 48
_cell_length_a 32.939811
_cell_length_b 9.128550
_cell_length_c 7.554210
_cell_angle_alpha 90.000000
_cell_angle_beta 90.000000
_cell_angle_gamma 90.000000
_cell_volume 2271.495890
_symmetry_space_group_name_H-M "P M M N"
_symmetry_group_IT_number 59
_space_group.IT_coordinate_system_code '2'
_symmetry_cell_setting 'orthorhombic'
loop_
_space_group_symop_operation_xyz
x,y,z
1/2-x,1/2-y,z
1/2+x,-y,-z
-x,1/2+y,-z
-x,-y,-z
1/2+x,1/2+y,-z
1/2-x,y,z
x,1/2-y,z
loop_
_atom_site_type_symbol
_atom_site_label
_atom_site_fract_x
_atom_site_fract_y
_atom_site_fract_z
Si Si1 0.250000 0.070130 0.653762
Si Si2 0.330612 0.083419 0.244232
Si Si3 0.505716 0.571926 0.805541
Si Si4 0.250000 0.575131 0.265220
Si Si5 0.413759 0.917180 0.172098
Si Si6 0.580722 0.085044 0.253536
Si Si7 0.162568 0.413881 0.669096
O O1 0.250000 0.250000 0.624002
O O2 0.293503 0.034594 0.742567
O O3 0.250000 0.980059 0.470002
O O4 0.329913 0.250000 0.177286
O O5 0.330362 0.091167 0.458024
O O6 0.290865 0.994692 0.186646
O O7 0.371706 0.000327 0.198274
O O8 0.507200 0.750000 0.816684
O O9 0.548594 0.505902 0.744150
O O10 0.464628 0.529428 0.700021
O O11 0.500000 0.500000 0.000000
O O12 0.250000 0.750000 0.255749
O O13 0.412430 0.750000 0.237319
O O14 0.419699 0.910704 0.960307
O O15 0.584216 0.250000 0.321711
O O16 0.621415 0.001425 0.302910
O O17 0.155521 0.250000 0.736172
#
# Coordination Sequence:
#
# PCOD9446863 Si02
#       7
#     4   8   8   4   8   8   8
#     4   8  16  32  49  70  99 130 166 206 240 286
#     4  10  20  35  53  75 102 133 167 206 248 294
#     4   9  17  31  50  72  98 131 167 205 247 299
#     4  10  18  30  51  76  99 130 168 204 244 296
#     4  10  20  34  52  76 101 130 169 211 250 296
#     4   9  19  33  50  74 103 129 161 204 250 297
#     4   9  18  32  52  74  98 129 167 205 245 293
#
# _framework density 21.131450999999998
#
# number of rings (size 3 to 8) (size 9 to 14) (size 15 to 20)
#    0.000    2.667    0.000    4.250    0.000    7.333 
#    0.000    1.667    0.000    4.000    0.000    0.000 
#    0.000    0.000    0.000    0.000    0.000    0.000 
#
# Total GULP energy -267552.281484 kJ/mol
# GULP energy per Si atom -5574.005864 kJ/mol
# Density = 2.108335 g / cm^3
# Si number density = 21.131451 Si / 1000 Ang^3
#
#
#
# Elastic Constant Matrix: (Units=GPa)
#
#
# Indices 1 2 3 4 5 6 
#
# 1 263.6038 112.3041 -2.8736 0.0000 0.0000 0.0000
# 2 112.3041 133.7016 3.7446 0.0000 0.0000 0.0000
# 3 -2.8736 3.7446 34.9771 0.0000 0.0000 0.0000
# 4 0.0000 0.0000 0.0000 15.8993 0.0000 0.0000
# 5 0.0000 0.0000 0.0000 0.0000 29.8057 0.0000
# 6 0.0000 0.0000 0.0000 0.0000 0.0000 44.6742
#
#
#
# Elastic Compliance Matrix: (Units=1/GPa)
#
#
# Indices 1 2 3 4 5 6 
#
# 1 0.005944 -0.005022 0.001026 0.000000 0.000000 0.000000
# 2 -0.005022 0.011744 -0.001670 0.000000 0.000000 0.000000
# 3 0.001026 -0.001670 0.028853 0.000000 0.000000 0.000000
# 4 0.000000 0.000000 0.000000 0.062896 0.000000 0.000000
# 5 0.000000 0.000000 0.000000 0.000000 0.033551 0.000000
# 6 0.000000 0.000000 0.000000 0.000000 0.000000 0.022384
#
#
# Mechanical properties :
#
#
# Convention : Reuss Voigt Hill
#
# Bulk Modulus (GPa) = 28.40071 73.18141 50.79106
# Shear Modulus (GPa) = 26.53370 39.34968 32.94169
#
# Velocity S-wave (km/s) = 3.54736 4.31993 3.95257
# Velocity P-wave (km/s) = 5.49978 7.71940 6.70211
#
# Compressibility (1/GPa) = 0.03521039
#
# Stress axis : x y z
#
# Youngs Moduli (GPa) = 168.23385 85.14973 34.65822
#
# Poissons Ratio (x) = 0.42758 -0.03556
# Poissons Ratio (y) = 0.84479 0.05787
# Poissons Ratio (z) = -0.17260 0.14219
#
# Static dielectric constant tensor:
#      x y z
#    x 1.832710 0.000000 0.000000 
#    y 0.000000 1.722950 0.000000 
#    z 0.000000 0.000000 1.836040 
# 
# From -- ./inp_files/13073.got.cif
#   From: 2010.05.17/outbox.cif.g08.bks.cpg/sg59_7_cif.got.tgz:13073.got - 2010.06.03 14:40:33.
