data_PCOD9446380
_publ_section_title
;
Structure prediction by ZEFSAII (Michael W. Deem and Ramdas Pophale) SiO2 
 PCOD9446380
Probable space group: P M M N
;
_chemical_formula_sum "Si O2"
_cell_formula_units_Z 64
_cell_length_a 7.413914
_cell_length_b 31.035256
_cell_length_c 15.450084
_cell_angle_alpha 90.000000
_cell_angle_beta 90.000000
_cell_angle_gamma 90.000000
_cell_volume 3554.951836
_symmetry_space_group_name_H-M "P M M N"
_symmetry_group_IT_number 59
_space_group.IT_coordinate_system_code '2'
_symmetry_cell_setting 'orthorhombic'
loop_
_space_group_symop_operation_xyz
x,y,z
1/2-x,1/2-y,z
1/2+x,-y,-z
-x,1/2+y,-z
-x,-y,-z
1/2+x,1/2+y,-z
1/2-x,y,z
x,1/2-y,z
loop_
_atom_site_type_symbol
_atom_site_label
_atom_site_fract_x
_atom_site_fract_y
_atom_site_fract_z
Si Si1 0.469311 0.297609 0.004441
Si Si2 0.537494 0.890766 0.035252
Si Si3 0.037525 0.528501 0.371289
Si Si4 0.530754 0.702606 0.792740
Si Si5 0.467293 0.438173 0.450125
Si Si6 0.470072 0.444892 0.129873
Si Si7 0.970023 0.885099 0.709022
Si Si8 0.467548 0.539721 0.177471
O O1 0.250000 0.296222 0.999228
O O2 0.532052 0.250000 0.975277
O O3 0.516442 0.302327 0.106115
O O4 0.532661 0.341778 0.959879
O O5 0.750000 0.886156 0.017155
O O6 0.518170 0.919340 0.120466
O O7 0.465438 0.918367 0.953705
O O8 0.250000 0.521136 0.358934
O O9 0.964391 0.483283 0.408720
O O10 0.967079 0.540707 0.276885
O O11 0.016845 0.562315 0.449177
O O12 0.750000 0.702236 0.790306
O O13 0.471373 0.750000 0.763548
O O14 0.467776 0.661916 0.738190
O O15 0.250000 0.439032 0.447877
O O16 0.528142 0.400882 0.385367
O O17 0.250000 0.445417 0.127929
O O18 0.521840 0.419707 0.217368
O O19 0.529017 0.494557 0.134717
O O20 0.750000 0.884609 0.709332
O O21 0.250000 0.538694 0.178101
#
# Coordination Sequence:
#
# PCOD9446380 Si02
#       8
#     8   8   8   8   8   8   8   8
#     4   8  13  22  37  59  85 108 132 167 208 243
#     4  10  18  27  42  63  84 110 142 173 202 237
#     4   9  17  29  42  57  78 106 138 171 205 240
#     4   8  12  18  32  57  86 110 132 162 198 240
#     4   9  16  26  43  62  79 103 135 169 205 242
#     4   9  15  25  39  57  83 115 144 165 192 239
#     4   9  13  21  38  59  83 111 138 161 196 247
#     4  10  19  30  42  56  82 117 146 171 204 243
#
# _framework density 18.003056000000001
#
# number of rings (size 3 to 8) (size 9 to 14) (size 15 to 20)
#    0.000    3.000    2.500    1.125    0.000    0.500 
#    0.000    0.000    0.000    1.125    0.000    0.875 
#    0.000    5.500    0.000    0.000    0.000    0.000 
#
# Total GULP energy -356769.437227 kJ/mol
# GULP energy per Si atom -5574.522457 kJ/mol
# Density = 1.796208 g / cm^3
# Si number density = 18.003056 Si / 1000 Ang^3
#
#
#
# Elastic Constant Matrix: (Units=GPa)
#
#
# Indices 1 2 3 4 5 6 
#
# 1 54.6026 1.4462 -3.1002 0.0000 0.0000 0.0000
# 2 1.4462 170.3588 71.5759 0.0000 0.0000 0.0000
# 3 -3.1002 71.5759 95.6887 0.0000 0.0000 0.0000
# 4 0.0000 0.0000 0.0000 23.0875 0.0000 0.0000
# 5 0.0000 0.0000 0.0000 0.0000 2.0314 0.0000
# 6 0.0000 0.0000 0.0000 0.0000 0.0000 4.3138
#
#
#
# Elastic Compliance Matrix: (Units=1/GPa)
#
#
# Indices 1 2 3 4 5 6 
#
# 1 0.018389 -0.000593 0.001039 0.000000 0.000000 0.000000
# 2 -0.000593 0.008579 -0.006437 0.000000 0.000000 0.000000
# 3 0.001039 -0.006437 0.015299 0.000000 0.000000 0.000000
# 4 0.000000 0.000000 0.000000 0.043313 0.000000 0.000000
# 5 0.000000 0.000000 0.000000 0.000000 0.492283 0.000000
# 6 0.000000 0.000000 0.000000 0.000000 0.000000 0.231816
#
#
# Mechanical properties :
#
#
# Convention : Reuss Voigt Hill
#
# Bulk Modulus (GPa) = 33.01786 51.16599 42.09192
# Shear Modulus (GPa) = 6.01139 22.60174 14.30656
#
# Velocity S-wave (km/s) = 1.82930 3.54706 2.82205
# Velocity P-wave (km/s) = 4.77930 6.72740 5.83522
#
# Compressibility (1/GPa) = 0.03028664
#
# Stress axis : x y z
#
# Youngs Moduli (GPa) = 54.38083 116.55941 65.36445
#
# Poissons Ratio (x) = 0.06908 -0.06792
# Poissons Ratio (y) = 0.03223 0.42072
# Poissons Ratio (z) = -0.05651 0.75025
#
# Static dielectric constant tensor:
#      x y z
#    x 1.720820 0.000000 0.000000 
#    y 0.000000 1.630220 0.000000 
#    z 0.000000 0.000000 1.600150 
# 
# From -- ./inp_files/21900.got.cif
#   From: 2010.05.17/outbox.cif.g08.bks.cpg/sg59_11_cif.got.tgz:21900.got - 2010.06.03 14:40:33.
