data_PCOD9446825
_publ_section_title
;
Structure prediction by ZEFSAII (Michael W. Deem and Ramdas Pophale) SiO2 
 PCOD9446825
Probable space group: P M M N
;
_chemical_formula_sum "Si O2"
_cell_formula_units_Z 64
_cell_length_a 18.512685
_cell_length_b 7.349407
_cell_length_c 20.826895
_cell_angle_alpha 90.000000
_cell_angle_beta 90.000000
_cell_angle_gamma 90.000000
_cell_volume 2833.650200
_symmetry_space_group_name_H-M "P M M N"
_symmetry_group_IT_number 59
_space_group.IT_coordinate_system_code '2'
_symmetry_cell_setting 'orthorhombic'
loop_
_space_group_symop_operation_xyz
x,y,z
1/2-x,1/2-y,z
1/2+x,-y,-z
-x,1/2+y,-z
-x,-y,-z
1/2+x,1/2+y,-z
1/2-x,y,z
x,1/2-y,z
loop_
_atom_site_type_symbol
_atom_site_label
_atom_site_fract_x
_atom_site_fract_y
_atom_site_fract_z
Si Si1 0.668204 0.971936 0.909096
Si Si2 0.903131 0.541344 0.173229
Si Si3 0.420609 0.032353 0.970439
Si Si4 0.934961 0.970372 0.792554
Si Si5 0.830027 0.527551 0.680587
Si Si6 0.437442 0.028990 0.585356
Si Si7 0.898512 0.960148 0.554278
Si Si8 0.668185 0.972378 0.300808
O O1 0.750000 0.030728 0.897209
O O2 0.668424 0.750000 0.908714
O O3 0.612610 0.027056 0.853818
O O4 0.637608 0.032258 0.977713
O O5 0.878822 0.750000 0.165055
O O6 0.908920 0.460412 0.101643
O O7 0.853599 0.462958 0.229606
O O8 0.984260 0.539956 0.201039
O O9 0.414147 0.250000 0.966551
O O10 0.500000 0.000000 0.000000
O O11 0.938808 0.750000 0.792478
O O12 0.892188 0.029963 0.729409
O O13 0.750000 0.474547 0.702183
O O14 0.831763 0.750000 0.680245
O O15 0.846693 0.462782 0.608727
O O16 0.439080 0.250000 0.584562
O O17 0.403516 0.964347 0.517569
O O18 0.390328 0.970061 0.646050
O O19 0.520539 0.967895 0.583644
O O20 0.877348 0.750000 0.546199
O O21 0.750000 0.024666 0.317247
O O22 0.665680 0.750000 0.300161
#
# Coordination Sequence:
#
# PCOD9446825 Si02
#       8
#     8   8   8   8   8   8   8   8
#     4   9  17  29  47  71  94 118 153 192 229 274
#     4  10  20  32  50  73  96 123 156 197 239 279
#     4  10  19  32  50  72  96 123 155 194 237 282
#     4  10  18  30  50  71  93 125 158 191 233 282
#     4   9  17  28  44  69  97 121 152 196 237 272
#     4   9  17  30  49  70  93 125 161 197 236 282
#     4   9  17  29  47  71  96 123 158 198 240 282
#     4   9  18  32  49  71  98 127 162 202 242 283
#
# _framework density 22.585708
#
# number of rings (size 3 to 8) (size 9 to 14) (size 15 to 20)
#    0.000    2.625    1.250    1.125    0.000    2.500 
#    0.000    5.000    0.000    5.250    0.000    5.250 
#    0.000    0.000    0.000    0.000    0.000    0.000 
#
# Total GULP energy -357485.658541 kJ/mol
# GULP energy per Si atom -5585.713415 kJ/mol
# Density = 2.253430 g / cm^3
# Si number density = 22.585708 Si / 1000 Ang^3
#
#
#
# Elastic Constant Matrix: (Units=GPa)
#
#
# Indices 1 2 3 4 5 6 
#
# 1 33.8882 -13.0756 6.0748 0.0000 0.0000 0.0000
# 2 -13.0756 86.8131 -1.0183 0.0000 0.0000 0.0000
# 3 6.0748 -1.0183 111.2439 0.0000 0.0000 0.0000
# 4 0.0000 0.0000 0.0000 -1.1754 0.0000 0.0000
# 5 0.0000 0.0000 0.0000 0.0000 0.5192 0.0000
# 6 0.0000 0.0000 0.0000 0.0000 0.0000 12.5443
#
#
#
# Elastic Compliance Matrix: (Units=1/GPa)
#
#
# Indices 1 2 3 4 5 6 
#
# 1 0.031642 0.004746 -0.001684 0.000000 0.000000 0.000000
# 2 0.004746 0.012232 -0.000147 0.000000 0.000000 0.000000
# 3 -0.001684 -0.000147 0.009080 0.000000 0.000000 0.000000
# 4 0.000000 0.000000 0.000000 -0.850798 0.000000 0.000000
# 5 0.000000 0.000000 0.000000 0.000000 1.926038 0.000000
# 6 0.000000 0.000000 0.000000 0.000000 0.000000 0.079718
#
#
# Mechanical properties :
#
#
# Convention : Reuss Voigt Hill
#
# Bulk Modulus (GPa) = 17.01177 23.98966 20.50071
# Shear Modulus (GPa) = 4.09274 18.37524 11.23399
#
# Velocity S-wave (km/s) = 1.34760 2.85542 2.23265
# Velocity P-wave (km/s) = 3.15750 4.63853 3.96773
#
# Compressibility (1/GPa) = 0.05878283
#
# Stress axis : x y z
#
# Youngs Moduli (GPa) = 31.60359 81.75204 110.13341
#
# Poissons Ratio (x) = -0.38800 0.18551
# Poissons Ratio (y) = -0.14999 0.01621
# Poissons Ratio (z) = 0.05323 0.01203
#
# Static dielectric constant tensor:
#      x y z
#    x 1.773770 0.000000 0.000000 
#    y 0.000000 1.869530 0.000000 
#    z 0.000000 0.000000 1.837850 
# 
# From -- ./inp_files/30765.got.cif
#   From: 2010.05.17/outbox.cif.g08.bks.cpg/sg59_16_cif.got.tgz:30765.got - 2010.06.03 14:40:33.
