data_PCOD9446003
_publ_section_title
;
Structure prediction by ZEFSAII (Michael W. Deem and Ramdas Pophale) SiO2 
 PCOD9446003
Probable space group: P N N M
;
_chemical_formula_sum "Si O2"
_cell_formula_units_Z 56
_cell_length_a 21.000000
_cell_length_b 15.000000
_cell_length_c 9.000000
_cell_angle_alpha 90.000000
_cell_angle_beta 90.000000
_cell_angle_gamma 90.000000
_cell_volume 2835.000000
_symmetry_space_group_name_H-M "P N N M"
_symmetry_group_IT_number 58
_symmetry_cell_setting 'orthorhombic'
loop_
_space_group_symop_operation_xyz
x,y,z
-x,-y,z
1/2+x,1/2-y,1/2-z
1/2-x,1/2+y,1/2-z
-x,-y,-z
x,y,-z
1/2-x,1/2+y,1/2+z
1/2+x,1/2-y,1/2+z
loop_
_atom_site_type_symbol
_atom_site_label
_atom_site_fract_x
_atom_site_fract_y
_atom_site_fract_z
Si Si1 0.046176 0.083196 0.825070
Si Si2 0.018465 0.271167 0.679149
Si Si3 0.135391 0.962163 0.672364
Si Si4 0.756903 0.507376 0.674679
Si Si5 0.385341 0.264079 0.820489
Si Si6 0.751523 0.795627 0.821950
Si Si7 0.850611 0.659649 0.322900
O O1 0.034620 0.171647 0.733018
O O2 0.113335 0.041601 0.777854
O O3 0.041910 0.101356 0.000000
O O4 0.000000 0.000000 0.788243
O O5 0.016459 0.272306 0.500000
O O6 0.076738 0.331801 0.729636
O O7 0.946698 0.290286 0.732245
O O8 0.123825 0.983161 0.500000
O O9 0.208695 0.948031 0.709761
O O10 0.102718 0.868376 0.709802
O O11 0.739429 0.522517 0.500000
O O12 0.753046 0.401965 0.701607
O O13 0.822066 0.561125 0.699039
O O14 0.316549 0.238730 0.762167
O O15 0.381219 0.255371 0.000000
O O16 0.807492 0.737457 0.749411
O O17 0.756020 0.782098 0.000000
O O18 0.849381 0.676298 0.500000
#
# Coordination Sequence:
#
# PCOD9446003 Si02
#       7
#     8   8   8   8   8   8   8
#     4  11  22  33  48  76 111 141 173 217 275 332
#     4  10  20  36  55  76 108 145 184 225 269 326
#     4  11  20  33  55  78 104 141 183 223 268 322
#     4  10  21  36  55  81 113 141 177 230 282 324
#     4   9  18  33  54  78 102 137 182 223 260 314
#     4  10  20  37  58  79 107 146 186 224 270 328
#     4  10  21  36  55  82 112 142 177 227 281 326
#
# _framework density 19.753086
#
# number of rings (size 3 to 8) (size 9 to 14) (size 15 to 20)
#    0.000    1.857    2.857    1.714    0.000    4.000 
#    0.000    1.429    0.000    4.286    0.000    0.000 
#    0.000    4.571    0.000    0.000    0.000    0.000 
#
# Total GULP energy -312003.143742 kJ/mol
# GULP energy per Si atom -5571.484710 kJ/mol
# Density = 1.970813 g / cm^3
# Si number density = 19.753086 Si / 1000 Ang^3
#
#
#
# Elastic Constant Matrix: (Units=GPa)
#
#
# Indices 1 2 3 4 5 6 
#
# 1 66.8081 -2.2344 -7.9793 0.0000 0.0000 0.0000
# 2 -2.2344 27.5532 10.1676 0.0000 0.0000 0.0000
# 3 -7.9793 10.1676 -27.4336 0.0000 0.0000 0.0000
# 4 0.0000 0.0000 0.0000 17.8132 0.0000 0.0000
# 5 0.0000 0.0000 0.0000 0.0000 18.9517 0.0000
# 6 0.0000 0.0000 0.0000 0.0000 0.0000 24.4991
#
#
#
# Elastic Compliance Matrix: (Units=1/GPa)
#
#
# Indices 1 2 3 4 5 6 
#
# 1 0.014648 0.002428 -0.003361 0.000000 0.000000 0.000000
# 2 0.002428 0.032329 0.011276 0.000000 0.000000 0.000000
# 3 -0.003361 0.011276 -0.031295 0.000000 0.000000 0.000000
# 4 0.000000 0.000000 0.000000 0.056138 0.000000 0.000000
# 5 0.000000 0.000000 0.000000 0.000000 0.052766 0.000000
# 6 0.000000 0.000000 0.000000 0.000000 0.000000 0.040818
#
#
# Mechanical properties :
#
#
# Convention : Reuss Voigt Hill
#
# Bulk Modulus (GPa) = 27.49598 7.42616 17.46107
# Shear Modulus (GPa) = 31.87953 16.71772 24.29862
#
# Velocity S-wave (km/s) = 4.02170 2.91234 3.51111
# Velocity P-wave (km/s) = 5.95948 3.88286 5.02952
#
# Compressibility (1/GPa) = 0.03636896
#
# Stress axis : x y z
#
# Youngs Moduli (GPa) = 68.26834 30.93165 -31.95396
#
# Poissons Ratio (x) = -0.07510 -0.10739
# Poissons Ratio (y) = -0.16576 0.36031
# Poissons Ratio (z) = 0.22943 -0.34878
#
# Static dielectric constant tensor:
#      x y z
#    x 1.816760 0.000000 0.000000 
#    y 0.000000 1.696370 0.000000 
#    z 0.000000 0.000000 1.668900 
# 
# From -- ./inp_files/6287.got.cif
#   From: 2010.05.17/outbox.ucp.g08.bks.cvg/sg58_4_cif.got.tgz:6287.got - 2010.06.11 16:41:41.
