data_PCOD9446745
_publ_section_title
;
Structure prediction by ZEFSAII (Michael W. Deem and Ramdas Pophale) SiO2 
 PCOD9446745
Probable space group: P M M N
;
_chemical_formula_sum "Si O2"
_cell_formula_units_Z 56
_cell_length_a 13.519422
_cell_length_b 26.849449
_cell_length_c 9.302356
_cell_angle_alpha 90.000000
_cell_angle_beta 90.000000
_cell_angle_gamma 90.000000
_cell_volume 3376.653195
_symmetry_space_group_name_H-M "P M M N"
_symmetry_group_IT_number 59
_space_group.IT_coordinate_system_code '2'
_symmetry_cell_setting 'orthorhombic'
loop_
_space_group_symop_operation_xyz
x,y,z
1/2-x,1/2-y,z
1/2+x,-y,-z
-x,1/2+y,-z
-x,-y,-z
1/2+x,1/2+y,-z
1/2-x,y,z
x,1/2-y,z
loop_
_atom_site_type_symbol
_atom_site_label
_atom_site_fract_x
_atom_site_fract_y
_atom_site_fract_z
Si Si1 0.867420 0.034325 0.083419
Si Si2 0.526849 0.604993 0.405659
Si Si3 0.866417 0.060658 0.759282
Si Si4 0.130995 0.191746 0.425249
Si Si5 0.132046 0.080443 0.885496
Si Si6 0.457254 0.453334 0.301853
Si Si7 0.364648 0.136820 0.148632
O O1 0.750000 0.038250 0.120127
O O2 0.941875 0.051010 0.208595
O O3 0.890303 0.975447 0.060094
O O4 0.883353 0.061981 0.931623
O O5 0.419847 0.603979 0.330041
O O6 0.570189 0.656237 0.468156
O O7 0.595554 0.586394 0.275692
O O8 0.526822 0.566313 0.537586
O O9 0.750000 0.059112 0.734980
O O10 0.915626 0.008852 0.707855
O O11 0.250000 0.180912 0.436151
O O12 0.117262 0.250000 0.452429
O O13 0.097383 0.177237 0.262500
O O14 0.250000 0.084351 0.887839
O O15 0.092031 0.123290 0.992590
O O16 0.377891 0.415465 0.232360
O O17 0.250000 0.149231 0.127304
#
# Coordination Sequence:
#
# PCOD9446745 Si02
#       7
#     8   8   8   8   8   8   8
#     4  10  20  32  48  68 100 145 184 216 242 281
#     4  11  22  32  48  76 105 139 165 208 258 307
#     4  11  21  32  46  69 103 141 179 213 244 289
#     4   9  19  37  57  75  97 126 164 211 261 311
#     4  10  18  30  47  72 102 136 175 208 247 296
#     4  11  19  32  46  70 102 141 176 204 243 296
#     4   9  17  30  51  72  94 129 171 209 246 293
#
# _framework density 16.584468000000001
#
# number of rings (size 3 to 8) (size 9 to 14) (size 15 to 20)
#    0.000    1.857    2.857    2.571    0.000    2.286 
#    0.000    0.714    0.000    3.000    0.000    0.000 
#    0.000    4.571    0.000    0.000    0.000    0.000 
#
# Total GULP energy -312022.283256 kJ/mol
# GULP energy per Si atom -5571.826487 kJ/mol
# Density = 1.654672 g / cm^3
# Si number density = 16.584468 Si / 1000 Ang^3
#
#
#
# Elastic Constant Matrix: (Units=GPa)
#
#
# Indices 1 2 3 4 5 6 
#
# 1 69.7811 32.6879 35.9349 0.0000 0.0000 0.0000
# 2 32.6879 66.4629 39.6778 0.0000 0.0000 0.0000
# 3 35.9349 39.6778 123.3009 0.0000 0.0000 0.0000
# 4 0.0000 0.0000 0.0000 15.7793 0.0000 0.0000
# 5 0.0000 0.0000 0.0000 0.0000 27.8045 0.0000
# 6 0.0000 0.0000 0.0000 0.0000 0.0000 17.7041
#
#
#
# Elastic Compliance Matrix: (Units=1/GPa)
#
#
# Indices 1 2 3 4 5 6 
#
# 1 0.019609 -0.007714 -0.003232 0.000000 0.000000 0.000000
# 2 -0.007714 0.021659 -0.004721 0.000000 0.000000 0.000000
# 3 -0.003232 -0.004721 0.010572 0.000000 0.000000 0.000000
# 4 0.000000 0.000000 0.000000 0.063374 0.000000 0.000000
# 5 0.000000 0.000000 0.000000 0.000000 0.035965 0.000000
# 6 0.000000 0.000000 0.000000 0.000000 0.000000 0.056484
#
#
# Mechanical properties :
#
#
# Convention : Reuss Voigt Hill
#
# Bulk Modulus (GPa) = 48.77366 52.90513 50.83939
# Shear Modulus (GPa) = 20.33899 22.34053 21.33976
#
# Velocity S-wave (km/s) = 3.50578 3.67423 3.59100
# Velocity P-wave (km/s) = 6.77203 7.06892 6.92207
#
# Compressibility (1/GPa) = 0.02050287
#
# Stress axis : x y z
#
# Youngs Moduli (GPa) = 50.99775 46.17078 94.59289
#
# Poissons Ratio (x) = 0.35618 0.30575
# Poissons Ratio (y) = 0.39341 0.44662
# Poissons Ratio (z) = 0.16484 0.21799
#
# Static dielectric constant tensor:
#      x y z
#    x 1.596220 0.000000 0.000000 
#    y 0.000000 1.539990 0.000000 
#    z 0.000000 0.000000 1.601790 
# 
# From -- ./inp_files/9712.got.cif
#   From: 2010.05.17/outbox.cif.g08.bks.cpg/sg59_5_cif.got.tgz:9712.got - 2010.06.03 14:40:33.
