data_PCOD9446421
_publ_section_title
;
Structure prediction by ZEFSAII (Michael W. Deem and Ramdas Pophale) SiO2 
 PCOD9446421
Probable space group: P M M N
;
_chemical_formula_sum "Si O2"
_cell_formula_units_Z 64
_cell_length_a 18.124719
_cell_length_b 17.140880
_cell_length_c 11.537426
_cell_angle_alpha 90.000000
_cell_angle_beta 90.000000
_cell_angle_gamma 90.000000
_cell_volume 3584.374056
_symmetry_space_group_name_H-M "P M M N"
_symmetry_group_IT_number 59
_space_group.IT_coordinate_system_code '2'
_symmetry_cell_setting 'orthorhombic'
loop_
_space_group_symop_operation_xyz
x,y,z
1/2-x,1/2-y,z
1/2+x,-y,-z
-x,1/2+y,-z
-x,-y,-z
1/2+x,1/2+y,-z
1/2-x,y,z
x,1/2-y,z
loop_
_atom_site_type_symbol
_atom_site_label
_atom_site_fract_x
_atom_site_fract_y
_atom_site_fract_z
Si Si1 0.663059 0.335138 0.197363
Si Si2 0.961395 0.159774 0.502199
Si Si3 0.417747 0.409937 0.928132
Si Si4 0.162387 0.555568 0.580430
Si Si5 0.939469 0.407745 0.041713
Si Si6 0.662406 0.842228 0.852490
Si Si7 0.032120 0.415048 0.275995
Si Si8 0.558300 0.568978 0.328512
O O1 0.750000 0.330109 0.189072
O O2 0.633871 0.250000 0.234473
O O3 0.650608 0.401280 0.294550
O O4 0.631132 0.357771 0.072591
O O5 0.943330 0.250000 0.502130
O O6 0.886349 0.108702 0.504973
O O7 0.004208 0.135195 0.384311
O O8 0.016583 0.136822 0.605037
O O9 0.418039 0.501318 0.966610
O O10 0.403043 0.407628 0.791944
O O11 0.503552 0.384787 0.942849
O O12 0.366498 0.364395 0.018058
O O13 0.250000 0.551206 0.558008
O O14 0.119870 0.473724 0.592578
O O15 0.987234 0.395479 0.158978
O O16 0.750000 0.855319 0.844251
O O17 0.647465 0.750000 0.832302
O O18 0.615317 0.894379 0.761601
O O19 0.004924 0.503004 0.303342
#
# Coordination Sequence:
#
# PCOD9446421 Si02
#       8
#     8   8   8   8   8   8   8   8
#     4  10  18  27  45  78 109 128 160 215 277 327
#     4  11  21  34  56  81 110 145 182 228 273 320
#     4   9  18  32  51  71 101 138 177 213 252 313
#     4  10  19  33  55  81 108 139 175 226 281 325
#     4   9  16  30  50  73  98 132 168 212 262 314
#     4  10  21  34  52  80 108 136 174 224 277 318
#     4   9  17  34  55  74 101 134 176 228 267 311
#     4  10  20  37  55  79 108 143 191 216 257 327
#
# _framework density 17.85528
#
# number of rings (size 3 to 8) (size 9 to 14) (size 15 to 20)
#    0.000    2.250    3.750    3.000    0.000    4.250 
#    0.000    2.500    0.000    1.875    0.000    0.000 
#    0.000    0.000    0.000    0.000    0.000    0.000 
#
# Total GULP energy -356362.038828 kJ/mol
# GULP energy per Si atom -5568.156857 kJ/mol
# Density = 1.781464 g / cm^3
# Si number density = 17.855280 Si / 1000 Ang^3
#
#
#
# Elastic Constant Matrix: (Units=GPa)
#
#
# Indices 1 2 3 4 5 6 
#
# 1 81.5112 10.1847 12.1670 0.0000 0.0000 0.0000
# 2 10.1847 12.5892 4.3772 0.0000 0.0000 0.0000
# 3 12.1670 4.3772 23.3033 0.0000 0.0000 0.0000
# 4 0.0000 0.0000 0.0000 16.5437 0.0000 0.0000
# 5 0.0000 0.0000 0.0000 0.0000 22.8686 0.0000
# 6 0.0000 0.0000 0.0000 0.0000 0.0000 18.2899
#
#
#
# Elastic Compliance Matrix: (Units=1/GPa)
#
#
# Indices 1 2 3 4 5 6 
#
# 1 0.014315 -0.009610 -0.005669 0.000000 0.000000 0.000000
# 2 -0.009610 0.091435 -0.012157 0.000000 0.000000 0.000000
# 3 -0.005669 -0.012157 0.048156 0.000000 0.000000 0.000000
# 4 0.000000 0.000000 0.000000 0.060446 0.000000 0.000000
# 5 0.000000 0.000000 0.000000 0.000000 0.043728 0.000000
# 6 0.000000 0.000000 0.000000 0.000000 0.000000 0.054675
#
#
# Mechanical properties :
#
#
# Convention : Reuss Voigt Hill
#
# Bulk Modulus (GPa) = 10.09760 18.98460 14.54110
# Shear Modulus (GPa) = 12.48010 17.58545 15.03277
#
# Velocity S-wave (km/s) = 2.64665 3.14170 2.90474
# Velocity P-wave (km/s) = 3.87391 4.88015 4.40585
#
# Compressibility (1/GPa) = 0.09903346
#
# Stress axis : x y z
#
# Youngs Moduli (GPa) = 69.85579 10.93677 20.76595
#
# Poissons Ratio (x) = 0.10510 0.11772
# Poissons Ratio (y) = 0.67131 0.25245
# Poissons Ratio (z) = 0.39602 0.13296
#
# Static dielectric constant tensor:
#      x y z
#    x 1.648430 0.000000 0.000000 
#    y 0.000000 1.639450 0.000000 
#    z 0.000000 0.000000 1.637790 
# 
# From -- ./inp_files/17940.got.cif
#   From: 2010.05.17/outbox.cif.g08.bks.cpg/sg59_9_cif.got.tgz:17940.got - 2010.06.03 14:40:33.
