data_PCOD9446833
_publ_section_title
;
Structure prediction by ZEFSAII (Michael W. Deem and Ramdas Pophale) SiO2 
 PCOD9446833
Probable space group: P M M N
;
_chemical_formula_sum "Si O2"
_cell_formula_units_Z 64
_cell_length_a 9.052364
_cell_length_b 23.609664
_cell_length_c 19.556997
_cell_angle_alpha 90.000000
_cell_angle_beta 90.000000
_cell_angle_gamma 90.000000
_cell_volume 4179.785398
_symmetry_space_group_name_H-M "P M M N"
_symmetry_group_IT_number 59
_space_group.IT_coordinate_system_code '2'
_symmetry_cell_setting 'orthorhombic'
loop_
_space_group_symop_operation_xyz
x,y,z
1/2-x,1/2-y,z
1/2+x,-y,-z
-x,1/2+y,-z
-x,-y,-z
1/2+x,1/2+y,-z
1/2-x,y,z
x,1/2-y,z
loop_
_atom_site_type_symbol
_atom_site_label
_atom_site_fract_x
_atom_site_fract_y
_atom_site_fract_z
Si Si1 0.925240 0.981916 0.895344
Si Si2 0.426494 0.683695 0.109838
Si Si3 0.073434 0.130708 0.756305
Si Si4 0.927016 0.482038 0.396657
Si Si5 0.573998 0.087646 0.527556
Si Si6 0.074075 0.995730 0.756653
Si Si7 0.574339 0.912512 0.028618
Si Si8 0.072419 0.184097 0.609574
O O1 0.750000 0.992603 0.893698
O O2 0.986784 0.970181 0.820259
O O3 0.007113 0.037769 0.923998
O O4 0.953022 0.932722 0.950972
O O5 0.250000 0.677129 0.108575
O O6 0.462565 0.750000 0.103458
O O7 0.489414 0.659721 0.181225
O O8 0.499099 0.645601 0.050849
O O9 0.250000 0.138427 0.765794
O O10 0.044752 0.063446 0.754653
O O11 0.032105 0.158612 0.683903
O O12 0.750000 0.493046 0.398793
O O13 0.959427 0.431751 0.449865
O O14 0.966289 0.471859 0.317911
O O15 0.007911 0.537692 0.425110
O O16 0.750000 0.089644 0.535526
O O17 0.502564 0.145833 0.552016
O O18 0.250000 0.988477 0.767024
O O19 0.750000 0.909727 0.040031
O O20 0.250000 0.179386 0.603696
O O21 0.031948 0.250000 0.605847
#
# Coordination Sequence:
#
# PCOD9446833 Si02
#       8
#     8   8   8   8   8   8   8   8
#     4  10  20  32  49  72  98 122 154 199 241 280
#     4  11  23  35  48  69  97 128 162 202 240 272
#     4  10  19  32  49  68  93 130 170 197 224 274
#     4   9  18  33  49  67  95 127 159 193 236 290
#     4  10  19  30  48  71  94 123 158 202 244 275
#     4  10  18  30  50  72  96 128 161 192 232 285
#     4  10  20  34  50  69  93 127 162 193 234 283
#     4  10  20  34  50  66  92 132 169 199 234 279
#
# _framework density 15.311792000000001
#
# number of rings (size 3 to 8) (size 9 to 14) (size 15 to 20)
#    0.000    2.000    2.500    1.875    0.000    4.750 
#    0.000    0.000    0.000    0.000    0.000    0.875 
#    0.000    1.000    0.000    0.000    0.000    0.000 
#
# Total GULP energy -357128.603243 kJ/mol
# GULP energy per Si atom -5580.134426 kJ/mol
# Density = 1.527694 g / cm^3
# Si number density = 15.311792 Si / 1000 Ang^3
#
#
#
# Elastic Constant Matrix: (Units=GPa)
#
#
# Indices 1 2 3 4 5 6 
#
# 1 41.9112 40.6626 52.5221 0.0000 0.0000 0.0000
# 2 40.6626 76.1778 55.9722 0.0000 0.0000 0.0000
# 3 52.5221 55.9722 134.4006 0.0000 0.0000 0.0000
# 4 0.0000 0.0000 0.0000 19.9252 0.0000 0.0000
# 5 0.0000 0.0000 0.0000 0.0000 27.0202 0.0000
# 6 0.0000 0.0000 0.0000 0.0000 0.0000 23.9262
#
#
#
# Elastic Compliance Matrix: (Units=1/GPa)
#
#
# Indices 1 2 3 4 5 6 
#
# 1 0.067988 -0.024163 -0.016506 0.000000 0.000000 0.000000
# 2 -0.024163 0.027503 -0.002011 0.000000 0.000000 0.000000
# 3 -0.016506 -0.002011 0.014728 0.000000 0.000000 0.000000
# 4 0.000000 0.000000 0.000000 0.050188 0.000000 0.000000
# 5 0.000000 0.000000 0.000000 0.000000 0.037009 0.000000
# 6 0.000000 0.000000 0.000000 0.000000 0.000000 0.041795
#
#
# Mechanical properties :
#
#
# Convention : Reuss Voigt Hill
#
# Bulk Modulus (GPa) = 40.22719 61.20038 50.71379
# Shear Modulus (GPa) = 15.02137 21.06316 18.04227
#
# Velocity S-wave (km/s) = 3.13554 3.71295 3.43640
# Velocity P-wave (km/s) = 6.27996 7.64445 6.99555
#
# Compressibility (1/GPa) = 0.02485881
#
# Stress axis : x y z
#
# Youngs Moduli (GPa) = 14.70837 36.35987 67.89631
#
# Poissons Ratio (x) = 0.87857 1.12070
# Poissons Ratio (y) = 0.35540 0.13654
# Poissons Ratio (z) = 0.24278 0.07312
#
# Static dielectric constant tensor:
#      x y z
#    x 1.510960 0.000000 0.000000 
#    y 0.000000 1.485530 0.000000 
#    z 0.000000 0.000000 1.516280 
# 
# From -- ./inp_files/26477.got.cif
#   From: 2010.05.17/outbox.cif.g08.bks.cpg/sg59_14_cif.got.tgz:26477.got - 2010.06.03 14:40:33.
