data_PCOD9446532
_publ_section_title
;
Structure prediction by ZEFSAII (Michael W. Deem and Ramdas Pophale) SiO2 
 PCOD9446532
Probable space group: P M M N
;
_chemical_formula_sum "Si O2"
_cell_formula_units_Z 64
_cell_length_a 31.146405
_cell_length_b 8.766301
_cell_length_c 14.720433
_cell_angle_alpha 90.000000
_cell_angle_beta 90.000000
_cell_angle_gamma 90.000000
_cell_volume 4019.248792
_symmetry_space_group_name_H-M "P M M N"
_symmetry_group_IT_number 59
_space_group.IT_coordinate_system_code '2'
_symmetry_cell_setting 'orthorhombic'
loop_
_space_group_symop_operation_xyz
x,y,z
1/2-x,1/2-y,z
1/2+x,-y,-z
-x,1/2+y,-z
-x,-y,-z
1/2+x,1/2+y,-z
1/2-x,y,z
x,1/2-y,z
loop_
_atom_site_type_symbol
_atom_site_label
_atom_site_fract_x
_atom_site_fract_y
_atom_site_fract_z
Si Si1 0.384978 0.928583 0.561216
Si Si2 0.115022 0.571417 0.938784
Si Si3 0.540573 0.568998 0.555460
Si Si4 0.201473 0.564038 0.644935
Si Si5 0.298527 0.564038 0.855065
Si Si6 0.959427 0.931002 0.944540
Si Si7 0.935615 0.421478 0.250000
Si Si8 0.024328 0.571870 0.250000
O O1 0.384139 0.750000 0.533244
O O2 0.336570 0.985835 0.578443
O O3 0.407069 0.933623 0.660462
O O4 0.415688 0.020382 0.494518
O O5 0.115861 0.750000 0.966756
O O6 0.163430 0.514165 0.921557
O O7 0.092931 0.566377 0.839538
O O8 0.084312 0.479618 0.005482
O O9 0.500000 0.500000 0.500000
O O10 0.535550 0.750000 0.556295
O O11 0.540444 0.504874 0.657463
O O12 0.250000 0.518845 0.620022
O O13 0.199973 0.750000 0.645467
O O14 0.193824 0.516888 0.750000
O O15 0.250000 0.518845 0.879978
O O16 0.300027 0.750000 0.854533
O O17 0.964450 0.750000 0.943705
O O18 0.959556 0.995126 0.842537
O O19 0.000000 0.000000 0.000000
O O20 0.955337 0.250000 0.250000
O O21 0.973070 0.543978 0.250000
O O22 0.034364 0.750000 0.250000
#
# Coordination Sequence:
#
# PCOD9446532 Si02
#       8
#     8   8   8   8   8   8   8   8
#     4  10  18  30  49  75 104 138 175 211 250 297
#     4  10  18  30  49  75 104 138 175 211 250 297
#     4  12  24  37  52  73 101 135 173 213 253 303
#     4   8  13  23  43  73 105 135 168 207 250 295
#     4   8  13  23  43  73 105 135 168 207 250 295
#     4  12  24  37  52  73 101 135 173 213 253 303
#     4  10  18  28  47  72 104 139 172 209 246 287
#     4  12  24  38  54  73  98 132 171 215 258 304
#
# _framework density 15.923374000000001
#
# number of rings (size 3 to 8) (size 9 to 14) (size 15 to 20)
#    0.000    1.750    3.750    4.125    0.000    0.000 
#    0.000    0.000    0.000    0.750    0.000    2.625 
#    0.000    7.000    0.000    0.000    0.000    0.000 
#
# Total GULP energy -357068.218202 kJ/mol
# GULP energy per Si atom -5579.190909 kJ/mol
# Density = 1.588713 g / cm^3
# Si number density = 15.923374 Si / 1000 Ang^3
#
#
#
# Elastic Constant Matrix: (Units=GPa)
#
#
# Indices 1 2 3 4 5 6 
#
# 1 128.5545 42.4044 55.9555 0.0000 0.0000 0.0000
# 2 42.4044 93.2221 51.9827 0.0000 0.0000 0.0000
# 3 55.9555 51.9827 107.9219 0.0000 0.0000 0.0000
# 4 0.0000 0.0000 0.0000 21.2328 0.0000 0.0000
# 5 0.0000 0.0000 0.0000 0.0000 18.5577 0.0000
# 6 0.0000 0.0000 0.0000 0.0000 0.0000 16.1786
#
#
#
# Elastic Compliance Matrix: (Units=1/GPa)
#
#
# Indices 1 2 3 4 5 6 
#
# 1 0.010412 -0.002360 -0.004262 0.000000 0.000000 0.000000
# 2 -0.002360 0.015201 -0.006098 0.000000 0.000000 0.000000
# 3 -0.004262 -0.006098 0.014413 0.000000 0.000000 0.000000
# 4 0.000000 0.000000 0.000000 0.047097 0.000000 0.000000
# 5 0.000000 0.000000 0.000000 0.000000 0.053886 0.000000
# 6 0.000000 0.000000 0.000000 0.000000 0.000000 0.061810
#
#
# Mechanical properties :
#
#
# Convention : Reuss Voigt Hill
#
# Bulk Modulus (GPa) = 68.55768 70.04264 69.30016
# Shear Modulus (GPa) = 21.44802 23.15088 22.29945
#
# Velocity S-wave (km/s) = 3.67407 3.81713 3.74628
# Velocity P-wave (km/s) = 7.81963 7.96932 7.89483
#
# Compressibility (1/GPa) = 0.01458626
#
# Stress axis : x y z
#
# Youngs Moduli (GPa) = 96.04076 65.78488 69.38120
#
# Poissons Ratio (x) = 0.15523 0.29570
# Poissons Ratio (y) = 0.22663 0.42312
# Poissons Ratio (z) = 0.40932 0.40118
#
# Static dielectric constant tensor:
#      x y z
#    x 1.550700 0.000000 0.000000 
#    y 0.000000 1.554280 0.000000 
#    z 0.000000 0.000000 1.524670 
# 
# From -- ./inp_files/25053.got.cif
#   From: 2010.05.17/outbox.cif.g08.bks.cpg/sg59_13_cif.got.tgz:25053.got - 2010.06.03 14:40:33.
