data_PCOD9446880
_publ_section_title
;
Structure prediction by ZEFSAII (Michael W. Deem and Ramdas Pophale) SiO2 
 PCOD9446880
Probable space group: P M M N
;
_chemical_formula_sum "Si O2"
_cell_formula_units_Z 64
_cell_length_a 19.834211
_cell_length_b 19.650663
_cell_length_c 10.261002
_cell_angle_alpha 90.000000
_cell_angle_beta 90.000000
_cell_angle_gamma 90.000000
_cell_volume 3999.280900
_symmetry_space_group_name_H-M "P M M N"
_symmetry_group_IT_number 59
_space_group.IT_coordinate_system_code '2'
_symmetry_cell_setting 'orthorhombic'
loop_
_space_group_symop_operation_xyz
x,y,z
1/2-x,1/2-y,z
1/2+x,-y,-z
-x,1/2+y,-z
-x,-y,-z
1/2+x,1/2+y,-z
1/2-x,y,z
x,1/2-y,z
loop_
_atom_site_type_symbol
_atom_site_label
_atom_site_fract_x
_atom_site_fract_y
_atom_site_fract_z
Si Si1 0.883401 0.826284 0.144655
Si Si2 0.965879 0.467813 0.128158
Si Si3 0.825173 0.536732 0.522861
Si Si4 0.542462 0.028619 0.622171
Si Si5 0.116516 0.173456 0.389864
Si Si6 0.826719 0.531471 0.210808
Si Si7 0.964472 0.828062 0.874591
Si Si8 0.508794 0.825091 0.379469
O O1 0.853171 0.750000 0.150506
O O2 0.834974 0.890019 0.166410
O O3 0.939136 0.830302 0.259193
O O4 0.922198 0.833560 0.007902
O O5 0.887877 0.489669 0.145089
O O6 0.979568 0.386909 0.127548
O O7 0.006546 0.499204 0.250165
O O8 0.000000 0.500000 0.000000
O O9 0.750000 0.512638 0.550733
O O10 0.882324 0.497512 0.601685
O O11 0.833228 0.615413 0.563716
O O12 0.837285 0.529979 0.367572
O O13 0.538753 0.110033 0.624434
O O14 0.500000 0.000000 0.500000
O O15 0.144491 0.250000 0.395424
O O16 0.086003 0.160954 0.246958
O O17 0.053861 0.170295 0.490315
O O18 0.750000 0.508473 0.183536
O O19 0.989944 0.750000 0.864657
O O20 0.477008 0.750000 0.374801
#
# Coordination Sequence:
#
# PCOD9446880 Si02
#       8
#     8   8   8   8   8   8   8   8
#     4  10  18  33  51  76 108 141 175 208 259 322
#     4  12  20  34  58  82 102 141 184 223 261 309
#     4  11  22  34  52  79 109 143 179 222 269 315
#     4  12  18  34  56  75 102 139 178 222 259 307
#     4  10  18  31  49  75 104 137 173 211 259 315
#     4  11  22  35  52  80 111 141 177 221 269 313
#     4  10  20  32  52  79 109 137 173 222 266 309
#     4  10  18  30  52  77 101 131 177 221 258 305
#
# _framework density 16.002877999999999
#
# number of rings (size 3 to 8) (size 9 to 14) (size 15 to 20)
#    0.000    1.250    7.500    0.000    0.000    0.500 
#    0.000    3.750    0.000    3.000    0.000    1.750 
#    0.000    5.000    0.000    0.000    0.000    0.000 
#
# Total GULP energy -356993.867411 kJ/mol
# GULP energy per Si atom -5578.029178 kJ/mol
# Density = 1.596645 g / cm^3
# Si number density = 16.002878 Si / 1000 Ang^3
#
#
#
# Elastic Constant Matrix: (Units=GPa)
#
#
# Indices 1 2 3 4 5 6 
#
# 1 100.4669 45.4140 27.1460 0.0000 0.0000 0.0000
# 2 45.4140 101.4755 13.1380 0.0000 0.0000 0.0000
# 3 27.1460 13.1380 82.8806 0.0000 0.0000 0.0000
# 4 0.0000 0.0000 0.0000 24.4805 0.0000 0.0000
# 5 0.0000 0.0000 0.0000 0.0000 15.3925 0.0000
# 6 0.0000 0.0000 0.0000 0.0000 0.0000 21.9470
#
#
#
# Elastic Compliance Matrix: (Units=1/GPa)
#
#
# Indices 1 2 3 4 5 6 
#
# 1 0.013410 -0.005547 -0.003513 0.000000 0.000000 0.000000
# 2 -0.005547 0.012355 -0.000142 0.000000 0.000000 0.000000
# 3 -0.003513 -0.000142 0.013239 0.000000 0.000000 0.000000
# 4 0.000000 0.000000 0.000000 0.040849 0.000000 0.000000
# 5 0.000000 0.000000 0.000000 0.000000 0.064967 0.000000
# 6 0.000000 0.000000 0.000000 0.000000 0.000000 0.045564
#
#
# Mechanical properties :
#
#
# Convention : Reuss Voigt Hill
#
# Bulk Modulus (GPa) = 48.54120 50.69102 49.61611
# Shear Modulus (GPa) = 23.18533 25.63898 24.41216
#
# Velocity S-wave (km/s) = 3.81047 4.00703 3.90998
# Velocity P-wave (km/s) = 7.05395 7.29063 7.17327
#
# Compressibility (1/GPa) = 0.02060106
#
# Stress axis : x y z
#
# Youngs Moduli (GPa) = 74.57143 80.93700 75.53648
#
# Poissons Ratio (x) = 0.44893 0.26536
# Poissons Ratio (y) = 0.41362 0.01071
# Poissons Ratio (z) = 0.26197 0.01148
#
# Static dielectric constant tensor:
#      x y z
#    x 1.503420 0.000000 0.000000 
#    y 0.000000 1.567870 0.000000 
#    z 0.000000 0.000000 1.513700 
# 
# From -- ./inp_files/10721.got.cif
#   From: 2010.05.17/outbox.cif.g08.bks.cpg/sg59_6_cif.got.tgz:10721.got - 2010.06.03 14:40:33.
