data_PCOD9446385
_publ_section_title
;
Structure prediction by ZEFSAII (Michael W. Deem and Ramdas Pophale) SiO2 
 PCOD9446385
Probable space group: P M M N
;
_chemical_formula_sum "Si O2"
_cell_formula_units_Z 56
_cell_length_a 9.094353
_cell_length_b 22.026382
_cell_length_c 18.154299
_cell_angle_alpha 90.000000
_cell_angle_beta 90.000000
_cell_angle_gamma 90.000000
_cell_volume 3636.590989
_symmetry_space_group_name_H-M "P M M N"
_symmetry_group_IT_number 59
_space_group.IT_coordinate_system_code '2'
_symmetry_cell_setting 'orthorhombic'
loop_
_space_group_symop_operation_xyz
x,y,z
1/2-x,1/2-y,z
1/2+x,-y,-z
-x,1/2+y,-z
-x,-y,-z
1/2+x,1/2+y,-z
1/2-x,y,z
x,1/2-y,z
loop_
_atom_site_type_symbol
_atom_site_label
_atom_site_fract_x
_atom_site_fract_y
_atom_site_fract_z
Si Si1 0.573096 0.035920 0.244086
Si Si2 0.580649 0.064608 0.084182
Si Si3 0.575856 0.583754 0.447044
Si Si4 0.574712 0.179161 0.653998
Si Si5 0.418752 0.082068 0.939133
Si Si6 0.075729 0.039815 0.392128
Si Si7 0.424912 0.906849 0.208943
O O1 0.750000 0.031766 0.247448
O O2 0.505755 0.968397 0.234912
O O3 0.534219 0.071974 0.169126
O O4 0.505880 0.061937 0.318940
O O5 0.750000 0.083755 0.075661
O O6 0.577413 0.991374 0.071915
O O7 0.483162 0.093391 0.020162
O O8 0.750000 0.576924 0.433075
O O9 0.513269 0.643387 0.408668
O O10 0.491036 0.526035 0.412716
O O11 0.552997 0.580364 0.535036
O O12 0.750000 0.173342 0.640077
O O13 0.537715 0.250000 0.657340
O O14 0.545357 0.145213 0.731316
O O15 0.250000 0.101235 0.932897
O O16 0.514689 0.107976 0.872262
O O17 0.250000 0.033869 0.378865
O O18 0.250000 0.917842 0.205948
#
# Coordination Sequence:
#
# PCOD9446385 Si02
#       7
#     8   8   8   8   8   8   8
#     4  10  18  27  42  64  89 116 148 184 219 265
#     4   8  15  25  36  55  83 113 143 174 210 251
#     4  10  20  32  47  66  88 116 152 189 228 274
#     4  10  21  35  49  66  89 118 154 193 232 273
#     4   9  16  25  38  56  80 111 146 180 210 250
#     4  10  19  30  45  66  91 119 149 185 228 276
#     4  10  18  28  43  60  83 116 149 183 225 267
#
# _framework density 15.399037
#
# number of rings (size 3 to 8) (size 9 to 14) (size 15 to 20)
#    0.000    2.429    1.429    3.000    0.000    6.571 
#    0.000    0.000    0.000    0.000    0.000    0.000 
#    0.000    1.143    0.000   10.286    0.000    6.429 
#
# Total GULP energy -312072.846315 kJ/mol
# GULP energy per Si atom -5572.729398 kJ/mol
# Density = 1.536399 g / cm^3
# Si number density = 15.399037 Si / 1000 Ang^3
#
#
#
# Elastic Constant Matrix: (Units=GPa)
#
#
# Indices 1 2 3 4 5 6 
#
# 1 78.4216 29.1305 71.6967 0.0000 0.0000 0.0000
# 2 29.1305 40.8706 30.2877 0.0000 0.0000 0.0000
# 3 71.6967 30.2877 144.9172 0.0000 0.0000 0.0000
# 4 0.0000 0.0000 0.0000 10.3391 0.0000 0.0000
# 5 0.0000 0.0000 0.0000 0.0000 32.4768 0.0000
# 6 0.0000 0.0000 0.0000 0.0000 0.0000 12.1880
#
#
#
# Elastic Compliance Matrix: (Units=1/GPa)
#
#
# Indices 1 2 3 4 5 6 
#
# 1 0.026913 -0.011022 -0.011011 0.000000 0.000000 0.000000
# 2 -0.011022 0.033466 -0.001541 0.000000 0.000000 0.000000
# 3 -0.011011 -0.001541 0.012670 0.000000 0.000000 0.000000
# 4 0.000000 0.000000 0.000000 0.096720 0.000000 0.000000
# 5 0.000000 0.000000 0.000000 0.000000 0.030791 0.000000
# 6 0.000000 0.000000 0.000000 0.000000 0.000000 0.082048
#
#
# Mechanical properties :
#
#
# Convention : Reuss Voigt Hill
#
# Bulk Modulus (GPa) = 38.61065 58.49325 48.55195
# Shear Modulus (GPa) = 14.77581 19.87374 17.32478
#
# Velocity S-wave (km/s) = 3.10099 3.59637 3.35782
# Velocity P-wave (km/s) = 6.16030 7.43724 6.82869
#
# Compressibility (1/GPa) = 0.02589959
#
# Stress axis : x y z
#
# Youngs Moduli (GPa) = 37.15680 29.88144 78.92413
#
# Poissons Ratio (x) = 0.32936 0.86906
# Poissons Ratio (y) = 0.40955 0.12164
# Poissons Ratio (z) = 0.40915 0.04605
#
# Static dielectric constant tensor:
#      x y z
#    x 1.516100 0.000000 0.000000 
#    y 0.000000 1.469780 0.000000 
#    z 0.000000 0.000000 1.550730 
# 
# From -- ./inp_files/26062.got.cif
#   From: 2010.05.17/outbox.cif.g08.bks.cpg/sg59_14_cif.got.tgz:26062.got - 2010.06.03 14:40:33.
