data_PCOD9446489
_publ_section_title
;
Structure prediction by ZEFSAII (Michael W. Deem and Ramdas Pophale) SiO2 
 PCOD9446489
Probable space group: P M M N
;
_chemical_formula_sum "Si O2"
_cell_formula_units_Z 48
_cell_length_a 21.982520
_cell_length_b 8.663429
_cell_length_c 15.607098
_cell_angle_alpha 90.000000
_cell_angle_beta 90.000000
_cell_angle_gamma 90.000000
_cell_volume 2972.278191
_symmetry_space_group_name_H-M "P M M N"
_symmetry_group_IT_number 59
_space_group.IT_coordinate_system_code '2'
_symmetry_cell_setting 'orthorhombic'
loop_
_space_group_symop_operation_xyz
x,y,z
1/2-x,1/2-y,z
1/2+x,-y,-z
-x,1/2+y,-z
-x,-y,-z
1/2+x,1/2+y,-z
1/2-x,y,z
x,1/2-y,z
loop_
_atom_site_type_symbol
_atom_site_label
_atom_site_fract_x
_atom_site_fract_y
_atom_site_fract_z
Si Si1 0.679628 0.563991 0.200464
Si Si2 0.932583 0.565697 0.520313
Si Si3 0.094157 0.566081 0.653339
Si Si4 0.455173 0.066668 0.125831
Si Si5 0.959873 0.066789 0.693414
Si Si6 0.917673 0.564716 0.060066
O O1 0.750000 0.518836 0.195565
O O2 0.676554 0.750000 0.211364
O O3 0.644703 0.486311 0.279346
O O4 0.641952 0.526435 0.114381
O O5 0.933475 0.750000 0.518194
O O6 0.893446 0.500122 0.441774
O O7 0.920781 0.505825 0.616050
O O8 0.000000 0.500000 0.500000
O O9 0.088902 0.750000 0.649691
O O10 0.028914 0.498051 0.683831
O O11 0.452540 0.250000 0.140065
O O12 0.437618 0.980814 0.212682
O O13 0.524159 0.018926 0.101378
O O14 0.416612 0.027059 0.040773
O O15 0.962134 0.250000 0.683588
O O16 0.928136 0.750000 0.066713
#
# Coordination Sequence:
#
# PCOD9446489 Si02
#       6
#     8   8   8   8   8   8
#     4  10  20  34  51  70  94 128 166 202 239 282
#     4  10  18  29  45  66  93 124 155 189 231 281
#     4  11  20  31  46  67  95 126 159 196 237 284
#     4  10  18  28  45  69  95 126 159 196 242 294
#     4  11  19  29  45  68  97 127 157 192 238 290
#     4   9  18  31  46  66  94 126 160 198 241 289
#
# _framework density 16.149229999999999
#
# number of rings (size 3 to 8) (size 9 to 14) (size 15 to 20)
#    0.000    1.833    1.667    7.000    0.000    1.000 
#    0.000    0.000    0.000    0.000    0.000    1.167 
#    0.000    6.667    0.000    0.000    0.000    0.000 
#
# Total GULP energy -267751.140868 kJ/mol
# GULP energy per Si atom -5578.148768 kJ/mol
# Density = 1.611247 g / cm^3
# Si number density = 16.149230 Si / 1000 Ang^3
#
#
#
# Elastic Constant Matrix: (Units=GPa)
#
#
# Indices 1 2 3 4 5 6 
#
# 1 60.5931 32.4223 49.0695 0.0000 0.0000 0.0000
# 2 32.4223 103.1840 63.9120 0.0000 0.0000 0.0000
# 3 49.0695 63.9120 159.8971 0.0000 0.0000 0.0000
# 4 0.0000 0.0000 0.0000 30.0667 0.0000 0.0000
# 5 0.0000 0.0000 0.0000 0.0000 14.5445 0.0000
# 6 0.0000 0.0000 0.0000 0.0000 0.0000 12.5515
#
#
#
# Elastic Compliance Matrix: (Units=1/GPa)
#
#
# Indices 1 2 3 4 5 6 
#
# 1 0.023030 -0.003800 -0.005549 0.000000 0.000000 0.000000
# 2 -0.003800 0.013507 -0.004233 0.000000 0.000000 0.000000
# 3 -0.005549 -0.004233 0.009649 0.000000 0.000000 0.000000
# 4 0.000000 0.000000 0.000000 0.033259 0.000000 0.000000
# 5 0.000000 0.000000 0.000000 0.000000 0.068755 0.000000
# 6 0.000000 0.000000 0.000000 0.000000 0.000000 0.079672
#
#
# Mechanical properties :
#
#
# Convention : Reuss Voigt Hill
#
# Bulk Modulus (GPa) = 52.56649 68.27576 60.42113
# Shear Modulus (GPa) = 19.12954 23.31722 21.22338
#
# Velocity S-wave (km/s) = 3.44546 3.80394 3.62913
# Velocity P-wave (km/s) = 6.96056 7.85258 7.41999
#
# Compressibility (1/GPa) = 0.01902353
#
# Stress axis : x y z
#
# Youngs Moduli (GPa) = 43.42137 74.03487 103.64022
#
# Poissons Ratio (x) = 0.28130 0.57508
# Poissons Ratio (y) = 0.16498 0.43870
# Poissons Ratio (z) = 0.24094 0.31338
#
# Static dielectric constant tensor:
#      x y z
#    x 1.505430 0.000000 0.000000 
#    y 0.000000 1.545290 0.000000 
#    z 0.000000 0.000000 1.594730 
# 
# From -- ./inp_files/24494.got.cif
#   From: 2010.05.17/outbox.cif.g08.bks.cpg/sg59_13_cif.got.tgz:24494.got - 2010.06.03 14:40:33.
