data_PCOD9446916
_publ_section_title
;
Structure prediction by ZEFSAII (Michael W. Deem and Ramdas Pophale) SiO2 
 PCOD9446916
Probable space group: P M M N
;
_chemical_formula_sum "Si O2"
_cell_formula_units_Z 56
_cell_length_a 14.727783
_cell_length_b 22.550402
_cell_length_c 9.058861
_cell_angle_alpha 90.000000
_cell_angle_beta 90.000000
_cell_angle_gamma 90.000000
_cell_volume 3008.605609
_symmetry_space_group_name_H-M "P M M N"
_symmetry_group_IT_number 59
_space_group.IT_coordinate_system_code '2'
_symmetry_cell_setting 'orthorhombic'
loop_
_space_group_symop_operation_xyz
x,y,z
1/2-x,1/2-y,z
1/2+x,-y,-z
-x,1/2+y,-z
-x,-y,-z
1/2+x,1/2+y,-z
1/2-x,y,z
x,1/2-y,z
loop_
_atom_site_type_symbol
_atom_site_label
_atom_site_fract_x
_atom_site_fract_y
_atom_site_fract_z
Si Si1 0.146493 0.114157 0.369068
Si Si2 0.854361 0.027291 0.658715
Si Si3 0.857852 0.074384 0.991224
Si Si4 0.648642 0.854025 0.969657
Si Si5 0.355408 0.465525 0.818925
Si Si6 0.532255 0.183612 0.889610
Si Si7 0.489395 0.107200 0.610106
O O1 0.250000 0.126571 0.420635
O O2 0.137325 0.139615 0.205048
O O3 0.068545 0.135119 0.478949
O O4 0.136106 0.042806 0.360508
O O5 0.750000 0.043200 0.625402
O O6 0.871771 0.043633 0.830886
O O7 0.925770 0.065897 0.566539
O O8 0.750000 0.082909 0.007774
O O9 0.909973 0.136190 0.983316
O O10 0.887664 0.028613 0.118076
O O11 0.750000 0.831122 0.000864
O O12 0.568689 0.817705 0.043466
O O13 0.643831 0.919482 0.043776
O O14 0.250000 0.470083 0.769020
O O15 0.419676 0.436169 0.697979
O O16 0.569049 0.250000 0.890125
O O17 0.524250 0.156250 0.725574
#
# Coordination Sequence:
#
# PCOD9446916 Si02
#       7
#     8   8   8   8   8   8   8
#     4  10  18  31  49  76 105 128 157 196 249 310
#     4   9  17  29  46  72 106 136 160 193 240 306
#     4   9  17  31  53  77 102 130 163 204 251 301
#     4   9  18  32  53  73  99 133 165 200 246 301
#     4   9  16  29  49  78 106 128 154 195 252 310
#     4  10  22  36  51  71  97 133 178 215 243 284
#     4  10  20  30  51  76 105 131 164 204 260 297
#
# _framework density 18.613273
#
# number of rings (size 3 to 8) (size 9 to 14) (size 15 to 20)
#    0.000    2.571    1.429    0.857    2.000    2.857 
#    0.000    0.714    0.000    0.857    0.000    0.000 
#    0.000    2.286    0.000    0.000    0.000    0.000 
#
# Total GULP energy -312495.580908 kJ/mol
# GULP energy per Si atom -5580.278231 kJ/mol
# Density = 1.857091 g / cm^3
# Si number density = 18.613273 Si / 1000 Ang^3
#
#
#
# Elastic Constant Matrix: (Units=GPa)
#
#
# Indices 1 2 3 4 5 6 
#
# 1 27.5929 -1.0527 2.1797 0.0000 0.0000 0.0000
# 2 -1.0527 68.3760 -6.3959 0.0000 0.0000 0.0000
# 3 2.1797 -6.3959 23.6317 0.0000 0.0000 0.0000
# 4 0.0000 0.0000 0.0000 5.5895 0.0000 0.0000
# 5 0.0000 0.0000 0.0000 0.0000 22.0674 0.0000
# 6 0.0000 0.0000 0.0000 0.0000 0.0000 7.0319
#
#
#
# Elastic Compliance Matrix: (Units=1/GPa)
#
#
# Indices 1 2 3 4 5 6 
#
# 1 0.036512 0.000254 -0.003299 0.000000 0.000000 0.000000
# 2 0.000254 0.015007 0.004038 0.000000 0.000000 0.000000
# 3 -0.003299 0.004038 0.043713 0.000000 0.000000 0.000000
# 4 0.000000 0.000000 0.000000 0.178908 0.000000 0.000000
# 5 0.000000 0.000000 0.000000 0.000000 0.045316 0.000000
# 6 0.000000 0.000000 0.000000 0.000000 0.000000 0.142210
#
#
# Mechanical properties :
#
#
# Convention : Reuss Voigt Hill
#
# Bulk Modulus (GPa) = 10.28631 12.11809 11.20220
# Shear Modulus (GPa) = 10.16084 15.26238 12.71161
#
# Velocity S-wave (km/s) = 2.33897 2.86662 2.61613
# Velocity P-wave (km/s) = 3.58227 4.18106 3.89320
#
# Compressibility (1/GPa) = 0.09721663
#
# Stress axis : x y z
#
# Youngs Moduli (GPa) = 27.38862 66.63714 22.87632
#
# Poissons Ratio (x) = -0.01689 0.07547
# Poissons Ratio (y) = -0.00694 -0.09238
# Poissons Ratio (z) = 0.09036 -0.26909
#
# Static dielectric constant tensor:
#      x y z
#    x 1.671420 0.000000 0.000000 
#    y 0.000000 1.630750 0.000000 
#    z 0.000000 0.000000 1.653520 
# 
# From -- ./inp_files/9359.got.cif
#   From: 2010.05.17/outbox.cif.g08.bks.cpg/sg59_5_cif.got.tgz:9359.got - 2010.06.03 14:40:33.
