data_PCOD9446919
_publ_section_title
;
Structure prediction by ZEFSAII (Michael W. Deem and Ramdas Pophale) SiO2 
 PCOD9446919
Probable space group: P M M N
;
_chemical_formula_sum "Si O2"
_cell_formula_units_Z 64
_cell_length_a 8.595226
_cell_length_b 29.451979
_cell_length_c 16.034277
_cell_angle_alpha 90.000000
_cell_angle_beta 90.000000
_cell_angle_gamma 90.000000
_cell_volume 4059.019750
_symmetry_space_group_name_H-M "P M M N"
_symmetry_group_IT_number 59
_space_group.IT_coordinate_system_code '2'
_symmetry_cell_setting 'orthorhombic'
loop_
_space_group_symop_operation_xyz
x,y,z
1/2-x,1/2-y,z
1/2+x,-y,-z
-x,1/2+y,-z
-x,-y,-z
1/2+x,1/2+y,-z
1/2-x,y,z
x,1/2-y,z
loop_
_atom_site_type_symbol
_atom_site_label
_atom_site_fract_x
_atom_site_fract_y
_atom_site_fract_z
Si Si1 0.562878 0.449152 0.674968
Si Si2 0.562267 0.800923 0.906518
Si Si3 0.563556 0.550961 0.000596
Si Si4 0.438095 0.895230 0.160371
Si Si5 0.937831 0.300564 0.906228
Si Si6 0.937990 0.895013 0.831794
Si Si7 0.564390 0.551567 0.499725
Si Si8 0.564953 0.051835 0.326121
O O1 0.750000 0.450461 0.670809
O O2 0.512832 0.419511 0.754331
O O3 0.497889 0.429636 0.587861
O O4 0.503335 0.500902 0.685267
O O5 0.750000 0.802177 0.912313
O O6 0.516211 0.750000 0.879300
O O7 0.515229 0.842796 0.848335
O O8 0.496510 0.808075 0.999454
O O9 0.750000 0.550195 0.004934
O O10 0.498842 0.577421 0.080502
O O11 0.500000 0.500000 0.000000
O O12 0.519963 0.576870 0.915241
O O13 0.250000 0.896472 0.158605
O O14 0.488780 0.842922 0.149849
O O15 0.750000 0.300564 0.907740
O O16 0.989823 0.250000 0.880139
O O17 0.750000 0.897084 0.822916
O O18 0.014188 0.917701 0.751580
O O19 0.500000 0.500000 0.500000
O O20 0.750000 0.551059 0.500258
O O21 0.501130 0.571183 0.586475
O O22 0.750000 0.048301 0.331904
#
# Coordination Sequence:
#
# PCOD9446919 Si02
#       8
#     8   8   8   8   8   8   8   8
#     4  10  19  32  48  68  96 127 158 195 233 278
#     4   9  17  31  50  69  90 119 156 198 242 284
#     4  11  22  33  45  63  92 130 164 197 230 272
#     4  10  20  32  47  68  95 127 160 194 234 278
#     4   9  17  30  48  69  93 121 156 198 240 279
#     4  10  20  33  46  66  94 125 158 193 235 279
#     4  10  18  31  50  70  93 121 153 194 237 280
#     4  11  21  32  48  70  94 124 159 195 233 279
#
# _framework density 15.767353999999999
#
# number of rings (size 3 to 8) (size 9 to 14) (size 15 to 20)
#    0.000    2.000    1.250    5.250    0.000    5.500 
#    0.000    0.000    0.000    0.000    0.000    0.875 
#    0.000    3.000    0.000    0.000    0.000    0.000 
#
# Total GULP energy -356980.666810 kJ/mol
# GULP energy per Si atom -5577.822919 kJ/mol
# Density = 1.573147 g / cm^3
# Si number density = 15.767354 Si / 1000 Ang^3
#
#
#
# Elastic Constant Matrix: (Units=GPa)
#
#
# Indices 1 2 3 4 5 6 
#
# 1 51.2105 28.3153 41.8680 0.0000 0.0000 0.0000
# 2 28.3153 114.6833 71.6904 0.0000 0.0000 0.0000
# 3 41.8680 71.6904 147.4425 0.0000 0.0000 0.0000
# 4 0.0000 0.0000 0.0000 7.4169 0.0000 0.0000
# 5 0.0000 0.0000 0.0000 0.0000 26.3107 0.0000
# 6 0.0000 0.0000 0.0000 0.0000 0.0000 13.8538
#
#
#
# Elastic Compliance Matrix: (Units=1/GPa)
#
#
# Indices 1 2 3 4 5 6 
#
# 1 0.025955 -0.002588 -0.006112 0.000000 0.000000 0.000000
# 2 -0.002588 0.012785 -0.005482 0.000000 0.000000 0.000000
# 3 -0.006112 -0.005482 0.011183 0.000000 0.000000 0.000000
# 4 0.000000 0.000000 0.000000 0.134827 0.000000 0.000000
# 5 0.000000 0.000000 0.000000 0.000000 0.038007 0.000000
# 6 0.000000 0.000000 0.000000 0.000000 0.000000 0.072182
#
#
# Mechanical properties :
#
#
# Convention : Reuss Voigt Hill
#
# Bulk Modulus (GPa) = 46.38055 66.34261 56.36158
# Shear Modulus (GPa) = 15.12904 20.94712 18.03808
#
# Velocity S-wave (km/s) = 3.10097 3.64883 3.38600
# Velocity P-wave (km/s) = 6.50390 7.74075 7.14912
#
# Compressibility (1/GPa) = 0.02156076
#
# Stress axis : x y z
#
# Youngs Moduli (GPa) = 38.52829 78.21499 89.41914
#
# Poissons Ratio (x) = 0.20238 0.54654
# Poissons Ratio (y) = 0.09969 0.49018
# Poissons Ratio (z) = 0.23549 0.42876
#
# Static dielectric constant tensor:
#      x y z
#    x 1.533150 0.000000 0.000000 
#    y 0.000000 1.516310 0.000000 
#    z 0.000000 0.000000 1.525710 
# 
# From -- ./inp_files/21885.got.cif
#   From: 2010.05.17/outbox.cif.g08.bks.cpg/sg59_11_cif.got.tgz:21885.got - 2010.06.03 14:40:33.
