data_PCOD9446734
_publ_section_title
;
Structure prediction by ZEFSAII (Michael W. Deem and Ramdas Pophale) SiO2 
 PCOD9446734
Probable space group: P M M N
;
_chemical_formula_sum "Si O2"
_cell_formula_units_Z 56
_cell_length_a 17.507676
_cell_length_b 13.818328
_cell_length_c 14.900677
_cell_angle_alpha 90.000000
_cell_angle_beta 90.000000
_cell_angle_gamma 90.000000
_cell_volume 3604.873246
_symmetry_space_group_name_H-M "P M M N"
_symmetry_group_IT_number 59
_space_group.IT_coordinate_system_code '2'
_symmetry_cell_setting 'orthorhombic'
loop_
_space_group_symop_operation_xyz
x,y,z
1/2-x,1/2-y,z
1/2+x,-y,-z
-x,1/2+y,-z
-x,-y,-z
1/2+x,1/2+y,-z
1/2-x,y,z
x,1/2-y,z
loop_
_atom_site_type_symbol
_atom_site_label
_atom_site_fract_x
_atom_site_fract_y
_atom_site_fract_z
Si Si1 0.159693 0.134543 0.583735
Si Si2 0.335869 0.864643 0.808841
Si Si3 0.552593 0.496480 0.862892
Si Si4 0.560959 0.363808 0.027991
Si Si5 0.660257 0.857146 0.779255
Si Si6 0.936418 0.639344 0.596225
Si Si7 0.551790 0.494246 0.306637
O O1 0.250000 0.106811 0.583560
O O2 0.156767 0.250000 0.601032
O O3 0.118536 0.117803 0.487648
O O4 0.107358 0.075660 0.653477
O O5 0.250000 0.900466 0.795903
O O6 0.338158 0.750000 0.791827
O O7 0.363693 0.878701 0.911209
O O8 0.394572 0.916530 0.743150
O O9 0.502433 0.574526 0.918591
O O10 0.628332 0.554708 0.836719
O O11 0.506271 0.470760 0.771920
O O12 0.566703 0.407253 0.928799
O O13 0.543311 0.250000 0.027519
O O14 0.750000 0.864528 0.764122
O O15 0.644416 0.750000 0.819508
O O16 0.615312 0.860201 0.685514
O O17 0.966495 0.750000 0.584826
O O18 0.002519 0.561510 0.617148
#
# Coordination Sequence:
#
# PCOD9446734 Si02
#       7
#     8   8   8   8   8   8   8
#     4  10  20  32  46  66  93 123 153 183 217 262
#     4   9  17  29  46  67  88 111 142 181 224 266
#     4   9  18  29  44  66  87 113 149 186 221 265
#     4   9  17  30  45  61  85 116 147 181 222 265
#     4   9  16  27  45  67  90 114 141 180 227 268
#     4   9  17  30  48  69  91 116 148 184 222 265
#     4  10  18  30  47  67  91 117 147 183 224 261
#
# _framework density 15.534527000000001
#
# number of rings (size 3 to 8) (size 9 to 14) (size 15 to 20)
#    0.000    2.714    0.000    2.143    0.000    6.286 
#    0.000    0.000    0.000    0.000    0.000   14.000 
#    0.000    5.714    0.000    0.000    0.000    0.000 
#
# Total GULP energy -311756.320459 kJ/mol
# GULP energy per Si atom -5567.077151 kJ/mol
# Density = 1.549917 g / cm^3
# Si number density = 15.534527 Si / 1000 Ang^3
#
#
#
# Elastic Constant Matrix: (Units=GPa)
#
#
# Indices 1 2 3 4 5 6 
#
# 1 85.2363 34.5112 22.0431 0.0000 0.0000 0.0000
# 2 34.5112 55.0030 34.0036 0.0000 0.0000 0.0000
# 3 22.0431 34.0036 55.9955 0.0000 0.0000 0.0000
# 4 0.0000 0.0000 0.0000 20.1669 0.0000 0.0000
# 5 0.0000 0.0000 0.0000 0.0000 13.7780 0.0000
# 6 0.0000 0.0000 0.0000 0.0000 0.0000 26.8427
#
#
#
# Elastic Compliance Matrix: (Units=1/GPa)
#
#
# Indices 1 2 3 4 5 6 
#
# 1 0.015731 -0.009674 -0.000318 0.000000 0.000000 0.000000
# 2 -0.009674 0.035057 -0.017481 0.000000 0.000000 0.000000
# 3 -0.000318 -0.017481 0.028599 0.000000 0.000000 0.000000
# 4 0.000000 0.000000 0.000000 0.049586 0.000000 0.000000
# 5 0.000000 0.000000 0.000000 0.000000 0.072580 0.000000
# 6 0.000000 0.000000 0.000000 0.000000 0.000000 0.037254
#
#
# Mechanical properties :
#
#
# Convention : Reuss Voigt Hill
#
# Bulk Modulus (GPa) = 40.91258 41.92785 41.42021
# Shear Modulus (GPa) = 16.56178 19.20261 17.88219
#
# Velocity S-wave (km/s) = 3.26870 3.51967 3.39651
# Velocity P-wave (km/s) = 6.37492 6.60047 6.48867
#
# Compressibility (1/GPa) = 0.02444236
#
# Stress axis : x y z
#
# Youngs Moduli (GPa) = 63.56811 28.52487 34.96614
#
# Poissons Ratio (x) = 0.27594 0.01113
# Poissons Ratio (y) = 0.61493 0.61123
# Poissons Ratio (z) = 0.02024 0.49863
#
# Static dielectric constant tensor:
#      x y z
#    x 1.510300 0.000000 0.000000 
#    y 0.000000 1.510310 0.000000 
#    z 0.000000 0.000000 1.514690 
# 
# From -- ./inp_files/23290.got.cif
#   From: 2010.05.17/outbox.cif.g08.bks.cpg/sg59_12_cif.got.tgz:23290.got - 2010.06.03 14:40:33.
