data_PCOD9446914
_publ_section_title
;
Structure prediction by ZEFSAII (Michael W. Deem and Ramdas Pophale) SiO2 
 PCOD9446914
Probable space group: P M M N
;
_chemical_formula_sum "Si O2"
_cell_formula_units_Z 64
_cell_length_a 7.630853
_cell_length_b 20.479807
_cell_length_c 20.835181
_cell_angle_alpha 90.000000
_cell_angle_beta 90.000000
_cell_angle_gamma 90.000000
_cell_volume 3256.088681
_symmetry_space_group_name_H-M "P M M N"
_symmetry_group_IT_number 59
_space_group.IT_coordinate_system_code '2'
_symmetry_cell_setting 'orthorhombic'
loop_
_space_group_symop_operation_xyz
x,y,z
1/2-x,1/2-y,z
1/2+x,-y,-z
-x,1/2+y,-z
-x,-y,-z
1/2+x,1/2+y,-z
1/2-x,y,z
x,1/2-y,z
loop_
_atom_site_type_symbol
_atom_site_label
_atom_site_fract_x
_atom_site_fract_y
_atom_site_fract_z
Si Si1 0.038343 0.089814 0.954830
Si Si2 0.541309 0.593778 0.550383
Si Si3 0.535189 0.675528 0.162781
Si Si4 0.546174 0.579739 0.273292
Si Si5 0.962596 0.945482 0.413074
Si Si6 0.455566 0.947401 0.907803
Si Si7 0.047969 0.435683 0.233800
Si Si8 0.964959 0.824224 0.669510
O O1 0.250000 0.087802 0.955258
O O2 0.981084 0.145169 0.905443
O O3 0.976034 0.019632 0.927165
O O4 0.980777 0.095268 0.028382
O O5 0.750000 0.603172 0.545871
O O6 0.473039 0.590758 0.477418
O O7 0.509713 0.521733 0.579480
O O8 0.475886 0.647062 0.600802
O O9 0.750000 0.674124 0.162909
O O10 0.480368 0.750000 0.171055
O O11 0.471984 0.628208 0.219764
O O12 0.750000 0.598001 0.279650
O O13 0.470626 0.580820 0.345103
O O14 0.539111 0.505271 0.248441
O O15 0.750000 0.942575 0.412687
O O16 0.250000 0.954051 0.894680
O O17 0.537763 0.922713 0.842066
O O18 0.250000 0.444720 0.252587
O O19 0.978186 0.375830 0.276138
O O20 0.750000 0.823789 0.669927
O O21 0.022176 0.750000 0.679991
#
# Coordination Sequence:
#
# PCOD9446914 Si02
#       8
#     8   8   8   8   8   8   8   8
#     4   9  17  31  50  74  98 126 163 200 239 292
#     4   9  16  29  47  70  96 127 165 202 245 295
#     4   9  17  31  51  73 100 134 167 200 244 298
#     4  10  18  31  49  74 104 132 164 207 253 294
#     4   9  17  27  46  73 101 126 157 204 251 290
#     4  10  19  32  51  75 101 127 157 205 255 288
#     4  11  20  31  51  76  98 129 171 210 250 298
#     4   9  18  32  49  70  99 133 170 212 253 296
#
# _framework density 19.655484000000001
#
# number of rings (size 3 to 8) (size 9 to 14) (size 15 to 20)
#    0.000    2.500    2.500    0.750    0.000    0.500 
#    0.000    1.250    0.000   12.375    0.000    0.000 
#    0.000    3.000    0.000    0.000    0.000    0.000 
#
# Total GULP energy -356994.443593 kJ/mol
# GULP energy per Si atom -5578.038181 kJ/mol
# Density = 1.961075 g / cm^3
# Si number density = 19.655484 Si / 1000 Ang^3
#
#
#
# Elastic Constant Matrix: (Units=GPa)
#
#
# Indices 1 2 3 4 5 6 
#
# 1 36.1427 -4.1058 -4.3163 0.0000 0.0000 0.0000
# 2 -4.1058 123.6925 83.4486 0.0000 0.0000 0.0000
# 3 -4.3163 83.4486 168.7549 0.0000 0.0000 0.0000
# 4 0.0000 0.0000 0.0000 27.6163 0.0000 0.0000
# 5 0.0000 0.0000 0.0000 0.0000 10.6987 0.0000
# 6 0.0000 0.0000 0.0000 0.0000 0.0000 10.2511
#
#
#
# Elastic Compliance Matrix: (Units=1/GPa)
#
#
# Indices 1 2 3 4 5 6 
#
# 1 0.027789 0.000665 0.000382 0.000000 0.000000 0.000000
# 2 0.000665 0.012148 -0.005990 0.000000 0.000000 0.000000
# 3 0.000382 -0.005990 0.008898 0.000000 0.000000 0.000000
# 4 0.000000 0.000000 0.000000 0.036210 0.000000 0.000000
# 5 0.000000 0.000000 0.000000 0.000000 0.093470 0.000000
# 6 0.000000 0.000000 0.000000 0.000000 0.000000 0.097551
#
#
# Mechanical properties :
#
#
# Convention : Reuss Voigt Hill
#
# Bulk Modulus (GPa) = 25.67523 53.18257 39.42890
# Shear Modulus (GPa) = 16.72606 26.61745 21.67175
#
# Velocity S-wave (km/s) = 2.92029 3.68394 3.32411
# Velocity P-wave (km/s) = 4.94588 6.72393 5.90225
#
# Compressibility (1/GPa) = 0.03894805
#
# Stress axis : x y z
#
# Youngs Moduli (GPa) = 35.98511 82.31969 112.39026
#
# Poissons Ratio (x) = -0.05471 -0.04295
# Poissons Ratio (y) = -0.02392 0.67322
# Poissons Ratio (z) = -0.01375 0.49310
#
# Static dielectric constant tensor:
#      x y z
#    x 1.746290 0.000000 0.000000 
#    y 0.000000 1.651090 0.000000 
#    z 0.000000 0.000000 1.714210 
# 
# From -- ./inp_files/29688.got.cif
#   From: 2010.05.17/outbox.cif.g08.bks.cpg/sg59_15_cif.got.tgz:29688.got - 2010.06.03 14:40:33.
