data_PCOD9446509
_publ_section_title
;
Structure prediction by ZEFSAII (Michael W. Deem and Ramdas Pophale) SiO2 
 PCOD9446509
Probable space group: P M M N
;
_chemical_formula_sum "Si O2"
_cell_formula_units_Z 64
_cell_length_a 7.727537
_cell_length_b 28.849649
_cell_length_c 14.596758
_cell_angle_alpha 90.000000
_cell_angle_beta 90.000000
_cell_angle_gamma 90.000000
_cell_volume 3254.153498
_symmetry_space_group_name_H-M "P M M N"
_symmetry_group_IT_number 59
_space_group.IT_coordinate_system_code '2'
_symmetry_cell_setting 'orthorhombic'
loop_
_space_group_symop_operation_xyz
x,y,z
1/2-x,1/2-y,z
1/2+x,-y,-z
-x,1/2+y,-z
-x,-y,-z
1/2+x,1/2+y,-z
1/2-x,y,z
x,1/2-y,z
loop_
_atom_site_type_symbol
_atom_site_label
_atom_site_fract_x
_atom_site_fract_y
_atom_site_fract_z
Si Si1 0.038903 0.697996 0.389757
Si Si2 0.958068 0.303457 0.924922
Si Si3 0.052624 0.196733 0.125242
Si Si4 0.954808 0.949090 0.099194
Si Si5 0.958158 0.129309 0.763948
Si Si6 0.542621 0.445546 0.104685
Si Si7 0.961447 0.302187 0.396775
Si Si8 0.442828 0.876534 0.743125
O O1 0.250000 0.698182 0.386118
O O2 0.985645 0.750000 0.357058
O O3 0.979526 0.654033 0.329498
O O4 0.991012 0.694209 0.496400
O O5 0.750000 0.307419 0.935133
O O6 0.998431 0.250000 0.906378
O O7 0.043559 0.317086 0.019778
O O8 0.014496 0.334902 0.842203
O O9 0.250000 0.192396 0.157949
O O10 0.998805 0.250000 0.129680
O O11 0.931785 0.164966 0.184030
O O12 0.750000 0.952442 0.091138
O O13 0.993320 0.919668 0.190501
O O14 0.024801 0.001618 0.106729
O O15 0.014469 0.928655 0.000483
O O16 0.750000 0.128894 0.758539
O O17 0.750000 0.445392 0.116685
O O18 0.473771 0.416051 0.191694
O O19 0.750000 0.302654 0.390699
O O20 0.015523 0.250000 0.364278
O O21 0.023933 0.347600 0.341363
O O22 0.250000 0.892254 0.714350
#
# Coordination Sequence:
#
# PCOD9446509 Si02
#       8
#     8   8   8   8   8   8   8   8
#     4   8  14  26  45  70  97 120 146 185 228 266
#     4   9  17  28  41  59  85 116 147 177 211 255
#     4  10  20  30  39  58  91 124 148 173 212 264
#     4  10  20  33  48  66  91 122 153 188 231 275
#     4  10  18  28  46  69  90 115 149 186 222 263
#     4   9  19  34  49  67  91 119 153 192 232 274
#     4   8  14  25  44  71  96 115 142 184 229 268
#     4  10  18  29  48  69  87 112 150 192 229 266
#
# _framework density 19.667173999999999
#
# number of rings (size 3 to 8) (size 9 to 14) (size 15 to 20)
#    0.000    2.750    0.000    3.000    0.000    7.250 
#    0.000    0.000    0.000    2.625    0.000    1.750 
#    0.000    0.000    0.000    0.000    0.000    0.375 
#
# Total GULP energy -356399.563497 kJ/mol
# GULP energy per Si atom -5568.743180 kJ/mol
# Density = 1.962241 g / cm^3
# Si number density = 19.667174 Si / 1000 Ang^3
#
#
#
# Elastic Constant Matrix: (Units=GPa)
#
#
# Indices 1 2 3 4 5 6 
#
# 1 23.1267 5.8765 3.2531 0.0000 0.0000 0.0000
# 2 5.8765 96.8688 55.5196 0.0000 0.0000 0.0000
# 3 3.2531 55.5196 91.4042 0.0000 0.0000 0.0000
# 4 0.0000 0.0000 0.0000 38.3620 0.0000 0.0000
# 5 0.0000 0.0000 0.0000 0.0000 3.9521 0.0000
# 6 0.0000 0.0000 0.0000 0.0000 0.0000 12.6208
#
#
#
# Elastic Compliance Matrix: (Units=1/GPa)
#
#
# Indices 1 2 3 4 5 6 
#
# 1 0.043917 -0.002713 0.000085 0.000000 0.000000 0.000000
# 2 -0.002713 0.016004 -0.009624 0.000000 0.000000 0.000000
# 3 0.000085 -0.009624 0.016783 0.000000 0.000000 0.000000
# 4 0.000000 0.000000 0.000000 0.026067 0.000000 0.000000
# 5 0.000000 0.000000 0.000000 0.000000 0.253028 0.000000
# 6 0.000000 0.000000 0.000000 0.000000 0.000000 0.079234
#
#
# Mechanical properties :
#
#
# Convention : Reuss Voigt Hill
#
# Bulk Modulus (GPa) = 19.15713 37.85536 28.50624
# Shear Modulus (GPa) = 10.48350 20.77034 15.62692
#
# Velocity S-wave (km/s) = 2.31128 3.25328 2.82187
# Velocity P-wave (km/s) = 4.10908 5.77941 5.01428
#
# Compressibility (1/GPa) = 0.05219989
#
# Stress axis : x y z
#
# Youngs Moduli (GPa) = 22.76997 62.48457 59.58299
#
# Poissons Ratio (x) = 0.16951 -0.00505
# Poissons Ratio (y) = 0.06177 0.57345
# Poissons Ratio (z) = -0.00193 0.60137
#
# Static dielectric constant tensor:
#      x y z
#    x 1.564640 0.000000 0.000000 
#    y 0.000000 1.740170 0.000000 
#    z 0.000000 0.000000 1.715620 
# 
# From -- ./inp_files/21970.got.cif
#   From: 2010.05.17/outbox.cif.g08.bks.cpg/sg59_11_cif.got.tgz:21970.got - 2010.06.03 14:40:33.
