data_PCOD9446721
_publ_section_title
;
Structure prediction by ZEFSAII (Michael W. Deem and Ramdas Pophale) SiO2 
 PCOD9446721
Probable space group: P M M N
;
_chemical_formula_sum "Si O2"
_cell_formula_units_Z 56
_cell_length_a 29.463169
_cell_length_b 8.510725
_cell_length_c 13.827859
_cell_angle_alpha 90.000000
_cell_angle_beta 90.000000
_cell_angle_gamma 90.000000
_cell_volume 3467.376146
_symmetry_space_group_name_H-M "P M M N"
_symmetry_group_IT_number 59
_space_group.IT_coordinate_system_code '2'
_symmetry_cell_setting 'orthorhombic'
loop_
_space_group_symop_operation_xyz
x,y,z
1/2-x,1/2-y,z
1/2+x,-y,-z
-x,1/2+y,-z
-x,-y,-z
1/2+x,1/2+y,-z
1/2-x,y,z
x,1/2-y,z
loop_
_atom_site_type_symbol
_atom_site_label
_atom_site_fract_x
_atom_site_fract_y
_atom_site_fract_z
Si Si1 0.301084 0.060127 0.005592
Si Si2 0.029602 0.935712 0.793045
Si Si3 0.106792 0.064124 0.913250
Si Si4 0.106820 0.564770 0.300036
Si Si5 0.945321 0.066507 0.904221
Si Si6 0.800907 0.059521 0.775812
Si Si7 0.482761 0.939120 0.397797
O O1 0.250000 0.014815 0.975106
O O2 0.302908 0.250000 0.011278
O O3 0.308249 0.994712 0.113690
O O4 0.342021 0.009067 0.936275
O O5 0.023862 0.750000 0.789958
O O6 0.079821 0.980484 0.827390
O O7 0.994509 0.005397 0.872242
O O8 0.014859 0.006579 0.690240
O O9 0.107106 0.250000 0.895134
O O10 0.078458 0.028603 0.010865
O O11 0.111224 0.750000 0.322932
O O12 0.084896 0.554025 0.192979
O O13 0.157639 0.499609 0.290158
O O14 0.068190 0.500737 0.371490
O O15 0.947928 0.250000 0.931999
O O16 0.750000 0.009962 0.747096
O O17 0.802229 0.250000 0.775574
O O18 0.481746 0.750000 0.397462
O O19 0.500000 0.000000 0.500000
#
# Coordination Sequence:
#
# PCOD9446721 Si02
#       7
#     8   8   8   8   8   8   8
#     4   9  18  30  43  63  93 128 164 200 235 272
#     4  11  22  34  48  68  93 122 158 196 236 285
#     4  11  20  30  45  66  94 129 164 197 235 280
#     4   8  15  27  44  67  94 123 152 188 231 273
#     4  10  18  30  45  64  95 129 161 195 232 274
#     4   9  15  25  43  66  92 124 160 191 224 271
#     4  10  20  36  54  72  95 121 153 196 243 294
#
# _framework density 16.150541
#
# number of rings (size 3 to 8) (size 9 to 14) (size 15 to 20)
#    0.000    2.286    1.429    3.857    0.000    0.571 
#    0.000    0.714    0.000    0.000    0.000    1.000 
#    0.000    3.429    0.000    0.000    0.000    0.000 
#
# Total GULP energy -312193.153621 kJ/mol
# GULP energy per Si atom -5574.877743 kJ/mol
# Density = 1.611378 g / cm^3
# Si number density = 16.150541 Si / 1000 Ang^3
#
#
#
# Elastic Constant Matrix: (Units=GPa)
#
#
# Indices 1 2 3 4 5 6 
#
# 1 150.9706 15.3510 53.8813 0.0000 0.0000 0.0000
# 2 15.3510 24.5516 5.1187 0.0000 0.0000 0.0000
# 3 53.8813 5.1187 54.4589 0.0000 0.0000 0.0000
# 4 0.0000 0.0000 0.0000 21.9838 0.0000 0.0000
# 5 0.0000 0.0000 0.0000 0.0000 19.8650 0.0000
# 6 0.0000 0.0000 0.0000 0.0000 0.0000 15.1573
#
#
#
# Elastic Compliance Matrix: (Units=1/GPa)
#
#
# Indices 1 2 3 4 5 6 
#
# 1 0.010722 -0.004582 -0.010178 0.000000 0.000000 0.000000
# 2 -0.004582 0.043503 0.000445 0.000000 0.000000 0.000000
# 3 -0.010178 0.000445 0.028391 0.000000 0.000000 0.000000
# 4 0.000000 0.000000 0.000000 0.045488 0.000000 0.000000
# 5 0.000000 0.000000 0.000000 0.000000 0.050340 0.000000
# 6 0.000000 0.000000 0.000000 0.000000 0.000000 0.065975
#
#
# Mechanical properties :
#
#
# Convention : Reuss Voigt Hill
#
# Bulk Modulus (GPa) = 18.52371 42.07592 30.29981
# Shear Modulus (GPa) = 17.17955 21.77656 19.47806
#
# Velocity S-wave (km/s) = 3.26500 3.67597 3.47656
# Velocity P-wave (km/s) = 5.07030 6.64273 5.90905
#
# Compressibility (1/GPa) = 0.05398488
#
# Stress axis : x y z
#
# Youngs Moduli (GPa) = 93.26473 22.98703 35.22303
#
# Poissons Ratio (x) = 0.10533 0.35849
# Poissons Ratio (y) = 0.42735 -0.01566
# Poissons Ratio (z) = 0.94923 -0.01022
#
# Static dielectric constant tensor:
#      x y z
#    x 1.601960 0.000000 0.000000 
#    y 0.000000 1.546420 0.000000 
#    z 0.000000 0.000000 1.506040 
# 
# From -- ./inp_files/24940.got.cif
#   From: 2010.05.17/outbox.cif.g08.bks.cpg/sg59_13_cif.got.tgz:24940.got - 2010.06.03 14:40:33.
