data_PCOD9446947
_publ_section_title
;
Structure prediction by ZEFSAII (Michael W. Deem and Ramdas Pophale) SiO2 
 PCOD9446947
Probable space group: P M M N
;
_chemical_formula_sum "Si O2"
_cell_formula_units_Z 58
_cell_length_a 24.557497
_cell_length_b 7.369610
_cell_length_c 14.793956
_cell_angle_alpha 90.000000
_cell_angle_beta 90.000000
_cell_angle_gamma 90.000000
_cell_volume 2677.397959
_symmetry_space_group_name_H-M "P M M N"
_symmetry_group_IT_number 59
_space_group.IT_coordinate_system_code '2'
_symmetry_cell_setting 'orthorhombic'
loop_
_space_group_symop_operation_xyz
x,y,z
1/2-x,1/2-y,z
1/2+x,-y,-z
-x,1/2+y,-z
-x,-y,-z
1/2+x,1/2+y,-z
1/2-x,y,z
x,1/2-y,z
loop_
_atom_site_type_symbol
_atom_site_label
_atom_site_fract_x
_atom_site_fract_y
_atom_site_fract_z
Si Si1 0.189164 0.537711 0.590490
Si Si2 0.143021 0.031432 0.393944
Si Si3 0.018624 0.033794 0.397280
Si Si4 0.834619 0.530107 0.802436
Si Si5 0.250000 0.750000 0.128215
Si Si6 0.436328 0.969659 0.906860
Si Si7 0.911935 0.471822 0.290578
Si Si8 0.058800 0.042382 0.106107
O O1 0.250000 0.460992 0.603412
O O2 0.192331 0.750000 0.614207
O O3 0.171750 0.526433 0.485870
O O4 0.139015 0.463669 0.649753
O O5 0.140667 0.250000 0.396231
O O6 0.080413 0.964658 0.388347
O O7 0.175009 0.983903 0.302676
O O8 0.021610 0.250000 0.382093
O O9 0.970035 0.967115 0.332141
O O10 0.000000 0.000000 0.500000
O O11 0.829080 0.750000 0.814446
O O12 0.796632 0.410072 0.864207
O O13 0.896604 0.475464 0.824974
O O14 0.436017 0.750000 0.912032
O O15 0.406881 0.022522 0.814559
O O16 0.498729 0.038543 0.897532
O O17 0.417106 0.034632 0.004711
O O18 0.913029 0.250000 0.294568
O O19 0.049437 0.250000 0.132896
#
# Coordination Sequence:
#
# PCOD9446947 Si02
#       8
#     8   8   8   8   2   8   8   8
#     4  10  21  34  52  73 103 143 191 234 274 325
#     4  10  21  35  54  79 108 147 187 234 293 348
#     4  10  18  31  51  76 107 144 183 228 292 351
#     4  10  23  41  60  85 123 156 197 251 303 353
#     4  12  26  40  64  90 112 162 214 244 294 362
#     4   9  17  31  59  85 113 150 191 230 293 365
#     4   9  17  32  52  77 108 145 182 232 287 338
#     4   9  18  35  57  86 117 150 180 235 303 360
#
# _framework density 21.662825000000002
#
# number of rings (size 3 to 8) (size 9 to 14) (size 15 to 20)
#    0.000    2.345    1.379    1.034    2.897    3.586 
#    0.000    1.379    1.517    0.000    0.000    0.000 
#    0.000    0.000    0.000    0.000    0.000    0.000 
#
# Total GULP energy -323206.228020 kJ/mol
# GULP energy per Si atom -5572.521173 kJ/mol
# Density = 2.161352 g / cm^3
# Si number density = 21.662825 Si / 1000 Ang^3
#
#
#
# Elastic Constant Matrix: (Units=GPa)
#
#
# Indices 1 2 3 4 5 6 
#
# 1 70.0634 5.6664 -0.8851 0.0000 0.0000 0.0000
# 2 5.6664 86.2530 -13.3539 0.0000 0.0000 0.0000
# 3 -0.8851 -13.3539 74.7288 0.0000 0.0000 0.0000
# 4 0.0000 0.0000 0.0000 19.0147 0.0000 0.0000
# 5 0.0000 0.0000 0.0000 0.0000 -20.1336 0.0000
# 6 0.0000 0.0000 0.0000 0.0000 0.0000 174.6863
#
#
#
# Elastic Compliance Matrix: (Units=1/GPa)
#
#
# Indices 1 2 3 4 5 6 
#
# 1 0.014349 -0.000942 0.000002 0.000000 0.000000 0.000000
# 2 -0.000942 0.011986 0.002131 0.000000 0.000000 0.000000
# 3 0.000002 0.002131 0.013762 0.000000 0.000000 0.000000
# 4 0.000000 0.000000 0.000000 0.052591 0.000000 0.000000
# 5 0.000000 0.000000 0.000000 0.000000 -0.049668 0.000000
# 6 0.000000 0.000000 0.000000 0.000000 0.000000 0.005725
#
#
# Mechanical properties :
#
#
# Convention : Reuss Voigt Hill
#
# Bulk Modulus (GPa) = 23.54239 23.76669 23.65454
# Shear Modulus (GPa) = 82.61237 50.68799 66.65018
#
# Velocity S-wave (km/s) = 6.18210 4.84246 5.55283
# Velocity P-wave (km/s) = 7.86441 6.50084 7.21491
#
# Compressibility (1/GPa) = 0.04247657
#
# Stress axis : x y z
#
# Youngs Moduli (GPa) = 69.69113 83.43362 72.66134
#
# Poissons Ratio (x) = 0.07863 -0.00011
# Poissons Ratio (y) = 0.06568 -0.15481
# Poissons Ratio (z) = -0.00011 -0.17777
#
# Static dielectric constant tensor:
#      x y z
#    x 1.760870 0.000000 0.000000 
#    y 0.000000 1.844410 0.000000 
#    z 0.000000 0.000000 1.778560 
# 
# From -- ./inp_files/24602.got.cif
#   From: 2010.05.17/outbox.cif.g08.bks.cpg/sg59_13_cif.got.tgz:24602.got - 2010.06.03 14:40:33.
