data_PCOD9446612
_publ_section_title
;
Structure prediction by ZEFSAII (Michael W. Deem and Ramdas Pophale) SiO2 
 PCOD9446612
Probable space group: P M M N
;
_chemical_formula_sum "Si O2"
_cell_formula_units_Z 64
_cell_length_a 23.237889
_cell_length_b 9.194797
_cell_length_c 16.710126
_cell_angle_alpha 90.000000
_cell_angle_beta 90.000000
_cell_angle_gamma 90.000000
_cell_volume 3570.413722
_symmetry_space_group_name_H-M "P M M N"
_symmetry_group_IT_number 59
_space_group.IT_coordinate_system_code '2'
_symmetry_cell_setting 'orthorhombic'
loop_
_space_group_symop_operation_xyz
x,y,z
1/2-x,1/2-y,z
1/2+x,-y,-z
-x,1/2+y,-z
-x,-y,-z
1/2+x,1/2+y,-z
1/2-x,y,z
x,1/2-y,z
loop_
_atom_site_type_symbol
_atom_site_label
_atom_site_fract_x
_atom_site_fract_y
_atom_site_fract_z
Si Si1 0.425064 0.421725 0.725761
Si Si2 0.684513 0.083072 0.791900
Si Si3 0.314798 0.922438 0.762001
Si Si4 0.399654 0.084978 0.309943
Si Si5 0.489656 0.081814 0.160530
Si Si6 0.484333 0.579518 0.418431
Si Si7 0.099540 0.919992 0.055820
Si Si8 0.315638 0.424163 0.934802
O O1 0.417541 0.250000 0.740307
O O2 0.365035 0.502487 0.712132
O O3 0.456472 0.495701 0.802256
O O4 0.466144 0.439961 0.648908
O O5 0.750000 0.048164 0.812828
O O6 0.681634 0.250000 0.763424
O O7 0.643945 0.075284 0.869390
O O8 0.658940 0.978882 0.724802
O O9 0.250000 0.942242 0.730019
O O10 0.324940 0.750000 0.771243
O O11 0.316926 0.001512 0.848016
O O12 0.394183 0.250000 0.337145
O O13 0.443713 0.082821 0.234113
O O14 0.427589 0.987384 0.378246
O O15 0.503286 0.250000 0.141498
O O16 0.457948 0.999679 0.087750
O O17 0.500000 0.500000 0.500000
O O18 0.477396 0.750000 0.432593
O O19 0.089133 0.750000 0.036379
O O20 0.133819 0.004406 0.986864
O O21 0.250000 0.450722 0.967053
O O22 0.323038 0.250000 0.929527
#
# Coordination Sequence:
#
# PCOD9446612 Si02
#       8
#     8   8   8   8   8   8   8   8
#     4  10  20  35  56  81 107 135 167 204 250 302
#     4   9  17  28  43  65  95 133 173 209 247 292
#     4  10  21  37  57  79 102 132 171 212 255 304
#     4   9  17  29  46  69  98 130 164 202 241 285
#     4   9  17  30  48  71 100 134 170 208 252 301
#     4  10  20  34  55  82 108 132 159 195 240 292
#     4  10  18  29  46  69  99 134 174 219 264 308
#     4  10  20  33  49  70  98 133 174 221 269 312
#
# _framework density 17.925094999999999
#
# number of rings (size 3 to 8) (size 9 to 14) (size 15 to 20)
#    0.000    2.375    0.000    3.000    0.000    7.250 
#    0.000    0.625    0.000    0.750    0.000    3.500 
#    0.000    0.000    0.000    0.000    0.000    0.000 
#
# Total GULP energy -357099.398267 kJ/mol
# GULP energy per Si atom -5579.678098 kJ/mol
# Density = 1.788430 g / cm^3
# Si number density = 17.925095 Si / 1000 Ang^3
#
#
#
# Elastic Constant Matrix: (Units=GPa)
#
#
# Indices 1 2 3 4 5 6 
#
# 1 59.2972 44.5007 4.3470 0.0000 0.0000 0.0000
# 2 44.5007 122.8919 29.0817 0.0000 0.0000 0.0000
# 3 4.3470 29.0817 30.4125 0.0000 0.0000 0.0000
# 4 0.0000 0.0000 0.0000 27.5152 0.0000 0.0000
# 5 0.0000 0.0000 0.0000 0.0000 15.5336 0.0000
# 6 0.0000 0.0000 0.0000 0.0000 0.0000 30.4647
#
#
#
# Elastic Compliance Matrix: (Units=1/GPa)
#
#
# Indices 1 2 3 4 5 6 
#
# 1 0.024063 -0.010210 0.006324 0.000000 0.000000 0.000000
# 2 -0.010210 0.014849 -0.012740 0.000000 0.000000 0.000000
# 3 0.006324 -0.012740 0.044160 0.000000 0.000000 0.000000
# 4 0.000000 0.000000 0.000000 0.036344 0.000000 0.000000
# 5 0.000000 0.000000 0.000000 0.000000 0.064376 0.000000
# 6 0.000000 0.000000 0.000000 0.000000 0.000000 0.032825
#
#
# Mechanical properties :
#
#
# Convention : Reuss Voigt Hill
#
# Bulk Modulus (GPa) = 20.07249 40.94004 30.50626
# Shear Modulus (GPa) = 18.76342 23.68085 21.22213
#
# Velocity S-wave (km/s) = 3.23889 3.63864 3.44457
# Velocity P-wave (km/s) = 5.02091 6.36726 5.73374
#
# Compressibility (1/GPa) = 0.04981944
#
# Stress axis : x y z
#
# Youngs Moduli (GPa) = 41.55785 67.34351 22.64494
#
# Poissons Ratio (x) = 0.68757 -0.14320
# Poissons Ratio (y) = 0.42430 0.28850
# Poissons Ratio (z) = -0.26280 0.85796
#
# Static dielectric constant tensor:
#      x y z
#    x 1.634070 0.000000 0.000000 
#    y 0.000000 1.603200 0.000000 
#    z 0.000000 0.000000 1.590740 
# 
# From -- ./inp_files/24661.got.cif
#   From: 2010.05.17/outbox.cif.g08.bks.cpg/sg59_13_cif.got.tgz:24661.got - 2010.06.03 14:40:33.
