data_PCOD9446985
_publ_section_title
;
Structure prediction by ZEFSAII (Michael W. Deem and Ramdas Pophale) SiO2 
 PCOD9446985
Probable space group: P M M N
;
_chemical_formula_sum "Si O2"
_cell_formula_units_Z 64
_cell_length_a 8.342816
_cell_length_b 15.108676
_cell_length_c 25.025522
_cell_angle_alpha 90.000000
_cell_angle_beta 90.000000
_cell_angle_gamma 90.000000
_cell_volume 3154.439617
_symmetry_space_group_name_H-M "P M M N"
_symmetry_group_IT_number 59
_space_group.IT_coordinate_system_code '2'
_symmetry_cell_setting 'orthorhombic'
loop_
_space_group_symop_operation_xyz
x,y,z
1/2-x,1/2-y,z
1/2+x,-y,-z
-x,1/2+y,-z
-x,-y,-z
1/2+x,1/2+y,-z
1/2-x,y,z
x,1/2-y,z
loop_
_atom_site_type_symbol
_atom_site_label
_atom_site_fract_x
_atom_site_fract_y
_atom_site_fract_z
Si Si1 0.555010 0.156413 0.593414
Si Si2 0.443834 0.147998 0.778525
Si Si3 0.443460 0.650480 0.637476
Si Si4 0.941845 0.024843 0.682090
Si Si5 0.443422 0.904260 0.519086
Si Si6 0.940862 0.538749 0.117848
Si Si7 0.439260 0.349129 0.099882
Si Si8 0.060818 0.649727 0.019808
O O1 0.750000 0.153190 0.593977
O O2 0.505346 0.250000 0.618206
O O3 0.497662 0.074435 0.628262
O O4 0.505839 0.153605 0.531802
O O5 0.250000 0.149428 0.778187
O O6 0.499837 0.250000 0.774020
O O7 0.500849 0.085007 0.730803
O O8 0.496243 0.101367 0.833648
O O9 0.250000 0.650252 0.636103
O O10 0.496936 0.750000 0.650286
O O11 0.498137 0.575264 0.678386
O O12 0.501736 0.625084 0.577372
O O13 0.750000 0.024012 0.681825
O O14 0.250000 0.902408 0.521511
O O15 0.500000 0.000000 0.500000
O O16 0.750000 0.545500 0.113786
O O17 0.985170 0.436046 0.126285
O O18 0.013026 0.577442 0.063217
O O19 0.250000 0.350660 0.109845
O O20 0.500491 0.250000 0.114487
O O21 0.470730 0.359431 0.036366
O O22 0.250000 0.643086 0.008605
O O23 0.027558 0.750000 0.040281
#
# Coordination Sequence:
#
# PCOD9446985 Si02
#       8
#     8   8   8   8   8   8   8   8
#     4   9  17  30  50  77 108 141 176 215 267 328
#     4  10  23  43  64  86 114 148 186 231 284 342
#     4  10  21  37  58  82 111 151 194 234 280 337
#     4  11  22  37  59  85 112 144 184 234 288 338
#     4  10  18  31  52  78 111 147 183 224 273 330
#     4  11  22  37  59  85 115 152 193 238 289 343
#     4  10  21  37  57  83 118 158 197 238 284 335
#     4  10  20  34  55  85 121 159 198 239 283 337
#
# _framework density 20.288867
#
# number of rings (size 3 to 8) (size 9 to 14) (size 15 to 20)
#    0.000    1.875    1.250    3.000    0.000    5.500 
#    0.000    0.625    0.000    2.625    0.000    0.000 
#    0.000    0.000    0.000    0.000    0.000    0.000 
#
# Total GULP energy -357257.053408 kJ/mol
# GULP energy per Si atom -5582.141459 kJ/mol
# Density = 2.024269 g / cm^3
# Si number density = 20.288867 Si / 1000 Ang^3
#
#
#
# Elastic Constant Matrix: (Units=GPa)
#
#
# Indices 1 2 3 4 5 6 
#
# 1 14.7728 10.7320 4.0536 0.0000 0.0000 0.0000
# 2 10.7320 172.9317 41.4814 0.0000 0.0000 0.0000
# 3 4.0536 41.4814 50.4595 0.0000 0.0000 0.0000
# 4 0.0000 0.0000 0.0000 31.9220 0.0000 0.0000
# 5 0.0000 0.0000 0.0000 0.0000 19.5540 0.0000
# 6 0.0000 0.0000 0.0000 0.0000 0.0000 25.7725
#
#
#
# Elastic Compliance Matrix: (Units=1/GPa)
#
#
# Indices 1 2 3 4 5 6 
#
# 1 0.071160 -0.003793 -0.002599 0.000000 0.000000 0.000000
# 2 -0.003793 0.007405 -0.005783 0.000000 0.000000 0.000000
# 3 -0.002599 -0.005783 0.024781 0.000000 0.000000 0.000000
# 4 0.000000 0.000000 0.000000 0.031326 0.000000 0.000000
# 5 0.000000 0.000000 0.000000 0.000000 0.051140 0.000000
# 6 0.000000 0.000000 0.000000 0.000000 0.000000 0.038801
#
#
# Mechanical properties :
#
#
# Convention : Reuss Voigt Hill
#
# Bulk Modulus (GPa) = 12.65865 38.96647 25.81256
# Shear Modulus (GPa) = 18.16234 27.57617 22.86926
#
# Velocity S-wave (km/s) = 2.99521 3.69070 3.36100
# Velocity P-wave (km/s) = 4.26785 6.11631 5.27370
#
# Compressibility (1/GPa) = 0.07899734
#
# Stress axis : x y z
#
# Youngs Moduli (GPa) = 14.05279 135.04093 40.35418
#
# Poissons Ratio (x) = 0.51219 0.10486
# Poissons Ratio (y) = 0.05330 0.23336
# Poissons Ratio (z) = 0.03652 0.78093
#
# Static dielectric constant tensor:
#      x y z
#    x 1.715260 0.000000 0.000000 
#    y 0.000000 1.766160 0.000000 
#    z 0.000000 0.000000 1.701090 
# 
# From -- ./inp_files/31447.got.cif
#   From: 2010.05.17/outbox.cif.g08.bks.cpg/sg59_16_cif.got.tgz:31447.got - 2010.06.03 14:40:33.
