data_PCOD9446226
_publ_section_title
;
Structure prediction by ZEFSAII (Michael W. Deem and Ramdas Pophale) SiO2 
 PCOD9446226
Probable space group: P M M N
;
_chemical_formula_sum "Si O2"
_cell_formula_units_Z 48
_cell_length_a 18.277573
_cell_length_b 14.495418
_cell_length_c 9.897595
_cell_angle_alpha 90.000000
_cell_angle_beta 90.000000
_cell_angle_gamma 90.000000
_cell_volume 2622.279317
_symmetry_space_group_name_H-M "P M M N"
_symmetry_group_IT_number 59
_space_group.IT_coordinate_system_code '2'
_symmetry_cell_setting 'orthorhombic'
loop_
_space_group_symop_operation_xyz
x,y,z
1/2-x,1/2-y,z
1/2+x,-y,-z
-x,1/2+y,-z
-x,-y,-z
1/2+x,1/2+y,-z
1/2-x,y,z
x,1/2-y,z
loop_
_atom_site_type_symbol
_atom_site_label
_atom_site_fract_x
_atom_site_fract_y
_atom_site_fract_z
Si Si1 0.098624 0.521564 0.233434
Si Si2 0.630681 0.357341 0.998654
Si Si3 0.913289 0.993262 0.471426
Si Si4 0.950725 0.859340 0.254187
Si Si5 0.044601 0.356378 0.048109
Si Si6 0.332775 0.857942 0.700052
O O1 0.125206 0.494384 0.382542
O O2 0.070456 0.430641 0.156048
O O3 0.029905 0.591019 0.256777
O O4 0.148490 0.577427 0.127467
O O5 0.647255 0.250000 0.968958
O O6 0.543113 0.364266 0.027532
O O7 0.665472 0.383146 0.141609
O O8 0.887336 0.080572 0.385403
O O9 0.903898 0.905690 0.372827
O O10 0.000000 0.000000 0.500000
O O11 0.958999 0.750000 0.271234
O O12 0.922517 0.875813 0.101160
O O13 0.060085 0.250000 0.085268
O O14 0.250000 0.869201 0.649379
O O15 0.352902 0.750000 0.692781
#
# Coordination Sequence:
#
# PCOD9446226 Si02
#       6
#     8   8   8   8   8   8
#     4  10  17  27  45  72 103 131 166 213 265 308
#     4   9  16  28  47  68  92 128 171 211 251 301
#     4  10  20  31  49  77 106 141 178 218 266 319
#     4   9  17  29  45  69 101 136 170 208 257 310
#     4   9  16  26  44  70 101 132 165 211 263 311
#     4  10  21  37  55  75 105 145 183 219 265 326
#
# _framework density 18.304687000000001
#
# number of rings (size 3 to 8) (size 9 to 14) (size 15 to 20)
#    0.000    2.500    0.000    6.500    0.000    4.000 
#    0.000    0.833    0.000    2.500    0.000    0.000 
#    0.000    1.333    0.000    0.000    0.000    0.000 
#
# Total GULP energy -267454.524921 kJ/mol
# GULP energy per Si atom -5571.969269 kJ/mol
# Density = 1.826302 g / cm^3
# Si number density = 18.304687 Si / 1000 Ang^3
#
#
#
# Elastic Constant Matrix: (Units=GPa)
#
#
# Indices 1 2 3 4 5 6 
#
# 1 24.1891 24.1608 29.1345 0.0000 0.0000 0.0000
# 2 24.1608 101.5627 75.8160 0.0000 0.0000 0.0000
# 3 29.1345 75.8160 133.9310 0.0000 0.0000 0.0000
# 4 0.0000 0.0000 0.0000 13.0648 0.0000 0.0000
# 5 0.0000 0.0000 0.0000 0.0000 5.8498 0.0000
# 6 0.0000 0.0000 0.0000 0.0000 0.0000 7.1266
#
#
#
# Elastic Compliance Matrix: (Units=1/GPa)
#
#
# Indices 1 2 3 4 5 6 
#
# 1 0.059352 -0.007761 -0.008518 0.000000 0.000000 0.000000
# 2 -0.007761 0.018067 -0.008539 0.000000 0.000000 0.000000
# 3 -0.008518 -0.008539 0.014153 0.000000 0.000000 0.000000
# 4 0.000000 0.000000 0.000000 0.076541 0.000000 0.000000
# 5 0.000000 0.000000 0.000000 0.000000 0.170947 0.000000
# 6 0.000000 0.000000 0.000000 0.000000 0.000000 0.140318
#
#
# Mechanical properties :
#
#
# Convention : Reuss Voigt Hill
#
# Bulk Modulus (GPa) = 23.84547 57.54502 40.69524
# Shear Modulus (GPa) = 9.20823 13.91302 11.56063
#
# Velocity S-wave (km/s) = 2.24532 2.75995 2.51582
# Velocity P-wave (km/s) = 4.44716 6.45461 5.54252
#
# Compressibility (1/GPa) = 0.04193669
#
# Stress axis : x y z
#
# Youngs Moduli (GPa) = 16.84867 55.35066 70.65537
#
# Poissons Ratio (x) = 0.42956 0.60183
# Poissons Ratio (y) = 0.13076 0.60333
# Poissons Ratio (z) = 0.14351 0.47264
#
# Static dielectric constant tensor:
#      x y z
#    x 1.621000 0.000000 0.000000 
#    y 0.000000 1.628280 0.000000 
#    z 0.000000 0.000000 1.693700 
# 
# From -- ./inp_files/11287.got.cif
#   From: 2010.05.17/outbox.cif.g08.bks.cpg/sg59_6_cif.got.tgz:11287.got - 2010.06.03 14:40:33.
