data_PCOD9446295
_publ_section_title
;
Structure prediction by ZEFSAII (Michael W. Deem and Ramdas Pophale) SiO2 
 PCOD9446295
Probable space group: P M M N
;
_chemical_formula_sum "Si O2"
_cell_formula_units_Z 64
_cell_length_a 30.944909
_cell_length_b 7.904104
_cell_length_c 15.319625
_cell_angle_alpha 90.000000
_cell_angle_beta 90.000000
_cell_angle_gamma 90.000000
_cell_volume 3747.054332
_symmetry_space_group_name_H-M "P M M N"
_symmetry_group_IT_number 59
_space_group.IT_coordinate_system_code '2'
_symmetry_cell_setting 'orthorhombic'
loop_
_space_group_symop_operation_xyz
x,y,z
1/2-x,1/2-y,z
1/2+x,-y,-z
-x,1/2+y,-z
-x,-y,-z
1/2+x,1/2+y,-z
1/2-x,y,z
x,1/2-y,z
loop_
_atom_site_type_symbol
_atom_site_label
_atom_site_fract_x
_atom_site_fract_y
_atom_site_fract_z
Si Si1 0.960600 0.052152 0.828027
Si Si2 0.031070 0.048657 0.369739
Si Si3 0.609174 0.950249 0.961826
Si Si4 0.382781 0.453960 0.708618
Si Si5 0.201896 0.550182 0.805338
Si Si6 0.701991 0.552240 0.997416
Si Si7 0.438006 0.045024 0.552277
Si Si8 0.556456 0.957276 0.130961
O O1 0.959413 0.250000 0.849020
O O2 0.006895 0.983919 0.862404
O O3 0.959778 0.030212 0.723931
O O4 0.920078 0.972225 0.876937
O O5 0.036068 0.250000 0.360970
O O6 0.059826 0.987346 0.451931
O O7 0.982184 0.009751 0.400041
O O8 0.614335 0.750000 0.978351
O O9 0.657926 0.021550 0.956841
O O10 0.581897 0.016428 0.044965
O O11 0.383682 0.250000 0.708644
O O12 0.335627 0.509044 0.738116
O O13 0.399138 0.512635 0.614152
O O14 0.416739 0.509517 0.783346
O O15 0.250000 0.504561 0.773976
O O16 0.201022 0.750000 0.823743
O O17 0.194852 0.459442 0.898060
O O18 0.750000 0.477650 0.979908
O O19 0.704510 0.750000 0.972866
O O20 0.438217 0.250000 0.550388
O O21 0.555398 0.750000 0.130613
#
# Coordination Sequence:
#
# PCOD9446295 Si02
#       8
#     8   8   8   8   8   8   8   8
#     4  11  21  33  47  65  95 132 165 198 237 278
#     4  10  19  31  48  71  95 123 157 195 237 278
#     4  10  19  32  47  67  93 123 162 202 235 277
#     4  10  17  31  51  69  92 126 163 194 230 279
#     4  10  20  31  44  68 100 126 153 195 239 279
#     4   9  17  31  51  70  90 122 160 197 240 286
#     4   9  18  32  50  70  95 123 154 194 236 276
#     4   9  17  30  46  65  93 127 160 195 228 265
#
# _framework density 17.080082999999998
#
# number of rings (size 3 to 8) (size 9 to 14) (size 15 to 20)
#    0.000    2.250    2.500    1.500    0.000    2.250 
#    0.000    0.625    0.000    0.000    0.000    0.875 
#    0.000    3.000    0.000    0.000    0.000    0.000 
#
# Total GULP energy -356850.272277 kJ/mol
# GULP energy per Si atom -5575.785504 kJ/mol
# Density = 1.704121 g / cm^3
# Si number density = 17.080083 Si / 1000 Ang^3
#
#
#
# Elastic Constant Matrix: (Units=GPa)
#
#
# Indices 1 2 3 4 5 6 
#
# 1 144.3130 5.5184 51.1613 0.0000 0.0000 0.0000
# 2 5.5184 13.5693 -0.8863 0.0000 0.0000 0.0000
# 3 51.1613 -0.8863 63.5519 0.0000 0.0000 0.0000
# 4 0.0000 0.0000 0.0000 11.5920 0.0000 0.0000
# 5 0.0000 0.0000 0.0000 0.0000 22.8883 0.0000
# 6 0.0000 0.0000 0.0000 0.0000 0.0000 16.4722
#
#
#
# Elastic Compliance Matrix: (Units=1/GPa)
#
#
# Indices 1 2 3 4 5 6 
#
# 1 0.009974 -0.004585 -0.008093 0.000000 0.000000 0.000000
# 2 -0.004585 0.075871 0.004749 0.000000 0.000000 0.000000
# 3 -0.008093 0.004749 0.022317 0.000000 0.000000 0.000000
# 4 0.000000 0.000000 0.000000 0.086266 0.000000 0.000000
# 5 0.000000 0.000000 0.000000 0.000000 0.043690 0.000000
# 6 0.000000 0.000000 0.000000 0.000000 0.000000 0.060708
#
#
# Mechanical properties :
#
#
# Convention : Reuss Voigt Hill
#
# Bulk Modulus (GPa) = 10.83386 37.00231 23.91809
# Shear Modulus (GPa) = 14.47379 21.23323 17.85351
#
# Velocity S-wave (km/s) = 2.91418 3.52967 3.23659
# Velocity P-wave (km/s) = 4.20476 6.19051 5.29162
#
# Compressibility (1/GPa) = 0.09230320
#
# Stress axis : x y z
#
# Youngs Moduli (GPa) = 100.26181 13.18034 44.80944
#
# Poissons Ratio (x) = 0.06043 0.36265
# Poissons Ratio (y) = 0.45969 -0.21280
# Poissons Ratio (z) = 0.81144 -0.06259
#
# Static dielectric constant tensor:
#      x y z
#    x 1.602320 0.000000 0.000000 
#    y 0.000000 1.627630 0.000000 
#    z 0.000000 0.000000 1.565390 
# 
# From -- ./inp_files/25009.got.cif
#   From: 2010.05.17/outbox.cif.g08.bks.cpg/sg59_13_cif.got.tgz:25009.got - 2010.06.03 14:40:33.
