data_PCOD9446942
_publ_section_title
;
Structure prediction by ZEFSAII (Michael W. Deem and Ramdas Pophale) SiO2 
 PCOD9446942
Probable space group: P M M N
;
_chemical_formula_sum "Si O2"
_cell_formula_units_Z 40
_cell_length_a 8.706273
_cell_length_b 18.944460
_cell_length_c 13.394048
_cell_angle_alpha 90.000000
_cell_angle_beta 90.000000
_cell_angle_gamma 90.000000
_cell_volume 2209.155887
_symmetry_space_group_name_H-M "P M M N"
_symmetry_group_IT_number 59
_space_group.IT_coordinate_system_code '2'
_symmetry_cell_setting 'orthorhombic'
loop_
_space_group_symop_operation_xyz
x,y,z
1/2-x,1/2-y,z
1/2+x,-y,-z
-x,1/2+y,-z
-x,-y,-z
1/2+x,1/2+y,-z
1/2-x,y,z
x,1/2-y,z
loop_
_atom_site_type_symbol
_atom_site_label
_atom_site_fract_x
_atom_site_fract_y
_atom_site_fract_z
Si Si1 0.932231 0.919665 0.796212
Si Si2 0.066485 0.920060 0.001519
Si Si3 0.069283 0.665645 0.614724
Si Si4 0.434558 0.422414 0.792239
Si Si5 0.434270 0.332568 0.597927
O O1 0.750000 0.925277 0.808111
O O2 0.976976 0.873585 0.700963
O O3 0.002077 0.998056 0.782378
O O4 0.004274 0.888233 0.898291
O O5 0.250000 0.921690 0.001458
O O6 0.003582 0.890152 0.105731
O O7 0.000000 0.000000 0.000000
O O8 0.250000 0.651154 0.626805
O O9 0.044905 0.750000 0.621832
O O10 0.014532 0.643794 0.504273
O O11 0.250000 0.424867 0.800953
O O12 0.476892 0.377936 0.694498
O O13 0.250000 0.337838 0.584726
O O14 0.471733 0.250000 0.614138
#
# Coordination Sequence:
#
# PCOD9446942 Si02
#       5
#     8   8   8   8   8
#     4  11  21  34  54  78 105 137 174 214 256 307
#     4  10  18  31  51  75 105 137 171 212 259 309
#     4  10  21  37  56  77 103 135 171 213 261 310
#     4  10  19  33  54  79 107 137 172 215 259 306
#     4   9  19  36  56  77 103 137 174 211 255 307
#
# _framework density 18.106463000000002
#
# number of rings (size 3 to 8) (size 9 to 14) (size 15 to 20)
#    0.000    2.000    0.000    7.200    0.000    3.600 
#    0.000    1.000    0.000    3.600    0.000    0.000 
#    0.000    0.000    0.000    0.000    0.000    0.000 
#
# Total GULP energy -223249.336861 kJ/mol
# GULP energy per Si atom -5581.233422 kJ/mol
# Density = 1.806525 g / cm^3
# Si number density = 18.106463 Si / 1000 Ang^3
#
#
#
# Elastic Constant Matrix: (Units=GPa)
#
#
# Indices 1 2 3 4 5 6 
#
# 1 115.7740 30.0700 76.8291 0.0000 0.0000 0.0000
# 2 30.0700 21.8746 40.7923 0.0000 0.0000 0.0000
# 3 76.8291 40.7923 169.7459 0.0000 0.0000 0.0000
# 4 0.0000 0.0000 0.0000 -499.3896 0.0000 0.0000
# 5 0.0000 0.0000 0.0000 0.0000 37.0067 0.0000
# 6 0.0000 0.0000 0.0000 0.0000 0.0000 8.3264
#
#
#
# Elastic Compliance Matrix: (Units=1/GPa)
#
#
# Indices 1 2 3 4 5 6 
#
# 1 0.014318 -0.013767 -0.003172 0.000000 0.000000 0.000000
# 2 -0.013767 0.096075 -0.016857 0.000000 0.000000 0.000000
# 3 -0.003172 -0.016857 0.011378 0.000000 0.000000 0.000000
# 4 0.000000 0.000000 0.000000 -0.002002 0.000000 0.000000
# 5 0.000000 0.000000 0.000000 0.000000 0.027022 0.000000
# 6 0.000000 0.000000 0.000000 0.000000 0.000000 0.120099
#
#
# Mechanical properties :
#
#
# Convention : Reuss Voigt Hill
#
# Bulk Modulus (GPa) = 18.45737 66.97526 42.71632
# Shear Modulus (GPa) = 14.18266 -80.16441 -32.99087
#
# Velocity S-wave (km/s) = 2.80177 -6.66108 -4.27318
# Velocity P-wave (km/s) = 4.54780 4.70000 0.83891
#
# Compressibility (1/GPa) = 0.05417889
#
# Stress axis : x y z
#
# Youngs Moduli (GPa) = 69.84021 10.40849 87.88917
#
# Poissons Ratio (x) = 0.14329 0.27881
# Poissons Ratio (y) = 0.96149 1.48156
# Poissons Ratio (z) = 0.22155 0.17546
#
# Static dielectric constant tensor:
#      x y z
#    x 1.609760 0.000000 0.000000 
#    y 0.000000 1.603700 0.000000 
#    z 0.000000 0.000000 1.645340 
# 
# From -- ./inp_files/14046.got.cif
#   From: 2010.05.17/outbox.cif.g08.bks.cpg/sg59_8_cif.got.tgz:14046.got - 2010.06.03 14:40:33.
