data_PCOD9446125
_publ_section_title
;
Structure prediction by ZEFSAII (Michael W. Deem and Ramdas Pophale) SiO2 
 PCOD9446125
Probable space group: P M M N
;
_chemical_formula_sum "Si O2"
_cell_formula_units_Z 40
_cell_length_a 9.087007
_cell_length_b 27.562481
_cell_length_c 7.567293
_cell_angle_alpha 90.000000
_cell_angle_beta 90.000000
_cell_angle_gamma 90.000000
_cell_volume 1895.307669
_symmetry_space_group_name_H-M "P M M N"
_symmetry_group_IT_number 59
_space_group.IT_coordinate_system_code '2'
_symmetry_cell_setting 'orthorhombic'
loop_
_space_group_symop_operation_xyz
x,y,z
1/2-x,1/2-y,z
1/2+x,-y,-z
-x,1/2+y,-z
-x,-y,-z
1/2+x,1/2+y,-z
1/2-x,y,z
x,1/2-y,z
loop_
_atom_site_type_symbol
_atom_site_label
_atom_site_fract_x
_atom_site_fract_y
_atom_site_fract_z
Si Si1 0.919576 0.355077 0.520162
Si Si2 0.582249 0.345063 0.953047
Si Si3 0.928023 0.048901 0.926729
Si Si4 0.076501 0.250000 0.928998
Si Si5 0.076127 0.050290 0.550891
Si Si6 0.427561 0.750000 0.457329
O O1 0.750000 0.365588 0.475048
O O2 0.924222 0.349644 0.736480
O O3 0.961410 0.301494 0.452314
O O4 0.017374 0.400376 0.461739
O O5 0.750000 0.332304 0.996817
O O6 0.552480 0.399326 0.024900
O O7 0.481479 0.300490 0.008872
O O8 0.750000 0.043457 0.899081
O O9 0.020739 0.056249 0.749811
O O10 0.000000 0.000000 0.000000
O O11 0.250000 0.250000 0.923549
O O12 0.011314 0.250000 0.729416
O O13 0.250000 0.046149 0.533234
O O14 0.000000 0.000000 0.500000
O O15 0.250000 0.750000 0.424818
#
# Coordination Sequence:
#
# PCOD9446125 Si02
#       6
#     8   8   8   4   8   4
#     4   8  14  26  42  62  88 119 153 189 231 281
#     4   8  15  27  41  58  87 122 151 182 229 283
#     4  10  20  34  51  72  97 127 161 198 239 285
#     4  10  16  20  34  60  87 114 149 190 229 268
#     4  11  21  33  49  70  97 129 163 201 240 281
#     4   8  14  24  38  56  85 120 147 178 229 284
#
# _framework density 21.104752999999999
#
# number of rings (size 3 to 8) (size 9 to 14) (size 15 to 20)
#    0.000    2.800    0.000    5.700    0.000    8.000 
#    0.000    0.000    0.000    0.000    0.000    1.400 
#    0.000    3.200    0.000    0.000    0.000    0.000 
#
# Total GULP energy -222803.288900 kJ/mol
# GULP energy per Si atom -5570.082223 kJ/mol
# Density = 2.105672 g / cm^3
# Si number density = 21.104753 Si / 1000 Ang^3
#
#
#
# Elastic Constant Matrix: (Units=GPa)
#
#
# Indices 1 2 3 4 5 6 
#
# 1 139.1615 132.3113 14.0332 0.0000 0.0000 0.0000
# 2 132.3113 243.1862 4.3545 0.0000 0.0000 0.0000
# 3 14.0332 4.3545 20.9407 0.0000 0.0000 0.0000
# 4 0.0000 0.0000 0.0000 11.8664 0.0000 0.0000
# 5 0.0000 0.0000 0.0000 0.0000 8.7990 0.0000
# 6 0.0000 0.0000 0.0000 0.0000 0.0000 44.7824
#
#
#
# Elastic Compliance Matrix: (Units=1/GPa)
#
#
# Indices 1 2 3 4 5 6 
#
# 1 0.016487 -0.008805 -0.009218 0.000000 0.000000 0.000000
# 2 -0.008805 0.008830 0.004065 0.000000 0.000000 0.000000
# 3 -0.009218 0.004065 0.053086 0.000000 0.000000 0.000000
# 4 0.000000 0.000000 0.000000 0.084272 0.000000 0.000000
# 5 0.000000 0.000000 0.000000 0.000000 0.113650 0.000000
# 6 0.000000 0.000000 0.000000 0.000000 0.000000 0.022330
#
#
# Mechanical properties :
#
#
# Convention : Reuss Voigt Hill
#
# Bulk Modulus (GPa) = 19.80737 78.29849 49.05293
# Shear Modulus (GPa) = 14.56027 29.92884 22.24456
#
# Velocity S-wave (km/s) = 2.62945 3.76986 3.25007
# Velocity P-wave (km/s) = 4.31559 7.49197 6.11367
#
# Compressibility (1/GPa) = 0.05048626
#
# Stress axis : x y z
#
# Youngs Moduli (GPa) = 60.65325 113.25076 18.83743
#
# Poissons Ratio (x) = 0.99719 0.17364
# Poissons Ratio (y) = 0.53406 -0.07657
# Poissons Ratio (z) = 0.55909 -0.46032
#
# Static dielectric constant tensor:
#      x y z
#    x 1.697970 0.000000 0.000000 
#    y 0.000000 1.895490 0.000000 
#    z 0.000000 0.000000 1.843250 
# 
# From -- ./inp_files/5908.got.cif
#   From: 2010.05.17/outbox.cif.g08.bks.cpg/sg59_3_cif.got.tgz:5908.got - 2010.06.03 14:40:33.
