data_PCOD9446141
_publ_section_title
;
Structure prediction by ZEFSAII (Michael W. Deem and Ramdas Pophale) SiO2 
 PCOD9446141
Probable space group: P M M N
;
_chemical_formula_sum "Si O2"
_cell_formula_units_Z 36
_cell_length_a 7.422075
_cell_length_b 10.954953
_cell_length_c 18.384777
_cell_angle_alpha 90.000000
_cell_angle_beta 90.000000
_cell_angle_gamma 90.000000
_cell_volume 1494.838324
_symmetry_space_group_name_H-M "P M M N"
_symmetry_group_IT_number 59
_space_group.IT_coordinate_system_code '2'
_symmetry_cell_setting 'orthorhombic'
loop_
_space_group_symop_operation_xyz
x,y,z
1/2-x,1/2-y,z
1/2+x,-y,-z
-x,1/2+y,-z
-x,-y,-z
1/2+x,1/2+y,-z
1/2-x,y,z
x,1/2-y,z
loop_
_atom_site_type_symbol
_atom_site_label
_atom_site_fract_x
_atom_site_fract_y
_atom_site_fract_z
Si Si1 0.029933 0.480770 0.304197
Si Si2 0.031090 0.250000 0.037732
Si Si3 0.999398 0.750000 0.123317
Si Si4 0.530505 0.522295 0.860028
Si Si5 0.465185 0.120257 0.454019
Si Si6 0.451116 0.750000 0.295817
O O1 0.250000 0.484587 0.305150
O O2 0.983649 0.440639 0.222685
O O3 0.969341 0.400498 0.371569
O O4 0.964781 0.620465 0.315384
O O5 0.250000 0.250000 0.024932
O O6 0.987973 0.370546 0.084135
O O7 0.936503 0.250000 0.960160
O O8 0.939071 0.607482 0.123849
O O9 0.066264 0.750000 0.207566
O O10 0.750000 0.501262 0.862875
O O11 0.250000 0.127865 0.450211
O O12 0.532758 0.250000 0.483883
O O13 0.500000 0.000000 0.500000
O O14 0.250000 0.750000 0.327225
#
# Coordination Sequence:
#
# PCOD9446141 Si02
#       6
#     8   4   4   8   8   4
#     4   8  15  28  49  73  99 125 161 212 261 309
#     4  10  20  28  40  65  97 127 156 198 255 304
#     4  10  16  28  44  64  92 122 156 192 238 302
#     4   9  17  29  47  70  93 119 158 208 257 294
#     4  10  22  37  56  85 116 145 180 222 273 329
#     4   8  14  26  48  75  93 119 166 214 259 296
#
# _framework density 24.082871999999998
#
# number of rings (size 3 to 8) (size 9 to 14) (size 15 to 20)
#    0.000    2.889    0.000    3.000    3.111    0.444 
#    0.000    0.000    0.000    5.333    0.000    0.000 
#    0.000    0.000    0.000    0.000    0.000    0.000 
#
# Total GULP energy -200513.581023 kJ/mol
# GULP energy per Si atom -5569.821695 kJ/mol
# Density = 2.402806 g / cm^3
# Si number density = 24.082872 Si / 1000 Ang^3
#
#
#
# Elastic Constant Matrix: (Units=GPa)
#
#
# Indices 1 2 3 4 5 6 
#
# 1 85.9446 18.8775 10.5475 0.0000 0.0000 0.0000
# 2 18.8775 182.9677 75.6480 0.0000 0.0000 0.0000
# 3 10.5475 75.6480 122.6815 0.0000 0.0000 0.0000
# 4 0.0000 0.0000 0.0000 39.3711 0.0000 0.0000
# 5 0.0000 0.0000 0.0000 0.0000 40.3495 0.0000
# 6 0.0000 0.0000 0.0000 0.0000 0.0000 -23.2526
#
#
#
# Elastic Compliance Matrix: (Units=1/GPa)
#
#
# Indices 1 2 3 4 5 6 
#
# 1 0.011917 -0.001082 -0.000358 0.000000 0.000000 0.000000
# 2 -0.001082 0.007434 -0.004491 0.000000 0.000000 0.000000
# 3 -0.000358 -0.004491 0.010951 0.000000 0.000000 0.000000
# 4 0.000000 0.000000 0.000000 0.025399 0.000000 0.000000
# 5 0.000000 0.000000 0.000000 0.000000 0.024783 0.000000
# 6 0.000000 0.000000 0.000000 0.000000 0.000000 -0.043006
#
#
# Mechanical properties :
#
#
# Convention : Reuss Voigt Hill
#
# Bulk Modulus (GPa) = 54.22530 66.85999 60.54264
# Shear Modulus (GPa) = 90.11295 30.39498 60.25397
#
# Velocity S-wave (km/s) = 6.12365 3.55646 5.00737
# Velocity P-wave (km/s) = 8.51844 6.68485 7.65673
#
# Compressibility (1/GPa) = 0.01844158
#
# Stress axis : x y z
#
# Youngs Moduli (GPa) = 83.91465 134.52109 91.31529
#
# Poissons Ratio (x) = 0.14551 0.03265
# Poissons Ratio (y) = 0.09077 0.41008
# Poissons Ratio (z) = 0.03001 0.60411
#
# Static dielectric constant tensor:
#      x y z
#    x 2.011110 0.000000 0.000000 
#    y 0.000000 1.892490 0.000000 
#    z 0.000000 0.000000 1.862340 
# 
# From -- ./inp_files/26800.got.cif
#   From: 2010.05.17/outbox.cif.g08.bks.cpg/sg59_14_cif.got.tgz:26800.got - 2010.06.03 14:40:33.
