data_PCOD9446092
_publ_section_title
;
Structure prediction by ZEFSAII (Michael W. Deem and Ramdas Pophale) SiO2 
 PCOD9446092
Probable space group: P N N M
;
_chemical_formula_sum "Si O2"
_cell_formula_units_Z 48
_cell_length_a 30.000000
_cell_length_b 9.000000
_cell_length_c 9.000000
_cell_angle_alpha 90.000000
_cell_angle_beta 90.000000
_cell_angle_gamma 90.000000
_cell_volume 2430.000000
_symmetry_space_group_name_H-M "P N N M"
_symmetry_group_IT_number 58
_symmetry_cell_setting 'orthorhombic'
loop_
_space_group_symop_operation_xyz
x,y,z
-x,-y,z
1/2+x,1/2-y,1/2-z
1/2-x,1/2+y,1/2-z
-x,-y,-z
x,y,-z
1/2-x,1/2+y,1/2+z
1/2+x,1/2-y,1/2+z
loop_
_atom_site_type_symbol
_atom_site_label
_atom_site_fract_x
_atom_site_fract_y
_atom_site_fract_z
Si Si1 0.691678 0.199628 0.177633
Si Si2 0.858752 0.199512 0.821652
Si Si3 0.386720 0.629681 0.677983
Si Si4 0.062610 0.619794 0.677676
Si Si5 0.465398 0.781968 0.177834
Si Si6 0.724371 0.894617 0.678237
O O1 0.645472 0.245842 0.252415
O O2 0.727002 0.330407 0.212969
O O3 0.710749 0.045045 0.239617
O O4 0.686758 0.189289 0.000000
O O5 0.895488 0.311261 0.758637
O O6 0.810690 0.264897 0.780382
O O7 0.869325 0.032165 0.771666
O O8 0.861176 0.198991 0.000000
O O9 0.385112 0.637296 0.500000
O O10 0.436169 0.662419 0.736624
O O11 0.068670 0.628907 0.500000
O O12 0.053498 0.447096 0.712544
O O13 0.017600 0.710168 0.715656
O O14 0.461434 0.760573 0.000000
O O15 0.721546 0.918326 0.500000
#
# Coordination Sequence:
#
# PCOD9446092 Si02
#       6
#     8   8   8   8   8   8
#     4  11  23  39  61  87 114 146 186 230 275 327
#     4  10  22  38  55  79 113 149 186 228 275 331
#     4  11  23  38  56  81 115 151 187 230 278 329
#     4   9  19  36  58  82 110 144 184 233 282 331
#     4   9  19  37  58  82 111 144 186 232 280 334
#     4  10  22  40  60  83 113 148 184 225 275 328
#
# _framework density 19.753086
#
# number of rings (size 3 to 8) (size 9 to 14) (size 15 to 20)
#    0.000    2.000    0.000    4.000    0.000    9.333 
#    0.000    5.000    0.000    0.000    0.000    0.000 
#    0.000    0.000    0.000    0.000    0.000    0.000 
#
# Total GULP energy -268225.524830 kJ/mol
# GULP energy per Si atom -5588.031767 kJ/mol
# Density = 1.970813 g / cm^3
# Si number density = 19.753086 Si / 1000 Ang^3
#
#
#
# Elastic Constant Matrix: (Units=GPa)
#
#
# Indices 1 2 3 4 5 6 
#
# 1 56.8215 -24.2074 2.8064 0.0000 0.0000 0.0000
# 2 -24.2074 13.0061 -4.0442 0.0000 0.0000 0.0000
# 3 2.8064 -4.0442 8.3018 0.0000 0.0000 0.0000
# 4 0.0000 0.0000 0.0000 26.5014 0.0000 0.0000
# 5 0.0000 0.0000 0.0000 0.0000 19.4311 0.0000
# 6 0.0000 0.0000 0.0000 0.0000 0.0000 31.9134
#
#
#
# Elastic Compliance Matrix: (Units=1/GPa)
#
#
# Indices 1 2 3 4 5 6 
#
# 1 0.116251 0.240595 0.077908 0.000000 0.000000 0.000000
# 2 0.240595 0.588555 0.205381 0.000000 0.000000 0.000000
# 3 0.077908 0.205381 0.194170 0.000000 0.000000 0.000000
# 4 0.000000 0.000000 0.000000 0.037734 0.000000 0.000000
# 5 0.000000 0.000000 0.000000 0.000000 0.051464 0.000000
# 6 0.000000 0.000000 0.000000 0.000000 0.000000 0.031335
#
#
# Mechanical properties :
#
#
# Convention : Reuss Voigt Hill
#
# Bulk Modulus (GPa) = 0.51368 3.02655 1.77012
# Shear Modulus (GPa) = 8.05602 22.47417 15.26509
#
# Velocity S-wave (km/s) = 2.02169 3.37672 2.78294
# Velocity P-wave (km/s) = 2.38961 4.09127 3.35028
#
# Compressibility (1/GPa) = 1.94674424
#
# Stress axis : x y z
#
# Youngs Moduli (GPa) = 8.60210 1.69908 5.15013
#
# Poissons Ratio (x) = -0.40879 -0.40123
# Poissons Ratio (y) = -2.06962 -1.05774
# Poissons Ratio (z) = -0.67017 -0.34896
#
# Static dielectric constant tensor:
#      x y z
#    x 1.679750 0.000000 0.000000 
#    y 0.000000 1.680650 0.000000 
#    z 0.000000 0.000000 1.654000 
# 
# From -- ./inp_files/2856.got.cif
#   From: 2010.05.17/outbox.ucp.g08.bks.cvg/sg58_2_cif.got.tgz:2856.got - 2010.06.11 16:41:41.
