data_PCOD9446479
_publ_section_title
;
Structure prediction by ZEFSAII (Michael W. Deem and Ramdas Pophale) SiO2 
 PCOD9446479
Probable space group: P M M N
;
_chemical_formula_sum "Si O2"
_cell_formula_units_Z 64
_cell_length_a 13.694413
_cell_length_b 18.512018
_cell_length_c 14.426910
_cell_angle_alpha 90.000000
_cell_angle_beta 90.000000
_cell_angle_gamma 90.000000
_cell_volume 3657.383554
_symmetry_space_group_name_H-M "P M M N"
_symmetry_group_IT_number 59
_space_group.IT_coordinate_system_code '2'
_symmetry_cell_setting 'orthorhombic'
loop_
_space_group_symop_operation_xyz
x,y,z
1/2-x,1/2-y,z
1/2+x,-y,-z
-x,1/2+y,-z
-x,-y,-z
1/2+x,1/2+y,-z
1/2-x,y,z
x,1/2-y,z
loop_
_atom_site_type_symbol
_atom_site_label
_atom_site_fract_x
_atom_site_fract_y
_atom_site_fract_z
Si Si1 0.138165 0.336836 0.342813
Si Si2 0.637185 0.472070 0.961526
Si Si3 0.133573 0.163923 0.742702
Si Si4 0.443023 0.337072 0.541747
Si Si5 0.446646 0.464712 0.853696
Si Si6 0.554312 0.104946 0.258167
Si Si7 0.859929 0.162621 0.447971
Si Si8 0.865342 0.329250 0.075034
O O1 0.250000 0.350112 0.316636
O O2 0.118847 0.250000 0.333375
O O3 0.120730 0.355452 0.451269
O O4 0.057913 0.380898 0.285886
O O5 0.750000 0.479792 0.935044
O O6 0.558371 0.482028 0.881417
O O7 0.612674 0.521525 0.050927
O O8 0.617729 0.391596 0.000903
O O9 0.250000 0.153132 0.752392
O O10 0.114528 0.250000 0.753084
O O11 0.099975 0.139697 0.639699
O O12 0.076068 0.114015 0.814814
O O13 0.443263 0.250000 0.545884
O O14 0.553962 0.360091 0.518245
O O15 0.420128 0.524655 0.776685
O O16 0.615349 0.128956 0.348040
O O17 0.578950 0.154125 0.169610
O O18 0.750000 0.168061 0.097210
O O19 0.865886 0.250000 0.438465
O O20 0.750000 0.355766 0.477069
O O21 0.889795 0.250000 0.039390
#
# Coordination Sequence:
#
# PCOD9446479 Si02
#       8
#     8   8   8   8   8   8   8   8
#     4   9  16  27  45  69  99 135 172 205 237 280
#     4   9  19  36  54  71  95 127 157 190 244 307
#     4  10  20  35  56  77  96 124 167 215 252 283
#     4   8  15  29  48  70  96 128 167 206 242 281
#     4  10  21  35  52  74  97 126 163 205 250 299
#     4  10  18  28  44  69 101 131 160 196 240 287
#     4   9  16  27  46  72 103 136 164 193 234 284
#     4   9  16  27  47  73  95 116 148 190 234 285
#
# _framework density 17.498847999999999
#
# number of rings (size 3 to 8) (size 9 to 14) (size 15 to 20)
#    0.000    2.750    0.000    3.000    0.000    5.000 
#    0.000    3.125    0.000    2.250    0.000   12.250 
#    0.000    0.000    0.000    0.000    0.000    0.000 
#
# Total GULP energy -356582.969474 kJ/mol
# GULP energy per Si atom -5571.608898 kJ/mol
# Density = 1.745902 g / cm^3
# Si number density = 17.498848 Si / 1000 Ang^3
#
#
#
# Elastic Constant Matrix: (Units=GPa)
#
#
# Indices 1 2 3 4 5 6 
#
# 1 52.8216 6.5461 6.9761 0.0000 0.0000 0.0000
# 2 6.5461 37.5560 17.3714 0.0000 0.0000 0.0000
# 3 6.9761 17.3714 39.3966 0.0000 0.0000 0.0000
# 4 0.0000 0.0000 0.0000 -14.5959 0.0000 0.0000
# 5 0.0000 0.0000 0.0000 0.0000 12.5076 0.0000
# 6 0.0000 0.0000 0.0000 0.0000 0.0000 17.4808
#
#
#
# Elastic Compliance Matrix: (Units=1/GPa)
#
#
# Indices 1 2 3 4 5 6 
#
# 1 0.019538 -0.002268 -0.002460 0.000000 0.000000 0.000000
# 2 -0.002268 0.033712 -0.014463 0.000000 0.000000 0.000000
# 3 -0.002460 -0.014463 0.032196 0.000000 0.000000 0.000000
# 4 0.000000 0.000000 0.000000 -0.068513 0.000000 0.000000
# 5 0.000000 0.000000 0.000000 0.000000 0.079951 0.000000
# 6 0.000000 0.000000 0.000000 0.000000 0.000000 0.057206
#
#
# Mechanical properties :
#
#
# Convention : Reuss Voigt Hill
#
# Bulk Modulus (GPa) = 21.24764 21.28460 21.26612
# Shear Modulus (GPa) = 24.02007 9.67055 16.84531
#
# Velocity S-wave (km/s) = 3.70897 2.35338 3.10603
# Velocity P-wave (km/s) = 5.52364 4.42429 5.00425
#
# Compressibility (1/GPa) = 0.04706406
#
# Stress axis : x y z
#
# Youngs Moduli (GPa) = 51.18354 29.66295 31.05993
#
# Poissons Ratio (x) = 0.06727 0.07640
# Poissons Ratio (y) = 0.11607 0.44923
# Poissons Ratio (z) = 0.12590 0.42902
#
# Static dielectric constant tensor:
#      x y z
#    x 1.607100 0.000000 0.000000 
#    y 0.000000 1.604600 0.000000 
#    z 0.000000 0.000000 1.587860 
# 
# From -- ./inp_files/17219.got.cif
#   From: 2010.05.17/outbox.cif.g08.bks.cpg/sg59_9_cif.got.tgz:17219.got - 2010.06.03 14:40:33.
