data_PCOD9446222
_publ_section_title
;
Structure prediction by ZEFSAII (Michael W. Deem and Ramdas Pophale) SiO2 
 PCOD9446222
Probable space group: P M M N
;
_chemical_formula_sum "Si O2"
_cell_formula_units_Z 56
_cell_length_a 24.635200
_cell_length_b 7.281111
_cell_length_c 12.883479
_cell_angle_alpha 90.000000
_cell_angle_beta 90.000000
_cell_angle_gamma 90.000000
_cell_volume 2310.930573
_symmetry_space_group_name_H-M "P M M N"
_symmetry_group_IT_number 59
_space_group.IT_coordinate_system_code '2'
_symmetry_cell_setting 'orthorhombic'
loop_
_space_group_symop_operation_xyz
x,y,z
1/2-x,1/2-y,z
1/2+x,-y,-z
-x,1/2+y,-z
-x,-y,-z
1/2+x,1/2+y,-z
1/2-x,y,z
x,1/2-y,z
loop_
_atom_site_type_symbol
_atom_site_label
_atom_site_fract_x
_atom_site_fract_y
_atom_site_fract_z
Si Si1 0.490032 0.970865 0.802625
Si Si2 0.135712 0.465003 0.753921
Si Si3 0.808525 0.973029 0.696461
Si Si4 0.395989 0.473508 0.132997
Si Si5 0.150533 0.474042 0.518278
Si Si6 0.810740 0.525569 0.039894
Si Si7 0.042150 0.466551 0.410584
O O1 0.488014 0.750000 0.807858
O O2 0.540487 0.029873 0.876837
O O3 0.515951 0.036267 0.694018
O O4 0.426730 0.024057 0.795568
O O5 0.147856 0.250000 0.745712
O O6 0.147375 0.538763 0.637686
O O7 0.173965 0.537701 0.844708
O O8 0.750000 0.028618 0.742233
O O9 0.810300 0.750000 0.699867
O O10 0.861389 0.030024 0.763835
O O11 0.808625 0.024098 0.574422
O O12 0.397179 0.250000 0.135272
O O13 0.358109 0.532098 0.038236
O O14 0.151296 0.250000 0.524121
O O15 0.096387 0.538218 0.460558
O O16 0.750000 0.469917 0.010297
O O17 0.811432 0.750000 0.038589
O O18 0.051262 0.250000 0.391800
O O19 0.000000 0.500000 0.500000
#
# Coordination Sequence:
#
# PCOD9446222 Si02
#       7
#     8   8   8   8   8   8   8
#     4  10  19  30  48  73 100 127 159 197 238 283
#     4  10  20  32  48  71 101 130 157 192 236 285
#     4   9  15  23  39  64  92 122 157 198 242 282
#     4   9  16  28  45  67  95 124 155 197 243 285
#     4   9  16  26  39  61  93 124 152 185 230 279
#     4   9  18  32  49  68  92 126 163 197 239 288
#     4  10  17  27  44  66  95 128 158 188 227 280
#
# _framework density 24.232662999999999
#
# number of rings (size 3 to 8) (size 9 to 14) (size 15 to 20)
#    0.000    2.571    2.857    0.429    0.000    2.857 
#    0.000    2.857    0.000    0.429    0.000    0.000 
#    0.000    4.571    0.000    0.000    0.000    0.000 
#
# Total GULP energy -312106.195899 kJ/mol
# GULP energy per Si atom -5573.324927 kJ/mol
# Density = 2.417751 g / cm^3
# Si number density = 24.232663 Si / 1000 Ang^3
#
#
#
# Elastic Constant Matrix: (Units=GPa)
#
#
# Indices 1 2 3 4 5 6 
#
# 1 57.4138 -13.9172 13.7111 0.0000 0.0000 0.0000
# 2 -13.9172 100.5846 0.6652 0.0000 0.0000 0.0000
# 3 13.7111 0.6652 94.6257 0.0000 0.0000 0.0000
# 4 0.0000 0.0000 0.0000 -13.6744 0.0000 0.0000
# 5 0.0000 0.0000 0.0000 0.0000 34.0798 0.0000
# 6 0.0000 0.0000 0.0000 0.0000 0.0000 2.5005
#
#
#
# Elastic Compliance Matrix: (Units=1/GPa)
#
#
# Indices 1 2 3 4 5 6 
#
# 1 0.018700 0.002605 -0.002728 0.000000 0.000000 0.000000
# 2 0.002605 0.010305 -0.000450 0.000000 0.000000 0.000000
# 3 -0.002728 -0.000450 0.010966 0.000000 0.000000 0.000000
# 4 0.000000 0.000000 0.000000 -0.073129 0.000000 0.000000
# 5 0.000000 0.000000 0.000000 0.000000 0.029343 0.000000
# 6 0.000000 0.000000 0.000000 0.000000 0.000000 0.399913
#
#
# Mechanical properties :
#
#
# Convention : Reuss Voigt Hill
#
# Bulk Modulus (GPa) = 25.75507 28.17136 26.96322
# Shear Modulus (GPa) = 12.18960 21.39220 16.79090
#
# Velocity S-wave (km/s) = 2.24525 2.97439 2.63516
# Velocity P-wave (km/s) = 4.16808 4.84217 4.51771
#
# Compressibility (1/GPa) = 0.03882730
#
# Stress axis : x y z
#
# Youngs Moduli (GPa) = 53.47464 97.03688 91.18761
#
# Poissons Ratio (x) = -0.25283 0.24876
# Poissons Ratio (y) = -0.13933 0.04103
# Poissons Ratio (z) = 0.14588 0.04366
#
# Static dielectric constant tensor:
#      x y z
#    x 1.873060 0.000000 0.000000 
#    y 0.000000 1.973300 0.000000 
#    z 0.000000 0.000000 1.936510 
# 
# From -- ./inp_files/16154.got.cif
#   From: 2010.05.17/outbox.cif.g08.bks.cpg/sg59_9_cif.got.tgz:16154.got - 2010.06.03 14:40:33.
