data_PCOD9446364
_publ_section_title
;
Structure prediction by ZEFSAII (Michael W. Deem and Ramdas Pophale) SiO2 
 PCOD9446364
Probable space group: P M M N
;
_chemical_formula_sum "Si O2"
_cell_formula_units_Z 64
_cell_length_a 25.779275
_cell_length_b 9.055738
_cell_length_c 18.995955
_cell_angle_alpha 90.000000
_cell_angle_beta 90.000000
_cell_angle_gamma 90.000000
_cell_volume 4434.612538
_symmetry_space_group_name_H-M "P M M N"
_symmetry_group_IT_number 59
_space_group.IT_coordinate_system_code '2'
_symmetry_cell_setting 'orthorhombic'
loop_
_space_group_symop_operation_xyz
x,y,z
1/2-x,1/2-y,z
1/2+x,-y,-z
-x,1/2+y,-z
-x,-y,-z
1/2+x,1/2+y,-z
1/2-x,y,z
x,1/2-y,z
loop_
_atom_site_type_symbol
_atom_site_label
_atom_site_fract_x
_atom_site_fract_y
_atom_site_fract_z
Si Si1 0.075015 0.081062 0.542631
Si Si2 0.005071 0.927863 0.261389
Si Si3 0.993700 0.926187 0.887425
Si Si4 0.919984 0.927080 0.019221
Si Si5 0.307991 0.072335 0.937307
Si Si6 0.690956 0.424263 0.213351
Si Si7 0.400492 0.926042 0.680708
Si Si8 0.454007 0.580190 0.407921
O O1 0.092298 0.250000 0.545925
O O2 0.014306 0.077994 0.566598
O O3 0.103456 0.982778 0.600834
O O4 0.076465 0.018358 0.463775
O O5 0.002287 0.750000 0.258263
O O6 0.043403 0.966850 0.326367
O O7 0.949322 0.993171 0.283576
O O8 0.018611 0.996289 0.186271
O O9 0.998561 0.750000 0.878209
O O10 0.949353 0.956172 0.945789
O O11 0.046861 0.991029 0.920484
O O12 0.922985 0.750000 0.031868
O O13 0.859599 0.972268 0.020170
O O14 0.250000 0.020683 0.959724
O O15 0.306768 0.250000 0.937734
O O16 0.316429 0.015673 0.857913
O O17 0.750000 0.447592 0.237572
O O18 0.684960 0.250000 0.196427
O O19 0.649780 0.461242 0.273072
O O20 0.409149 0.750000 0.681281
O O21 0.436536 0.750000 0.412294
#
# Coordination Sequence:
#
# PCOD9446364 Si02
#       8
#     8   8   8   8   8   8   8   8
#     4   9  16  25  38  56  78 103 130 161 194 226
#     4  10  19  29  41  58  81 107 135 168 202 237
#     4  10  19  29  42  60  82 110 140 168 203 246
#     4   9  18  31  44  59  82 109 137 170 204 243
#     4   9  17  29  45  62  79 103 135 170 207 243
#     4   9  18  30  41  56  79 105 134 168 202 234
#     4  10  18  27  41  58  78 107 139 168 198 237
#     4   8  15  26  38  53  75 103 131 158 190 227
#
# _framework density 14.431926000000001
#
# number of rings (size 3 to 8) (size 9 to 14) (size 15 to 20)
#    0.000    2.750    0.000    3.000    0.000    7.500 
#    0.000    0.000    0.000    0.000    0.000    0.000 
#    0.000    1.000    0.000    5.750    0.000    3.875 
#
# Total GULP energy -356406.586697 kJ/mol
# GULP energy per Si atom -5568.852917 kJ/mol
# Density = 1.439908 g / cm^3
# Si number density = 14.431926 Si / 1000 Ang^3
#
#
#
# Elastic Constant Matrix: (Units=GPa)
#
#
# Indices 1 2 3 4 5 6 
#
# 1 69.5301 20.5984 30.9999 0.0000 0.0000 0.0000
# 2 20.5984 36.1574 34.0480 0.0000 0.0000 0.0000
# 3 30.9999 34.0480 92.4375 0.0000 0.0000 0.0000
# 4 0.0000 0.0000 0.0000 25.4840 0.0000 0.0000
# 5 0.0000 0.0000 0.0000 0.0000 15.6327 0.0000
# 6 0.0000 0.0000 0.0000 0.0000 0.0000 13.8812
#
#
#
# Elastic Compliance Matrix: (Units=1/GPa)
#
#
# Indices 1 2 3 4 5 6 
#
# 1 0.017997 -0.006996 -0.003459 0.000000 0.000000 0.000000
# 2 -0.006996 0.045063 -0.014252 0.000000 0.000000 0.000000
# 3 -0.003459 -0.014252 0.017228 0.000000 0.000000 0.000000
# 4 0.000000 0.000000 0.000000 0.039240 0.000000 0.000000
# 5 0.000000 0.000000 0.000000 0.000000 0.063969 0.000000
# 6 0.000000 0.000000 0.000000 0.000000 0.000000 0.072040
#
#
# Mechanical properties :
#
#
# Convention : Reuss Voigt Hill
#
# Bulk Modulus (GPa) = 32.38940 41.04642 36.71791
# Shear Modulus (GPa) = 15.86089 18.49815 17.17952
#
# Velocity S-wave (km/s) = 3.31873 3.58404 3.45394
# Velocity P-wave (km/s) = 6.09729 6.75502 6.43456
#
# Compressibility (1/GPa) = 0.03087430
#
# Stress axis : x y z
#
# Youngs Moduli (GPa) = 55.56554 22.19114 58.04623
#
# Poissons Ratio (x) = 0.15524 0.20076
# Poissons Ratio (y) = 0.38872 0.82729
# Poissons Ratio (z) = 0.19218 0.31627
#
# Static dielectric constant tensor:
#      x y z
#    x 1.471430 0.000000 0.000000 
#    y 0.000000 1.487710 0.000000 
#    z 0.000000 0.000000 1.477030 
# 
# From -- ./inp_files/28515.got.cif
#   From: 2010.05.17/outbox.cif.g08.bks.cpg/sg59_15_cif.got.tgz:28515.got - 2010.06.03 14:40:33.
