data_PCOD9446258
_publ_section_title
;
Structure prediction by ZEFSAII (Michael W. Deem and Ramdas Pophale) SiO2 
 PCOD9446258
Probable space group: P M M N
;
_chemical_formula_sum "Si O2"
_cell_formula_units_Z 64
_cell_length_a 7.740841
_cell_length_b 29.484867
_cell_length_c 16.211570
_cell_angle_alpha 90.000000
_cell_angle_beta 90.000000
_cell_angle_gamma 90.000000
_cell_volume 3700.090921
_symmetry_space_group_name_H-M "P M M N"
_symmetry_group_IT_number 59
_space_group.IT_coordinate_system_code '2'
_symmetry_cell_setting 'orthorhombic'
loop_
_space_group_symop_operation_xyz
x,y,z
1/2-x,1/2-y,z
1/2+x,-y,-z
-x,1/2+y,-z
-x,-y,-z
1/2+x,1/2+y,-z
1/2-x,y,z
x,1/2-y,z
loop_
_atom_site_type_symbol
_atom_site_label
_atom_site_fract_x
_atom_site_fract_y
_atom_site_fract_z
Si Si1 0.961190 0.800634 0.916680
Si Si2 0.037372 0.442140 0.328674
Si Si3 0.954179 0.609551 0.831193
Si Si4 0.954732 0.453926 0.688219
Si Si5 0.956481 0.397881 0.843624
Si Si6 0.455081 0.446710 0.508148
Si Si7 0.043596 0.552854 0.990710
Si Si8 0.541978 0.800215 0.107299
O O1 0.750000 0.801767 0.916885
O O2 0.012583 0.750000 0.890215
O O3 0.025497 0.842252 0.862000
O O4 0.015258 0.806807 0.012062
O O5 0.250000 0.442774 0.328406
O O6 0.976065 0.411262 0.253454
O O7 0.978758 0.494230 0.314133
O O8 0.983092 0.426807 0.420598
O O9 0.750000 0.616140 0.817771
O O10 0.973987 0.574263 0.906363
O O11 0.750000 0.458069 0.701017
O O12 0.025601 0.424492 0.763791
O O13 0.978580 0.432294 0.597650
O O14 0.750000 0.404234 0.845154
O O15 0.988780 0.344262 0.842293
O O16 0.023387 0.419534 0.929310
O O17 0.500000 0.500000 0.500000
O O18 0.250000 0.441882 0.510726
O O19 0.250000 0.557542 0.987882
O O20 0.000000 0.500000 0.000000
O O21 0.750000 0.799298 0.106426
O O22 0.482422 0.750000 0.134350
#
# Coordination Sequence:
#
# PCOD9446258 Si02
#       8
#     8   8   8   8   8   8   8   8
#     4   8  14  25  43  66  88 111 143 182 218 255
#     4   8  15  27  44  64  87 115 145 178 221 263
#     4  10  17  29  48  65  86 119 150 178 216 262
#     4   9  17  30  44  61  87 116 148 186 222 262
#     4  10  20  32  46  65  91 120 152 188 225 264
#     4   9  16  28  44  63  86 112 145 185 226 268
#     4  11  22  33  43  60  89 122 153 182 214 256
#     4   9  17  30  47  67  90 115 148 190 228 262
#
# _framework density 17.296872
#
# number of rings (size 3 to 8) (size 9 to 14) (size 15 to 20)
#    0.000    2.750    1.250    3.000    0.000    3.250 
#    0.000    5.625    0.000    0.375    0.000    0.875 
#    0.000    3.000    0.000    0.000    0.000    0.000 
#
# Total GULP energy -356616.577154 kJ/mol
# GULP energy per Si atom -5572.134018 kJ/mol
# Density = 1.725750 g / cm^3
# Si number density = 17.296872 Si / 1000 Ang^3
#
#
#
# Elastic Constant Matrix: (Units=GPa)
#
#
# Indices 1 2 3 4 5 6 
#
# 1 22.5932 -7.5475 -6.7908 0.0000 0.0000 0.0000
# 2 -7.5475 80.3895 24.9900 0.0000 0.0000 0.0000
# 3 -6.7908 24.9900 78.7945 0.0000 0.0000 0.0000
# 4 0.0000 0.0000 0.0000 12.9847 0.0000 0.0000
# 5 0.0000 0.0000 0.0000 0.0000 12.4778 0.0000
# 6 0.0000 0.0000 0.0000 0.0000 0.0000 13.5904
#
#
#
# Elastic Compliance Matrix: (Units=1/GPa)
#
#
# Indices 1 2 3 4 5 6 
#
# 1 0.046282 0.003445 0.002896 0.000000 0.000000 0.000000
# 2 0.003445 0.014056 -0.004161 0.000000 0.000000 0.000000
# 3 0.002896 -0.004161 0.014261 0.000000 0.000000 0.000000
# 4 0.000000 0.000000 0.000000 0.077014 0.000000 0.000000
# 5 0.000000 0.000000 0.000000 0.000000 0.080142 0.000000
# 6 0.000000 0.000000 0.000000 0.000000 0.000000 0.073581
#
#
# Mechanical properties :
#
#
# Convention : Reuss Voigt Hill
#
# Bulk Modulus (GPa) = 12.66473 22.56449 17.61461
# Shear Modulus (GPa) = 15.27666 19.21895 17.24781
#
# Velocity S-wave (km/s) = 2.97510 3.33697 3.16121
# Velocity P-wave (km/s) = 4.37487 5.28402 4.85079
#
# Compressibility (1/GPa) = 0.07895946
#
# Stress axis : x y z
#
# Youngs Moduli (GPa) = 21.60651 71.14193 70.12341
#
# Poissons Ratio (x) = -0.24508 -0.20309
# Poissons Ratio (y) = -0.07443 0.29179
# Poissons Ratio (z) = -0.06258 0.29603
#
# Static dielectric constant tensor:
#      x y z
#    x 1.643310 0.000000 0.000000 
#    y 0.000000 1.583960 0.000000 
#    z 0.000000 0.000000 1.611820 
# 
# From -- ./inp_files/21802.got.cif
#   From: 2010.05.17/outbox.cif.g08.bks.cpg/sg59_11_cif.got.tgz:21802.got - 2010.06.03 14:40:33.
