data_PCOD9446549
_publ_section_title
;
Structure prediction by ZEFSAII (Michael W. Deem and Ramdas Pophale) SiO2 
 PCOD9446549
Probable space group: P M M N
;
_chemical_formula_sum "Si O2"
_cell_formula_units_Z 56
_cell_length_a 7.482978
_cell_length_b 22.256709
_cell_length_c 14.236222
_cell_angle_alpha 90.000000
_cell_angle_beta 90.000000
_cell_angle_gamma 90.000000
_cell_volume 2370.992432
_symmetry_space_group_name_H-M "P M M N"
_symmetry_group_IT_number 59
_space_group.IT_coordinate_system_code '2'
_symmetry_cell_setting 'orthorhombic'
loop_
_space_group_symop_operation_xyz
x,y,z
1/2-x,1/2-y,z
1/2+x,-y,-z
-x,1/2+y,-z
-x,-y,-z
1/2+x,1/2+y,-z
1/2-x,y,z
x,1/2-y,z
loop_
_atom_site_type_symbol
_atom_site_label
_atom_site_fract_x
_atom_site_fract_y
_atom_site_fract_z
Si Si1 0.039786 0.750000 0.572216
Si Si2 0.035046 0.684700 0.879329
Si Si3 0.031921 0.380518 0.625943
Si Si4 0.967039 0.184165 0.899723
Si Si5 0.955257 0.061810 0.811769
Si Si6 0.462629 0.382558 0.411638
Si Si7 0.452265 0.250000 0.643642
Si Si8 0.539460 0.562597 0.773219
O O1 0.250000 0.750000 0.554524
O O2 0.993728 0.686748 0.618776
O O3 0.945257 0.750000 0.470849
O O4 0.250000 0.684949 0.872217
O O5 0.971512 0.750000 0.843140
O O6 0.973501 0.624897 0.828316
O O7 0.990005 0.681894 0.989725
O O8 0.250000 0.379268 0.626419
O O9 0.971131 0.389531 0.518522
O O10 0.965743 0.315017 0.662966
O O11 0.964558 0.428805 0.699458
O O12 0.750000 0.184568 0.891163
O O13 0.026907 0.250000 0.863039
O O14 0.037107 0.122882 0.853556
O O15 0.750000 0.061546 0.845544
O O16 0.035262 0.995700 0.826863
O O17 0.250000 0.391315 0.416266
O O18 0.537053 0.425226 0.330742
O O19 0.250000 0.250000 0.678334
O O20 0.750000 0.549712 0.761705
#
# Coordination Sequence:
#
# PCOD9446549 Si02
#       8
#     4   8   8   8   8   8   4   8
#     4  10  18  28  48  78 101 122 173 236 271 300
#     4   9  19  37  60  83 106 135 176 223 270 328
#     4   9  18  33  52  73 102 145 188 220 261 319
#     4   8  16  34  58  81 108 142 172 210 277 338
#     4  10  21  35  53  81 112 142 184 227 264 317
#     4   9  19  36  52  68 104 153 184 210 270 335
#     4   8  16  32  50  70 103 142 175 212 271 332
#     4  10  22  37  53  78 111 146 182 222 270 324
#
# _framework density 23.618803
#
# number of rings (size 3 to 8) (size 9 to 14) (size 15 to 20)
#    0.000    2.857    0.000    2.357    2.000    4.857 
#    0.000    0.714    0.000    0.857    0.000    0.000 
#    0.000    0.000    0.000    0.000    0.000    0.000 
#
# Total GULP energy -312543.136782 kJ/mol
# GULP energy per Si atom -5581.127443 kJ/mol
# Density = 2.356505 g / cm^3
# Si number density = 23.618803 Si / 1000 Ang^3
#
#
#
# Elastic Constant Matrix: (Units=GPa)
#
#
# Indices 1 2 3 4 5 6 
#
# 1 71.6372 -1.9317 2.6791 0.0000 0.0000 0.0000
# 2 -1.9317 177.7002 43.4965 0.0000 0.0000 0.0000
# 3 2.6791 43.4965 49.0737 0.0000 0.0000 0.0000
# 4 0.0000 0.0000 0.0000 20.5572 0.0000 0.0000
# 5 0.0000 0.0000 0.0000 0.0000 7.5663 0.0000
# 6 0.0000 0.0000 0.0000 0.0000 0.0000 6.3638
#
#
#
# Elastic Compliance Matrix: (Units=1/GPa)
#
#
# Indices 1 2 3 4 5 6 
#
# 1 0.014014 0.000434 -0.001149 0.000000 0.000000 0.000000
# 2 0.000434 0.007200 -0.006405 0.000000 0.000000 0.000000
# 3 -0.001149 -0.006405 0.026118 0.000000 0.000000 0.000000
# 4 0.000000 0.000000 0.000000 0.048645 0.000000 0.000000
# 5 0.000000 0.000000 0.000000 0.000000 0.132165 0.000000
# 6 0.000000 0.000000 0.000000 0.000000 0.000000 0.157139
#
#
# Mechanical properties :
#
#
# Convention : Reuss Voigt Hill
#
# Bulk Modulus (GPa) = 30.22127 42.98875 36.60501
# Shear Modulus (GPa) = 12.17868 23.84193 18.01030
#
# Velocity S-wave (km/s) = 2.27322 3.18063 2.76441
# Velocity P-wave (km/s) = 4.43996 5.63286 5.07161
#
# Compressibility (1/GPa) = 0.03308928
#
# Stress axis : x y z
#
# Youngs Moduli (GPa) = 71.35763 138.88769 38.28817
#
# Poissons Ratio (x) = -0.06024 0.04401
# Poissons Ratio (y) = -0.03095 0.24525
# Poissons Ratio (z) = 0.08202 0.88964
#
# Static dielectric constant tensor:
#      x y z
#    x 1.868970 0.000000 0.000000 
#    y 0.000000 1.954750 0.000000 
#    z 0.000000 0.000000 1.889390 
# 
# From -- ./inp_files/21097.got.cif
#   From: 2010.05.17/outbox.cif.g08.bks.cpg/sg59_11_cif.got.tgz:21097.got - 2010.06.03 14:40:33.
