data_PCOD9446744
_publ_section_title
;
Structure prediction by ZEFSAII (Michael W. Deem and Ramdas Pophale) SiO2 
 PCOD9446744
Probable space group: P M M N
;
_chemical_formula_sum "Si O2"
_cell_formula_units_Z 64
_cell_length_a 17.036259
_cell_length_b 20.134810
_cell_length_c 10.294221
_cell_angle_alpha 90.000000
_cell_angle_beta 90.000000
_cell_angle_gamma 90.000000
_cell_volume 3531.142609
_symmetry_space_group_name_H-M "P M M N"
_symmetry_group_IT_number 59
_space_group.IT_coordinate_system_code '2'
_symmetry_cell_setting 'orthorhombic'
loop_
_space_group_symop_operation_xyz
x,y,z
1/2-x,1/2-y,z
1/2+x,-y,-z
-x,1/2+y,-z
-x,-y,-z
1/2+x,1/2+y,-z
1/2-x,y,z
x,1/2-y,z
loop_
_atom_site_type_symbol
_atom_site_label
_atom_site_fract_x
_atom_site_fract_y
_atom_site_fract_z
Si Si1 0.345856 0.674688 0.943494
Si Si2 0.880915 0.325197 0.508345
Si Si3 0.561598 0.821745 0.463491
Si Si4 0.655223 0.821800 0.728512
Si Si5 0.656297 0.966177 0.720433
Si Si6 0.839431 0.077922 0.282974
Si Si7 0.845182 0.388702 0.784956
Si Si8 0.920547 0.968696 0.440793
O O1 0.250000 0.675251 0.939211
O O2 0.371888 0.750000 0.916182
O O3 0.371231 0.621597 0.835901
O O4 0.369574 0.650577 0.086469
O O5 0.851262 0.250000 0.499660
O O6 0.839876 0.373431 0.407392
O O7 0.871651 0.352629 0.653659
O O8 0.973782 0.324812 0.478083
O O9 0.567393 0.750000 0.393474
O O10 0.623344 0.820545 0.581118
O O11 0.571224 0.892587 0.394944
O O12 0.750000 0.822680 0.729872
O O13 0.630497 0.750000 0.787342
O O14 0.627743 0.894869 0.775886
O O15 0.750000 0.966761 0.734988
O O16 0.636584 0.969400 0.566697
O O17 0.626509 0.034782 0.782489
O O18 0.750000 0.057618 0.254068
O O19 0.889721 0.015309 0.327016
O O20 0.750000 0.389160 0.783037
O O21 0.000000 0.000000 0.500000
#
# Coordination Sequence:
#
# PCOD9446744 Si02
#       8
#     8   8   8   8   8   8   8   8
#     4   9  19  34  49  68 101 140 173 206 244 293
#     4  11  20  30  48  75 104 134 166 203 250 301
#     4   9  18  30  45  71 103 135 165 202 253 306
#     4   8  14  25  42  66  96 127 159 203 258 304
#     4   9  16  26  44  69  95 122 161 206 245 293
#     4  11  21  33  50  75 101 131 168 208 252 298
#     4  10  18  30  47  71 101 136 171 203 243 292
#     4  11  18  30  48  71 100 132 163 205 256 296
#
# _framework density 18.124445999999999
#
# number of rings (size 3 to 8) (size 9 to 14) (size 15 to 20)
#    0.000    2.250    2.500    1.500    0.000    2.500 
#    0.000    0.000    0.000    3.000    0.000    0.875 
#    0.000    3.000    0.000    0.000    0.000    0.750 
#
# Total GULP energy -356328.147211 kJ/mol
# GULP energy per Si atom -5567.627300 kJ/mol
# Density = 1.808319 g / cm^3
# Si number density = 18.124446 Si / 1000 Ang^3
#
#
#
# Elastic Constant Matrix: (Units=GPa)
#
#
# Indices 1 2 3 4 5 6 
#
# 1 6.3267 5.2472 -1.5549 0.0000 0.0000 0.0000
# 2 5.2472 140.6007 3.3919 0.0000 0.0000 0.0000
# 3 -1.5549 3.3919 40.9070 0.0000 0.0000 0.0000
# 4 0.0000 0.0000 0.0000 17.7436 0.0000 0.0000
# 5 0.0000 0.0000 0.0000 0.0000 -6.4100 0.0000
# 6 0.0000 0.0000 0.0000 0.0000 0.0000 -124.4611
#
#
#
# Elastic Compliance Matrix: (Units=1/GPa)
#
#
# Indices 1 2 3 4 5 6 
#
# 1 0.164973 -0.006321 0.006795 0.000000 0.000000 0.000000
# 2 -0.006321 0.007369 -0.000851 0.000000 0.000000 0.000000
# 3 0.006795 -0.000851 0.024775 0.000000 0.000000 0.000000
# 4 0.000000 0.000000 0.000000 0.056358 0.000000 0.000000
# 5 0.000000 0.000000 0.000000 0.000000 -0.156006 0.000000
# 6 0.000000 0.000000 0.000000 0.000000 0.000000 -0.008035
#
#
# Mechanical properties :
#
#
# Convention : Reuss Voigt Hill
#
# Bulk Modulus (GPa) = 5.09264 22.44474 13.76869
# Shear Modulus (GPa) = 32.12495 -10.57549 10.77473
#
# Velocity S-wave (km/s) = 4.21463 -2.41818 2.44085
# Velocity P-wave (km/s) = 5.14782 2.14797 3.94423
#
# Compressibility (1/GPa) = 0.19636195
#
# Stress axis : x y z
#
# Youngs Moduli (GPa) = 6.06161 135.70791 40.36395
#
# Poissons Ratio (x) = 0.85777 -0.27427
# Poissons Ratio (y) = 0.03831 0.03436
# Poissons Ratio (z) = -0.04119 0.11552
#
# Static dielectric constant tensor:
#      x y z
#    x 1.650620 0.000000 0.000000 
#    y 0.000000 1.728280 0.000000 
#    z 0.000000 0.000000 1.586240 
# 
# From -- ./inp_files/10656.got.cif
#   From: 2010.05.17/outbox.cif.g08.bks.cpg/sg59_6_cif.got.tgz:10656.got - 2010.06.03 14:40:33.
