data_PCOD9446627
_publ_section_title
;
Structure prediction by ZEFSAII (Michael W. Deem and Ramdas Pophale) SiO2 
 PCOD9446627
Probable space group: P M M N
;
_chemical_formula_sum "Si O2"
_cell_formula_units_Z 64
_cell_length_a 7.968528
_cell_length_b 25.295760
_cell_length_c 15.696536
_cell_angle_alpha 90.000000
_cell_angle_beta 90.000000
_cell_angle_gamma 90.000000
_cell_volume 3163.950320
_symmetry_space_group_name_H-M "P M M N"
_symmetry_group_IT_number 59
_space_group.IT_coordinate_system_code '2'
_symmetry_cell_setting 'orthorhombic'
loop_
_space_group_symop_operation_xyz
x,y,z
1/2-x,1/2-y,z
1/2+x,-y,-z
-x,1/2+y,-z
-x,-y,-z
1/2+x,1/2+y,-z
1/2-x,y,z
x,1/2-y,z
loop_
_atom_site_type_symbol
_atom_site_label
_atom_site_fract_x
_atom_site_fract_y
_atom_site_fract_z
Si Si1 0.952369 0.189845 0.559187
Si Si2 0.955975 0.691522 0.927385
Si Si3 0.561683 0.497928 0.747753
Si Si4 0.052835 0.112399 0.217081
Si Si5 0.060109 0.345883 0.895522
Si Si6 0.947622 0.617003 0.284817
Si Si7 0.938014 0.454679 0.938952
Si Si8 0.047453 0.811813 0.633397
O O1 0.750000 0.191101 0.558169
O O2 0.011108 0.250000 0.575923
O O3 0.005085 0.174541 0.463388
O O4 0.006894 0.150505 0.632786
O O5 0.750000 0.688994 0.928821
O O6 0.001423 0.750000 0.894113
O O7 0.014616 0.644014 0.865679
O O8 0.015305 0.686372 0.025489
O O9 0.750000 0.504941 0.712986
O O10 0.477952 0.555796 0.753748
O O11 0.491219 0.444890 0.704640
O O12 0.568497 0.479743 0.845655
O O13 0.250000 0.101859 0.198687
O O14 0.035412 0.152174 0.295683
O O15 0.250000 0.325697 0.883126
O O16 0.978612 0.355800 0.802230
O O17 0.059548 0.404961 0.934499
O O18 0.750000 0.618523 0.270960
O O19 0.750000 0.436789 0.961879
O O20 0.000000 0.500000 0.000000
O O21 0.250000 0.817520 0.639262
O O22 0.008268 0.750000 0.646643
#
# Coordination Sequence:
#
# PCOD9446627 Si02
#       8
#     8   8   8   8   8   8   8   8
#     4   9  19  37  59  79 102 136 171 202 250 318
#     4   9  17  30  49  73 103 139 174 207 251 309
#     4   9  19  34  50  70 101 140 176 210 256 316
#     4  10  19  32  53  78 101 132 176 219 255 297
#     4   9  18  32  48  69 100 135 168 202 245 298
#     4  10  20  33  53  81 108 134 171 221 263 296
#     4  10  18  29  47  68  92 126 168 212 252 291
#     4   9  19  36  56  78 104 134 168 208 259 315
#
# _framework density 20.227878
#
# number of rings (size 3 to 8) (size 9 to 14) (size 15 to 20)
#    0.000    2.625    0.000    2.625    0.000    5.500 
#    0.000    5.000    0.000    1.125    0.000    0.000 
#    0.000    0.000    0.000    0.000    0.000    0.000 
#
# Total GULP energy -356542.487551 kJ/mol
# GULP energy per Si atom -5570.976368 kJ/mol
# Density = 2.018184 g / cm^3
# Si number density = 20.227878 Si / 1000 Ang^3
#
#
#
# Elastic Constant Matrix: (Units=GPa)
#
#
# Indices 1 2 3 4 5 6 
#
# 1 24.6237 4.3395 -1.4134 0.0000 0.0000 0.0000
# 2 4.3395 91.6778 52.3122 0.0000 0.0000 0.0000
# 3 -1.4134 52.3122 77.2990 0.0000 0.0000 0.0000
# 4 0.0000 0.0000 0.0000 32.3011 0.0000 0.0000
# 5 0.0000 0.0000 0.0000 0.0000 9.1507 0.0000
# 6 0.0000 0.0000 0.0000 0.0000 0.0000 10.8474
#
#
#
# Elastic Compliance Matrix: (Units=1/GPa)
#
#
# Indices 1 2 3 4 5 6 
#
# 1 0.041495 -0.003905 0.003401 0.000000 0.000000 0.000000
# 2 -0.003905 0.018137 -0.012346 0.000000 0.000000 0.000000
# 3 0.003401 -0.012346 0.021354 0.000000 0.000000 0.000000
# 4 0.000000 0.000000 0.000000 0.030959 0.000000 0.000000
# 5 0.000000 0.000000 0.000000 0.000000 0.109282 0.000000
# 6 0.000000 0.000000 0.000000 0.000000 0.000000 0.092188
#
#
# Mechanical properties :
#
#
# Convention : Reuss Voigt Hill
#
# Bulk Modulus (GPa) = 18.08737 33.78635 25.93686
# Shear Modulus (GPa) = 13.98437 19.68398 16.83417
#
# Velocity S-wave (km/s) = 2.63219 3.12286 2.88796
# Velocity P-wave (km/s) = 4.26604 5.45363 4.89598
#
# Compressibility (1/GPa) = 0.05528719
#
# Stress axis : x y z
#
# Youngs Moduli (GPa) = 24.09947 55.13524 46.82963
#
# Poissons Ratio (x) = 0.21530 -0.15929
# Poissons Ratio (y) = 0.09411 0.57815
# Poissons Ratio (z) = -0.08197 0.68069
#
# Static dielectric constant tensor:
#      x y z
#    x 1.767110 0.000000 0.000000 
#    y 0.000000 1.734940 0.000000 
#    z 0.000000 0.000000 1.404080 
# 
# From -- ./inp_files/21493.got.cif
#   From: 2010.05.17/outbox.cif.g08.bks.cpg/sg59_11_cif.got.tgz:21493.got - 2010.06.03 14:40:33.
