data_PCOD9446024
_publ_section_title
;
Structure prediction by ZEFSAII (Michael W. Deem and Ramdas Pophale) SiO2 
 PCOD9446024
Probable space group: P N N M
;
_chemical_formula_sum "Si O2"
_cell_formula_units_Z 58
_cell_length_a 24.000000
_cell_length_b 15.000000
_cell_length_c 9.000000
_cell_angle_alpha 90.000000
_cell_angle_beta 90.000000
_cell_angle_gamma 90.000000
_cell_volume 3240.000000
_symmetry_space_group_name_H-M "P N N M"
_symmetry_group_IT_number 58
_symmetry_cell_setting 'orthorhombic'
loop_
_space_group_symop_operation_xyz
x,y,z
-x,-y,z
1/2+x,1/2-y,1/2-z
1/2-x,1/2+y,1/2-z
-x,-y,-z
x,y,-z
1/2-x,1/2+y,1/2+z
1/2+x,1/2-y,1/2+z
loop_
_atom_site_type_symbol
_atom_site_label
_atom_site_fract_x
_atom_site_fract_y
_atom_site_fract_z
Si Si1 0.878198 0.061800 0.321494
Si Si2 0.302981 0.095258 0.177150
Si Si3 0.758318 0.091313 0.177388
Si Si4 0.580510 0.868300 0.663596
Si Si5 0.400702 0.645703 0.178907
Si Si6 0.974508 0.201556 0.679039
Si Si7 0.293204 0.736577 0.678414
Si Si8 0.500000 0.000000 0.500000
O O1 0.870378 0.069677 0.500000
O O2 0.820753 0.088402 0.242594
O O3 0.929786 0.125218 0.279283
O O4 0.892756 0.959108 0.288057
O O5 0.361825 0.105781 0.258273
O O6 0.258073 0.170910 0.218079
O O7 0.272711 0.001846 0.208666
O O8 0.312586 0.101590 0.000000
O O9 0.722975 0.168915 0.253442
O O10 0.760644 0.103622 0.000000
O O11 0.594366 0.829651 0.500000
O O12 0.547269 0.793875 0.754635
O O13 0.539907 0.951198 0.627232
O O14 0.462412 0.677621 0.225546
O O15 0.350848 0.699165 0.256297
O O16 0.396429 0.656431 0.000000
O O17 0.974615 0.206214 0.500000
O O18 0.296981 0.740599 0.500000
#
# Coordination Sequence:
#
# PCOD9446024 Si02
#       8
#     8   8   8   8   8   8   8   2
#     4  10  20  37  61  90 126 162 203 249 304 367
#     4  10  22  41  63  87 121 161 204 252 305 364
#     4  11  23  39  60  90 125 159 206 253 307 368
#     4  10  22  41  63  86 119 155 203 258 300 365
#     4  10  21  38  60  88 126 163 202 247 303 367
#     4  10  21  38  62  91 120 161 206 251 302 365
#     4  11  23  40  60  89 125 162 202 256 311 366
#     4   8  24  44  58  84 122 148 198 254 312 342
#
# _framework density 17.901235
#
# number of rings (size 3 to 8) (size 9 to 14) (size 15 to 20)
#    0.414    1.379    1.379    2.483    0.000    9.379 
#    2.483    2.759    0.000    2.483    0.000    0.000 
#    0.000    0.000    0.000    0.000    0.000    0.000 
#
# Total GULP energy -323217.552106 kJ/mol
# GULP energy per Si atom -5572.716416 kJ/mol
# Density = 1.786049 g / cm^3
# Si number density = 17.901235 Si / 1000 Ang^3
#
#
#
# Elastic Constant Matrix: (Units=GPa)
#
#
# Indices 1 2 3 4 5 6 
#
# 1 139.1770 30.7645 39.9819 0.0000 0.0000 0.0000
# 2 30.7645 42.8490 23.9896 0.0000 0.0000 0.0000
# 3 39.9819 23.9896 30.4261 0.0000 0.0000 0.0000
# 4 0.0000 0.0000 0.0000 22.4228 0.0000 0.0000
# 5 0.0000 0.0000 0.0000 0.0000 36.6996 0.0000
# 6 0.0000 0.0000 0.0000 0.0000 0.0000 31.7324
#
#
#
# Elastic Compliance Matrix: (Units=1/GPa)
#
#
# Indices 1 2 3 4 5 6 
#
# 1 0.011545 0.000366 -0.015460 0.000000 0.000000 0.000000
# 2 0.000366 0.041793 -0.033433 0.000000 0.000000 0.000000
# 3 -0.015460 -0.033433 0.079543 0.000000 0.000000 0.000000
# 4 0.000000 0.000000 0.000000 0.044597 0.000000 0.000000
# 5 0.000000 0.000000 0.000000 0.000000 0.027248 0.000000
# 6 0.000000 0.000000 0.000000 0.000000 0.000000 0.031514
#
#
# Mechanical properties :
#
#
# Convention : Reuss Voigt Hill
#
# Bulk Modulus (GPa) = 27.91196 44.65822 36.28509
# Shear Modulus (GPa) = 14.48286 26.01871 20.25078
#
# Velocity S-wave (km/s) = 2.84745 3.81656 3.36706
# Velocity P-wave (km/s) = 5.14166 6.66503 5.95228
#
# Compressibility (1/GPa) = 0.03582694
#
# Stress axis : x y z
#
# Youngs Moduli (GPa) = 86.61403 23.92769 12.57189
#
# Poissons Ratio (x) = -0.00877 0.19437
# Poissons Ratio (y) = -0.03173 0.42031
# Poissons Ratio (z) = 1.33908 0.79997
#
# Static dielectric constant tensor:
#      x y z
#    x 1.573280 0.000000 0.000000 
#    y 0.000000 1.607220 0.000000 
#    z 0.000000 0.000000 1.607230 
# 
# From -- ./inp_files/9895.got.cif
#   From: 2010.05.17/outbox.ucp.g08.bks.cvg/sg58_5_cif.got.tgz:9895.got - 2010.06.11 16:41:41.
