data_PCOD9446606
_publ_section_title
;
Structure prediction by ZEFSAII (Michael W. Deem and Ramdas Pophale) SiO2 
 PCOD9446606
Probable space group: P M M N
;
_chemical_formula_sum "Si O2"
_cell_formula_units_Z 48
_cell_length_a 7.329746
_cell_length_b 24.203959
_cell_length_c 11.801097
_cell_angle_alpha 90.000000
_cell_angle_beta 90.000000
_cell_angle_gamma 90.000000
_cell_volume 2093.619303
_symmetry_space_group_name_H-M "P M M N"
_symmetry_group_IT_number 59
_space_group.IT_coordinate_system_code '2'
_symmetry_cell_setting 'orthorhombic'
loop_
_space_group_symop_operation_xyz
x,y,z
1/2-x,1/2-y,z
1/2+x,-y,-z
-x,1/2+y,-z
-x,-y,-z
1/2+x,1/2+y,-z
1/2-x,y,z
x,1/2-y,z
loop_
_atom_site_type_symbol
_atom_site_label
_atom_site_fract_x
_atom_site_fract_y
_atom_site_fract_z
Si Si1 0.527230 0.250000 0.784538
Si Si2 0.026925 0.635961 0.587127
Si Si3 0.036060 0.602090 0.835349
Si Si4 0.530191 0.475492 0.835885
Si Si5 0.971759 0.250000 0.519163
Si Si6 0.472770 0.643262 0.066693
Si Si7 0.034201 0.951575 0.413050
O O1 0.750000 0.250000 0.783601
O O2 0.469413 0.250000 0.651865
O O3 0.470675 0.194596 0.853942
O O4 0.250000 0.632108 0.588241
O O5 0.962269 0.612747 0.708627
O O6 0.974580 0.697421 0.554817
O O7 0.962752 0.601097 0.478873
O O8 0.250000 0.613811 0.827171
O O9 0.021568 0.537546 0.872475
O O10 0.966929 0.642042 0.935276
O O11 0.750000 0.475674 0.842010
O O12 0.470547 0.417696 0.890646
O O13 0.461810 0.469355 0.707422
O O14 0.750000 0.250000 0.525451
O O15 0.250000 0.644256 0.068968
O O16 0.250000 0.943024 0.395139
O O17 0.000000 0.000000 0.500000
#
# Coordination Sequence:
#
# PCOD9446606 Si02
#       7
#     4   8   8   8   4   8   8
#     4   9  16  29  47  67  93 125 160 198 241 286
#     4   9  17  28  43  67  96 125 157 192 239 288
#     4  10  19  31  47  70 102 129 155 197 242 286
#     4  10  19  31  48  71  98 128 164 199 234 286
#     4   9  16  27  45  67  95 127 156 196 243 286
#     4   9  18  30  46  69  96 128 162 198 240 283
#     4  10  18  29  46  68  95 124 156 196 236 282
#
# _framework density 22.926804000000001
#
# number of rings (size 3 to 8) (size 9 to 14) (size 15 to 20)
#    0.000    2.500    1.667    1.500    0.000    4.667 
#    0.000    3.333    0.000    0.000    0.000    5.833 
#    0.000    8.000    0.000    0.000    0.000    0.000 
#
# Total GULP energy -267775.813421 kJ/mol
# GULP energy per Si atom -5578.662780 kJ/mol
# Density = 2.287462 g / cm^3
# Si number density = 22.926804 Si / 1000 Ang^3
#
#
#
# Elastic Constant Matrix: (Units=GPa)
#
#
# Indices 1 2 3 4 5 6 
#
# 1 87.0118 -14.8210 -1.3189 0.0000 0.0000 0.0000
# 2 -14.8210 129.9699 40.9869 0.0000 0.0000 0.0000
# 3 -1.3189 40.9869 104.8113 0.0000 0.0000 0.0000
# 4 0.0000 0.0000 0.0000 35.8071 0.0000 0.0000
# 5 0.0000 0.0000 0.0000 0.0000 -3.3780 0.0000
# 6 0.0000 0.0000 0.0000 0.0000 0.0000 5.4051
#
#
#
# Elastic Compliance Matrix: (Units=1/GPa)
#
#
# Indices 1 2 3 4 5 6 
#
# 1 0.011737 0.001474 -0.000429 0.000000 0.000000 0.000000
# 2 0.001474 0.008961 -0.003486 0.000000 0.000000 0.000000
# 3 -0.000429 -0.003486 0.010899 0.000000 0.000000 0.000000
# 4 0.000000 0.000000 0.000000 0.027927 0.000000 0.000000
# 5 0.000000 0.000000 0.000000 0.000000 -0.296032 0.000000
# 6 0.000000 0.000000 0.000000 0.000000 0.000000 0.185009
#
#
# Mechanical properties :
#
#
# Convention : Reuss Voigt Hill
#
# Bulk Modulus (GPa) = 37.43118 41.27632 39.35375
# Shear Modulus (GPa) = -132.58830 27.36323 -52.61253
#
# Velocity S-wave (km/s) = -7.61293 3.45846 -4.79561
# Velocity P-wave (km/s) = 7.80473 5.83014 3.66901
#
# Compressibility (1/GPa) = 0.02671570
#
# Stress axis : x y z
#
# Youngs Moduli (GPa) = 85.19918 111.58948 91.75383
#
# Poissons Ratio (x) = -0.16444 0.03932
# Poissons Ratio (y) = -0.12555 0.31984
# Poissons Ratio (z) = 0.03651 0.38899
#
# Static dielectric constant tensor:
#      x y z
#    x 3.791290 0.000000 0.000000 
#    y 0.000000 25.684840 0.000000 
#    z 0.000000 0.000000 1.867050 
# 
# From -- ./inp_files/15957.got.cif
#   From: 2010.05.17/outbox.cif.g08.bks.cpg/sg59_8_cif.got.tgz:15957.got - 2010.06.03 14:40:33.
