data_PCOD9446429
_publ_section_title
;
Structure prediction by ZEFSAII (Michael W. Deem and Ramdas Pophale) SiO2 
 PCOD9446429
Probable space group: P M M N
;
_chemical_formula_sum "Si O2"
_cell_formula_units_Z 56
_cell_length_a 21.987328
_cell_length_b 9.264610
_cell_length_c 18.246224
_cell_angle_alpha 90.000000
_cell_angle_beta 90.000000
_cell_angle_gamma 90.000000
_cell_volume 3716.829158
_symmetry_space_group_name_H-M "P M M N"
_symmetry_group_IT_number 59
_space_group.IT_coordinate_system_code '2'
_symmetry_cell_setting 'orthorhombic'
loop_
_space_group_symop_operation_xyz
x,y,z
1/2-x,1/2-y,z
1/2+x,-y,-z
-x,1/2+y,-z
-x,-y,-z
1/2+x,1/2+y,-z
1/2-x,y,z
x,1/2-y,z
loop_
_atom_site_type_symbol
_atom_site_label
_atom_site_fract_x
_atom_site_fract_y
_atom_site_fract_z
Si Si1 0.396622 0.579449 0.796307
Si Si2 0.461989 0.076648 0.394607
Si Si3 0.082961 0.083521 0.942867
Si Si4 0.958822 0.920419 0.768615
Si Si5 0.436850 0.916043 0.086681
Si Si6 0.083246 0.077502 0.549722
Si Si7 0.820864 0.576730 0.329859
O O1 0.384662 0.750000 0.800796
O O2 0.389073 0.503938 0.875116
O O3 0.467786 0.561625 0.774117
O O4 0.355009 0.504194 0.735733
O O5 0.470967 0.250000 0.392568
O O6 0.440677 0.034204 0.313497
O O7 0.418304 0.042339 0.463232
O O8 0.526113 0.002543 0.413558
O O9 0.102582 0.250000 0.943689
O O10 0.009806 0.082743 0.928941
O O11 0.092593 0.005919 0.020534
O O12 0.946387 0.750000 0.778942
O O13 0.929524 0.010026 0.834424
O O14 0.417109 0.750000 0.086209
O O15 0.073475 0.250000 0.555929
O O16 0.143576 0.041743 0.594912
O O17 0.750000 0.539077 0.333162
O O18 0.825800 0.750000 0.318617
#
# Coordination Sequence:
#
# PCOD9446429 Si02
#       7
#     8   8   8   8   8   8   8
#     4  10  18  28  42  59  80 108 143 178 213 253
#     4   9  16  27  42  61  83 108 139 177 217 262
#     4   9  16  26  39  55  79 110 140 169 204 245
#     4   9  16  25  38  57  83 110 136 171 213 257
#     4   9  16  24  36  56  81 109 140 169 199 240
#     4   9  17  28  43  60  80 108 142 177 217 260
#     4  10  20  32  44  60  84 113 146 182 218 257
#
# _framework density 15.066606999999999
#
# number of rings (size 3 to 8) (size 9 to 14) (size 15 to 20)
#    0.000    2.714    1.429    1.286    0.000    4.857 
#    0.000    0.000    0.000    0.000    0.000    0.000 
#    0.000    1.143    0.000    8.571    0.000    2.143 
#
# Total GULP energy -311894.800716 kJ/mol
# GULP energy per Si atom -5569.550013 kJ/mol
# Density = 1.503231 g / cm^3
# Si number density = 15.066607 Si / 1000 Ang^3
#
#
#
# Elastic Constant Matrix: (Units=GPa)
#
#
# Indices 1 2 3 4 5 6 
#
# 1 38.1008 27.1687 35.1803 0.0000 0.0000 0.0000
# 2 27.1687 64.3629 67.9957 0.0000 0.0000 0.0000
# 3 35.1803 67.9957 168.3512 0.0000 0.0000 0.0000
# 4 0.0000 0.0000 0.0000 24.9543 0.0000 0.0000
# 5 0.0000 0.0000 0.0000 0.0000 9.8857 0.0000
# 6 0.0000 0.0000 0.0000 0.0000 0.0000 11.0261
#
#
#
# Elastic Compliance Matrix: (Units=1/GPa)
#
#
# Indices 1 2 3 4 5 6 
#
# 1 0.038171 -0.013406 -0.002562 0.000000 0.000000 0.000000
# 2 -0.013406 0.031809 -0.010046 0.000000 0.000000 0.000000
# 3 -0.002562 -0.010046 0.010533 0.000000 0.000000 0.000000
# 4 0.000000 0.000000 0.000000 0.040073 0.000000 0.000000
# 5 0.000000 0.000000 0.000000 0.000000 0.101156 0.000000
# 6 0.000000 0.000000 0.000000 0.000000 0.000000 0.090694
#
#
# Mechanical properties :
#
#
# Convention : Reuss Voigt Hill
#
# Bulk Modulus (GPa) = 35.10638 59.05605 47.08121
# Shear Modulus (GPa) = 13.37046 18.53790 15.95418
#
# Velocity S-wave (km/s) = 2.98220 3.51151 3.25762
# Velocity P-wave (km/s) = 5.93375 7.46476 6.74285
#
# Compressibility (1/GPa) = 0.02848485
#
# Stress axis : x y z
#
# Youngs Moduli (GPa) = 26.19760 31.43797 94.94193
#
# Poissons Ratio (x) = 0.42146 0.24324
# Poissons Ratio (y) = 0.35121 0.95377
# Poissons Ratio (z) = 0.06712 0.31582
#
# Static dielectric constant tensor:
#      x y z
#    x 1.458240 0.000000 0.000000 
#    y 0.000000 1.501160 0.000000 
#    z 0.000000 0.000000 1.517680 
# 
# From -- ./inp_files/25988.got.cif
#   From: 2010.05.17/outbox.cif.g08.bks.cpg/sg59_13_cif.got.tgz:25988.got - 2010.06.03 14:40:33.
