data_PCOD9446580
_publ_section_title
;
Structure prediction by ZEFSAII (Michael W. Deem and Ramdas Pophale) SiO2 
 PCOD9446580
Probable space group: P M M N
;
_chemical_formula_sum "Si O2"
_cell_formula_units_Z 56
_cell_length_a 25.391763
_cell_length_b 8.518265
_cell_length_c 16.840529
_cell_angle_alpha 90.000000
_cell_angle_beta 90.000000
_cell_angle_gamma 90.000000
_cell_volume 3642.501440
_symmetry_space_group_name_H-M "P M M N"
_symmetry_group_IT_number 59
_space_group.IT_coordinate_system_code '2'
_symmetry_cell_setting 'orthorhombic'
loop_
_space_group_symop_operation_xyz
x,y,z
1/2-x,1/2-y,z
1/2+x,-y,-z
-x,1/2+y,-z
-x,-y,-z
1/2+x,1/2+y,-z
1/2-x,y,z
x,1/2-y,z
loop_
_atom_site_type_symbol
_atom_site_label
_atom_site_fract_x
_atom_site_fract_y
_atom_site_fract_z
Si Si1 0.601779 0.937687 0.615006
Si Si2 0.991102 0.441070 0.304953
Si Si3 0.486621 0.560399 0.875476
Si Si4 0.555056 0.061786 0.463935
Si Si5 0.809756 0.560650 0.907121
Si Si6 0.310648 0.937288 0.268709
Si Si7 0.583861 0.560334 0.985897
O O1 0.602060 0.750000 0.614821
O O2 0.548303 0.989320 0.661096
O O3 0.598243 0.996472 0.524372
O O4 0.650686 0.001159 0.664078
O O5 0.991432 0.250000 0.302911
O O6 0.983127 0.496296 0.215182
O O7 0.947954 0.486872 0.371437
O O8 0.485833 0.750000 0.874852
O O9 0.541584 0.512451 0.917817
O O10 0.439853 0.501547 0.931885
O O11 0.555668 0.250000 0.467266
O O12 0.500000 0.000000 0.500000
O O13 0.750000 0.504507 0.925067
O O14 0.808855 0.750000 0.910245
O O15 0.822954 0.511064 0.817158
O O16 0.857426 0.506307 0.963320
O O17 0.250000 0.978050 0.286804
O O18 0.314898 0.750000 0.262327
O O19 0.583977 0.750000 0.988148
#
# Coordination Sequence:
#
# PCOD9446580 Si02
#       7
#     8   8   8   8   8   8   8
#     4  10  18  29  45  63  86 116 145 174 212 255
#     4   8  15  27  43  62  84 112 143 174 209 249
#     4   9  16  27  42  59  83 115 144 171 208 254
#     4   9  16  27  42  62  87 112 141 175 211 252
#     4   9  17  30  47  63  82 112 145 175 211 255
#     4  10  20  31  43  63  89 113 141 177 212 248
#     4   9  17  28  41  61  87 111 140 177 213 252
#
# _framework density 15.37405
#
# number of rings (size 3 to 8) (size 9 to 14) (size 15 to 20)
#    0.000    2.857    0.000    3.000    0.000    3.714 
#    0.000    7.143    0.000    0.000    0.000    1.000 
#    0.000    5.714    0.000    0.000    0.000    0.000 
#
# Total GULP energy -311852.463917 kJ/mol
# GULP energy per Si atom -5568.793999 kJ/mol
# Density = 1.533906 g / cm^3
# Si number density = 15.374050 Si / 1000 Ang^3
#
#
#
# Elastic Constant Matrix: (Units=GPa)
#
#
# Indices 1 2 3 4 5 6 
#
# 1 81.4016 14.7529 59.7285 0.0000 0.0000 0.0000
# 2 14.7529 7.6585 12.4494 0.0000 0.0000 0.0000
# 3 59.7285 12.4494 134.9476 0.0000 0.0000 0.0000
# 4 0.0000 0.0000 0.0000 23.5778 0.0000 0.0000
# 5 0.0000 0.0000 0.0000 0.0000 27.5756 0.0000
# 6 0.0000 0.0000 0.0000 0.0000 0.0000 18.9714
#
#
#
# Elastic Compliance Matrix: (Units=1/GPa)
#
#
# Indices 1 2 3 4 5 6 
#
# 1 0.023899 -0.033931 -0.007448 0.000000 0.000000 0.000000
# 2 -0.033931 0.201786 -0.003597 0.000000 0.000000 0.000000
# 3 -0.007448 -0.003597 0.011038 0.000000 0.000000 0.000000
# 4 0.000000 0.000000 0.000000 0.042413 0.000000 0.000000
# 5 0.000000 0.000000 0.000000 0.000000 0.036264 0.000000
# 6 0.000000 0.000000 0.000000 0.000000 0.000000 0.052711
#
#
# Mechanical properties :
#
#
# Convention : Reuss Voigt Hill
#
# Bulk Modulus (GPa) = 6.81335 44.20770 25.51052
# Shear Modulus (GPa) = 9.86218 23.16341 16.51280
#
# Velocity S-wave (km/s) = 2.53550 3.88578 3.28086
# Velocity P-wave (km/s) = 3.60735 6.99639 5.56608
#
# Compressibility (1/GPa) = 0.14677078
#
# Stress axis : x y z
#
# Youngs Moduli (GPa) = 41.84272 4.95575 90.59239
#
# Poissons Ratio (x) = 0.16816 0.67469
# Poissons Ratio (y) = 1.41978 0.32589
# Poissons Ratio (z) = 0.31162 0.01783
#
# Static dielectric constant tensor:
#      x y z
#    x 1.509130 0.000000 0.000000 
#    y 0.000000 1.525080 0.000000 
#    z 0.000000 0.000000 1.518340 
# 
# From -- ./inp_files/28383.got.cif
#   From: 2010.05.17/outbox.cif.g08.bks.cpg/sg59_15_cif.got.tgz:28383.got - 2010.06.03 14:40:33.
