data_PCOD9446256
_publ_section_title
;
Structure prediction by ZEFSAII (Michael W. Deem and Ramdas Pophale) SiO2 
 PCOD9446256
Probable space group: P M M N
;
_chemical_formula_sum "Si O2"
_cell_formula_units_Z 48
_cell_length_a 22.132983
_cell_length_b 8.615610
_cell_length_c 15.648014
_cell_angle_alpha 90.000000
_cell_angle_beta 90.000000
_cell_angle_gamma 90.000000
_cell_volume 2983.906484
_symmetry_space_group_name_H-M "P M M N"
_symmetry_group_IT_number 59
_space_group.IT_coordinate_system_code '2'
_symmetry_cell_setting 'orthorhombic'
loop_
_space_group_symop_operation_xyz
x,y,z
1/2-x,1/2-y,z
1/2+x,-y,-z
-x,1/2+y,-z
-x,-y,-z
1/2+x,1/2+y,-z
1/2-x,y,z
x,1/2-y,z
loop_
_atom_site_type_symbol
_atom_site_label
_atom_site_fract_x
_atom_site_fract_y
_atom_site_fract_z
Si Si1 0.094822 0.936632 0.848029
Si Si2 0.454740 0.065193 0.376481
Si Si3 0.319015 0.939264 0.693504
Si Si4 0.538545 0.434269 0.805679
Si Si5 0.933071 0.935112 0.978307
Si Si6 0.587326 0.437049 0.449673
O O1 0.092164 0.750000 0.851593
O O2 0.144606 0.984824 0.778700
O O3 0.029160 0.996301 0.817027
O O4 0.106227 0.002278 0.942874
O O5 0.451980 0.250000 0.365339
O O6 0.524005 0.024080 0.402505
O O7 0.439346 0.983188 0.287765
O O8 0.415077 0.012437 0.457113
O O9 0.250000 0.992862 0.692356
O O10 0.318626 0.750000 0.692972
O O11 0.357871 0.987180 0.610953
O O12 0.535117 0.250000 0.814297
O O13 0.578433 0.502433 0.883243
O O14 0.934220 0.750000 0.978602
O O15 0.000000 0.000000 0.000000
O O16 0.588773 0.250000 0.458724
#
# Coordination Sequence:
#
# PCOD9446256 Si02
#       6
#     8   8   8   8   8   8
#     4  10  17  29  45  65  93 123 156 192 228 271
#     4  10  18  29  45  67  93 124 154 191 237 284
#     4   9  17  30  49  70  93 124 161 197 231 269
#     4  11  19  28  44  67  93 123 154 187 231 281
#     4  10  18  28  42  63  91 122 152 184 225 272
#     4   9  17  30  45  66  92 122 157 194 232 277
#
# _framework density 16.086295
#
# number of rings (size 3 to 8) (size 9 to 14) (size 15 to 20)
#    0.000    2.167    1.667    6.000    0.000    0.667 
#    0.000    0.000    0.000    4.500    0.000    1.167 
#    0.000    9.333    0.000    0.000    0.000    0.000 
#
# Total GULP energy -267627.547104 kJ/mol
# GULP energy per Si atom -5575.573898 kJ/mol
# Density = 1.604968 g / cm^3
# Si number density = 16.086295 Si / 1000 Ang^3
#
#
#
# Elastic Constant Matrix: (Units=GPa)
#
#
# Indices 1 2 3 4 5 6 
#
# 1 67.7436 17.7210 53.3699 0.0000 0.0000 0.0000
# 2 17.7210 78.2238 50.4692 0.0000 0.0000 0.0000
# 3 53.3699 50.4692 167.4626 0.0000 0.0000 0.0000
# 4 0.0000 0.0000 0.0000 29.8941 0.0000 0.0000
# 5 0.0000 0.0000 0.0000 0.0000 15.2945 0.0000
# 6 0.0000 0.0000 0.0000 0.0000 0.0000 10.0618
#
#
#
# Elastic Compliance Matrix: (Units=1/GPa)
#
#
# Indices 1 2 3 4 5 6 
#
# 1 0.019727 -0.000512 -0.006133 0.000000 0.000000 0.000000
# 2 -0.000512 0.015883 -0.004623 0.000000 0.000000 0.000000
# 3 -0.006133 -0.004623 0.009319 0.000000 0.000000 0.000000
# 4 0.000000 0.000000 0.000000 0.033451 0.000000 0.000000
# 5 0.000000 0.000000 0.000000 0.000000 0.065383 0.000000
# 6 0.000000 0.000000 0.000000 0.000000 0.000000 0.099386
#
#
# Mechanical properties :
#
#
# Convention : Reuss Voigt Hill
#
# Bulk Modulus (GPa) = 44.65780 61.83890 53.24835
# Shear Modulus (GPa) = 18.30493 23.84138 21.07316
#
# Velocity S-wave (km/s) = 3.37697 3.85397 3.62333
# Velocity P-wave (km/s) = 6.55949 7.63738 7.11886
#
# Compressibility (1/GPa) = 0.02239250
#
# Stress axis : x y z
#
# Youngs Moduli (GPa) = 50.69219 62.96077 107.30428
#
# Poissons Ratio (x) = 0.03226 0.65804
# Poissons Ratio (y) = 0.02597 0.49611
# Poissons Ratio (z) = 0.31087 0.29110
#
# Static dielectric constant tensor:
#      x y z
#    x 1.514380 0.000000 0.000000 
#    y 0.000000 1.581310 0.000000 
#    z 0.000000 0.000000 1.577230 
# 
# From -- ./inp_files/24503.got.cif
#   From: 2010.05.17/outbox.cif.g08.bks.cpg/sg59_13_cif.got.tgz:24503.got - 2010.06.03 14:40:33.
