data_PCOD9446969
_publ_section_title
;
Structure prediction by ZEFSAII (Michael W. Deem and Ramdas Pophale) SiO2 
 PCOD9446969
Probable space group: P M M N
;
_chemical_formula_sum "Si O2"
_cell_formula_units_Z 64
_cell_length_a 7.821311
_cell_length_b 20.943144
_cell_length_c 18.868093
_cell_angle_alpha 90.000000
_cell_angle_beta 90.000000
_cell_angle_gamma 90.000000
_cell_volume 3090.647267
_symmetry_space_group_name_H-M "P M M N"
_symmetry_group_IT_number 59
_space_group.IT_coordinate_system_code '2'
_symmetry_cell_setting 'orthorhombic'
loop_
_space_group_symop_operation_xyz
x,y,z
1/2-x,1/2-y,z
1/2+x,-y,-z
-x,1/2+y,-z
-x,-y,-z
1/2+x,1/2+y,-z
1/2-x,y,z
x,1/2-y,z
loop_
_atom_site_type_symbol
_atom_site_label
_atom_site_fract_x
_atom_site_fract_y
_atom_site_fract_z
Si Si1 0.549802 0.678251 0.907918
Si Si2 0.950469 0.071692 0.979774
Si Si3 0.959781 0.041781 0.293599
Si Si4 0.956006 0.940695 0.182563
Si Si5 0.955954 0.540148 0.431322
Si Si6 0.545623 0.817226 0.259984
Si Si7 0.549938 0.321707 0.252060
Si Si8 0.046302 0.181467 0.570631
O O1 0.750000 0.680233 0.891168
O O2 0.496874 0.750000 0.931664
O O3 0.460685 0.665109 0.832604
O O4 0.525895 0.625141 0.968083
O O5 0.750000 0.078911 0.987276
O O6 0.999441 0.074702 0.897692
O O7 0.000000 0.000000 0.000000
O O8 0.750000 0.043503 0.295010
O O9 0.020683 0.115324 0.291487
O O10 0.013687 0.005629 0.221074
O O11 0.013835 0.997860 0.360483
O O12 0.750000 0.942715 0.187051
O O13 0.024914 0.881477 0.227917
O O14 0.750000 0.546380 0.422911
O O15 0.024684 0.611673 0.446494
O O16 0.000000 0.500000 0.500000
O O17 0.750000 0.817494 0.245633
O O18 0.475368 0.750000 0.232159
O O19 0.529364 0.817484 0.344244
O O20 0.750000 0.318146 0.270881
O O21 0.476408 0.250000 0.264155
O O22 0.250000 0.181655 0.554041
O O23 0.976608 0.250000 0.543818
#
# Coordination Sequence:
#
# PCOD9446969 Si02
#       8
#     8   8   8   8   8   8   8   8
#     4  10  21  38  59  82 110 145 185 228 274 327
#     4  12  25  39  54  76 108 146 185 228 276 330
#     4   9  17  31  52  75 100 131 170 216 265 320
#     4  10  18  31  52  76 100 130 169 218 270 321
#     4  10  19  33  52  77 107 140 176 219 268 321
#     4   8  13  23  44  74 100 123 159 206 251 299
#     4   9  17  31  53  78 102 134 177 221 267 321
#     4   8  13  25  48  74  99 131 173 215 251 297
#
# _framework density 20.707636000000001
#
# number of rings (size 3 to 8) (size 9 to 14) (size 15 to 20)
#    0.000    2.500    1.250    3.000    0.000    2.250 
#    0.000    3.125    0.000    1.125    0.000    1.750 
#    0.000    0.000    0.000    0.000    0.000    0.000 
#
# Total GULP energy -356564.786393 kJ/mol
# GULP energy per Si atom -5571.324787 kJ/mol
# Density = 2.066050 g / cm^3
# Si number density = 20.707636 Si / 1000 Ang^3
#
#
#
# Elastic Constant Matrix: (Units=GPa)
#
#
# Indices 1 2 3 4 5 6 
#
# 1 28.8180 10.3941 -1.8683 0.0000 0.0000 0.0000
# 2 10.3941 177.3246 26.1132 0.0000 0.0000 0.0000
# 3 -1.8683 26.1132 22.8222 0.0000 0.0000 0.0000
# 4 0.0000 0.0000 0.0000 29.6405 0.0000 0.0000
# 5 0.0000 0.0000 0.0000 0.0000 17.0976 0.0000
# 6 0.0000 0.0000 0.0000 0.0000 0.0000 8.9212
#
#
#
# Elastic Compliance Matrix: (Units=1/GPa)
#
#
# Indices 1 2 3 4 5 6 
#
# 1 0.036232 -0.003079 0.006490 0.000000 0.000000 0.000000
# 2 -0.003079 0.007044 -0.008312 0.000000 0.000000 0.000000
# 3 0.006490 -0.008312 0.053859 0.000000 0.000000 0.000000
# 4 0.000000 0.000000 0.000000 0.033738 0.000000 0.000000
# 5 0.000000 0.000000 0.000000 0.000000 0.058488 0.000000
# 6 0.000000 0.000000 0.000000 0.000000 0.000000 0.112093
#
#
# Mechanical properties :
#
#
# Convention : Reuss Voigt Hill
#
# Bulk Modulus (GPa) = 11.45066 33.13809 22.29438
# Shear Modulus (GPa) = 14.69005 24.08690 19.38848
#
# Velocity S-wave (km/s) = 2.66635 3.41426 3.06322
# Velocity P-wave (km/s) = 3.87568 5.61965 4.82708
#
# Compressibility (1/GPa) = 0.08733118
#
# Stress axis : x y z
#
# Youngs Moduli (GPa) = 27.59997 141.96723 18.56714
#
# Poissons Ratio (x) = 0.43718 -0.12049
# Poissons Ratio (y) = 0.08499 0.15432
# Poissons Ratio (z) = -0.17911 1.17999
#
# Static dielectric constant tensor:
#      x y z
#    x 1.762050 0.000000 0.000000 
#    y 0.000000 1.799570 0.000000 
#    z 0.000000 0.000000 1.724390 
# 
# From -- ./inp_files/26336.got.cif
#   From: 2010.05.17/outbox.cif.g08.bks.cpg/sg59_14_cif.got.tgz:26336.got - 2010.06.03 14:40:33.
