data_PCOD9446079
_publ_section_title
;
Structure prediction by ZEFSAII (Michael W. Deem and Ramdas Pophale) SiO2 
 PCOD9446079
Probable space group: P N N M
;
_chemical_formula_sum "Si O2"
_cell_formula_units_Z 40
_cell_length_a 12.000000
_cell_length_b 18.000000
_cell_length_c 9.000000
_cell_angle_alpha 90.000000
_cell_angle_beta 90.000000
_cell_angle_gamma 90.000000
_cell_volume 1944.000000
_symmetry_space_group_name_H-M "P N N M"
_symmetry_group_IT_number 58
_symmetry_cell_setting 'orthorhombic'
loop_
_space_group_symop_operation_xyz
x,y,z
-x,-y,z
1/2+x,1/2-y,1/2-z
1/2-x,1/2+y,1/2-z
-x,-y,-z
x,y,-z
1/2-x,1/2+y,1/2+z
1/2+x,1/2-y,1/2+z
loop_
_atom_site_type_symbol
_atom_site_label
_atom_site_fract_x
_atom_site_fract_y
_atom_site_fract_z
Si Si1 0.412166 0.177072 0.824898
Si Si2 0.166062 0.955259 0.674814
Si Si3 0.178421 0.107182 0.824608
Si Si4 0.073168 0.430087 0.823119
Si Si5 0.953261 0.176763 0.828640
O O1 0.300780 0.133547 0.779580
O O2 0.519825 0.141940 0.749109
O O3 0.401764 0.261254 0.775129
O O4 0.422210 0.171051 0.000000
O O5 0.144474 0.943020 0.500000
O O6 0.296976 0.941030 0.705586
O O7 0.096039 0.901333 0.778252
O O8 0.143803 0.039317 0.721659
O O9 0.086513 0.171273 0.811227
O O10 0.179813 0.085265 0.000000
O O11 0.000000 0.500000 0.768142
O O12 0.058339 0.425342 0.000000
O O13 0.927932 0.192422 0.000000
#
# Coordination Sequence:
#
# PCOD9446079 Si02
#       5
#     8   8   8   8   8
#     4  11  24  41  63  93 124 160 210 259 305 365
#     4  11  23  40  66  95 124 159 208 258 303 366
#     4  10  23  43  64  88 124 164 203 253 310 369
#     4  10  21  40  63  90 124 163 202 249 311 366
#     4  11  25  43  63  89 127 169 204 250 317 373
#
# _framework density 20.576132000000001
#
# number of rings (size 3 to 8) (size 9 to 14) (size 15 to 20)
#    0.000    1.400    2.000    2.400    2.800    6.800 
#    0.000    0.000    0.000    0.000    0.000    0.000 
#    0.000    0.000    0.000    0.000    0.000    0.000 
#
# Total GULP energy -223492.443876 kJ/mol
# GULP energy per Si atom -5587.311097 kJ/mol
# Density = 2.052930 g / cm^3
# Si number density = 20.576132 Si / 1000 Ang^3
#
#
#
# Elastic Constant Matrix: (Units=GPa)
#
#
# Indices 1 2 3 4 5 6 
#
# 1 33.2978 13.0969 28.1841 0.0000 0.0000 0.0000
# 2 13.0969 41.8233 -10.9117 0.0000 0.0000 0.0000
# 3 28.1841 -10.9117 -29.8019 0.0000 0.0000 0.0000
# 4 0.0000 0.0000 0.0000 36.5163 0.0000 0.0000
# 5 0.0000 0.0000 0.0000 0.0000 27.1445 0.0000
# 6 0.0000 0.0000 0.0000 0.0000 0.0000 12.6748
#
#
#
# Elastic Compliance Matrix: (Units=1/GPa)
#
#
# Indices 1 2 3 4 5 6 
#
# 1 0.016727 -0.001014 0.016190 0.000000 0.000000 0.000000
# 2 -0.001014 0.021887 -0.008973 0.000000 0.000000 0.000000
# 3 0.016190 -0.008973 -0.014958 0.000000 0.000000 0.000000
# 4 0.000000 0.000000 0.000000 0.027385 0.000000 0.000000
# 5 0.000000 0.000000 0.000000 0.000000 0.036840 0.000000
# 6 0.000000 0.000000 0.000000 0.000000 0.000000 0.078896
#
#
# Mechanical properties :
#
#
# Convention : Reuss Voigt Hill
#
# Bulk Modulus (GPa) = 27.72938 11.78419 19.75679
# Shear Modulus (GPa) = 30.04983 16.26378 23.15680
#
# Velocity S-wave (km/s) = 3.82569 2.81449 3.35837
# Velocity P-wave (km/s) = 5.74633 4.03749 4.96597
#
# Compressibility (1/GPa) = 0.03606283
#
# Stress axis : x y z
#
# Youngs Moduli (GPa) = 59.78352 45.68984 -66.85244
#
# Poissons Ratio (x) = 0.04633 1.08236
# Poissons Ratio (y) = 0.06062 -0.59984
# Poissons Ratio (z) = -0.96791 0.40995
#
# Static dielectric constant tensor:
#      x y z
#    x 1.758350 0.000000 0.000000 
#    y 0.000000 1.766490 0.000000 
#    z 0.000000 0.000000 1.675390 
# 
# From -- ./inp_files/3774.got.cif
#   From: 2010.05.17/outbox.ucp.g08.bks.cvg/sg58_2_cif.got.tgz:3774.got - 2010.06.11 16:41:41.
