data_PCOD9446300
_publ_section_title
;
Structure prediction by ZEFSAII (Michael W. Deem and Ramdas Pophale) SiO2 
 PCOD9446300
Probable space group: P M M N
;
_chemical_formula_sum "Si O2"
_cell_formula_units_Z 64
_cell_length_a 18.416448
_cell_length_b 16.482216
_cell_length_c 11.879689
_cell_angle_alpha 90.000000
_cell_angle_beta 90.000000
_cell_angle_gamma 90.000000
_cell_volume 3606.006820
_symmetry_space_group_name_H-M "P M M N"
_symmetry_group_IT_number 59
_space_group.IT_coordinate_system_code '2'
_symmetry_cell_setting 'orthorhombic'
loop_
_space_group_symop_operation_xyz
x,y,z
1/2-x,1/2-y,z
1/2+x,-y,-z
-x,1/2+y,-z
-x,-y,-z
1/2+x,1/2+y,-z
1/2-x,y,z
x,1/2-y,z
loop_
_atom_site_type_symbol
_atom_site_label
_atom_site_fract_x
_atom_site_fract_y
_atom_site_fract_z
Si Si1 0.575807 0.841644 0.491121
Si Si2 0.668785 0.506841 0.498097
Si Si3 0.460670 0.567343 0.648832
Si Si4 0.333647 0.976791 0.013999
Si Si5 0.425005 0.656348 0.877405
Si Si6 0.830942 0.085585 0.732309
Si Si7 0.990821 0.110473 0.724957
Si Si8 0.959897 0.586425 0.024849
O O1 0.591213 0.750000 0.523607
O O2 0.645376 0.899683 0.492812
O O3 0.517309 0.882540 0.574556
O O4 0.538860 0.845075 0.367925
O O5 0.750000 0.493704 0.453174
O O6 0.606969 0.460009 0.428125
O O7 0.668048 0.474791 0.626028
O O8 0.432269 0.619165 0.753468
O O9 0.499707 0.485349 0.693440
O O10 0.250000 0.982107 0.981631
O O11 0.338304 0.959059 0.147558
O O12 0.377031 0.059135 0.986665
O O13 0.371299 0.901325 0.949300
O O14 0.402785 0.750000 0.877496
O O15 0.504202 0.646237 0.935281
O O16 0.750000 0.125203 0.731779
O O17 0.906043 0.135054 0.720634
O O18 0.020424 0.117173 0.851244
O O19 0.000000 0.500000 0.000000
#
# Coordination Sequence:
#
# PCOD9446300 Si02
#       8
#     8   8   8   8   8   8   8   8
#     4  11  23  35  54  82 113 144 178 229 282 328
#     4  10  21  36  59  82 105 144 190 230 269 321
#     4  11  19  36  56  80 106 145 188 225 267 327
#     4  10  20  35  57  82 109 142 183 225 269 324
#     4  11  22  34  55  84 113 144 180 227 282 331
#     4  10  17  31  57  82 102 130 176 228 268 311
#     4  11  17  36  58  79 104 141 193 228 256 323
#     4  10  18  34  57  79 107 141 184 227 267 318
#
# _framework density 17.748163999999999
#
# number of rings (size 3 to 8) (size 9 to 14) (size 15 to 20)
#    0.000    1.500    7.500    1.125    0.000    1.500 
#    0.000    0.000    0.000    2.625    0.000    0.000 
#    0.000    0.000    0.000    0.000    0.000    0.000 
#
# Total GULP energy -356875.525531 kJ/mol
# GULP energy per Si atom -5576.180086 kJ/mol
# Density = 1.770777 g / cm^3
# Si number density = 17.748164 Si / 1000 Ang^3
#
#
#
# Elastic Constant Matrix: (Units=GPa)
#
#
# Indices 1 2 3 4 5 6 
#
# 1 94.7510 9.1700 19.6001 0.0000 0.0000 0.0000
# 2 9.1700 47.8967 21.5705 0.0000 0.0000 0.0000
# 3 19.6001 21.5705 97.5773 0.0000 0.0000 0.0000
# 4 0.0000 0.0000 0.0000 12.7017 0.0000 0.0000
# 5 0.0000 0.0000 0.0000 0.0000 25.7641 0.0000
# 6 0.0000 0.0000 0.0000 0.0000 0.0000 7.2426
#
#
#
# Elastic Compliance Matrix: (Units=1/GPa)
#
#
# Indices 1 2 3 4 5 6 
#
# 1 0.011078 -0.001242 -0.001950 0.000000 0.000000 0.000000
# 2 -0.001242 0.023326 -0.004907 0.000000 0.000000 0.000000
# 3 -0.001950 -0.004907 0.011725 0.000000 0.000000 0.000000
# 4 0.000000 0.000000 0.000000 0.078730 0.000000 0.000000
# 5 0.000000 0.000000 0.000000 0.000000 0.038814 0.000000
# 6 0.000000 0.000000 0.000000 0.000000 0.000000 0.138071
#
#
# Mechanical properties :
#
#
# Convention : Reuss Voigt Hill
#
# Bulk Modulus (GPa) = 33.41263 37.87846 35.64555
# Shear Modulus (GPa) = 15.24766 21.80064 18.52415
#
# Velocity S-wave (km/s) = 2.93424 3.50856 3.23417
# Velocity P-wave (km/s) = 5.50877 6.14832 5.83731
#
# Compressibility (1/GPa) = 0.02992880
#
# Stress axis : x y z
#
# Youngs Moduli (GPa) = 90.27143 42.87071 85.28940
#
# Poissons Ratio (x) = 0.05327 0.16636
# Poissons Ratio (y) = 0.11216 0.41850
# Poissons Ratio (z) = 0.17607 0.21036
#
# Static dielectric constant tensor:
#      x y z
#    x 1.652310 0.000000 0.000000 
#    y 0.000000 1.598970 0.000000 
#    z 0.000000 0.000000 1.601930 
# 
# From -- ./inp_files/17851.got.cif
#   From: 2010.05.17/outbox.cif.g08.bks.cpg/sg59_9_cif.got.tgz:17851.got - 2010.06.03 14:40:33.
