data_PCOD9446533
_publ_section_title
;
Structure prediction by ZEFSAII (Michael W. Deem and Ramdas Pophale) SiO2 
 PCOD9446533
Probable space group: P M M N
;
_chemical_formula_sum "Si O2"
_cell_formula_units_Z 64
_cell_length_a 7.722375
_cell_length_b 28.943741
_cell_length_c 14.457420
_cell_angle_alpha 90.000000
_cell_angle_beta 90.000000
_cell_angle_gamma 90.000000
_cell_volume 3231.441874
_symmetry_space_group_name_H-M "P M M N"
_symmetry_group_IT_number 59
_space_group.IT_coordinate_system_code '2'
_symmetry_cell_setting 'orthorhombic'
loop_
_space_group_symop_operation_xyz
x,y,z
1/2-x,1/2-y,z
1/2+x,-y,-z
-x,1/2+y,-z
-x,-y,-z
1/2+x,1/2+y,-z
1/2-x,y,z
x,1/2-y,z
loop_
_atom_site_type_symbol
_atom_site_label
_atom_site_fract_x
_atom_site_fract_y
_atom_site_fract_z
Si Si1 0.038695 0.698184 0.386840
Si Si2 0.045972 0.303666 0.897590
Si Si3 0.043062 0.196995 0.112467
Si Si4 0.953636 0.948008 0.094607
Si Si5 0.941615 0.124849 0.755068
Si Si6 0.957054 0.447645 0.109506
Si Si7 0.961189 0.301786 0.396457
Si Si8 0.445099 0.875900 0.745203
O O1 0.250000 0.697921 0.378895
O O2 0.981807 0.750000 0.355884
O O3 0.973502 0.653974 0.328858
O O4 0.996448 0.694063 0.495179
O O5 0.250000 0.314931 0.884083
O O6 0.021433 0.250000 0.876528
O O7 0.936239 0.335437 0.832453
O O8 0.006508 0.310477 0.004889
O O9 0.250000 0.189874 0.125823
O O10 0.004024 0.250000 0.134383
O O11 0.938963 0.162925 0.175714
O O12 0.750000 0.952394 0.082104
O O13 0.982546 0.917452 0.185933
O O14 0.026414 0.999846 0.107291
O O15 0.016097 0.928462 0.995072
O O16 0.750000 0.110475 0.724761
O O17 0.750000 0.448787 0.122849
O O18 0.027195 0.418131 0.196420
O O19 0.750000 0.301954 0.388696
O O20 0.018459 0.250000 0.365510
O O21 0.026090 0.346006 0.338499
O O22 0.250000 0.889572 0.716046
#
# Coordination Sequence:
#
# PCOD9446533 Si02
#       8
#     8   8   8   8   8   8   8   8
#     4   8  15  28  45  67  95 123 151 187 231 275
#     4   9  18  31  44  61  90 126 157 183 221 278
#     4   9  18  30  41  58  90 127 153 173 209 268
#     4  10  20  34  50  67  93 128 158 188 234 287
#     4  11  20  29  46  70  92 117 155 199 234 266
#     4   9  19  34  50  71  96 120 153 197 238 279
#     4   8  14  26  45  69  95 120 147 183 230 281
#     4  10  18  28  47  72  91 111 148 196 237 270
#
# _framework density 19.805399000000001
#
# number of rings (size 3 to 8) (size 9 to 14) (size 15 to 20)
#    0.000    2.750    0.000    3.750    0.000    5.000 
#    0.000    1.250    0.000    2.250    0.000    5.250 
#    0.000    0.000    0.000    0.000    0.000    0.500 
#
# Total GULP energy -356511.129663 kJ/mol
# GULP energy per Si atom -5570.486401 kJ/mol
# Density = 1.976032 g / cm^3
# Si number density = 19.805399 Si / 1000 Ang^3
#
#
#
# Elastic Constant Matrix: (Units=GPa)
#
#
# Indices 1 2 3 4 5 6 
#
# 1 21.0863 7.6857 -0.0501 0.0000 0.0000 0.0000
# 2 7.6857 77.8641 65.3364 0.0000 0.0000 0.0000
# 3 -0.0501 65.3364 85.4724 0.0000 0.0000 0.0000
# 4 0.0000 0.0000 0.0000 37.5467 0.0000 0.0000
# 5 0.0000 0.0000 0.0000 0.0000 -5.7624 0.0000
# 6 0.0000 0.0000 0.0000 0.0000 0.0000 10.5514
#
#
#
# Elastic Compliance Matrix: (Units=1/GPa)
#
#
# Indices 1 2 3 4 5 6 
#
# 1 0.052772 -0.014599 0.011191 0.000000 0.000000 0.000000
# 2 -0.014599 0.039856 -0.030475 0.000000 0.000000 0.000000
# 3 0.011191 -0.030475 0.035002 0.000000 0.000000 0.000000
# 4 0.000000 0.000000 0.000000 0.026633 0.000000 0.000000
# 5 0.000000 0.000000 0.000000 0.000000 -0.173538 0.000000
# 6 0.000000 0.000000 0.000000 0.000000 0.000000 0.094775
#
#
# Mechanical properties :
#
#
# Convention : Reuss Voigt Hill
#
# Bulk Modulus (GPa) = 16.70491 36.70745 26.70618
# Shear Modulus (GPa) = 30.63355 15.89718 23.26536
#
# Velocity S-wave (km/s) = 3.93711 2.83621 3.43110
# Velocity P-wave (km/s) = 5.39635 5.41293 5.40465
#
# Compressibility (1/GPa) = 0.05986265
#
# Stress axis : x y z
#
# Youngs Moduli (GPa) = 18.94948 25.09063 28.57012
#
# Poissons Ratio (x) = 0.36630 -0.31972
# Poissons Ratio (y) = 0.27665 0.87067
# Poissons Ratio (z) = -0.21206 0.76463
#
# Static dielectric constant tensor:
#      x y z
#    x 1.749150 0.000000 0.000000 
#    y 0.000000 1.743740 0.000000 
#    z 0.000000 0.000000 1.721020 
# 
# From -- ./inp_files/21971.got.cif
#   From: 2010.05.17/outbox.cif.g08.bks.cpg/sg59_11_cif.got.tgz:21971.got - 2010.06.03 14:40:33.
