data_PCOD9446724
_publ_section_title
;
Structure prediction by ZEFSAII (Michael W. Deem and Ramdas Pophale) SiO2 
 PCOD9446724
Probable space group: P M M N
;
_chemical_formula_sum "Si O2"
_cell_formula_units_Z 40
_cell_length_a 7.409819
_cell_length_b 10.613286
_cell_length_c 25.641635
_cell_angle_alpha 90.000000
_cell_angle_beta 90.000000
_cell_angle_gamma 90.000000
_cell_volume 2016.523005
_symmetry_space_group_name_H-M "P M M N"
_symmetry_group_IT_number 59
_space_group.IT_coordinate_system_code '2'
_symmetry_cell_setting 'orthorhombic'
loop_
_space_group_symop_operation_xyz
x,y,z
1/2-x,1/2-y,z
1/2+x,-y,-z
-x,1/2+y,-z
-x,-y,-z
1/2+x,1/2+y,-z
1/2-x,y,z
x,1/2-y,z
loop_
_atom_site_type_symbol
_atom_site_label
_atom_site_fract_x
_atom_site_fract_y
_atom_site_fract_z
Si Si1 0.033631 0.606367 0.542873
Si Si2 0.458232 0.596924 0.656872
Si Si3 0.529520 0.396597 0.229909
Si Si4 0.534801 0.250000 0.057388
Si Si5 0.034121 0.250000 0.934469
Si Si6 0.528991 0.495427 0.119672
O O1 0.250000 0.615660 0.548149
O O2 0.970211 0.750000 0.530631
O O3 0.962574 0.566092 0.600235
O O4 0.000000 0.500000 0.500000
O O5 0.250000 0.553353 0.656512
O O6 0.456907 0.750000 0.658300
O O7 0.535209 0.558782 0.713072
O O8 0.750000 0.397234 0.231715
O O9 0.477761 0.250000 0.222226
O O10 0.474076 0.475257 0.179580
O O11 0.750000 0.250000 0.064897
O O12 0.467955 0.375822 0.085700
O O13 0.501015 0.250000 0.995994
O O14 0.250000 0.250000 0.928224
O O15 0.966425 0.376146 0.906751
O O16 0.750000 0.495612 0.119200
#
# Coordination Sequence:
#
# PCOD9446724 Si02
#       6
#     8   8   8   4   4   8
#     4   9  17  29  45  67  94 123 154 187 225 270
#     4   7  11  20  37  61  86 109 137 176 217 251
#     4   8  11  19  38  61  82 105 135 172 211 250
#     4  10  18  30  46  62  78 106 147 172 188 242
#     4  10  20  30  40  60  90 112 127 164 216 248
#     4   9  16  26  41  61  84 108 135 168 208 251
#
# _framework density 19.836122
#
# number of rings (size 3 to 8) (size 9 to 14) (size 15 to 20)
#    0.000    3.400    1.000    3.000    0.000    0.400 
#    0.000    0.000    2.200    0.000    0.000    2.800 
#    0.000    0.000    0.000    0.000    0.000    0.000 
#
# Total GULP energy -222859.266900 kJ/mol
# GULP energy per Si atom -5571.481672 kJ/mol
# Density = 1.979097 g / cm^3
# Si number density = 19.836122 Si / 1000 Ang^3
#
#
#
# Elastic Constant Matrix: (Units=GPa)
#
#
# Indices 1 2 3 4 5 6 
#
# 1 64.9270 7.8441 3.7918 0.0000 0.0000 0.0000
# 2 7.8441 128.2897 108.7472 0.0000 0.0000 0.0000
# 3 3.7918 108.7472 240.0628 0.0000 0.0000 0.0000
# 4 0.0000 0.0000 0.0000 21.2774 0.0000 0.0000
# 5 0.0000 0.0000 0.0000 0.0000 11.9728 0.0000
# 6 0.0000 0.0000 0.0000 0.0000 0.0000 -1.2643
#
#
#
# Elastic Compliance Matrix: (Units=1/GPa)
#
#
# Indices 1 2 3 4 5 6 
#
# 1 0.015530 -0.001204 0.000300 0.000000 0.000000 0.000000
# 2 -0.001204 0.012747 -0.005755 0.000000 0.000000 0.000000
# 3 0.000300 -0.005755 0.006768 0.000000 0.000000 0.000000
# 4 0.000000 0.000000 0.000000 0.046998 0.000000 0.000000
# 5 0.000000 0.000000 0.000000 0.000000 0.083523 0.000000
# 6 0.000000 0.000000 0.000000 0.000000 0.000000 -0.790934
#
#
# Mechanical properties :
#
#
# Convention : Reuss Voigt Hill
#
# Bulk Modulus (GPa) = 46.02671 74.89400 60.46035
# Shear Modulus (GPa) = -8.26708 27.25693 9.49492
#
# Velocity S-wave (km/s) = -2.04371 3.71091 2.19022
# Velocity P-wave (km/s) = 4.20534 7.49663 6.07801
#
# Compressibility (1/GPa) = 0.02172651
#
# Stress axis : x y z
#
# Youngs Moduli (GPa) = 64.39221 78.44919 147.75449
#
# Poissons Ratio (x) = 0.09445 -0.04434
# Poissons Ratio (y) = 0.07752 0.85038
# Poissons Ratio (z) = -0.01932 0.45150
#
# Static dielectric constant tensor:
#      x y z
#    x 1.808860 0.000000 0.000000 
#    y 0.000000 1.655510 0.000000 
#    z 0.000000 0.000000 1.730100 
# 
# From -- ./inp_files/32443.got.cif
#   From: 2010.05.17/outbox.cif.g08.bks.cpg/sg59_17_cif.got.tgz:32443.got - 2010.06.03 14:40:33.
