data_PCOD9446265
_publ_section_title
;
Structure prediction by ZEFSAII (Michael W. Deem and Ramdas Pophale) SiO2 
 PCOD9446265
Probable space group: P M M N
;
_chemical_formula_sum "Si O2"
_cell_formula_units_Z 48
_cell_length_a 10.402509
_cell_length_b 19.582266
_cell_length_c 14.107779
_cell_angle_alpha 90.000000
_cell_angle_beta 90.000000
_cell_angle_gamma 90.000000
_cell_volume 2873.820865
_symmetry_space_group_name_H-M "P M M N"
_symmetry_group_IT_number 59
_space_group.IT_coordinate_system_code '2'
_symmetry_cell_setting 'orthorhombic'
loop_
_space_group_symop_operation_xyz
x,y,z
1/2-x,1/2-y,z
1/2+x,-y,-z
-x,1/2+y,-z
-x,-y,-z
1/2+x,1/2+y,-z
1/2-x,y,z
x,1/2-y,z
loop_
_atom_site_type_symbol
_atom_site_label
_atom_site_fract_x
_atom_site_fract_y
_atom_site_fract_z
Si Si1 0.398938 0.670881 0.113928
Si Si2 0.596676 0.056337 0.043592
Si Si3 0.988169 0.445118 0.257896
Si Si4 0.250000 0.403783 0.577866
Si Si5 0.250000 0.430514 0.360498
Si Si6 0.750000 0.432180 0.386226
Si Si7 0.492672 0.391426 0.704065
Si Si8 0.250000 0.594105 0.401803
O O1 0.250000 0.660529 0.146766
O O2 0.414706 0.750000 0.089924
O O3 0.494390 0.649263 0.198116
O O4 0.414806 0.622011 0.023954
O O5 0.750000 0.036464 0.045159
O O6 0.548325 0.070300 0.149949
O O7 0.500000 0.000000 0.000000
O O8 0.876130 0.418036 0.325684
O O9 0.989308 0.527951 0.268624
O O10 0.123389 0.418309 0.297771
O O11 0.250000 0.394315 0.463942
O O12 0.250000 0.486208 0.592468
O O13 0.373958 0.377306 0.634671
O O14 0.250000 0.511997 0.383491
O O15 0.750000 0.395384 0.486378
O O16 0.622133 0.378249 0.645813
#
# Coordination Sequence:
#
# PCOD9446265 Si02
#       8
#     8   8   8   4   4   4   8   4
#     4  10  21  37  55  77 105 141 182 221 264 324
#     4  11  22  34  55  80 106 141 181 229 278 325
#     4  10  18  29  47  74 105 136 172 212 266 311
#     4   9  18  28  44  73 107 136 158 202 260 310
#     4   9  18  28  44  72 108 135 164 202 258 317
#     4   9  16  28  42  70 106 131 168 216 252 301
#     4  10  17  29  49  72 101 138 170 207 257 314
#     4   9  16  26  46  69  99 138 170 204 250 300
#
# _framework density 16.702501999999999
#
# number of rings (size 3 to 8) (size 9 to 14) (size 15 to 20)
#    0.000    2.167    3.333    1.000    1.167    4.000 
#    0.000    0.417    0.000    0.000    0.000    7.000 
#    0.000    0.000    0.000    0.000    0.000    0.000 
#
# Total GULP energy -267485.860838 kJ/mol
# GULP energy per Si atom -5572.622101 kJ/mol
# Density = 1.666449 g / cm^3
# Si number density = 16.702502 Si / 1000 Ang^3
#
#
#
# Elastic Constant Matrix: (Units=GPa)
#
#
# Indices 1 2 3 4 5 6 
#
# 1 154.6091 30.1927 85.9496 0.0000 0.0000 0.0000
# 2 30.1927 37.9316 33.8969 0.0000 0.0000 0.0000
# 3 85.9496 33.8969 163.9554 0.0000 0.0000 0.0000
# 4 0.0000 0.0000 0.0000 10.3458 0.0000 0.0000
# 5 0.0000 0.0000 0.0000 0.0000 30.0890 0.0000
# 6 0.0000 0.0000 0.0000 0.0000 0.0000 9.1487
#
#
#
# Elastic Compliance Matrix: (Units=1/GPa)
#
#
# Indices 1 2 3 4 5 6 
#
# 1 0.009564 -0.003842 -0.004219 0.000000 0.000000 0.000000
# 2 -0.003842 0.033881 -0.004991 0.000000 0.000000 0.000000
# 3 -0.004219 -0.004991 0.009343 0.000000 0.000000 0.000000
# 4 0.000000 0.000000 0.000000 0.096658 0.000000 0.000000
# 5 0.000000 0.000000 0.000000 0.000000 0.033235 0.000000
# 6 0.000000 0.000000 0.000000 0.000000 0.000000 0.109305
#
#
# Mechanical properties :
#
#
# Convention : Reuss Voigt Hill
#
# Bulk Modulus (GPa) = 37.47573 72.95272 55.21422
# Shear Modulus (GPa) = 15.29126 23.68049 19.48588
#
# Velocity S-wave (km/s) = 3.02902 3.76943 3.41932
# Velocity P-wave (km/s) = 5.89230 7.91943 6.97985
#
# Compressibility (1/GPa) = 0.02668394
#
# Stress axis : x y z
#
# Youngs Moduli (GPa) = 104.56135 29.51477 107.03384
#
# Poissons Ratio (x) = 0.11340 0.45160
# Poissons Ratio (y) = 0.40174 0.53417
# Poissons Ratio (z) = 0.44117 0.14730
#
# Static dielectric constant tensor:
#      x y z
#    x 1.577440 0.000000 0.000000 
#    y 0.000000 1.539260 0.000000 
#    z 0.000000 0.000000 1.555380 
# 
# From -- ./inp_files/20629.got.cif
#   From: 2010.05.17/outbox.cif.g08.bks.cpg/sg59_11_cif.got.tgz:20629.got - 2010.06.03 14:40:33.
