data_PCOD9446078
_publ_section_title
;
Structure prediction by ZEFSAII (Michael W. Deem and Ramdas Pophale) SiO2 
 PCOD9446078
Probable space group: P N N M
;
_chemical_formula_sum "Si O2"
_cell_formula_units_Z 64
_cell_length_a 30.000000
_cell_length_b 12.000000
_cell_length_c 9.000000
_cell_angle_alpha 90.000000
_cell_angle_beta 90.000000
_cell_angle_gamma 90.000000
_cell_volume 3240.000000
_symmetry_space_group_name_H-M "P N N M"
_symmetry_group_IT_number 58
_symmetry_cell_setting 'orthorhombic'
loop_
_space_group_symop_operation_xyz
x,y,z
-x,-y,z
1/2+x,1/2-y,1/2-z
1/2-x,1/2+y,1/2-z
-x,-y,-z
x,y,-z
1/2-x,1/2+y,1/2+z
1/2+x,1/2-y,1/2+z
loop_
_atom_site_type_symbol
_atom_site_label
_atom_site_fract_x
_atom_site_fract_y
_atom_site_fract_z
Si Si1 0.378555 0.063237 0.322466
Si Si2 0.663770 0.273212 0.822212
Si Si3 0.071562 0.224800 0.174314
Si Si4 0.709461 0.074102 0.320981
Si Si5 0.043212 0.423192 0.671327
Si Si6 0.946997 0.999139 0.332546
Si Si7 0.191295 0.980727 0.679826
Si Si8 0.382316 0.303859 0.178042
O O1 0.382504 0.061436 0.500000
O O2 0.330583 0.010014 0.282615
O O3 0.382825 0.187744 0.261223
O O4 0.417516 0.989558 0.251986
O O5 0.617677 0.237348 0.748334
O O6 0.672524 0.399940 0.774502
O O7 0.700583 0.190604 0.759060
O O8 0.661560 0.267247 0.000000
O O9 0.035311 0.305357 0.248460
O O10 0.065877 0.097307 0.219920
O O11 0.072574 0.239980 0.000000
O O12 0.708869 0.089022 0.500000
O O13 0.757691 0.030553 0.274795
O O14 0.054961 0.402280 0.500000
O O15 0.000000 0.500000 0.676625
O O16 0.930028 0.969734 0.500000
O O17 0.925232 0.117477 0.295480
O O18 0.000000 0.000000 0.337642
O O19 0.190282 0.979888 0.500000
O O20 0.159724 0.879498 0.726654
O O21 0.379778 0.284099 0.000000
#
# Coordination Sequence:
#
# PCOD9446078 Si02
#       8
#     8   8   8   8   8   8   8   8
#     4  11  24  40  60  89 129 163 195 248 309 366
#     4  11  21  39  66  90 117 161 210 253 299 362
#     4  12  24  40  64  93 126 159 198 257 314 363
#     4  10  22  40  60  88 124 161 199 251 311 359
#     4  11  25  44  67  91 118 159 208 251 296 362
#     4  10  22  41  65  91 121 162 211 256 299 359
#     4   9  20  39  62  87 120 160 205 254 301 355
#     4  10  21  40  62  86 120 164 209 252 300 358
#
# _framework density 19.753086
#
# number of rings (size 3 to 8) (size 9 to 14) (size 15 to 20)
#    0.000    1.500    2.500    2.250    3.500    2.250 
#    0.000    1.250    0.000    0.000    0.000    0.000 
#    0.000    0.000    0.000    0.000    0.000    0.000 
#
# Total GULP energy -357485.536536 kJ/mol
# GULP energy per Si atom -5585.711508 kJ/mol
# Density = 1.970813 g / cm^3
# Si number density = 19.753086 Si / 1000 Ang^3
#
#
#
# Elastic Constant Matrix: (Units=GPa)
#
#
# Indices 1 2 3 4 5 6 
#
# 1 86.5694 29.6271 29.0670 0.0000 0.0000 0.0000
# 2 29.6271 112.6586 40.9258 0.0000 0.0000 0.0000
# 3 29.0670 40.9258 60.9131 0.0000 0.0000 0.0000
# 4 0.0000 0.0000 0.0000 26.9624 0.0000 0.0000
# 5 0.0000 0.0000 0.0000 0.0000 -10.5830 0.0000
# 6 0.0000 0.0000 0.0000 0.0000 0.0000 23.4653
#
#
#
# Elastic Compliance Matrix: (Units=1/GPa)
#
#
# Indices 1 2 3 4 5 6 
#
# 1 0.013986 -0.001658 -0.005560 0.000000 0.000000 0.000000
# 2 -0.001658 0.011939 -0.007230 0.000000 0.000000 0.000000
# 3 -0.005560 -0.007230 0.023928 0.000000 0.000000 0.000000
# 4 0.000000 0.000000 0.000000 0.037089 0.000000 0.000000
# 5 0.000000 0.000000 0.000000 0.000000 -0.094491 0.000000
# 6 0.000000 0.000000 0.000000 0.000000 0.000000 0.042616
#
#
# Mechanical properties :
#
#
# Convention : Reuss Voigt Hill
#
# Bulk Modulus (GPa) = 47.71891 51.04232 49.38062
# Shear Modulus (GPa) = 70.47455 18.67035 44.57245
#
# Velocity S-wave (km/s) = 5.97956 3.07772 4.75540
# Velocity P-wave (km/s) = 8.47843 6.20694 7.43000
#
# Compressibility (1/GPa) = 0.02095605
#
# Stress axis : x y z
#
# Youngs Moduli (GPa) = 71.50169 83.75920 41.79283
#
# Poissons Ratio (x) = 0.13890 0.23235
# Poissons Ratio (y) = 0.11857 0.30217
# Poissons Ratio (z) = 0.39752 0.60559
#
# Static dielectric constant tensor:
#      x y z
#    x 1.731930 0.000000 0.000000 
#    y 0.000000 1.692090 0.000000 
#    z 0.000000 0.000000 1.666080 
# 
# From -- ./inp_files/11064.got.cif
#   From: 2010.05.17/outbox.ucp.g08.bks.cvg/sg58_6_cif.got.tgz:11064.got - 2010.06.11 16:41:41.
