data_PCOD9446920
_publ_section_title
;
Structure prediction by ZEFSAII (Michael W. Deem and Ramdas Pophale) SiO2 
 PCOD9446920
Probable space group: P M M N
;
_chemical_formula_sum "Si O2"
_cell_formula_units_Z 48
_cell_length_a 8.744090
_cell_length_b 25.909443
_cell_length_c 12.798538
_cell_angle_alpha 90.000000
_cell_angle_beta 90.000000
_cell_angle_gamma 90.000000
_cell_volume 2899.566396
_symmetry_space_group_name_H-M "P M M N"
_symmetry_group_IT_number 59
_space_group.IT_coordinate_system_code '2'
_symmetry_cell_setting 'orthorhombic'
loop_
_space_group_symop_operation_xyz
x,y,z
1/2-x,1/2-y,z
1/2+x,-y,-z
-x,1/2+y,-z
-x,-y,-z
1/2+x,1/2+y,-z
1/2-x,y,z
x,1/2-y,z
loop_
_atom_site_type_symbol
_atom_site_label
_atom_site_fract_x
_atom_site_fract_y
_atom_site_fract_z
Si Si1 0.074589 0.812621 0.012780
Si Si2 0.066025 0.190287 0.207592
Si Si3 0.430999 0.311211 0.767843
Si Si4 0.566069 0.894136 0.620969
Si Si5 0.933114 0.999006 0.382086
Si Si6 0.568208 0.107579 0.612076
O O1 0.250000 0.829421 0.023034
O O2 0.072220 0.750000 0.010996
O O3 0.004751 0.828378 0.901784
O O4 0.979860 0.827568 0.115253
O O5 0.250000 0.189828 0.197392
O O6 0.019244 0.250000 0.226003
O O7 0.025106 0.152939 0.302895
O O8 0.250000 0.318594 0.753504
O O9 0.463886 0.250000 0.757102
O O10 0.521626 0.344477 0.683542
O O11 0.750000 0.898297 0.613976
O O12 0.497891 0.947927 0.664550
O O13 0.499942 0.885944 0.504620
O O14 0.750000 0.999319 0.383929
O O15 0.000000 0.000000 0.500000
O O16 0.995612 0.944801 0.339716
O O17 0.750000 0.101682 0.604716
#
# Coordination Sequence:
#
# PCOD9446920 Si02
#       6
#     8   8   8   8   8   8
#     4   9  17  30  49  72  97 126 163 204 241 281
#     4   9  18  32  50  72  99 132 166 199 238 287
#     4  10  20  34  52  73  99 131 165 200 241 291
#     4  10  19  32  50  73 101 132 167 204 244 290
#     4  10  18  31  50  70  94 126 166 205 243 289
#     4  11  21  33  50  73 101 130 163 203 247 293
#
# _framework density 16.554199000000001
#
# number of rings (size 3 to 8) (size 9 to 14) (size 15 to 20)
#    0.000    2.167    0.000    6.500    0.000    5.000 
#    0.000    1.667    0.000    1.000    0.000    0.000 
#    0.000    0.000    0.000    0.000    0.000    0.000 
#
# Total GULP energy -267626.453935 kJ/mol
# GULP energy per Si atom -5575.551124 kJ/mol
# Density = 1.651652 g / cm^3
# Si number density = 16.554199 Si / 1000 Ang^3
#
#
#
# Elastic Constant Matrix: (Units=GPa)
#
#
# Indices 1 2 3 4 5 6 
#
# 1 101.3502 47.7464 40.8160 0.0000 0.0000 0.0000
# 2 47.7464 77.4713 45.2198 0.0000 0.0000 0.0000
# 3 40.8160 45.2198 80.0551 0.0000 0.0000 0.0000
# 4 0.0000 0.0000 0.0000 -3.0469 0.0000 0.0000
# 5 0.0000 0.0000 0.0000 0.0000 21.3033 0.0000
# 6 0.0000 0.0000 0.0000 0.0000 0.0000 25.5148
#
#
#
# Elastic Compliance Matrix: (Units=1/GPa)
#
#
# Indices 1 2 3 4 5 6 
#
# 1 0.014535 -0.006911 -0.003507 0.000000 0.000000 0.000000
# 2 -0.006911 0.022543 -0.009210 0.000000 0.000000 0.000000
# 3 -0.003507 -0.009210 0.019482 0.000000 0.000000 0.000000
# 4 0.000000 0.000000 0.000000 -0.328198 0.000000 0.000000
# 5 0.000000 0.000000 0.000000 0.000000 0.046941 0.000000
# 6 0.000000 0.000000 0.000000 0.000000 0.000000 0.039193
#
#
# Mechanical properties :
#
#
# Convention : Reuss Voigt Hill
#
# Bulk Modulus (GPa) = 57.79061 58.49345 58.14203
# Shear Modulus (GPa) = -35.59218 17.09387 -9.24916
#
# Velocity S-wave (km/s) = -4.64188 3.21690 -2.36629
# Velocity P-wave (km/s) = 2.50126 7.01492 5.26619
#
# Compressibility (1/GPa) = 0.01730385
#
# Stress axis : x y z
#
# Youngs Moduli (GPa) = 68.79989 44.35901 51.33005
#
# Poissons Ratio (x) = 0.30657 0.18000
# Poissons Ratio (y) = 0.47548 0.47276
# Poissons Ratio (z) = 0.24127 0.40855
#
# Static dielectric constant tensor:
#      x y z
#    x 1.554650 0.000000 0.000000 
#    y 0.000000 1.584380 0.000000 
#    z 0.000000 0.000000 1.541400 
# 
# From -- ./inp_files/14516.got.cif
#   From: 2010.05.17/outbox.cif.g08.bks.cpg/sg59_8_cif.got.tgz:14516.got - 2010.06.03 14:40:33.
