data_PCOD9446937
_publ_section_title
;
Structure prediction by ZEFSAII (Michael W. Deem and Ramdas Pophale) SiO2 
 PCOD9446937
Probable space group: P M M N
;
_chemical_formula_sum "Si O2"
_cell_formula_units_Z 56
_cell_length_a 8.548857
_cell_length_b 14.559546
_cell_length_c 20.753782
_cell_angle_alpha 90.000000
_cell_angle_beta 90.000000
_cell_angle_gamma 90.000000
_cell_volume 2583.170878
_symmetry_space_group_name_H-M "P M M N"
_symmetry_group_IT_number 59
_space_group.IT_coordinate_system_code '2'
_symmetry_cell_setting 'orthorhombic'
loop_
_space_group_symop_operation_xyz
x,y,z
1/2-x,1/2-y,z
1/2+x,-y,-z
-x,1/2+y,-z
-x,-y,-z
1/2+x,1/2+y,-z
1/2-x,y,z
x,1/2-y,z
loop_
_atom_site_type_symbol
_atom_site_label
_atom_site_fract_x
_atom_site_fract_y
_atom_site_fract_z
Si Si1 0.074252 0.382727 0.052640
Si Si2 0.933613 0.152357 0.184350
Si Si3 0.438270 0.447123 0.786722
Si Si4 0.062943 0.100688 0.517799
Si Si5 0.063194 0.650099 0.615245
Si Si6 0.436118 0.948057 0.349973
Si Si7 0.427801 0.898221 0.079182
O O1 0.250000 0.351338 0.066670
O O2 0.024118 0.357969 0.980506
O O3 0.076471 0.493056 0.061674
O O4 0.956197 0.349675 0.107274
O O5 0.750000 0.152484 0.200678
O O6 0.001957 0.250000 0.206885
O O7 0.996117 0.053978 0.207480
O O8 0.250000 0.447334 0.786739
O O9 0.503483 0.413437 0.718850
O O10 0.497162 0.393998 0.850076
O O11 0.250000 0.106719 0.513544
O O12 0.984845 0.155603 0.459842
O O13 0.008888 0.110796 0.591333
O O14 0.000000 0.000000 0.500000
O O15 0.250000 0.639814 0.621299
O O16 0.019467 0.750000 0.644167
O O17 0.988862 0.555675 0.641938
O O18 0.750000 0.055162 0.645628
O O19 0.250000 0.864475 0.079972
#
# Coordination Sequence:
#
# PCOD9446937 Si02
#       7
#     8   8   8   8   8   8   8
#     4   9  16  26  42  63  85 111 145 187 230 268
#     4   9  18  31  45  62  88 123 158 191 230 278
#     4  10  19  31  46  66  93 124 159 195 233 278
#     4  10  18  31  51  72  96 125 160 201 243 285
#     4  10  20  34  52  74 100 129 162 200 242 287
#     4  11  21  33  49  70  99 132 166 201 241 290
#     4   9  16  27  43  63  86 112 145 186 230 271
#
# _framework density 21.678782000000002
#
# number of rings (size 3 to 8) (size 9 to 14) (size 15 to 20)
#    0.000    2.286    0.000    6.000    0.000    6.000 
#    0.000    1.429    0.000    0.000    0.000    1.000 
#    0.000    8.000    0.000    0.000    0.000    0.000 
#
# Total GULP energy -312368.835580 kJ/mol
# GULP energy per Si atom -5578.014921 kJ/mol
# Density = 2.162944 g / cm^3
# Si number density = 21.678782 Si / 1000 Ang^3
#
#
#
# Elastic Constant Matrix: (Units=GPa)
#
#
# Indices 1 2 3 4 5 6 
#
# 1 70.8684 -7.4282 13.8520 0.0000 0.0000 0.0000
# 2 -7.4282 31.4188 -10.3564 0.0000 0.0000 0.0000
# 3 13.8520 -10.3564 157.5610 0.0000 0.0000 0.0000
# 4 0.0000 0.0000 0.0000 -35.7692 0.0000 0.0000
# 5 0.0000 0.0000 0.0000 0.0000 30.4378 0.0000
# 6 0.0000 0.0000 0.0000 0.0000 0.0000 -2.1627
#
#
#
# Elastic Compliance Matrix: (Units=1/GPa)
#
#
# Indices 1 2 3 4 5 6 
#
# 1 0.014648 0.003106 -0.001084 0.000000 0.000000 0.000000
# 2 0.003106 0.033192 0.001909 0.000000 0.000000 0.000000
# 3 -0.001084 0.001909 0.006567 0.000000 0.000000 0.000000
# 4 0.000000 0.000000 0.000000 -0.027957 0.000000 0.000000
# 5 0.000000 0.000000 0.000000 0.000000 0.032854 0.000000
# 6 0.000000 0.000000 0.000000 0.000000 0.000000 -0.462379
#
#
# Mechanical properties :
#
#
# Convention : Reuss Voigt Hill
#
# Bulk Modulus (GPa) = 16.05938 27.99812 22.02875
# Shear Modulus (GPa) = -12.81459 16.08656 1.63598
#
# Velocity S-wave (km/s) = -2.43392 2.72700 0.86965
# Velocity P-wave (km/s) = 0.68894 4.78104 3.34543
#
# Compressibility (1/GPa) = 0.06226891
#
# Stress axis : x y z
#
# Youngs Moduli (GPa) = 68.26864 30.12814 152.26574
#
# Poissons Ratio (x) = -0.09358 0.16500
# Poissons Ratio (y) = -0.21204 -0.29062
# Poissons Ratio (z) = 0.07398 -0.05750
#
# Static dielectric constant tensor:
#      x y z
#    x 1.729790 0.000000 0.000000 
#    y 0.000000 1.822330 0.000000 
#    z 0.000000 0.000000 1.809060 
# 
# From -- ./inp_files/26058.got.cif
#   From: 2010.05.17/outbox.cif.g08.bks.cpg/sg59_14_cif.got.tgz:26058.got - 2010.06.03 14:40:33.
