data_PCOD9446280
_publ_section_title
;
Structure prediction by ZEFSAII (Michael W. Deem and Ramdas Pophale) SiO2 
 PCOD9446280
Probable space group: P M M N
;
_chemical_formula_sum "Si O2"
_cell_formula_units_Z 64
_cell_length_a 8.534134
_cell_length_b 30.747579
_cell_length_c 15.322990
_cell_angle_alpha 90.000000
_cell_angle_beta 90.000000
_cell_angle_gamma 90.000000
_cell_volume 4020.813245
_symmetry_space_group_name_H-M "P M M N"
_symmetry_group_IT_number 59
_space_group.IT_coordinate_system_code '2'
_symmetry_cell_setting 'orthorhombic'
loop_
_space_group_symop_operation_xyz
x,y,z
1/2-x,1/2-y,z
1/2+x,-y,-z
-x,1/2+y,-z
-x,-y,-z
1/2+x,1/2+y,-z
1/2-x,y,z
x,1/2-y,z
loop_
_atom_site_type_symbol
_atom_site_label
_atom_site_fract_x
_atom_site_fract_y
_atom_site_fract_z
Si Si1 0.940923 0.057636 0.630091
Si Si2 0.061675 0.882995 0.207544
Si Si3 0.560938 0.799046 0.496870
Si Si4 0.562925 0.539115 0.674877
Si Si5 0.937172 0.390718 0.456780
Si Si6 0.936840 0.470126 0.131856
Si Si7 0.439479 0.560023 0.051996
Si Si8 0.061475 0.201737 0.705632
O O1 0.750000 0.057266 0.629258
O O2 0.990959 0.082752 0.717884
O O3 0.993812 0.084590 0.545321
O O4 0.992226 0.007403 0.634842
O O5 0.250000 0.882639 0.210385
O O6 0.013942 0.899639 0.112267
O O7 0.001370 0.836198 0.234529
O O8 0.750000 0.799611 0.499431
O O9 0.511405 0.750000 0.524412
O O10 0.499147 0.841395 0.546250
O O11 0.511730 0.804611 0.395292
O O12 0.750000 0.540821 0.666051
O O13 0.489768 0.579208 0.623034
O O14 0.518487 0.539361 0.776720
O O15 0.750000 0.389094 0.460599
O O16 0.750000 0.468347 0.144095
O O17 0.985943 0.517691 0.097143
O O18 0.981428 0.439231 0.050028
O O19 0.250000 0.555006 0.056507
O O20 0.250000 0.200632 0.705759
O O21 0.010730 0.250000 0.732725
#
# Coordination Sequence:
#
# PCOD9446280 Si02
#       8
#     8   8   8   8   8   8   8   8
#     4   9  18  31  46  66  96 131 164 197 231 275
#     4  10  17  30  49  70  95 127 164 196 233 283
#     4   9  18  33  50  68  93 126 161 195 238 289
#     4  11  21  35  50  65  95 135 167 201 245 285
#     4  11  21  33  48  71  97 125 165 205 238 280
#     4  10  19  31  48  71  94 122 161 202 239 280
#     4   9  18  32  49  68  96 127 155 194 242 285
#     4   9  18  31  46  68  98 127 157 197 240 282
#
# _framework density 15.917179000000001
#
# number of rings (size 3 to 8) (size 9 to 14) (size 15 to 20)
#    0.000    2.250    2.500    2.250    0.000    1.500 
#    0.000    3.125    0.000    0.000    0.000    0.875 
#    0.000    5.000    0.000    0.000    0.000    0.000 
#
# Total GULP energy -356830.827484 kJ/mol
# GULP energy per Si atom -5575.481679 kJ/mol
# Density = 1.588095 g / cm^3
# Si number density = 15.917179 Si / 1000 Ang^3
#
#
#
# Elastic Constant Matrix: (Units=GPa)
#
#
# Indices 1 2 3 4 5 6 
#
# 1 13.9517 21.4328 11.3103 0.0000 0.0000 0.0000
# 2 21.4328 137.7747 50.3897 0.0000 0.0000 0.0000
# 3 11.3103 50.3897 63.7671 0.0000 0.0000 0.0000
# 4 0.0000 0.0000 0.0000 24.7458 0.0000 0.0000
# 5 0.0000 0.0000 0.0000 0.0000 20.2091 0.0000
# 6 0.0000 0.0000 0.0000 0.0000 0.0000 24.4801
#
#
#
# Elastic Compliance Matrix: (Units=1/GPa)
#
#
# Indices 1 2 3 4 5 6 
#
# 1 0.096602 -0.012323 -0.007397 0.000000 0.000000 0.000000
# 2 -0.012323 0.011781 -0.007124 0.000000 0.000000 0.000000
# 3 -0.007397 -0.007124 0.022623 0.000000 0.000000 0.000000
# 4 0.000000 0.000000 0.000000 0.040411 0.000000 0.000000
# 5 0.000000 0.000000 0.000000 0.000000 0.049483 0.000000
# 6 0.000000 0.000000 0.000000 0.000000 0.000000 0.040849
#
#
# Mechanical properties :
#
#
# Convention : Reuss Voigt Hill
#
# Bulk Modulus (GPa) = 12.93324 42.41766 27.67545
# Shear Modulus (GPa) = 14.65384 22.71105 18.68245
#
# Velocity S-wave (km/s) = 3.03748 3.78143 3.42969
# Velocity P-wave (km/s) = 4.52158 6.76554 5.75401
#
# Compressibility (1/GPa) = 0.07732015
#
# Stress axis : x y z
#
# Youngs Moduli (GPa) = 10.35176 84.88588 44.20254
#
# Poissons Ratio (x) = 1.04601 0.32695
# Poissons Ratio (y) = 0.12756 0.31488
# Poissons Ratio (z) = 0.07657 0.60469
#
# Static dielectric constant tensor:
#      x y z
#    x 1.545320 0.000000 0.000000 
#    y 0.000000 1.529450 0.000000 
#    z 0.000000 0.000000 1.528340 
# 
# From -- ./inp_files/21931.got.cif
#   From: 2010.05.17/outbox.cif.g08.bks.cpg/sg59_11_cif.got.tgz:21931.got - 2010.06.03 14:40:33.
