data_PCOD9446927
_publ_section_title
;
Structure prediction by ZEFSAII (Michael W. Deem and Ramdas Pophale) SiO2 
 PCOD9446927
Probable space group: P M M N
;
_chemical_formula_sum "Si O2"
_cell_formula_units_Z 64
_cell_length_a 7.623037
_cell_length_b 20.381435
_cell_length_c 20.994729
_cell_angle_alpha 90.000000
_cell_angle_beta 90.000000
_cell_angle_gamma 90.000000
_cell_volume 3261.918148
_symmetry_space_group_name_H-M "P M M N"
_symmetry_group_IT_number 59
_space_group.IT_coordinate_system_code '2'
_symmetry_cell_setting 'orthorhombic'
loop_
_space_group_symop_operation_xyz
x,y,z
1/2-x,1/2-y,z
1/2+x,-y,-z
-x,1/2+y,-z
-x,-y,-z
1/2+x,1/2+y,-z
1/2-x,y,z
x,1/2-y,z
loop_
_atom_site_type_symbol
_atom_site_label
_atom_site_fract_x
_atom_site_fract_y
_atom_site_fract_z
Si Si1 0.465465 0.325331 0.420197
Si Si2 0.539753 0.572481 0.473902
Si Si3 0.540881 0.823692 0.084019
Si Si4 0.534797 0.559723 0.837765
Si Si5 0.952451 0.601611 0.703768
Si Si6 0.460828 0.074316 0.020823
Si Si7 0.456251 0.044165 0.664912
Si Si8 0.040832 0.913501 0.199913
O O1 0.250000 0.328032 0.419421
O O2 0.515840 0.250000 0.429088
O O3 0.526671 0.372911 0.476977
O O4 0.528290 0.353978 0.352345
O O5 0.500000 0.500000 0.500000
O O6 0.750000 0.580320 0.472315
O O7 0.476392 0.574675 0.400931
O O8 0.750000 0.819986 0.074164
O O9 0.469760 0.750000 0.079804
O O10 0.513732 0.855910 0.153019
O O11 0.469808 0.873860 0.030696
O O12 0.750000 0.560193 0.836616
O O13 0.472297 0.598751 0.775201
O O14 0.476771 0.584268 0.906709
O O15 0.479520 0.483768 0.828461
O O16 0.750000 0.621938 0.710739
O O17 0.956886 0.526142 0.679534
O O18 0.250000 0.080237 0.022072
O O19 0.500000 0.000000 0.000000
O O20 0.250000 0.030222 0.657171
O O21 0.479279 0.088699 0.727226
O O22 0.250000 0.915719 0.201087
#
# Coordination Sequence:
#
# PCOD9446927 Si02
#       8
#     8   8   8   8   8   8   8   8
#     4   9  17  30  49  73 101 134 172 212 255 304
#     4  10  19  31  50  75 103 135 174 216 260 308
#     4  10  21  35  51  74 106 142 175 213 265 318
#     4   8  15  27  46  73  99 122 159 206 251 291
#     4   9  16  29  49  72  99 131 167 209 254 304
#     4  10  18  31  50  73 103 134 170 212 253 304
#     4  10  19  30  48  76 104 129 166 215 264 311
#     4  10  19  33  53  75 100 132 169 215 262 310
#
# _framework density 19.620358
#
# number of rings (size 3 to 8) (size 9 to 14) (size 15 to 20)
#    0.000    2.500    2.500    1.500    0.000    0.750 
#    0.000    1.250    0.000    7.500    0.000    0.000 
#    0.000    2.250    0.000    0.000    0.000    0.000 
#
# Total GULP energy -356984.666979 kJ/mol
# GULP energy per Si atom -5577.885422 kJ/mol
# Density = 1.957570 g / cm^3
# Si number density = 19.620358 Si / 1000 Ang^3
#
#
#
# Elastic Constant Matrix: (Units=GPa)
#
#
# Indices 1 2 3 4 5 6 
#
# 1 39.8823 -4.7916 -2.1508 0.0000 0.0000 0.0000
# 2 -4.7916 125.8490 97.5632 0.0000 0.0000 0.0000
# 3 -2.1508 97.5632 204.4475 0.0000 0.0000 0.0000
# 4 0.0000 0.0000 0.0000 24.4451 0.0000 0.0000
# 5 0.0000 0.0000 0.0000 0.0000 8.4025 0.0000
# 6 0.0000 0.0000 0.0000 0.0000 0.0000 14.4294
#
#
#
# Elastic Compliance Matrix: (Units=1/GPa)
#
#
# Indices 1 2 3 4 5 6 
#
# 1 0.025201 0.001197 -0.000306 0.000000 0.000000 0.000000
# 2 0.001197 0.012669 -0.006033 0.000000 0.000000 0.000000
# 3 -0.000306 -0.006033 0.007767 0.000000 0.000000 0.000000
# 4 0.000000 0.000000 0.000000 0.040908 0.000000 0.000000
# 5 0.000000 0.000000 0.000000 0.000000 0.119012 0.000000
# 6 0.000000 0.000000 0.000000 0.000000 0.000000 0.069303
#
#
# Mechanical properties :
#
#
# Convention : Reuss Voigt Hill
#
# Bulk Modulus (GPa) = 28.28676 61.26894 44.77785
# Shear Modulus (GPa) = 16.83912 28.09262 22.46587
#
# Velocity S-wave (km/s) = 2.93276 3.78803 3.38750
# Velocity P-wave (km/s) = 5.09082 7.10122 6.17834
#
# Compressibility (1/GPa) = 0.03535222
#
# Stress axis : x y z
#
# Youngs Moduli (GPa) = 39.68090 78.93581 128.75106
#
# Poissons Ratio (x) = -0.09446 0.03939
# Poissons Ratio (y) = -0.04749 0.77674
# Poissons Ratio (z) = 0.01214 0.47621
#
# Static dielectric constant tensor:
#      x y z
#    x 1.744400 0.000000 0.000000 
#    y 0.000000 1.652710 0.000000 
#    z 0.000000 0.000000 1.727950 
# 
# From -- ./inp_files/29732.got.cif
#   From: 2010.05.17/outbox.cif.g08.bks.cpg/sg59_15_cif.got.tgz:29732.got - 2010.06.03 14:40:33.
