data_PCOD9446752
_publ_section_title
;
Structure prediction by ZEFSAII (Michael W. Deem and Ramdas Pophale) SiO2 
 PCOD9446752
Probable space group: P M M N
;
_chemical_formula_sum "Si O2"
_cell_formula_units_Z 56
_cell_length_a 7.343151
_cell_length_b 14.797095
_cell_length_c 23.601686
_cell_angle_alpha 90.000000
_cell_angle_beta 90.000000
_cell_angle_gamma 90.000000
_cell_volume 2564.495546
_symmetry_space_group_name_H-M "P M M N"
_symmetry_group_IT_number 59
_space_group.IT_coordinate_system_code '2'
_symmetry_cell_setting 'orthorhombic'
loop_
_space_group_symop_operation_xyz
x,y,z
1/2-x,1/2-y,z
1/2+x,-y,-z
-x,1/2+y,-z
-x,-y,-z
1/2+x,1/2+y,-z
1/2-x,y,z
x,1/2-y,z
loop_
_atom_site_type_symbol
_atom_site_label
_atom_site_fract_x
_atom_site_fract_y
_atom_site_fract_z
Si Si1 0.029782 0.346569 0.607297
Si Si2 0.034128 0.396093 0.485407
Si Si3 0.027247 0.854310 0.195777
Si Si4 0.472923 0.148455 0.358888
Si Si5 0.030262 0.543924 0.081532
Si Si6 0.543667 0.019852 0.703862
Si Si7 0.963972 0.646336 0.964471
O O1 0.250000 0.355267 0.607342
O O2 0.981486 0.250000 0.633421
O O3 0.967073 0.348264 0.542317
O O4 0.953138 0.426471 0.644562
O O5 0.250000 0.377757 0.482922
O O6 0.963843 0.371873 0.423259
O O7 0.000000 0.500000 0.500000
O O8 0.250000 0.851498 0.196814
O O9 0.967195 0.750000 0.196752
O O10 0.971991 0.907577 0.139149
O O11 0.963868 0.912837 0.249678
O O12 0.250000 0.141953 0.359869
O O13 0.521734 0.250000 0.344132
O O14 0.539856 0.075470 0.313650
O O15 0.250000 0.539415 0.082130
O O16 0.980925 0.608133 0.028534
O O17 0.963894 0.440407 0.071535
O O18 0.750000 0.001684 0.723247
O O19 0.750000 0.652672 0.951109
O O20 0.036352 0.750000 0.959201
#
# Coordination Sequence:
#
# PCOD9446752 Si02
#       7
#     8   8   8   8   8   8   8
#     4  10  20  32  47  68  94 122 149 183 233 286
#     4  10  18  30  48  68  91 118 148 185 231 281
#     4   9  17  29  46  69  95 122 155 196 236 271
#     4   9  17  30  48  68  90 118 151 187 230 278
#     4   9  17  30  48  69  95 130 165 191 226 283
#     4  10  19  32  50  70  91 119 157 197 230 267
#     4   9  17  29  46  71 101 127 154 196 242 274
#
# _framework density 21.836652000000001
#
# number of rings (size 3 to 8) (size 9 to 14) (size 15 to 20)
#    0.000    2.571    1.429    1.286    0.000    3.429 
#    0.000    1.429    0.000    9.429    0.000    0.000 
#    0.000    2.286    0.000    0.000    0.000    0.000 
#
# Total GULP energy -312425.647712 kJ/mol
# GULP energy per Si atom -5579.029423 kJ/mol
# Density = 2.178695 g / cm^3
# Si number density = 21.836652 Si / 1000 Ang^3
#
#
#
# Elastic Constant Matrix: (Units=GPa)
#
#
# Indices 1 2 3 4 5 6 
#
# 1 83.5492 2.9004 0.8898 0.0000 0.0000 0.0000
# 2 2.9004 233.3103 91.6908 0.0000 0.0000 0.0000
# 3 0.8898 91.6908 124.9568 0.0000 0.0000 0.0000
# 4 0.0000 0.0000 0.0000 28.3763 0.0000 0.0000
# 5 0.0000 0.0000 0.0000 0.0000 -0.1441 0.0000
# 6 0.0000 0.0000 0.0000 0.0000 0.0000 2.5911
#
#
#
# Elastic Compliance Matrix: (Units=1/GPa)
#
#
# Indices 1 2 3 4 5 6 
#
# 1 0.011974 -0.000162 0.000034 0.000000 0.000000 0.000000
# 2 -0.000162 0.006025 -0.004420 0.000000 0.000000 0.000000
# 3 0.000034 -0.004420 0.011246 0.000000 0.000000 0.000000
# 4 0.000000 0.000000 0.000000 0.035241 0.000000 0.000000
# 5 0.000000 0.000000 0.000000 0.000000 -6.940704 0.000000
# 6 0.000000 0.000000 0.000000 0.000000 0.000000 0.385944
#
#
# Mechanical properties :
#
#
# Convention : Reuss Voigt Hill
#
# Bulk Modulus (GPa) = 49.63166 70.30871 59.97018
# Shear Modulus (GPa) = -0.77227 29.25368 14.24071
#
# Velocity S-wave (km/s) = -0.59533 3.66411 2.55649
# Velocity P-wave (km/s) = 4.72286 7.08296 6.01971
#
# Compressibility (1/GPa) = 0.02014843
#
# Stress axis : x y z
#
# Youngs Moduli (GPa) = 83.51247 165.96896 88.92165
#
# Poissons Ratio (x) = 0.02690 -0.00299
# Poissons Ratio (y) = 0.01354 0.39304
# Poissons Ratio (z) = -0.00281 0.73359
#
# Static dielectric constant tensor:
#      x y z
#    x 1.901560 0.000000 0.000000 
#    y 0.000000 1.937390 0.000000 
#    z 0.000000 0.000000 1.760650 
# 
# From -- ./inp_files/31908.got.cif
#   From: 2010.05.17/outbox.cif.g08.bks.cpg/sg59_16_cif.got.tgz:31908.got - 2010.06.03 14:40:33.
