data_PCOD9446169
_publ_section_title
;
Structure prediction by ZEFSAII (Michael W. Deem and Ramdas Pophale) SiO2 
 PCOD9446169
Probable space group: P M M N
;
_chemical_formula_sum "Si O2"
_cell_formula_units_Z 64
_cell_length_a 23.519132
_cell_length_b 9.118528
_cell_length_c 20.693830
_cell_angle_alpha 90.000000
_cell_angle_beta 90.000000
_cell_angle_gamma 90.000000
_cell_volume 4437.995961
_symmetry_space_group_name_H-M "P M M N"
_symmetry_group_IT_number 59
_space_group.IT_coordinate_system_code '2'
_symmetry_cell_setting 'orthorhombic'
loop_
_space_group_symop_operation_xyz
x,y,z
1/2-x,1/2-y,z
1/2+x,-y,-z
-x,1/2+y,-z
-x,-y,-z
1/2+x,1/2+y,-z
1/2-x,y,z
x,1/2-y,z
loop_
_atom_site_type_symbol
_atom_site_label
_atom_site_fract_x
_atom_site_fract_y
_atom_site_fract_z
Si Si1 0.522824 0.075769 0.711835
Si Si2 0.184385 0.426899 0.791565
Si Si3 0.552242 0.919204 0.583317
Si Si4 0.527629 0.925487 0.847507
Si Si5 0.891598 0.575564 0.329117
Si Si6 0.442412 0.573967 0.026733
Si Si7 0.418500 0.581244 0.542598
Si Si8 0.897477 0.076087 0.107941
O O1 0.531696 0.250000 0.717280
O O2 0.455261 0.051402 0.698851
O O3 0.554612 0.010030 0.649518
O O4 0.538801 0.993202 0.777473
O O5 0.250000 0.472777 0.793112
O O6 0.182100 0.250000 0.793738
O O7 0.153176 0.472153 0.725129
O O8 0.148495 0.489729 0.850977
O O9 0.568324 0.750000 0.592812
O O10 0.485577 0.921201 0.562142
O O11 0.585700 0.992606 0.524083
O O12 0.534692 0.750000 0.848535
O O13 0.461128 0.956864 0.865205
O O14 0.565150 0.001829 0.903326
O O15 0.885862 0.750000 0.340161
O O16 0.887139 0.492581 0.396959
O O17 0.449344 0.750000 0.031770
O O18 0.500000 0.500000 0.000000
O O19 0.397966 0.544641 0.968934
O O20 0.402025 0.750000 0.533992
O O21 0.888920 0.250000 0.116300
#
# Coordination Sequence:
#
# PCOD9446169 Si02
#       8
#     8   8   8   8   8   8   8   8
#     4  10  17  25  39  57  79 109 138 168 202 240
#     4  10  20  32  45  61  80 105 140 179 216 252
#     4   9  16  25  36  53  77 103 130 165 198 234
#     4  10  18  27  40  60  82 107 137 169 204 247
#     4   9  17  28  40  55  74 102 135 170 210 246
#     4   9  17  28  41  59  79 102 132 167 204 247
#     4   9  16  25  38  54  72  98 132 167 199 238
#     4   9  18  30  43  58  78 103 134 171 210 250
#
# _framework density 14.420921999999999
#
# number of rings (size 3 to 8) (size 9 to 14) (size 15 to 20)
#    0.000    2.625    1.250    2.625    0.000    6.750 
#    0.000    0.000    0.000    0.000    0.000    0.000 
#    0.000    0.000    0.000    1.125    0.000   19.250 
#
# Total GULP energy -356456.501070 kJ/mol
# GULP energy per Si atom -5569.632829 kJ/mol
# Density = 1.438810 g / cm^3
# Si number density = 14.420922 Si / 1000 Ang^3
#
#
#
# Elastic Constant Matrix: (Units=GPa)
#
#
# Indices 1 2 3 4 5 6 
#
# 1 37.6356 25.5968 39.2048 0.0000 0.0000 0.0000
# 2 25.5968 68.0178 69.0419 0.0000 0.0000 0.0000
# 3 39.2048 69.0419 151.8926 0.0000 0.0000 0.0000
# 4 0.0000 0.0000 0.0000 32.0742 0.0000 0.0000
# 5 0.0000 0.0000 0.0000 0.0000 9.6276 0.0000
# 6 0.0000 0.0000 0.0000 0.0000 0.0000 11.1997
#
#
#
# Elastic Compliance Matrix: (Units=1/GPa)
#
#
# Indices 1 2 3 4 5 6 
#
# 1 0.038661 -0.008207 -0.006249 0.000000 0.000000 0.000000
# 2 -0.008207 0.029038 -0.011081 0.000000 0.000000 0.000000
# 3 -0.006249 -0.011081 0.013233 0.000000 0.000000 0.000000
# 4 0.000000 0.000000 0.000000 0.031178 0.000000 0.000000
# 5 0.000000 0.000000 0.000000 0.000000 0.103868 0.000000
# 6 0.000000 0.000000 0.000000 0.000000 0.000000 0.089288
#
#
# Mechanical properties :
#
#
# Convention : Reuss Voigt Hill
#
# Bulk Modulus (GPa) = 33.48918 58.35922 45.92420
# Shear Modulus (GPa) = 13.65032 18.82713 16.23873
#
# Velocity S-wave (km/s) = 3.07996 3.61715 3.35931
# Velocity P-wave (km/s) = 5.99344 7.61586 6.85283
#
# Compressibility (1/GPa) = 0.02986039
#
# Stress axis : x y z
#
# Youngs Moduli (GPa) = 25.86581 34.43746 75.56772
#
# Poissons Ratio (x) = 0.28261 0.47219
# Poissons Ratio (y) = 0.21227 0.83736
# Poissons Ratio (z) = 0.16162 0.38160
#
# Static dielectric constant tensor:
#      x y z
#    x 1.439660 0.000000 0.000000 
#    y 0.000000 1.481200 0.000000 
#    z 0.000000 0.000000 1.492660 
# 
# From -- ./inp_files/26562.got.cif
#   From: 2010.05.17/outbox.cif.g08.bks.cpg/sg59_14_cif.got.tgz:26562.got - 2010.06.03 14:40:33.
