data_PCOD9446624
_publ_section_title
;
Structure prediction by ZEFSAII (Michael W. Deem and Ramdas Pophale) SiO2 
 PCOD9446624
Probable space group: P M M N
;
_chemical_formula_sum "Si O2"
_cell_formula_units_Z 64
_cell_length_a 30.192802
_cell_length_b 7.373480
_cell_length_c 14.159448
_cell_angle_alpha 90.000000
_cell_angle_beta 90.000000
_cell_angle_gamma 90.000000
_cell_volume 3152.261578
_symmetry_space_group_name_H-M "P M M N"
_symmetry_group_IT_number 59
_space_group.IT_coordinate_system_code '2'
_symmetry_cell_setting 'orthorhombic'
loop_
_space_group_symop_operation_xyz
x,y,z
1/2-x,1/2-y,z
1/2+x,-y,-z
-x,1/2+y,-z
-x,-y,-z
1/2+x,1/2+y,-z
1/2-x,y,z
x,1/2-y,z
loop_
_atom_site_type_symbol
_atom_site_label
_atom_site_fract_x
_atom_site_fract_y
_atom_site_fract_z
Si Si1 0.700925 0.465055 0.754054
Si Si2 0.016931 0.967773 0.107953
Si Si3 0.200385 0.031898 0.469131
Si Si4 0.630989 0.970053 0.380405
Si Si5 0.701610 0.970197 0.221501
Si Si6 0.564933 0.970527 0.228628
Si Si7 0.115390 0.544717 0.139648
Si Si8 0.637541 0.968664 0.069854
O O1 0.750000 0.536694 0.781802
O O2 0.701732 0.250000 0.774990
O O3 0.697158 0.489034 0.641428
O O4 0.656555 0.539477 0.803314
O O5 0.872404 0.750000 0.387008
O O6 0.066122 0.037994 0.131859
O O7 0.981864 0.032015 0.186687
O O8 0.000000 0.000000 0.000000
O O9 0.250000 0.969164 0.501390
O O10 0.201144 0.250000 0.480647
O O11 0.156461 0.967513 0.525044
O O12 0.564016 0.750000 0.232131
O O13 0.666921 0.020117 0.300999
O O14 0.584914 0.030260 0.330238
O O15 0.750000 0.038323 0.241252
O O16 0.702359 0.750000 0.223158
O O17 0.683092 0.022144 0.119761
O O18 0.481099 0.750000 0.113986
O O19 0.599609 0.017918 0.145355
O O20 0.109805 0.750000 0.177310
O O21 0.130349 0.550820 0.031211
O O22 0.636087 0.750000 0.059924
#
# Coordination Sequence:
#
# PCOD9446624 Si02
#       8
#     8   8   8   8   8   8   8   8
#     4   9  19  35  49  61  85 121 155 186 224 269
#     4  10  18  29  47  68  90 117 152 189 220 257
#     4   9  16  27  47  73  91 106 141 191 230 260
#     4   8  13  22  40  65  91 114 137 172 221 270
#     4   8  13  21  35  59  89 116 141 172 212 261
#     4   8  14  25  41  64  91 116 141 171 215 267
#     4  10  20  31  45  65  86 115 155 190 220 258
#     4   9  16  26  41  61  86 116 147 178 215 260
#
# _framework density 20.302885
#
# number of rings (size 3 to 8) (size 9 to 14) (size 15 to 20)
#    0.000    3.125    1.250    1.875    0.000    2.500 
#    0.000    0.000    0.000    4.500    0.000    0.000 
#    0.000    0.000    0.000    0.000    0.000    0.000 
#
# Total GULP energy -356300.172153 kJ/mol
# GULP energy per Si atom -5567.190190 kJ/mol
# Density = 2.025667 g / cm^3
# Si number density = 20.302885 Si / 1000 Ang^3
#
#
#
# Elastic Constant Matrix: (Units=GPa)
#
#
# Indices 1 2 3 4 5 6 
#
# 1 151.6938 7.6236 63.4462 0.0000 0.0000 0.0000
# 2 7.6236 71.3674 -0.5794 0.0000 0.0000 0.0000
# 3 63.4462 -0.5794 66.5237 0.0000 0.0000 0.0000
# 4 0.0000 0.0000 0.0000 20.6059 0.0000 0.0000
# 5 0.0000 0.0000 0.0000 0.0000 18.5301 0.0000
# 6 0.0000 0.0000 0.0000 0.0000 0.0000 57.2608
#
#
#
# Elastic Compliance Matrix: (Units=1/GPa)
#
#
# Indices 1 2 3 4 5 6 
#
# 1 0.011081 -0.001270 -0.010579 0.000000 0.000000 0.000000
# 2 -0.001270 0.014158 0.001334 0.000000 0.000000 0.000000
# 3 -0.010579 0.001334 0.025134 0.000000 0.000000 0.000000
# 4 0.000000 0.000000 0.000000 0.048530 0.000000 0.000000
# 5 0.000000 0.000000 0.000000 0.000000 0.053966 0.000000
# 6 0.000000 0.000000 0.000000 0.000000 0.000000 0.017464
#
#
# Mechanical properties :
#
#
# Convention : Reuss Voigt Hill
#
# Bulk Modulus (GPa) = 34.07893 47.84063 40.95978
# Shear Modulus (GPa) = 24.85786 33.88566 29.37176
#
# Velocity S-wave (km/s) = 3.50287 4.08978 3.80765
# Velocity P-wave (km/s) = 5.76037 6.77616 6.28881
#
# Compressibility (1/GPa) = 0.02934364
#
# Stress axis : x y z
#
# Youngs Moduli (GPa) = 90.24590 70.62925 39.78714
#
# Poissons Ratio (x) = 0.08967 0.42092
# Poissons Ratio (y) = 0.11457 -0.05308
# Poissons Ratio (z) = 0.95474 -0.09423
#
# Static dielectric constant tensor:
#      x y z
#    x 1.775270 0.000000 0.000000 
#    y 0.000000 1.802690 0.000000 
#    z 0.000000 0.000000 1.688760 
# 
# From -- ./inp_files/25030.got.cif
#   From: 2010.05.17/outbox.cif.g08.bks.cpg/sg59_13_cif.got.tgz:25030.got - 2010.06.03 14:40:33.
