data_PCOD9446173
_publ_section_title
;
Structure prediction by ZEFSAII (Michael W. Deem and Ramdas Pophale) SiO2 
 PCOD9446173
Probable space group: P M M N
;
_chemical_formula_sum "Si O2"
_cell_formula_units_Z 48
_cell_length_a 7.836751
_cell_length_b 22.316739
_cell_length_c 15.938183
_cell_angle_alpha 90.000000
_cell_angle_beta 90.000000
_cell_angle_gamma 90.000000
_cell_volume 2787.440407
_symmetry_space_group_name_H-M "P M M N"
_symmetry_group_IT_number 59
_space_group.IT_coordinate_system_code '2'
_symmetry_cell_setting 'orthorhombic'
loop_
_space_group_symop_operation_xyz
x,y,z
1/2-x,1/2-y,z
1/2+x,-y,-z
-x,1/2+y,-z
-x,-y,-z
1/2+x,1/2+y,-z
1/2-x,y,z
x,1/2-y,z
loop_
_atom_site_type_symbol
_atom_site_label
_atom_site_fract_x
_atom_site_fract_y
_atom_site_fract_z
Si Si1 0.047251 0.457433 0.879656
Si Si2 0.540475 0.181226 0.190633
Si Si3 0.955183 0.431123 0.520851
Si Si4 0.044691 0.586506 0.945725
Si Si5 0.548322 0.033328 0.695050
Si Si6 0.951869 0.102166 0.344756
O O1 0.250000 0.461801 0.874119
O O2 0.979767 0.523605 0.906254
O O3 0.982823 0.441725 0.787482
O O4 0.002701 0.414110 0.956603
O O5 0.750000 0.180599 0.191300
O O6 0.486385 0.250000 0.187254
O O7 0.485683 0.141765 0.110705
O O8 0.479796 0.147159 0.274643
O O9 0.750000 0.423760 0.520131
O O10 0.014644 0.425651 0.617220
O O11 0.022808 0.395066 0.439947
O O12 0.000000 0.500000 0.500000
O O13 0.250000 0.584980 0.940897
O O14 0.750000 0.025189 0.683427
O O15 0.470862 0.966490 0.687107
O O16 0.750000 0.114199 0.350169
#
# Coordination Sequence:
#
# PCOD9446173 Si02
#       6
#     8   8   8   8   8   8
#     4  10  18  28  43  62  84 114 143 175 218 261
#     4   9  16  27  45  66  86 111 143 175 212 256
#     4   8  15  24  37  57  83 111 138 167 204 245
#     4   9  17  29  42  61  85 111 141 176 214 256
#     4  10  17  25  39  62  87 114 142 172 213 257
#     4   9  15  27  42  59  85 114 142 173 206 249
#
# _framework density 17.220099000000001
#
# number of rings (size 3 to 8) (size 9 to 14) (size 15 to 20)
#    0.000    2.833    1.667    1.000    0.000    1.333 
#    0.000    0.000    0.000    2.000    0.000    1.167 
#    0.000    6.667    0.000    0.000    0.000    0.000 
#
# Total GULP energy -267202.162185 kJ/mol
# GULP energy per Si atom -5566.711712 kJ/mol
# Density = 1.718090 g / cm^3
# Si number density = 17.220099 Si / 1000 Ang^3
#
#
#
# Elastic Constant Matrix: (Units=GPa)
#
#
# Indices 1 2 3 4 5 6 
#
# 1 16.8954 0.8972 0.3999 0.0000 0.0000 0.0000
# 2 0.8972 67.1246 60.4196 0.0000 0.0000 0.0000
# 3 0.3999 60.4196 198.0181 0.0000 0.0000 0.0000
# 4 0.0000 0.0000 0.0000 16.8673 0.0000 0.0000
# 5 0.0000 0.0000 0.0000 0.0000 13.9712 0.0000
# 6 0.0000 0.0000 0.0000 0.0000 0.0000 7.8397
#
#
#
# Elastic Compliance Matrix: (Units=1/GPa)
#
#
# Indices 1 2 3 4 5 6 
#
# 1 0.059234 -0.000943 0.000168 0.000000 0.000000 0.000000
# 2 -0.000943 0.020553 -0.006269 0.000000 0.000000 0.000000
# 3 0.000168 -0.006269 0.006963 0.000000 0.000000 0.000000
# 4 0.000000 0.000000 0.000000 0.059286 0.000000 0.000000
# 5 0.000000 0.000000 0.000000 0.000000 0.071576 0.000000
# 6 0.000000 0.000000 0.000000 0.000000 0.000000 0.127555
#
#
# Mechanical properties :
#
#
# Convention : Reuss Voigt Hill
#
# Bulk Modulus (GPa) = 13.76252 45.05240 29.40746
# Shear Modulus (GPa) = 13.03861 22.42373 17.73117
#
# Velocity S-wave (km/s) = 2.75466 3.61249 3.21234
# Velocity P-wave (km/s) = 4.25759 6.60452 5.55638
#
# Compressibility (1/GPa) = 0.07266110
#
# Stress axis : x y z
#
# Youngs Moduli (GPa) = 16.88227 48.65368 143.62394
#
# Poissons Ratio (x) = 0.04588 -0.02415
# Poissons Ratio (y) = 0.01592 0.90043
# Poissons Ratio (z) = -0.00284 0.30503
#
# Static dielectric constant tensor:
#      x y z
#    x 1.625350 0.000000 0.000000 
#    y 0.000000 1.540590 0.000000 
#    z 0.000000 0.000000 1.653530 
# 
# From -- ./inp_files/20686.got.cif
#   From: 2010.05.17/outbox.cif.g08.bks.cpg/sg59_11_cif.got.tgz:20686.got - 2010.06.03 14:40:33.
