data_PCOD9446383
_publ_section_title
;
Structure prediction by ZEFSAII (Michael W. Deem and Ramdas Pophale) SiO2 
 PCOD9446383
Probable space group: P M M N
;
_chemical_formula_sum "Si O2"
_cell_formula_units_Z 64
_cell_length_a 27.778399
_cell_length_b 23.708457
_cell_length_c 5.402022
_cell_angle_alpha 90.000000
_cell_angle_beta 90.000000
_cell_angle_gamma 90.000000
_cell_volume 3557.679737
_symmetry_space_group_name_H-M "P M M N"
_symmetry_group_IT_number 59
_space_group.IT_coordinate_system_code '2'
_symmetry_cell_setting 'orthorhombic'
loop_
_space_group_symop_operation_xyz
x,y,z
1/2-x,1/2-y,z
1/2+x,-y,-z
-x,1/2+y,-z
-x,-y,-z
1/2+x,1/2+y,-z
1/2-x,y,z
x,1/2-y,z
loop_
_atom_site_type_symbol
_atom_site_label
_atom_site_fract_x
_atom_site_fract_y
_atom_site_fract_z
Si Si1 0.678226 0.817017 0.278463
Si Si2 0.198045 0.118583 0.226240
Si Si3 0.577627 0.430143 0.740721
Si Si4 0.403982 0.055258 0.267134
Si Si5 0.462757 0.040083 0.760974
Si Si6 0.069924 0.182377 0.582465
Si Si7 0.059165 0.904288 0.760726
Si Si8 0.522252 0.817811 0.915307
O O1 0.685170 0.750000 0.260992
O O2 0.698664 0.840819 0.534623
O O3 0.621702 0.830475 0.306682
O O4 0.695715 0.846827 0.029837
O O5 0.250000 0.087346 0.227512
O O6 0.147879 0.084415 0.247103
O O7 0.605103 0.488347 0.710325
O O8 0.519451 0.444702 0.758448
O O9 0.583300 0.393085 0.499892
O O10 0.591695 0.402932 0.997821
O O11 0.435239 0.065717 0.520264
O O12 0.436010 0.058546 0.014795
O O13 0.458241 0.970985 0.745489
O O14 0.066353 0.250000 0.585072
O O15 0.064243 0.170086 0.288864
O O16 0.032594 0.165784 0.799576
O O17 0.019223 0.857354 0.809009
O O18 0.513111 0.750000 0.907684
#
# Coordination Sequence:
#
# PCOD9446383 Si02
#       8
#     8   8   8   8   8   8   8   8
#     4  11  24  40  56  72  90 114 153 208 255 291
#     4  12  26  40  56  74  90 119 159 193 245 305
#     4  10  19  30  46  72  95 115 149 184 228 282
#     4  10  20  34  49  68  95 116 140 186 229 271
#     4  10  19  31  48  73  94 115 148 182 230 285
#     4   9  19  32  45  64  88 117 156 195 236 281
#     4  10  18  27  42  63  91 122 152 183 217 262
#     4  10  19  30  44  66  98 131 160 189 224 275
#
# _framework density 17.989253000000001
#
# number of rings (size 3 to 8) (size 9 to 14) (size 15 to 20)
#    0.000    1.750    0.000    6.750    0.000   11.500 
#    0.000    0.000    0.000    0.000    0.000    0.000 
#    0.000    0.000    0.000    0.000    0.000   60.000 
#
# Total GULP energy -357026.226890 kJ/mol
# GULP energy per Si atom -5578.534795 kJ/mol
# Density = 1.794831 g / cm^3
# Si number density = 17.989253 Si / 1000 Ang^3
#
#
#
# Elastic Constant Matrix: (Units=GPa)
#
#
# Indices 1 2 3 4 5 6 
#
# 1 70.6306 42.9816 28.7021 0.0000 0.0000 0.0000
# 2 42.9816 55.9096 28.4932 0.0000 0.0000 0.0000
# 3 28.7021 28.4932 162.7505 0.0000 0.0000 0.0000
# 4 0.0000 0.0000 0.0000 29.9203 0.0000 0.0000
# 5 0.0000 0.0000 0.0000 0.0000 39.9144 0.0000
# 6 0.0000 0.0000 0.0000 0.0000 0.0000 12.4272
#
#
#
# Elastic Compliance Matrix: (Units=1/GPa)
#
#
# Indices 1 2 3 4 5 6 
#
# 1 0.026827 -0.019997 -0.001230 0.000000 0.000000 0.000000
# 2 -0.019997 0.034544 -0.002521 0.000000 0.000000 0.000000
# 3 -0.001230 -0.002521 0.006803 0.000000 0.000000 0.000000
# 4 0.000000 0.000000 0.000000 0.033422 0.000000 0.000000
# 5 0.000000 0.000000 0.000000 0.000000 0.025054 0.000000
# 6 0.000000 0.000000 0.000000 0.000000 0.000000 0.080468
#
#
# Mechanical properties :
#
#
# Convention : Reuss Voigt Hill
#
# Bulk Modulus (GPa) = 48.36243 54.40494 51.38368
# Shear Modulus (GPa) = 19.11999 29.05996 24.08998
#
# Velocity S-wave (km/s) = 3.26368 4.02357 3.66338
# Velocity P-wave (km/s) = 6.41441 7.20376 6.82051
#
# Compressibility (1/GPa) = 0.02067721
#
# Stress axis : x y z
#
# Youngs Moduli (GPa) = 37.27593 28.94874 147.00023
#
# Poissons Ratio (x) = 0.57888 0.18084
# Poissons Ratio (y) = 0.74540 0.37061
# Poissons Ratio (z) = 0.04586 0.07298
#
# Static dielectric constant tensor:
#      x y z
#    x 1.601510 0.000000 0.000000 
#    y 0.000000 1.697140 0.000000 
#    z 0.000000 0.000000 1.731430 
# 
# From -- ./inp_files/3541.got.cif
#   From: 2010.05.17/outbox.cif.g08.bks.cpg/sg59_2_cif.got.tgz:3541.got - 2010.06.03 14:40:33.
