data_PCOD9446276
_publ_section_title
;
Structure prediction by ZEFSAII (Michael W. Deem and Ramdas Pophale) SiO2 
 PCOD9446276
Probable space group: P M M N
;
_chemical_formula_sum "Si O2"
_cell_formula_units_Z 56
_cell_length_a 25.155306
_cell_length_b 24.743942
_cell_length_c 5.050648
_cell_angle_alpha 90.000000
_cell_angle_beta 90.000000
_cell_angle_gamma 90.000000
_cell_volume 3143.732577
_symmetry_space_group_name_H-M "P M M N"
_symmetry_group_IT_number 59
_space_group.IT_coordinate_system_code '2'
_symmetry_cell_setting 'orthorhombic'
loop_
_space_group_symop_operation_xyz
x,y,z
1/2-x,1/2-y,z
1/2+x,-y,-z
-x,1/2+y,-z
-x,-y,-z
1/2+x,1/2+y,-z
1/2-x,y,z
x,1/2-y,z
loop_
_atom_site_type_symbol
_atom_site_label
_atom_site_fract_x
_atom_site_fract_y
_atom_site_fract_z
Si Si1 0.980746 0.437258 0.965631
Si Si2 0.250000 0.468835 0.530832
Si Si3 0.462083 0.102968 0.462685
Si Si4 0.119896 0.313696 0.641538
Si Si5 0.637866 0.457744 0.101293
Si Si6 0.360442 0.029130 0.398044
Si Si7 0.689616 0.685096 0.878529
Si Si8 0.250000 0.956127 0.029558
O O1 0.918531 0.432061 0.031826
O O2 0.013289 0.400592 0.172005
O O3 0.000000 0.500000 0.000000
O O4 0.995074 0.419016 0.671003
O O5 0.194561 0.440745 0.465946
O O6 0.250000 0.492729 0.825444
O O7 0.250000 0.519971 0.325287
O O8 0.434739 0.157901 0.558048
O O9 0.412286 0.062324 0.461717
O O10 0.110190 0.250000 0.678812
O O11 0.162554 0.320199 0.406041
O O12 0.148167 0.336928 0.904454
O O13 0.638791 0.477856 0.403196
O O14 0.693546 0.428213 0.032664
O O15 0.639510 0.509721 0.903981
O O16 0.750000 0.663851 0.897400
O O17 0.693316 0.750000 0.929197
#
# Coordination Sequence:
#
# PCOD9446276 Si02
#       8
#     8   4   8   8   8   8   8   4
#     4  12  21  33  50  73  96 128 158 202 239 284
#     4   8  16  26  40  56  83 116 152 188 227 270
#     4  12  22  33  50  70  96 126 166 201 239 297
#     4  10  21  36  52  70  97 129 163 211 262 304
#     4  10  18  30  48  65  92 121 156 191 235 274
#     4  10  17  30  43  62  89 120 158 194 232 281
#     4   9  17  33  55  73  91 122 167 216 267 307
#     4   8  16  28  44  62  82 122 150 182 226 276
#
# _framework density 17.813220999999999
#
# number of rings (size 3 to 8) (size 9 to 14) (size 15 to 20)
#    0.000    1.857    2.857    2.571    0.000    1.714 
#    2.571    0.000    3.143    0.000    0.000    0.000 
#    0.000    0.000    0.000    3.857    0.000    0.000 
#
# Total GULP energy -312444.934749 kJ/mol
# GULP energy per Si atom -5579.373835 kJ/mol
# Density = 1.777268 g / cm^3
# Si number density = 17.813221 Si / 1000 Ang^3
#
#
#
# Elastic Constant Matrix: (Units=GPa)
#
#
# Indices 1 2 3 4 5 6 
#
# 1 123.8030 2.0018 -14.9787 0.0000 0.0000 0.0000
# 2 2.0018 18.2298 -11.2626 0.0000 0.0000 0.0000
# 3 -14.9787 -11.2626 42.9088 0.0000 0.0000 0.0000
# 4 0.0000 0.0000 0.0000 8.7870 0.0000 0.0000
# 5 0.0000 0.0000 0.0000 0.0000 32.3488 0.0000
# 6 0.0000 0.0000 0.0000 0.0000 0.0000 12.8702
#
#
#
# Elastic Compliance Matrix: (Units=1/GPa)
#
#
# Indices 1 2 3 4 5 6 
#
# 1 0.008451 0.001068 0.003230 0.000000 0.000000 0.000000
# 2 0.001068 0.065607 0.017593 0.000000 0.000000 0.000000
# 3 0.003230 0.017593 0.029051 0.000000 0.000000 0.000000
# 4 0.000000 0.000000 0.000000 0.113804 0.000000 0.000000
# 5 0.000000 0.000000 0.000000 0.000000 0.030913 0.000000
# 6 0.000000 0.000000 0.000000 0.000000 0.000000 0.077699
#
#
# Mechanical properties :
#
#
# Convention : Reuss Voigt Hill
#
# Bulk Modulus (GPa) = 6.80774 15.16250 10.98512
# Shear Modulus (GPa) = 15.11914 24.74660 19.93287
#
# Velocity S-wave (km/s) = 2.91651 3.73128 3.34876
# Velocity P-wave (km/s) = 3.89505 5.20516 4.59701
#
# Compressibility (1/GPa) = 0.14689160
#
# Stress axis : x y z
#
# Youngs Moduli (GPa) = 118.33036 15.24218 34.42254
#
# Poissons Ratio (x) = -0.01627 -0.11120
# Poissons Ratio (y) = -0.12635 -0.60560
# Poissons Ratio (z) = -0.38225 -0.26816
#
# Static dielectric constant tensor:
#      x y z
#    x 1.671280 0.000000 0.000000 
#    y 0.000000 1.618850 0.000000 
#    z 0.000000 0.000000 1.617730 
# 
# From -- ./inp_files/3915.got.cif
#   From: 2010.05.17/outbox.cif.g08.bks.cpg/sg59_2_cif.got.tgz:3915.got - 2010.06.03 14:40:33.
