data_PCOD9446357
_publ_section_title
;
Structure prediction by ZEFSAII (Michael W. Deem and Ramdas Pophale) SiO2 
 PCOD9446357
Probable space group: P M M N
;
_chemical_formula_sum "Si O2"
_cell_formula_units_Z 64
_cell_length_a 8.520580
_cell_length_b 27.684958
_cell_length_c 17.805991
_cell_angle_alpha 90.000000
_cell_angle_beta 90.000000
_cell_angle_gamma 90.000000
_cell_volume 4200.289038
_symmetry_space_group_name_H-M "P M M N"
_symmetry_group_IT_number 59
_space_group.IT_coordinate_system_code '2'
_symmetry_cell_setting 'orthorhombic'
loop_
_space_group_symop_operation_xyz
x,y,z
1/2-x,1/2-y,z
1/2+x,-y,-z
-x,1/2+y,-z
-x,-y,-z
1/2+x,1/2+y,-z
1/2-x,y,z
x,1/2-y,z
loop_
_atom_site_type_symbol
_atom_site_label
_atom_site_fract_x
_atom_site_fract_y
_atom_site_fract_z
Si Si1 0.937602 0.946013 0.514827
Si Si2 0.437716 0.561516 0.838573
Si Si3 0.058430 0.194978 0.910451
Si Si4 0.563215 0.424895 0.639638
Si Si5 0.061390 0.375751 0.780935
Si Si6 0.560620 0.964959 0.677846
Si Si7 0.439565 0.112401 0.025911
Si Si8 0.940135 0.959197 0.101317
O O1 0.750000 0.946161 0.511540
O O2 0.983756 0.936641 0.601277
O O3 0.001516 0.916076 0.444553
O O4 0.000000 0.000000 0.500000
O O5 0.250000 0.561057 0.839787
O O6 0.493480 0.558331 0.752967
O O7 0.497997 0.604896 0.890564
O O8 0.498997 0.511996 0.877917
O O9 0.250000 0.194892 0.910351
O O10 0.004925 0.250000 0.917239
O O11 0.010630 0.169596 0.832018
O O12 0.011592 0.160031 0.979367
O O13 0.750000 0.427107 0.636987
O O14 0.509392 0.385341 0.699671
O O15 0.508031 0.478741 0.667189
O O16 0.250000 0.373939 0.774341
O O17 0.020713 0.422511 0.831495
O O18 0.750000 0.965634 0.682895
O O19 0.250000 0.111882 0.027344
O O20 0.494856 0.066932 0.974560
O O21 0.750000 0.961328 0.097236
#
# Coordination Sequence:
#
# PCOD9446357 Si02
#       8
#     8   8   8   8   8   8   8   8
#     4   9  17  28  41  57  80 111 147 180 210 244
#     4  11  19  26  39  58  83 111 144 177 208 250
#     4   8  15  29  49  68  84 107 141 180 220 261
#     4  10  18  27  40  60  85 112 146 179 209 250
#     4   9  15  26  44  63  84 110 143 179 215 253
#     4   9  18  29  39  55  80 113 147 177 209 241
#     4   9  17  29  43  58  81 108 139 176 214 255
#     4   8  15  26  38  55  78 109 141 171 208 245
#
# _framework density 15.237045999999999
#
# number of rings (size 3 to 8) (size 9 to 14) (size 15 to 20)
#    0.000    2.875    1.250    3.750    0.000    2.500 
#    0.000    3.125    0.000    1.500    0.000    0.000 
#    0.000    1.000    0.000   11.500    0.000    3.250 
#
# Total GULP energy -356292.061483 kJ/mol
# GULP energy per Si atom -5567.063461 kJ/mol
# Density = 1.520237 g / cm^3
# Si number density = 15.237046 Si / 1000 Ang^3
#
#
#
# Elastic Constant Matrix: (Units=GPa)
#
#
# Indices 1 2 3 4 5 6 
#
# 1 18.4590 15.3635 30.1803 0.0000 0.0000 0.0000
# 2 15.3635 61.1386 59.1142 0.0000 0.0000 0.0000
# 3 30.1803 59.1142 153.4076 0.0000 0.0000 0.0000
# 4 0.0000 0.0000 0.0000 11.4515 0.0000 0.0000
# 5 0.0000 0.0000 0.0000 0.0000 21.7550 0.0000
# 6 0.0000 0.0000 0.0000 0.0000 0.0000 8.8363
#
#
#
# Elastic Compliance Matrix: (Units=1/GPa)
#
#
# Indices 1 2 3 4 5 6 
#
# 1 0.082250 -0.008006 -0.013096 0.000000 0.000000 0.000000
# 2 -0.008006 0.026848 -0.008771 0.000000 0.000000 0.000000
# 3 -0.013096 -0.008771 0.012475 0.000000 0.000000 0.000000
# 4 0.000000 0.000000 0.000000 0.087324 0.000000 0.000000
# 5 0.000000 0.000000 0.000000 0.000000 0.045966 0.000000
# 6 0.000000 0.000000 0.000000 0.000000 0.000000 0.113170
#
#
# Mechanical properties :
#
#
# Convention : Reuss Voigt Hill
#
# Bulk Modulus (GPa) = 16.17415 49.14680 32.66048
# Shear Modulus (GPa) = 11.15104 16.96504 14.05804
#
# Velocity S-wave (km/s) = 2.70818 3.34040 3.04077
# Velocity P-wave (km/s) = 4.51853 6.87041 5.81462
#
# Compressibility (1/GPa) = 0.06182704
#
# Stress axis : x y z
#
# Youngs Moduli (GPa) = 12.15810 37.24611 80.16192
#
# Poissons Ratio (x) = 0.29819 1.04981
# Poissons Ratio (y) = 0.09734 0.70308
# Poissons Ratio (z) = 0.15922 0.32668
#
# Static dielectric constant tensor:
#      x y z
#    x 1.512010 0.000000 0.000000 
#    y 0.000000 1.490350 0.000000 
#    z 0.000000 0.000000 1.538530 
# 
# From -- ./inp_files/26667.got.cif
#   From: 2010.05.17/outbox.cif.g08.bks.cpg/sg59_14_cif.got.tgz:26667.got - 2010.06.03 14:40:33.
