data_PCOD9446703
_publ_section_title
;
Structure prediction by ZEFSAII (Michael W. Deem and Ramdas Pophale) SiO2 
 PCOD9446703
Probable space group: P M M N
;
_chemical_formula_sum "Si O2"
_cell_formula_units_Z 64
_cell_length_a 9.177749
_cell_length_b 19.585261
_cell_length_c 20.339403
_cell_angle_alpha 90.000000
_cell_angle_beta 90.000000
_cell_angle_gamma 90.000000
_cell_volume 3655.979408
_symmetry_space_group_name_H-M "P M M N"
_symmetry_group_IT_number 59
_space_group.IT_coordinate_system_code '2'
_symmetry_cell_setting 'orthorhombic'
loop_
_space_group_symop_operation_xyz
x,y,z
1/2-x,1/2-y,z
1/2+x,-y,-z
-x,1/2+y,-z
-x,-y,-z
1/2+x,1/2+y,-z
1/2-x,y,z
x,1/2-y,z
loop_
_atom_site_type_symbol
_atom_site_label
_atom_site_fract_x
_atom_site_fract_y
_atom_site_fract_z
Si Si1 0.418438 0.934115 0.233676
Si Si2 0.578315 0.407785 0.032594
Si Si3 0.075531 0.569081 0.600279
Si Si4 0.913493 0.329983 0.158636
Si Si5 0.085419 0.094277 0.268698
Si Si6 0.074385 0.412823 0.630635
Si Si7 0.074223 0.670129 0.481945
Si Si8 0.076670 0.444427 0.903754
O O1 0.250000 0.910547 0.233096
O O2 0.507435 0.905965 0.296276
O O3 0.495747 0.924545 0.163381
O O4 0.417046 0.015493 0.246528
O O5 0.750000 0.410657 0.014974
O O6 0.551528 0.347241 0.083420
O O7 0.545928 0.476759 0.074612
O O8 0.483859 0.404462 0.967059
O O9 0.250000 0.569887 0.601961
O O10 0.032019 0.488612 0.601793
O O11 0.030013 0.616748 0.539462
O O12 0.013499 0.600532 0.667167
O O13 0.750000 0.358923 0.170559
O O14 0.909709 0.250000 0.168942
O O15 0.024006 0.363106 0.208669
O O16 0.250000 0.113464 0.285146
O O17 0.250000 0.409612 0.632825
O O18 0.006641 0.356148 0.583076
O O19 0.250000 0.664706 0.473773
O O20 0.042077 0.750000 0.496559
O O21 0.250000 0.437305 0.895956
#
# Coordination Sequence:
#
# PCOD9446703 Si02
#       8
#     8   8   8   8   8   8   8   8
#     4  10  19  32  52  77 106 136 167 210 263 315
#     4   9  18  31  47  71 101 132 168 210 255 304
#     4   9  19  35  55  78 107 142 179 218 262 317
#     4  10  20  34  51  69  97 140 180 210 246 302
#     4  10  20  32  49  75 105 134 169 213 259 304
#     4  10  20  34  55  81 108 139 176 222 270 315
#     4  10  21  37  56  78 106 140 178 219 265 322
#     4  10  18  29  50  76 102 130 163 212 263 305
#
# _framework density 17.505568
#
# number of rings (size 3 to 8) (size 9 to 14) (size 15 to 20)
#    0.000    2.250    1.250    1.875    0.000    4.000 
#    0.000    1.250    0.000    0.750    0.000    1.750 
#    0.000    0.000    0.000    0.000    0.000    0.000 
#
# Total GULP energy -356840.824740 kJ/mol
# GULP energy per Si atom -5575.637887 kJ/mol
# Density = 1.746572 g / cm^3
# Si number density = 17.505568 Si / 1000 Ang^3
#
#
#
# Elastic Constant Matrix: (Units=GPa)
#
#
# Indices 1 2 3 4 5 6 
#
# 1 27.9154 13.1958 27.3129 0.0000 0.0000 0.0000
# 2 13.1958 22.9054 12.2757 0.0000 0.0000 0.0000
# 3 27.3129 12.2757 92.6612 0.0000 0.0000 0.0000
# 4 0.0000 0.0000 0.0000 10.9656 0.0000 0.0000
# 5 0.0000 0.0000 0.0000 0.0000 31.1048 0.0000
# 6 0.0000 0.0000 0.0000 0.0000 0.0000 15.6041
#
#
#
# Elastic Compliance Matrix: (Units=1/GPa)
#
#
# Indices 1 2 3 4 5 6 
#
# 1 0.064292 -0.028937 -0.015117 0.000000 0.000000 0.000000
# 2 -0.028937 0.060018 0.000578 0.000000 0.000000 0.000000
# 3 -0.015117 0.000578 0.015171 0.000000 0.000000 0.000000
# 4 0.000000 0.000000 0.000000 0.091194 0.000000 0.000000
# 5 0.000000 0.000000 0.000000 0.000000 0.032149 0.000000
# 6 0.000000 0.000000 0.000000 0.000000 0.000000 0.064086
#
#
# Mechanical properties :
#
#
# Convention : Reuss Voigt Hill
#
# Bulk Modulus (GPa) = 19.03669 27.67232 23.35450
# Shear Modulus (GPa) = 11.59090 17.58140 14.58615
#
# Velocity S-wave (km/s) = 2.57597 3.17256 2.88970
# Velocity P-wave (km/s) = 4.44362 5.40946 4.95015
#
# Compressibility (1/GPa) = 0.05253015
#
# Stress axis : x y z
#
# Youngs Moduli (GPa) = 15.55401 16.66157 65.91362
#
# Poissons Ratio (x) = 0.48213 0.99643
# Poissons Ratio (y) = 0.45008 -0.03811
# Poissons Ratio (z) = 0.23513 -0.00963
#
# Static dielectric constant tensor:
#      x y z
#    x 1.600470 0.000000 0.000000 
#    y 0.000000 1.595900 0.000000 
#    z 0.000000 0.000000 1.584550 
# 
# From -- ./inp_files/26205.got.cif
#   From: 2010.05.17/outbox.cif.g08.bks.cpg/sg59_14_cif.got.tgz:26205.got - 2010.06.03 14:40:33.
