data_PCOD9446406
_publ_section_title
;
Structure prediction by ZEFSAII (Michael W. Deem and Ramdas Pophale) SiO2 
 PCOD9446406
Probable space group: P M M N
;
_chemical_formula_sum "Si O2"
_cell_formula_units_Z 56
_cell_length_a 19.892766
_cell_length_b 8.925568
_cell_length_c 15.935720
_cell_angle_alpha 90.000000
_cell_angle_beta 90.000000
_cell_angle_gamma 90.000000
_cell_volume 2829.454584
_symmetry_space_group_name_H-M "P M M N"
_symmetry_group_IT_number 59
_space_group.IT_coordinate_system_code '2'
_symmetry_cell_setting 'orthorhombic'
loop_
_space_group_symop_operation_xyz
x,y,z
1/2-x,1/2-y,z
1/2+x,-y,-z
-x,1/2+y,-z
-x,-y,-z
1/2+x,1/2+y,-z
1/2-x,y,z
x,1/2-y,z
loop_
_atom_site_type_symbol
_atom_site_label
_atom_site_fract_x
_atom_site_fract_y
_atom_site_fract_z
Si Si1 0.114294 0.927147 0.746299
Si Si2 0.425980 0.569922 0.089480
Si Si3 0.504215 0.578277 0.355863
Si Si4 0.635220 0.569877 0.597111
Si Si5 0.323772 0.927878 0.233040
Si Si6 0.584475 0.928753 0.086055
Si Si7 0.351711 0.078848 0.583203
O O1 0.117324 0.750000 0.750813
O O2 0.125283 0.000764 0.836631
O O3 0.159859 0.987035 0.668591
O O4 0.039751 0.983526 0.717604
O O5 0.420886 0.750000 0.081187
O O6 0.382788 0.524632 0.170307
O O7 0.504963 0.532948 0.097357
O O8 0.398267 0.494110 0.005016
O O9 0.491325 0.750000 0.328414
O O10 0.438207 0.503243 0.391133
O O11 0.566234 0.583356 0.421063
O O12 0.631100 0.750000 0.594616
O O13 0.672870 0.514990 0.679745
O O14 0.668052 0.521538 0.508321
O O15 0.250000 0.949310 0.194085
O O16 0.331823 0.750000 0.249830
O O17 0.590922 0.750000 0.087755
O O18 0.329073 0.250000 0.595072
#
# Coordination Sequence:
#
# PCOD9446406 Si02
#       7
#     8   8   8   8   8   8   8
#     4  10  18  27  43  68 100 133 165 199 241 303
#     4   9  19  34  51  71  98 132 173 217 259 313
#     4   9  17  29  43  64 101 138 168 203 246 298
#     4  11  20  31  49  71  96 131 175 218 258 300
#     4  10  22  39  56  74 100 139 182 221 262 307
#     4  10  18  30  50  76 105 135 165 206 267 326
#     4   8  18  31  43  66 101 137 169 205 251 302
#
# _framework density 19.791799999999999
#
# number of rings (size 3 to 8) (size 9 to 14) (size 15 to 20)
#    0.857    1.571    0.000    3.429    0.000    3.714 
#    0.000    0.000    0.000    0.000    0.000    1.000 
#    0.000    5.714    0.000    0.000    0.000    0.000 
#
# Total GULP energy -312026.968025 kJ/mol
# GULP energy per Si atom -5571.910143 kJ/mol
# Density = 1.974675 g / cm^3
# Si number density = 19.791800 Si / 1000 Ang^3
#
#
#
# Elastic Constant Matrix: (Units=GPa)
#
#
# Indices 1 2 3 4 5 6 
#
# 1 48.8898 4.0929 9.7692 0.0000 0.0000 0.0000
# 2 4.0929 61.5409 48.8650 0.0000 0.0000 0.0000
# 3 9.7692 48.8650 154.3569 0.0000 0.0000 0.0000
# 4 0.0000 0.0000 0.0000 31.9785 0.0000 0.0000
# 5 0.0000 0.0000 0.0000 0.0000 -6.7428 0.0000
# 6 0.0000 0.0000 0.0000 0.0000 0.0000 3.9153
#
#
#
# Elastic Compliance Matrix: (Units=1/GPa)
#
#
# Indices 1 2 3 4 5 6 
#
# 1 0.020725 -0.000450 -0.001169 0.000000 0.000000 0.000000
# 2 -0.000450 0.021715 -0.006846 0.000000 0.000000 0.000000
# 3 -0.001169 -0.006846 0.008720 0.000000 0.000000 0.000000
# 4 0.000000 0.000000 0.000000 0.031271 0.000000 0.000000
# 5 0.000000 0.000000 0.000000 0.000000 -0.148307 0.000000
# 6 0.000000 0.000000 0.000000 0.000000 0.000000 0.255412
#
#
# Mechanical properties :
#
#
# Convention : Reuss Voigt Hill
#
# Bulk Modulus (GPa) = 29.21413 43.36020 36.28717
# Shear Modulus (GPa) = 22.94879 19.30089 21.12484
#
# Velocity S-wave (km/s) = 3.40885 3.12620 3.27058
# Velocity P-wave (km/s) = 5.50331 5.91494 5.71284
#
# Compressibility (1/GPa) = 0.03423001
#
# Stress axis : x y z
#
# Youngs Moduli (GPa) = 48.24977 46.05096 114.68272
#
# Poissons Ratio (x) = 0.02072 0.13409
# Poissons Ratio (y) = 0.02171 0.78511
# Poissons Ratio (z) = 0.05642 0.31526
#
# Static dielectric constant tensor:
#      x y z
#    x 1.246210 0.000000 0.000000 
#    y 0.000000 1.657960 0.000000 
#    z 0.000000 0.000000 1.723860 
# 
# From -- ./inp_files/28358.got.cif
#   From: 2010.05.17/outbox.cif.g08.bks.cpg/sg59_15_cif.got.tgz:28358.got - 2010.06.03 14:40:33.
