data_PCOD9446218
_publ_section_title
;
Structure prediction by ZEFSAII (Michael W. Deem and Ramdas Pophale) SiO2 
 PCOD9446218
Probable space group: P M M N
;
_chemical_formula_sum "Si O2"
_cell_formula_units_Z 64
_cell_length_a 31.368548
_cell_length_b 7.658454
_cell_length_c 15.239670
_cell_angle_alpha 90.000000
_cell_angle_beta 90.000000
_cell_angle_gamma 90.000000
_cell_volume 3661.095751
_symmetry_space_group_name_H-M "P M M N"
_symmetry_group_IT_number 59
_space_group.IT_coordinate_system_code '2'
_symmetry_cell_setting 'orthorhombic'
loop_
_space_group_symop_operation_xyz
x,y,z
1/2-x,1/2-y,z
1/2+x,-y,-z
-x,1/2+y,-z
-x,-y,-z
1/2+x,1/2+y,-z
1/2-x,y,z
x,1/2-y,z
loop_
_atom_site_type_symbol
_atom_site_label
_atom_site_fract_x
_atom_site_fract_y
_atom_site_fract_z
Si Si1 0.383520 0.959319 0.425555
Si Si2 0.068981 0.961884 0.250524
Si Si3 0.115859 0.963062 0.070933
Si Si4 0.797694 0.043334 0.855039
Si Si5 0.797875 0.542664 0.654396
Si Si6 0.542541 0.460833 0.057068
Si Si7 0.471375 0.951801 0.748066
Si Si8 0.043414 0.960999 0.554349
O O1 0.386452 0.750000 0.427204
O O2 0.404228 0.020243 0.334238
O O3 0.414632 0.023781 0.502341
O O4 0.333723 0.001467 0.417297
O O5 0.065213 0.750000 0.252986
O O6 0.091779 0.009738 0.160647
O O7 0.022385 0.040802 0.254340
O O8 0.117263 0.750000 0.066917
O O9 0.164312 0.026289 0.083958
O O10 0.085153 0.022355 0.992753
O O11 0.750000 0.968686 0.865976
O O12 0.795101 0.250000 0.872282
O O13 0.809474 0.026435 0.751764
O O14 0.750000 0.477757 0.633919
O O15 0.796114 0.750000 0.663003
O O16 0.544012 0.250000 0.061165
O O17 0.540498 0.529050 0.156903
O O18 0.500000 0.500000 0.000000
O O19 0.456864 0.750000 0.748900
O O20 0.457559 0.029219 0.654274
O O21 0.044934 0.750000 0.558919
O O22 0.000000 0.000000 0.500000
#
# Coordination Sequence:
#
# PCOD9446218 Si02
#       8
#     8   8   8   8   8   8   8   8
#     4  10  19  31  46  64  87 121 157 183 217 266
#     4  10  17  27  44  64  88 118 152 186 217 255
#     4   9  16  27  42  62  86 115 147 178 213 253
#     4   9  16  28  46  65  86 114 148 180 212 261
#     4  10  20  31  44  66  94 118 142 180 229 272
#     4  10  19  30  44  62  88 119 151 183 219 259
#     4  10  20  31  43  64  91 119 152 190 227 259
#     4  10  20  32  46  66  91 119 155 191 227 269
#
# _framework density 17.481103999999998
#
# number of rings (size 3 to 8) (size 9 to 14) (size 15 to 20)
#    0.000    2.250    3.750    0.375    0.000    1.750 
#    0.000    0.625    0.000    0.000    0.000    0.875 
#    0.000    5.000    0.000    3.375    0.000    3.000 
#
# Total GULP energy -356737.380357 kJ/mol
# GULP energy per Si atom -5574.021568 kJ/mol
# Density = 1.744132 g / cm^3
# Si number density = 17.481104 Si / 1000 Ang^3
#
#
#
# Elastic Constant Matrix: (Units=GPa)
#
#
# Indices 1 2 3 4 5 6 
#
# 1 141.1262 0.3821 74.6045 0.0000 0.0000 0.0000
# 2 0.3821 32.4964 8.0604 0.0000 0.0000 0.0000
# 3 74.6045 8.0604 137.9509 0.0000 0.0000 0.0000
# 4 0.0000 0.0000 0.0000 2.3372 0.0000 0.0000
# 5 0.0000 0.0000 0.0000 0.0000 23.2093 0.0000
# 6 0.0000 0.0000 0.0000 0.0000 0.0000 16.4078
#
#
#
# Elastic Compliance Matrix: (Units=1/GPa)
#
#
# Indices 1 2 3 4 5 6 
#
# 1 0.009971 0.001238 -0.005465 0.000000 0.000000 0.000000
# 2 0.001238 0.031379 -0.002503 0.000000 0.000000 0.000000
# 3 -0.005465 -0.002503 0.010351 0.000000 0.000000 0.000000
# 4 0.000000 0.000000 0.000000 0.427865 0.000000 0.000000
# 5 0.000000 0.000000 0.000000 0.000000 0.043086 0.000000
# 6 0.000000 0.000000 0.000000 0.000000 0.000000 0.060946
#
#
# Mechanical properties :
#
#
# Convention : Reuss Voigt Hill
#
# Bulk Modulus (GPa) = 26.14963 53.07416 39.61190
# Shear Modulus (GPa) = 8.19934 23.62598 15.91266
#
# Velocity S-wave (km/s) = 2.16808 3.68028 3.02035
# Velocity P-wave (km/s) = 4.61072 6.96320 5.90529
#
# Compressibility (1/GPa) = 0.03824146
#
# Stress axis : x y z
#
# Youngs Moduli (GPa) = 100.28592 31.86855 96.61188
#
# Poissons Ratio (x) = -0.03946 0.52798
# Poissons Ratio (y) = -0.12418 0.24183
# Poissons Ratio (z) = 0.54806 0.07977
#
# Static dielectric constant tensor:
#      x y z
#    x 1.622430 0.000000 0.000000 
#    y 0.000000 1.660860 0.000000 
#    z 0.000000 0.000000 1.606250 
# 
# From -- ./inp_files/25032.got.cif
#   From: 2010.05.17/outbox.cif.g08.bks.cpg/sg59_13_cif.got.tgz:25032.got - 2010.06.03 14:40:33.
