data_PCOD9446136
_publ_section_title
;
Structure prediction by ZEFSAII (Michael W. Deem and Ramdas Pophale) SiO2 
 PCOD9446136
Probable space group: P M M N
;
_chemical_formula_sum "Si O2"
_cell_formula_units_Z 56
_cell_length_a 7.766251
_cell_length_b 21.776951
_cell_length_c 16.522126
_cell_angle_alpha 90.000000
_cell_angle_beta 90.000000
_cell_angle_gamma 90.000000
_cell_volume 2794.308979
_symmetry_space_group_name_H-M "P M M N"
_symmetry_group_IT_number 59
_space_group.IT_coordinate_system_code '2'
_symmetry_cell_setting 'orthorhombic'
loop_
_space_group_symop_operation_xyz
x,y,z
1/2-x,1/2-y,z
1/2+x,-y,-z
-x,1/2+y,-z
-x,-y,-z
1/2+x,1/2+y,-z
1/2-x,y,z
x,1/2-y,z
loop_
_atom_site_type_symbol
_atom_site_label
_atom_site_fract_x
_atom_site_fract_y
_atom_site_fract_z
Si Si1 0.454143 0.496521 0.906426
Si Si2 0.960258 0.883302 0.199015
Si Si3 0.459793 0.873450 0.485588
Si Si4 0.546491 0.461055 0.647460
Si Si5 0.457350 0.750000 0.386646
Si Si6 0.546437 0.573107 0.755139
Si Si7 0.947785 0.750000 0.202609
Si Si8 0.954558 0.180335 0.348427
O O1 0.250000 0.494954 0.900726
O O2 0.519447 0.433683 0.865499
O O3 0.511999 0.550555 0.846130
O O4 0.500000 0.500000 0.000000
O O5 0.750000 0.882078 0.202308
O O6 0.024620 0.815348 0.178701
O O7 0.023695 0.907132 0.285961
O O8 0.250000 0.878326 0.487091
O O9 0.524475 0.932992 0.436279
O O10 0.501063 0.811271 0.436299
O O11 0.523155 0.860027 0.576124
O O12 0.750000 0.471581 0.636099
O O13 0.472456 0.521458 0.692246
O O14 0.250000 0.750000 0.374461
O O15 0.546437 0.750000 0.300114
O O16 0.750000 0.573347 0.744384
O O17 0.481314 0.639997 0.731211
O O18 0.750000 0.750000 0.174292
O O19 0.750000 0.185670 0.361844
O O20 0.023531 0.250000 0.346555
#
# Coordination Sequence:
#
# PCOD9446136 Si02
#       8
#     8   8   8   8   4   8   4   8
#     4  10  20  37  61  84 104 132 169 211 260 318
#     4   9  18  30  47  74 107 138 166 198 249 309
#     4   9  16  28  48  73 100 137 186 227 258 297
#     4   9  17  30  49  73 103 137 176 219 258 303
#     4  10  16  26  46  70  97 138 185 218 247 292
#     4  10  21  36  54  80 109 136 170 217 272 322
#     4  10  18  28  44  72 109 140 163 200 251 306
#     4  10  20  35  54  74 100 141 189 229 264 309
#
# _framework density 20.040732999999999
#
# number of rings (size 3 to 8) (size 9 to 14) (size 15 to 20)
#    0.000    2.429    2.143    0.857    0.000    2.000 
#    0.000    1.429    1.571    0.000    0.000    0.000 
#    0.000    0.000    0.000    0.000    0.000    0.000 
#
# Total GULP energy -312341.461612 kJ/mol
# GULP energy per Si atom -5577.526100 kJ/mol
# Density = 1.999512 g / cm^3
# Si number density = 20.040733 Si / 1000 Ang^3
#
#
#
# Elastic Constant Matrix: (Units=GPa)
#
#
# Indices 1 2 3 4 5 6 
#
# 1 31.7117 -0.5472 -0.6463 0.0000 0.0000 0.0000
# 2 -0.5472 82.0755 61.8275 0.0000 0.0000 0.0000
# 3 -0.6463 61.8275 102.7418 0.0000 0.0000 0.0000
# 4 0.0000 0.0000 0.0000 18.1036 0.0000 0.0000
# 5 0.0000 0.0000 0.0000 0.0000 12.0944 0.0000
# 6 0.0000 0.0000 0.0000 0.0000 0.0000 9.9623
#
#
#
# Elastic Compliance Matrix: (Units=1/GPa)
#
#
# Indices 1 2 3 4 5 6 
#
# 1 0.031539 0.000111 0.000131 0.000000 0.000000 0.000000
# 2 0.000111 0.022287 -0.013411 0.000000 0.000000 0.000000
# 3 0.000131 -0.013411 0.017805 0.000000 0.000000 0.000000
# 4 0.000000 0.000000 0.000000 0.055238 0.000000 0.000000
# 5 0.000000 0.000000 0.000000 0.000000 0.082683 0.000000
# 6 0.000000 0.000000 0.000000 0.000000 0.000000 0.100378
#
#
# Mechanical properties :
#
#
# Convention : Reuss Voigt Hill
#
# Bulk Modulus (GPa) = 22.07826 37.53299 29.80562
# Shear Modulus (GPa) = 14.23023 18.42506 16.32764
#
# Velocity S-wave (km/s) = 2.66760 3.03542 2.85743
# Velocity P-wave (km/s) = 4.53086 5.57261 5.07852
#
# Compressibility (1/GPa) = 0.04529343
#
# Stress axis : x y z
#
# Youngs Moduli (GPa) = 31.70710 44.86843 56.16536
#
# Poissons Ratio (x) = -0.00499 -0.00738
# Poissons Ratio (y) = -0.00353 0.75325
# Poissons Ratio (z) = -0.00417 0.60174
#
# Static dielectric constant tensor:
#      x y z
#    x 1.914470 0.000000 0.000000 
#    y 0.000000 1.752100 0.000000 
#    z 0.000000 0.000000 1.668820 
# 
# From -- ./inp_files/21215.got.cif
#   From: 2010.05.17/outbox.cif.g08.bks.cpg/sg59_11_cif.got.tgz:21215.got - 2010.06.03 14:40:33.
