data_PCOD9446072
_publ_section_title
;
Structure prediction by ZEFSAII (Michael W. Deem and Ramdas Pophale) SiO2 
 PCOD9446072
Probable space group: P N N M
;
_chemical_formula_sum "Si O2"
_cell_formula_units_Z 40
_cell_length_a 9.000000
_cell_length_b 24.000000
_cell_length_c 9.000000
_cell_angle_alpha 90.000000
_cell_angle_beta 90.000000
_cell_angle_gamma 90.000000
_cell_volume 1944.000000
_symmetry_space_group_name_H-M "P N N M"
_symmetry_group_IT_number 58
_symmetry_cell_setting 'orthorhombic'
loop_
_space_group_symop_operation_xyz
x,y,z
-x,-y,z
1/2+x,1/2-y,1/2-z
1/2-x,1/2+y,1/2-z
-x,-y,-z
x,y,-z
1/2-x,1/2+y,1/2+z
1/2+x,1/2-y,1/2+z
loop_
_atom_site_type_symbol
_atom_site_label
_atom_site_fract_x
_atom_site_fract_y
_atom_site_fract_z
Si Si1 0.224489 0.384648 0.669407
Si Si2 0.195503 0.119371 0.675404
Si Si3 0.172743 0.498667 0.821330
Si Si4 0.439505 0.187504 0.828520
Si Si5 0.968466 0.197259 0.823767
O O1 0.271157 0.396228 0.500000
O O2 0.242254 0.441362 0.760553
O O3 0.308709 0.328339 0.716884
O O4 0.056797 0.362819 0.669168
O O5 0.158383 0.119032 0.500000
O O6 0.247685 0.057002 0.718660
O O7 0.321670 0.165120 0.709687
O O8 0.067289 0.144349 0.777269
O O9 0.000000 0.500000 0.771801
O O10 0.173609 0.496080 0.000000
O O11 0.498227 0.247121 0.770623
O O12 0.384891 0.193992 0.000000
O O13 0.978782 0.208917 0.000000
#
# Coordination Sequence:
#
# PCOD9446072 Si02
#       5
#     8   8   8   8   8
#     4  10  23  40  61  89 121 156 199 249 301 360
#     4  11  23  40  62  90 123 159 202 250 299 360
#     4  10  21  39  63  89 117 155 202 249 299 357
#     4  11  22  39  64  92 120 159 204 248 303 361
#     4  11  24  41  60  89 126 162 201 249 304 360
#
# _framework density 20.576132000000001
#
# number of rings (size 3 to 8) (size 9 to 14) (size 15 to 20)
#    0.000    1.400    2.000    3.000    0.000    6.800 
#    0.000    4.000    0.000    0.000    0.000    0.000 
#    0.000    0.000    0.000    0.000    0.000    0.000 
#
# Total GULP energy -222989.248669 kJ/mol
# GULP energy per Si atom -5574.731217 kJ/mol
# Density = 2.052930 g / cm^3
# Si number density = 20.576132 Si / 1000 Ang^3
#
#
#
# Elastic Constant Matrix: (Units=GPa)
#
#
# Indices 1 2 3 4 5 6 
#
# 1 18.2193 -3.3605 -1.4645 0.0000 0.0000 0.0000
# 2 -3.3605 129.4757 42.8536 0.0000 0.0000 0.0000
# 3 -1.4645 42.8536 40.3008 0.0000 0.0000 0.0000
# 4 0.0000 0.0000 0.0000 42.0073 0.0000 0.0000
# 5 0.0000 0.0000 0.0000 0.0000 21.1185 0.0000
# 6 0.0000 0.0000 0.0000 0.0000 0.0000 8.4553
#
#
#
# Elastic Compliance Matrix: (Units=1/GPa)
#
#
# Indices 1 2 3 4 5 6 
#
# 1 0.055165 0.001185 0.000744 0.000000 0.000000 0.000000
# 2 0.001185 0.011943 -0.012657 0.000000 0.000000 0.000000
# 3 0.000744 -0.012657 0.038299 0.000000 0.000000 0.000000
# 4 0.000000 0.000000 0.000000 0.023805 0.000000 0.000000
# 5 0.000000 0.000000 0.000000 0.000000 0.047352 0.000000
# 6 0.000000 0.000000 0.000000 0.000000 0.000000 0.118269
#
#
# Mechanical properties :
#
#
# Convention : Reuss Voigt Hill
#
# Bulk Modulus (GPa) = 11.91141 29.33922 20.62531
# Shear Modulus (GPa) = 14.52337 24.31403 19.41870
#
# Velocity S-wave (km/s) = 2.65964 3.44126 3.07538
# Velocity P-wave (km/s) = 3.90296 5.48448 4.75986
#
# Compressibility (1/GPa) = 0.08395315
#
# Stress axis : x y z
#
# Youngs Moduli (GPa) = 18.12737 83.72869 26.11040
#
# Poissons Ratio (x) = -0.09926 -0.01943
# Poissons Ratio (y) = -0.02149 0.33047
# Poissons Ratio (z) = -0.01349 1.05974
#
# Static dielectric constant tensor:
#      x y z
#    x 1.974530 0.000000 0.000000 
#    y 0.000000 1.682590 0.000000 
#    z 0.000000 0.000000 1.696050 
# 
# From -- ./inp_files/2431.got.cif
#   From: 2010.05.17/outbox.ucp.g08.bks.cvg/sg58_2_cif.got.tgz:2431.got - 2010.06.11 16:41:41.
