data_PCOD9446168
_publ_section_title
;
Structure prediction by ZEFSAII (Michael W. Deem and Ramdas Pophale) SiO2 
 PCOD9446168
Probable space group: P M M N
;
_chemical_formula_sum "Si O2"
_cell_formula_units_Z 64
_cell_length_a 7.826158
_cell_length_b 27.385400
_cell_length_c 18.003583
_cell_angle_alpha 90.000000
_cell_angle_beta 90.000000
_cell_angle_gamma 90.000000
_cell_volume 3858.572329
_symmetry_space_group_name_H-M "P M M N"
_symmetry_group_IT_number 59
_space_group.IT_coordinate_system_code '2'
_symmetry_cell_setting 'orthorhombic'
loop_
_space_group_symop_operation_xyz
x,y,z
1/2-x,1/2-y,z
1/2+x,-y,-z
-x,1/2+y,-z
-x,-y,-z
1/2+x,1/2+y,-z
1/2-x,y,z
x,1/2-y,z
loop_
_atom_site_type_symbol
_atom_site_label
_atom_site_fract_x
_atom_site_fract_y
_atom_site_fract_z
Si Si1 0.542448 0.535649 0.324416
Si Si2 0.549021 0.117444 0.207965
Si Si3 0.544616 0.943648 0.483554
Si Si4 0.955266 0.304919 0.090838
Si Si5 0.052737 0.033687 0.101224
Si Si6 0.447049 0.433168 0.834336
Si Si7 0.046296 0.077275 0.357980
Si Si8 0.456576 0.389942 0.979803
O O1 0.750000 0.536519 0.322283
O O2 0.483982 0.563827 0.399079
O O3 0.476243 0.558011 0.247198
O O4 0.495023 0.478561 0.333430
O O5 0.750000 0.111111 0.191936
O O6 0.489457 0.166035 0.165252
O O7 0.455600 0.072080 0.168989
O O8 0.523794 0.113411 0.295619
O O9 0.750000 0.938621 0.482428
O O10 0.481222 0.915998 0.557308
O O11 0.500000 0.000000 0.500000
O O12 0.750000 0.301826 0.093837
O O13 0.023692 0.250000 0.085148
O O14 0.999013 0.340293 0.022190
O O15 0.250000 0.020148 0.088002
O O16 0.984072 0.064644 0.031358
O O17 0.952792 0.985755 0.124986
O O18 0.250000 0.418724 0.822541
O O19 0.521768 0.396589 0.895948
O O20 0.250000 0.081965 0.358659
O O21 0.250000 0.393397 0.978604
#
# Coordination Sequence:
#
# PCOD9446168 Si02
#       8
#     8   8   8   8   8   8   8   8
#     4   9  16  26  39  54  78 114 147 171 201 234
#     4  10  18  28  43  61  81 106 136 170 211 254
#     4   8  15  25  36  52  75 107 142 172 199 228
#     4   9  19  35  51  64  79 102 134 172 212 255
#     4  10  18  27  39  56  82 111 141 172 202 237
#     4  10  18  27  40  58  84 113 142 171 200 238
#     4  10  17  25  38  57  82 107 139 176 202 236
#     4   9  19  31  42  61  84 108 136 168 207 249
#
# _framework density 16.586445999999999
#
# number of rings (size 3 to 8) (size 9 to 14) (size 15 to 20)
#    0.000    2.625    1.250    1.500    0.000    2.250 
#    0.000    0.000    0.000    0.000    0.000    0.000 
#    0.000    1.000    0.000   10.250    0.000    0.750 
#
# Total GULP energy -356428.912793 kJ/mol
# GULP energy per Si atom -5569.201762 kJ/mol
# Density = 1.654869 g / cm^3
# Si number density = 16.586446 Si / 1000 Ang^3
#
#
#
# Elastic Constant Matrix: (Units=GPa)
#
#
# Indices 1 2 3 4 5 6 
#
# 1 27.1363 0.3587 3.5641 0.0000 0.0000 0.0000
# 2 0.3587 59.1212 54.8903 0.0000 0.0000 0.0000
# 3 3.5641 54.8903 161.5585 0.0000 0.0000 0.0000
# 4 0.0000 0.0000 0.0000 10.1160 0.0000 0.0000
# 5 0.0000 0.0000 0.0000 0.0000 13.5434 0.0000
# 6 0.0000 0.0000 0.0000 0.0000 0.0000 11.5085
#
#
#
# Elastic Compliance Matrix: (Units=1/GPa)
#
#
# Indices 1 2 3 4 5 6 
#
# 1 0.036983 0.000779 -0.001080 0.000000 0.000000 0.000000
# 2 0.000779 0.024725 -0.008418 0.000000 0.000000 0.000000
# 3 -0.001080 -0.008418 0.009073 0.000000 0.000000 0.000000
# 4 0.000000 0.000000 0.000000 0.098854 0.000000 0.000000
# 5 0.000000 0.000000 0.000000 0.000000 0.073836 0.000000
# 6 0.000000 0.000000 0.000000 0.000000 0.000000 0.086892
#
#
# Mechanical properties :
#
#
# Convention : Reuss Voigt Hill
#
# Bulk Modulus (GPa) = 18.74682 40.60469 29.67575
# Shear Modulus (GPa) = 13.67680 19.63378 16.65529
#
# Velocity S-wave (km/s) = 2.87466 3.44426 3.17227
# Velocity P-wave (km/s) = 4.72708 6.35225 5.59894
#
# Compressibility (1/GPa) = 0.05334238
#
# Stress axis : x y z
#
# Youngs Moduli (GPa) = 27.03977 40.44504 110.21144
#
# Poissons Ratio (x) = -0.03150 0.11908
# Poissons Ratio (y) = -0.02106 0.92772
# Poissons Ratio (z) = 0.02922 0.34045
#
# Static dielectric constant tensor:
#      x y z
#    x 1.597710 0.000000 0.000000 
#    y 0.000000 1.520440 0.000000 
#    z 0.000000 0.000000 1.644790 
# 
# From -- ./inp_files/26518.got.cif
#   From: 2010.05.17/outbox.cif.g08.bks.cpg/sg59_14_cif.got.tgz:26518.got - 2010.06.03 14:40:33.
