data_PCOD9446139
_publ_section_title
;
Structure prediction by ZEFSAII (Michael W. Deem and Ramdas Pophale) SiO2 
 PCOD9446139
Probable space group: P M M N
;
_chemical_formula_sum "Si O2"
_cell_formula_units_Z 64
_cell_length_a 7.779139
_cell_length_b 31.108178
_cell_length_c 15.133125
_cell_angle_alpha 90.000000
_cell_angle_beta 90.000000
_cell_angle_gamma 90.000000
_cell_volume 3662.138174
_symmetry_space_group_name_H-M "P M M N"
_symmetry_group_IT_number 59
_space_group.IT_coordinate_system_code '2'
_symmetry_cell_setting 'orthorhombic'
loop_
_space_group_symop_operation_xyz
x,y,z
1/2-x,1/2-y,z
1/2+x,-y,-z
-x,1/2+y,-z
-x,-y,-z
1/2+x,1/2+y,-z
1/2-x,y,z
x,1/2-y,z
loop_
_atom_site_type_symbol
_atom_site_label
_atom_site_fract_x
_atom_site_fract_y
_atom_site_fract_z
Si Si1 0.051227 0.460311 0.667291
Si Si2 0.049916 0.526845 0.136178
Si Si3 0.451981 0.890070 0.465814
Si Si4 0.040789 0.797421 0.504554
Si Si5 0.040867 0.702697 0.712207
Si Si6 0.547034 0.940024 0.957063
Si Si7 0.039058 0.944066 0.634570
Si Si8 0.542352 0.115192 0.201961
O O1 0.250000 0.459168 0.641469
O O2 0.979421 0.506553 0.635578
O O3 0.037294 0.459808 0.773107
O O4 0.968871 0.419617 0.619869
O O5 0.250000 0.520552 0.157016
O O6 0.978921 0.481819 0.096893
O O7 0.032136 0.559508 0.054403
O O8 0.250000 0.884931 0.485331
O O9 0.521117 0.841424 0.459093
O O10 0.520932 0.917056 0.549714
O O11 0.250000 0.795814 0.498100
O O12 0.978771 0.750000 0.475370
O O13 0.998187 0.802343 0.608638
O O14 0.250000 0.702503 0.715788
O O15 0.982324 0.750000 0.741409
O O16 0.980314 0.662021 0.767762
O O17 0.750000 0.946232 0.968771
O O18 0.514528 0.899845 0.894275
O O19 0.250000 0.945066 0.634460
O O20 0.986277 0.919429 0.723918
O O21 0.750000 0.115406 0.203415
#
# Coordination Sequence:
#
# PCOD9446139 Si02
#       8
#     8   8   8   8   8   8   8   8
#     4  11  21  32  45  64  94 128 161 196 233 274
#     4  10  20  34  50  68  89 118 155 194 232 271
#     4  10  18  30  46  66  92 125 163 197 231 274
#     4   8  13  23  42  67  91 116 152 199 240 270
#     4   8  13  22  41  69  95 120 155 197 234 269
#     4  10  20  32  48  70  94 119 150 189 231 277
#     4   9  17  28  43  64  92 127 162 193 224 263
#     4  10  16  27  47  69  95 127 159 191 230 274
#
# _framework density 17.476127999999999
#
# number of rings (size 3 to 8) (size 9 to 14) (size 15 to 20)
#    0.000    2.500    2.500    2.250    0.000    1.000 
#    0.000    1.250    0.000    0.750    0.000    2.625 
#    0.000    7.000    0.000    0.000    0.000    0.000 
#
# Total GULP energy -356837.917322 kJ/mol
# GULP energy per Si atom -5575.592458 kJ/mol
# Density = 1.743635 g / cm^3
# Si number density = 17.476128 Si / 1000 Ang^3
#
#
#
# Elastic Constant Matrix: (Units=GPa)
#
#
# Indices 1 2 3 4 5 6 
#
# 1 23.3875 4.1119 -4.8152 0.0000 0.0000 0.0000
# 2 4.1119 156.1447 50.9451 0.0000 0.0000 0.0000
# 3 -4.8152 50.9451 63.6179 0.0000 0.0000 0.0000
# 4 0.0000 0.0000 0.0000 24.8100 0.0000 0.0000
# 5 0.0000 0.0000 0.0000 0.0000 9.5070 0.0000
# 6 0.0000 0.0000 0.0000 0.0000 0.0000 9.1872
#
#
#
# Elastic Compliance Matrix: (Units=1/GPa)
#
#
# Indices 1 2 3 4 5 6 
#
# 1 0.044498 -0.003074 0.005830 0.000000 0.000000 0.000000
# 2 -0.003074 0.008882 -0.007345 0.000000 0.000000 0.000000
# 3 0.005830 -0.007345 0.022042 0.000000 0.000000 0.000000
# 4 0.000000 0.000000 0.000000 0.040306 0.000000 0.000000
# 5 0.000000 0.000000 0.000000 0.000000 0.105185 0.000000
# 6 0.000000 0.000000 0.000000 0.000000 0.000000 0.108847
#
#
# Mechanical properties :
#
#
# Convention : Reuss Voigt Hill
#
# Bulk Modulus (GPa) = 15.09582 38.18154 26.63868
# Shear Modulus (GPa) = 13.84960 21.56139 17.70549
#
# Velocity S-wave (km/s) = 2.81817 3.51631 3.18641
# Velocity P-wave (km/s) = 4.38704 6.19525 5.36783
#
# Compressibility (1/GPa) = 0.06624350
#
# Stress axis : x y z
#
# Youngs Moduli (GPa) = 22.47268 112.59030 45.36779
#
# Poissons Ratio (x) = 0.34609 -0.26448
# Poissons Ratio (y) = 0.06908 0.33323
# Poissons Ratio (z) = -0.13101 0.82699
#
# Static dielectric constant tensor:
#      x y z
#    x 1.665510 0.000000 0.000000 
#    y 0.000000 1.627360 0.000000 
#    z 0.000000 0.000000 1.567660 
# 
# From -- ./inp_files/21830.got.cif
#   From: 2010.05.17/outbox.cif.g08.bks.cpg/sg59_11_cif.got.tgz:21830.got - 2010.06.03 14:40:33.
