data_PCOD9446477
_publ_section_title
;
Structure prediction by ZEFSAII (Michael W. Deem and Ramdas Pophale) SiO2 
 PCOD9446477
Probable space group: P M M N
;
_chemical_formula_sum "Si O2"
_cell_formula_units_Z 48
_cell_length_a 8.891950
_cell_length_b 22.018316
_cell_length_c 15.633489
_cell_angle_alpha 90.000000
_cell_angle_beta 90.000000
_cell_angle_gamma 90.000000
_cell_volume 3060.814603
_symmetry_space_group_name_H-M "P M M N"
_symmetry_group_IT_number 59
_space_group.IT_coordinate_system_code '2'
_symmetry_cell_setting 'orthorhombic'
loop_
_space_group_symop_operation_xyz
x,y,z
1/2-x,1/2-y,z
1/2+x,-y,-z
-x,1/2+y,-z
-x,-y,-z
1/2+x,1/2+y,-z
1/2-x,y,z
x,1/2-y,z
loop_
_atom_site_type_symbol
_atom_site_label
_atom_site_fract_x
_atom_site_fract_y
_atom_site_fract_z
Si Si1 0.430472 0.912524 0.550034
Si Si2 0.570141 0.042281 0.802438
Si Si3 0.429137 0.047008 0.621330
Si Si4 0.568496 0.319771 0.303964
Si Si5 0.430374 0.065091 0.974642
Si Si6 0.569993 0.901215 0.841987
O O1 0.250000 0.910110 0.537825
O O2 0.510124 0.914319 0.458446
O O3 0.478090 0.858377 0.612634
O O4 0.464551 0.976689 0.596792
O O5 0.750000 0.046542 0.805764
O O6 0.507405 0.061744 0.710833
O O7 0.498837 0.078616 0.882036
O O8 0.529392 0.970631 0.815493
O O9 0.250000 0.052467 0.629054
O O10 0.750000 0.320951 0.301970
O O11 0.518684 0.250000 0.307257
O O12 0.508606 0.354318 0.220631
O O13 0.250000 0.060198 0.969121
O O14 0.466797 0.106280 0.057256
O O15 0.500000 0.000000 0.000000
O O16 0.750000 0.896124 0.832884
#
# Coordination Sequence:
#
# PCOD9446477 Si02
#       6
#     8   8   8   8   8   8
#     4   9  18  31  44  64  92 122 154 194 236 277
#     4  10  18  28  44  68  95 124 153 186 229 280
#     4  10  18  28  46  68  91 124 155 189 236 285
#     4  10  20  33  49  68  91 123 161 196 232 274
#     4   9  17  28  42  64  92 122 153 185 223 270
#     4   9  18  30  44  64  92 123 154 189 228 272
#
# _framework density 15.6821
#
# number of rings (size 3 to 8) (size 9 to 14) (size 15 to 20)
#    0.000    2.500    1.667    2.500    0.000    5.000 
#    0.000    0.000    0.000    0.000    0.000    1.167 
#    0.000    6.667    0.000    0.000    0.000    0.000 
#
# Total GULP energy -267467.073456 kJ/mol
# GULP energy per Si atom -5572.230697 kJ/mol
# Density = 1.564641 g / cm^3
# Si number density = 15.682100 Si / 1000 Ang^3
#
#
#
# Elastic Constant Matrix: (Units=GPa)
#
#
# Indices 1 2 3 4 5 6 
#
# 1 34.9565 22.9265 55.2503 0.0000 0.0000 0.0000
# 2 22.9265 65.9024 53.6216 0.0000 0.0000 0.0000
# 3 55.2503 53.6216 178.9537 0.0000 0.0000 0.0000
# 4 0.0000 0.0000 0.0000 13.8752 0.0000 0.0000
# 5 0.0000 0.0000 0.0000 0.0000 33.4973 0.0000
# 6 0.0000 0.0000 0.0000 0.0000 0.0000 14.3146
#
#
#
# Elastic Compliance Matrix: (Units=1/GPa)
#
#
# Indices 1 2 3 4 5 6 
#
# 1 0.058534 -0.007483 -0.015830 0.000000 0.000000 0.000000
# 2 -0.007483 0.021023 -0.003989 0.000000 0.000000 0.000000
# 3 -0.015830 -0.003989 0.011670 0.000000 0.000000 0.000000
# 4 0.000000 0.000000 0.000000 0.072071 0.000000 0.000000
# 5 0.000000 0.000000 0.000000 0.000000 0.029853 0.000000
# 6 0.000000 0.000000 0.000000 0.000000 0.000000 0.069859
#
#
# Mechanical properties :
#
#
# Convention : Reuss Voigt Hill
#
# Bulk Modulus (GPa) = 27.30450 60.37882 43.84166
# Shear Modulus (GPa) = 15.15965 22.20503 18.68234
#
# Velocity S-wave (km/s) = 3.11253 3.76699 3.45529
# Velocity P-wave (km/s) = 5.51055 7.58325 6.62842
#
# Compressibility (1/GPa) = 0.03662399
#
# Stress axis : x y z
#
# Youngs Moduli (GPa) = 17.08395 47.56720 85.68615
#
# Poissons Ratio (x) = 0.35597 1.35638
# Poissons Ratio (y) = 0.12785 0.34179
# Poissons Ratio (z) = 0.27043 0.18974
#
# Static dielectric constant tensor:
#      x y z
#    x 1.526630 0.000000 0.000000 
#    y 0.000000 1.496330 0.000000 
#    z 0.000000 0.000000 1.546490 
# 
# From -- ./inp_files/20702.got.cif
#   From: 2010.05.17/outbox.cif.g08.bks.cpg/sg59_11_cif.got.tgz:20702.got - 2010.06.03 14:40:33.
