data_PCOD9446619
_publ_section_title
;
Structure prediction by ZEFSAII (Michael W. Deem and Ramdas Pophale) SiO2 
 PCOD9446619
Probable space group: P M M N
;
_chemical_formula_sum "Si O2"
_cell_formula_units_Z 64
_cell_length_a 20.666437
_cell_length_b 7.383522
_cell_length_c 20.894751
_cell_angle_alpha 90.000000
_cell_angle_beta 90.000000
_cell_angle_gamma 90.000000
_cell_volume 3188.352877
_symmetry_space_group_name_H-M "P M M N"
_symmetry_group_IT_number 59
_space_group.IT_coordinate_system_code '2'
_symmetry_cell_setting 'orthorhombic'
loop_
_space_group_symop_operation_xyz
x,y,z
1/2-x,1/2-y,z
1/2+x,-y,-z
-x,1/2+y,-z
-x,-y,-z
1/2+x,1/2+y,-z
1/2-x,y,z
x,1/2-y,z
loop_
_atom_site_type_symbol
_atom_site_label
_atom_site_fract_x
_atom_site_fract_y
_atom_site_fract_z
Si Si1 0.323860 0.029383 0.553165
Si Si2 0.676181 0.528977 0.593009
Si Si3 0.567267 0.535544 0.689973
Si Si4 0.536408 0.530005 0.830272
Si Si5 0.322993 0.028120 0.931447
Si Si6 0.581493 0.531481 0.335340
Si Si7 0.887822 0.539588 0.195588
Si Si8 0.569953 0.533864 0.968923
O O1 0.250000 0.975586 0.568985
O O2 0.324704 0.250000 0.553611
O O3 0.337828 0.973278 0.480186
O O4 0.376172 0.967566 0.604900
O O5 0.750000 0.475621 0.608689
O O6 0.675123 0.750000 0.593037
O O7 0.622484 0.463886 0.642929
O O8 0.578583 0.750000 0.694782
O O9 0.566364 0.465915 0.763026
O O10 0.494695 0.511644 0.662788
O O11 0.536503 0.750000 0.829769
O O12 0.461478 0.471924 0.829717
O O13 0.569222 0.467038 0.895818
O O14 0.250000 0.976833 0.946886
O O15 0.326080 0.250000 0.930179
O O16 0.343357 0.964201 0.860604
O O17 0.374503 0.964792 0.983996
O O18 0.585344 0.750000 0.333994
O O19 0.609473 0.462704 0.267319
O O20 0.869599 0.750000 0.202706
O O21 0.578371 0.750000 0.965313
O O22 0.500000 0.500000 0.000000
#
# Coordination Sequence:
#
# PCOD9446619 Si02
#       8
#     8   8   8   8   8   8   8   8
#     4   8  14  25  41  62  87 114 146 183 217 251
#     4   8  14  26  44  63  84 114 150 182 214 256
#     4   9  17  29  44  64  89 114 142 179 219 258
#     4   9  17  28  43  64  87 109 139 177 214 252
#     4   9  17  28  42  63  89 112 138 175 216 255
#     4   9  17  27  42  66  91 112 141 180 218 254
#     4   9  16  27  43  62  84 113 144 171 207 256
#     4  10  18  29  47  66  84 112 146 177 213 256
#
# _framework density 20.073060000000002
#
# number of rings (size 3 to 8) (size 9 to 14) (size 15 to 20)
#    0.000    3.125    1.250    0.750    0.000    1.000 
#    0.000    3.125    0.000    6.000    0.000    5.250 
#    0.000    3.000    0.000    0.000    0.000    0.000 
#
# Total GULP energy -356929.521495 kJ/mol
# GULP energy per Si atom -5577.023773 kJ/mol
# Density = 2.002737 g / cm^3
# Si number density = 20.073060 Si / 1000 Ang^3
#
#
#
# Elastic Constant Matrix: (Units=GPa)
#
#
# Indices 1 2 3 4 5 6 
#
# 1 144.8933 -5.6130 123.8799 0.0000 0.0000 0.0000
# 2 -5.6130 68.7274 0.3391 0.0000 0.0000 0.0000
# 3 123.8799 0.3391 171.8806 0.0000 0.0000 0.0000
# 4 0.0000 0.0000 0.0000 -1.0675 0.0000 0.0000
# 5 0.0000 0.0000 0.0000 0.0000 34.7681 0.0000
# 6 0.0000 0.0000 0.0000 0.0000 0.0000 13.9432
#
#
#
# Elastic Compliance Matrix: (Units=1/GPa)
#
#
# Indices 1 2 3 4 5 6 
#
# 1 0.018146 0.001546 -0.013081 0.000000 0.000000 0.000000
# 2 0.001546 0.014682 -0.001144 0.000000 0.000000 0.000000
# 3 -0.013081 -0.001144 0.015248 0.000000 0.000000 0.000000
# 4 0.000000 0.000000 0.000000 -0.936810 0.000000 0.000000
# 5 0.000000 0.000000 0.000000 0.000000 0.028762 0.000000
# 6 0.000000 0.000000 0.000000 0.000000 0.000000 0.071720
#
#
# Mechanical properties :
#
#
# Convention : Reuss Voigt Hill
#
# Bulk Modulus (GPa) = 44.01496 69.19037 56.60267
# Shear Modulus (GPa) = -6.61969 27.32179 10.35105
#
# Velocity S-wave (km/s) = -1.81795 3.69333 2.27330
# Velocity P-wave (km/s) = 4.19146 7.26166 5.92875
#
# Compressibility (1/GPa) = 0.02271955
#
# Stress axis : x y z
#
# Youngs Moduli (GPa) = 55.10983 68.10977 65.58122
#
# Poissons Ratio (x) = -0.10533 0.85788
# Poissons Ratio (y) = -0.08523 0.07500
# Poissons Ratio (z) = 0.72090 0.07789
#
# Static dielectric constant tensor:
#      x y z
#    x 1.662620 0.000000 0.000000 
#    y 0.000000 1.789060 0.000000 
#    z 0.000000 0.000000 1.720450 
# 
# From -- ./inp_files/28322.got.cif
#   From: 2010.05.17/outbox.cif.g08.bks.cpg/sg59_15_cif.got.tgz:28322.got - 2010.06.03 14:40:33.
