data_PCOD9446754
_publ_section_title
;
Structure prediction by ZEFSAII (Michael W. Deem and Ramdas Pophale) SiO2 
 PCOD9446754
Probable space group: P M M N
;
_chemical_formula_sum "Si O2"
_cell_formula_units_Z 64
_cell_length_a 7.503178
_cell_length_b 22.081872
_cell_length_c 18.846779
_cell_angle_alpha 90.000000
_cell_angle_beta 90.000000
_cell_angle_gamma 90.000000
_cell_volume 3122.613806
_symmetry_space_group_name_H-M "P M M N"
_symmetry_group_IT_number 59
_space_group.IT_coordinate_system_code '2'
_symmetry_cell_setting 'orthorhombic'
loop_
_space_group_symop_operation_xyz
x,y,z
1/2-x,1/2-y,z
1/2+x,-y,-z
-x,1/2+y,-z
-x,-y,-z
1/2+x,1/2+y,-z
1/2-x,y,z
x,1/2-y,z
loop_
_atom_site_type_symbol
_atom_site_label
_atom_site_fract_x
_atom_site_fract_y
_atom_site_fract_z
Si Si1 0.462571 0.476874 0.921327
Si Si2 0.467585 0.855587 0.239691
Si Si3 0.536815 0.450304 0.560435
Si Si4 0.468626 0.988690 0.284162
Si Si5 0.053608 0.417704 0.181135
Si Si6 0.954260 0.338508 0.911984
Si Si7 0.532684 0.182294 0.601497
Si Si8 0.961875 0.315051 0.069142
O O1 0.250000 0.476077 0.909300
O O2 0.553818 0.523505 0.868914
O O3 0.542459 0.410933 0.913870
O O4 0.500000 0.500000 0.000000
O O5 0.250000 0.854206 0.237380
O O6 0.521450 0.926590 0.243899
O O7 0.531355 0.825065 0.166308
O O8 0.517977 0.826935 0.315338
O O9 0.500000 0.500000 0.500000
O O10 0.750000 0.445447 0.564288
O O11 0.475176 0.478291 0.635205
O O12 0.474145 0.379346 0.559977
O O13 0.250000 0.990405 0.281904
O O14 0.535606 0.051408 0.249817
O O15 0.250000 0.398005 0.202983
O O16 0.988962 0.366006 0.128047
O O17 0.750000 0.316782 0.911270
O O18 0.036244 0.322367 0.988783
O O19 0.750000 0.182567 0.599518
O O20 0.474766 0.250000 0.578187
O O21 0.750000 0.314469 0.058778
O O22 0.022505 0.250000 0.096569
#
# Coordination Sequence:
#
# PCOD9446754 Si02
#       8
#     8   8   8   8   8   8   8   8
#     4  12  22  31  46  71  98 125 160 207 257 301
#     4   8  13  23  42  68  97 126 157 195 238 288
#     4   9  17  31  52  78 109 137 164 203 247 298
#     4   8  15  28  48  74  99 123 153 195 245 292
#     4  11  20  33  54  73  91 122 164 210 253 298
#     4  10  18  30  48  68  96 130 165 204 249 302
#     4   8  14  25  45  74 104 135 171 207 242 287
#     4  10  22  36  47  65  96 131 167 211 260 306
#
# _framework density 20.495650999999999
#
# number of rings (size 3 to 8) (size 9 to 14) (size 15 to 20)
#    0.000    2.500    2.500    3.000    0.000    0.750 
#    0.000    3.750    0.000    1.125    0.000    3.500 
#    0.000    0.000    0.000    0.000    0.000    0.000 
#
# Total GULP energy -356405.865027 kJ/mol
# GULP energy per Si atom -5568.841641 kJ/mol
# Density = 2.044900 g / cm^3
# Si number density = 20.495651 Si / 1000 Ang^3
#
#
#
# Elastic Constant Matrix: (Units=GPa)
#
#
# Indices 1 2 3 4 5 6 
#
# 1 66.8583 4.8553 3.1270 0.0000 0.0000 0.0000
# 2 4.8553 168.5613 70.6016 0.0000 0.0000 0.0000
# 3 3.1270 70.6016 103.6629 0.0000 0.0000 0.0000
# 4 0.0000 0.0000 0.0000 3.6622 0.0000 0.0000
# 5 0.0000 0.0000 0.0000 0.0000 9.3000 0.0000
# 6 0.0000 0.0000 0.0000 0.0000 0.0000 -2.9981
#
#
#
# Elastic Compliance Matrix: (Units=1/GPa)
#
#
# Indices 1 2 3 4 5 6 
#
# 1 0.014992 -0.000339 -0.000221 0.000000 0.000000 0.000000
# 2 -0.000339 0.008308 -0.005648 0.000000 0.000000 0.000000
# 3 -0.000221 -0.005648 0.013500 0.000000 0.000000 0.000000
# 4 0.000000 0.000000 0.000000 0.273063 0.000000 0.000000
# 5 0.000000 0.000000 0.000000 0.000000 0.107527 0.000000
# 6 0.000000 0.000000 0.000000 0.000000 0.000000 -0.333549
#
#
# Mechanical properties :
#
#
# Convention : Reuss Voigt Hill
#
# Bulk Modulus (GPa) = 41.01209 55.13892 48.07551
# Shear Modulus (GPa) = 47.89898 19.35938 33.62918
#
# Velocity S-wave (km/s) = 4.83953 3.07670 4.05507
# Velocity P-wave (km/s) = 7.16112 6.29147 6.74034
#
# Compressibility (1/GPa) = 0.02438306
#
# Stress axis : x y z
#
# Youngs Moduli (GPa) = 66.70233 120.36543 74.07360
#
# Poissons Ratio (x) = 0.04082 0.01639
# Poissons Ratio (y) = 0.02262 0.41838
# Poissons Ratio (z) = 0.01476 0.67984
#
# Static dielectric constant tensor:
#      x y z
#    x 1.816080 0.000000 0.000000 
#    y 0.000000 1.753680 0.000000 
#    z 0.000000 0.000000 1.783550 
# 
# From -- ./inp_files/26539.got.cif
#   From: 2010.05.17/outbox.cif.g08.bks.cpg/sg59_14_cif.got.tgz:26539.got - 2010.06.03 14:40:33.
