data_PCOD9446798
_publ_section_title
;
Structure prediction by ZEFSAII (Michael W. Deem and Ramdas Pophale) SiO2 
 PCOD9446798
Probable space group: P M M N
;
_chemical_formula_sum "Si O2"
_cell_formula_units_Z 64
_cell_length_a 20.060323
_cell_length_b 7.766465
_cell_length_c 21.004506
_cell_angle_alpha 90.000000
_cell_angle_beta 90.000000
_cell_angle_gamma 90.000000
_cell_volume 3272.455751
_symmetry_space_group_name_H-M "P M M N"
_symmetry_group_IT_number 59
_space_group.IT_coordinate_system_code '2'
_symmetry_cell_setting 'orthorhombic'
loop_
_space_group_symop_operation_xyz
x,y,z
1/2-x,1/2-y,z
1/2+x,-y,-z
-x,1/2+y,-z
-x,-y,-z
1/2+x,1/2+y,-z
1/2-x,y,z
x,1/2-y,z
loop_
_atom_site_type_symbol
_atom_site_label
_atom_site_fract_x
_atom_site_fract_y
_atom_site_fract_z
Si Si1 0.533438 0.552713 0.433233
Si Si2 0.675775 0.541830 0.993629
Si Si3 0.824125 0.456421 0.141753
Si Si4 0.041187 0.043063 0.063269
Si Si5 0.324687 0.954349 0.522414
Si Si6 0.042870 0.051447 0.311234
Si Si7 0.963825 0.461999 0.189295
Si Si8 0.675393 0.958971 0.626269
O O1 0.500000 0.500000 0.500000
O O2 0.516457 0.750000 0.421402
O O3 0.612729 0.531756 0.440759
O O4 0.502130 0.451232 0.374584
O O5 0.750000 0.480195 0.976957
O O6 0.676166 0.750000 0.991255
O O7 0.662763 0.492202 0.067060
O O8 0.616167 0.478800 0.949083
O O9 0.750000 0.525033 0.156892
O O10 0.821651 0.250000 0.149173
O O11 0.887229 0.520041 0.181776
O O12 0.043941 0.250000 0.068341
O O13 0.004230 0.981719 0.126546
O O14 0.000000 0.000000 0.000000
O O15 0.250000 0.018977 0.538318
O O16 0.325827 0.750000 0.533009
O O17 0.334810 0.986963 0.447060
O O18 0.056240 0.250000 0.293651
O O19 0.114567 0.975550 0.330833
O O20 0.001623 0.976841 0.252401
O O21 0.962152 0.250000 0.189884
O O22 0.750000 0.013704 0.645439
O O23 0.673728 0.750000 0.626580
#
# Coordination Sequence:
#
# PCOD9446798 Si02
#       8
#     8   8   8   8   8   8   8   8
#     4  12  23  36  56  81 109 140 177 221 265 315
#     4   9  17  28  44  70 101 130 163 208 261 309
#     4   9  16  28  48  71  95 128 171 214 255 305
#     4  10  18  30  49  72  99 131 168 212 258 307
#     4  10  20  34  55  83 111 139 174 217 266 316
#     4  10  20  35  53  74 105 142 175 217 266 317
#     4   9  18  32  49  72 102 134 172 215 262 309
#     4   9  17  30  50  75 101 133 175 219 263 313
#
# _framework density 19.557179000000001
#
# number of rings (size 3 to 8) (size 9 to 14) (size 15 to 20)
#    0.000    2.250    2.500    1.500    0.000    0.750 
#    0.000    2.500    0.000    6.000    0.000    0.000 
#    0.000    6.000    0.000    0.000    0.000    0.000 
#
# Total GULP energy -357029.600860 kJ/mol
# GULP energy per Si atom -5578.587513 kJ/mol
# Density = 1.951267 g / cm^3
# Si number density = 19.557179 Si / 1000 Ang^3
#
#
#
# Elastic Constant Matrix: (Units=GPa)
#
#
# Indices 1 2 3 4 5 6 
#
# 1 175.3118 -2.4097 65.8736 0.0000 0.0000 0.0000
# 2 -2.4097 32.9396 -9.4872 0.0000 0.0000 0.0000
# 3 65.8736 -9.4872 91.5240 0.0000 0.0000 0.0000
# 4 0.0000 0.0000 0.0000 13.8907 0.0000 0.0000
# 5 0.0000 0.0000 0.0000 0.0000 30.1712 0.0000
# 6 0.0000 0.0000 0.0000 0.0000 0.0000 13.6194
#
#
#
# Elastic Compliance Matrix: (Units=1/GPa)
#
#
# Indices 1 2 3 4 5 6 
#
# 1 0.007856 -0.001086 -0.005767 0.000000 0.000000 0.000000
# 2 -0.001086 0.031443 0.004041 0.000000 0.000000 0.000000
# 3 -0.005767 0.004041 0.015496 0.000000 0.000000 0.000000
# 4 0.000000 0.000000 0.000000 0.071991 0.000000 0.000000
# 5 0.000000 0.000000 0.000000 0.000000 0.033144 0.000000
# 6 0.000000 0.000000 0.000000 0.000000 0.000000 0.073425
#
#
# Mechanical properties :
#
#
# Convention : Reuss Voigt Hill
#
# Bulk Modulus (GPa) = 20.33731 45.30320 32.82025
# Shear Modulus (GPa) = 19.57953 27.92285 23.75119
#
# Velocity S-wave (km/s) = 3.16752 3.78266 3.48867
# Velocity P-wave (km/s) = 4.87842 6.50329 5.74856
#
# Compressibility (1/GPa) = 0.04917071
#
# Stress axis : x y z
#
# Youngs Moduli (GPa) = 127.28881 31.80356 64.53384
#
# Poissons Ratio (x) = 0.03455 0.37217
# Poissons Ratio (y) = 0.13827 -0.26079
# Poissons Ratio (z) = 0.73407 -0.12852
#
# Static dielectric constant tensor:
#      x y z
#    x 1.717700 0.000000 0.000000 
#    y 0.000000 1.720860 0.000000 
#    z 0.000000 0.000000 1.456120 
# 
# From -- ./inp_files/30950.got.cif
#   From: 2010.05.17/outbox.cif.g08.bks.cpg/sg59_16_cif.got.tgz:30950.got - 2010.06.03 14:40:33.
