data_PCOD9446526
_publ_section_title
;
Structure prediction by ZEFSAII (Michael W. Deem and Ramdas Pophale) SiO2 
 PCOD9446526
Probable space group: P M M N
;
_chemical_formula_sum "Si O2"
_cell_formula_units_Z 64
_cell_length_a 20.272351
_cell_length_b 13.701038
_cell_length_c 15.307870
_cell_angle_alpha 90.000000
_cell_angle_beta 90.000000
_cell_angle_gamma 90.000000
_cell_volume 4251.795357
_symmetry_space_group_name_H-M "P M M N"
_symmetry_group_IT_number 59
_space_group.IT_coordinate_system_code '2'
_symmetry_cell_setting 'orthorhombic'
loop_
_space_group_symop_operation_xyz
x,y,z
1/2-x,1/2-y,z
1/2+x,-y,-z
-x,1/2+y,-z
-x,-y,-z
1/2+x,1/2+y,-z
1/2-x,y,z
x,1/2-y,z
loop_
_atom_site_type_symbol
_atom_site_label
_atom_site_fract_x
_atom_site_fract_y
_atom_site_fract_z
Si Si1 0.058358 0.633781 0.276643
Si Si2 0.326145 0.135745 0.153339
Si Si3 0.585579 0.631769 0.334452
Si Si4 0.826908 0.865065 0.167675
Si Si5 0.601229 0.951499 0.010414
Si Si6 0.460645 0.634825 0.068500
Si Si7 0.173092 0.134001 0.501204
Si Si8 0.173802 0.492546 0.327064
O O1 0.064777 0.750000 0.289806
O O2 0.052007 0.618191 0.171878
O O3 0.120529 0.577255 0.315426
O O4 0.989749 0.599813 0.321012
O O5 0.250000 0.122701 0.123705
O O6 0.336640 0.250000 0.168822
O O7 0.374352 0.097498 0.078859
O O8 0.333864 0.077048 0.242873
O O9 0.584724 0.750000 0.335449
O O10 0.628302 0.605085 0.249507
O O11 0.623597 0.602054 0.422122
O O12 0.750000 0.871974 0.189867
O O13 0.840788 0.750000 0.147392
O O14 0.845307 0.929736 0.084569
O O15 0.586047 0.064015 0.988052
O O16 0.534461 0.900046 0.044820
O O17 0.452971 0.750000 0.051341
O O18 0.250000 0.123133 0.528982
O O19 0.163368 0.250000 0.483981
O O20 0.163342 0.071314 0.414033
O O21 0.250000 0.527674 0.327995
#
# Coordination Sequence:
#
# PCOD9446526 Si02
#       8
#     8   8   8   8   8   8   8   8
#     4  10  19  34  51  67  95 128 161 204 241 277
#     4  10  19  30  45  68  97 125 155 194 241 289
#     4   9  17  30  49  73  98 125 155 189 241 294
#     4  10  18  28  46  74 104 127 155 199 246 295
#     4  11  19  30  49  69  94 128 161 198 240 289
#     4  10  20  33  48  67  94 130 167 201 238 281
#     4   9  17  31  51  74 101 127 149 183 235 294
#     4  10  20  33  48  69  95 127 165 197 234 283
#
# _framework density 15.052466000000001
#
# number of rings (size 3 to 8) (size 9 to 14) (size 15 to 20)
#    0.000    2.125    2.500    2.250    0.000    4.750 
#    0.000    0.000    0.000    1.500    0.000    0.875 
#    0.000    2.000    0.000    0.000    0.000    0.000 
#
# Total GULP energy -356769.492580 kJ/mol
# GULP energy per Si atom -5574.523322 kJ/mol
# Density = 1.501821 g / cm^3
# Si number density = 15.052466 Si / 1000 Ang^3
#
#
#
# Elastic Constant Matrix: (Units=GPa)
#
#
# Indices 1 2 3 4 5 6 
#
# 1 98.1775 53.3815 60.5814 0.0000 0.0000 0.0000
# 2 53.3815 67.4642 37.8876 0.0000 0.0000 0.0000
# 3 60.5814 37.8876 94.1644 0.0000 0.0000 0.0000
# 4 0.0000 0.0000 0.0000 15.4600 0.0000 0.0000
# 5 0.0000 0.0000 0.0000 0.0000 26.5446 0.0000
# 6 0.0000 0.0000 0.0000 0.0000 0.0000 23.9964
#
#
#
# Elastic Compliance Matrix: (Units=1/GPa)
#
#
# Indices 1 2 3 4 5 6 
#
# 1 0.023207 -0.012891 -0.009744 0.000000 0.000000 0.000000
# 2 -0.012891 0.026310 -0.002293 0.000000 0.000000 0.000000
# 3 -0.009744 -0.002293 0.017811 0.000000 0.000000 0.000000
# 4 0.000000 0.000000 0.000000 0.064683 0.000000 0.000000
# 5 0.000000 0.000000 0.000000 0.000000 0.037672 0.000000
# 6 0.000000 0.000000 0.000000 0.000000 0.000000 0.041673
#
#
# Mechanical properties :
#
#
# Convention : Reuss Voigt Hill
#
# Bulk Modulus (GPa) = 57.22874 62.61190 59.92032
# Shear Modulus (GPa) = 18.72410 20.39725 19.56067
#
# Velocity S-wave (km/s) = 3.53075 3.68513 3.60877
# Velocity P-wave (km/s) = 7.39755 7.73259 7.56692
#
# Compressibility (1/GPa) = 0.01747374
#
# Stress axis : x y z
#
# Youngs Moduli (GPa) = 43.09022 38.00825 56.14513
#
# Poissons Ratio (x) = 0.48995 0.54707
# Poissons Ratio (y) = 0.55546 0.12872
# Poissons Ratio (z) = 0.41986 0.08714
#
# Static dielectric constant tensor:
#      x y z
#    x 1.508350 0.000000 0.000000 
#    y 0.000000 1.476680 0.000000 
#    z 0.000000 0.000000 1.486940 
# 
# From -- ./inp_files/24003.got.cif
#   From: 2010.05.17/outbox.cif.g08.bks.cpg/sg59_13_cif.got.tgz:24003.got - 2010.06.03 14:40:33.
