data_PCOD9446830
_publ_section_title
;
Structure prediction by ZEFSAII (Michael W. Deem and Ramdas Pophale) SiO2 
 PCOD9446830
Probable space group: P M M N
;
_chemical_formula_sum "Si O2"
_cell_formula_units_Z 64
_cell_length_a 8.504228
_cell_length_b 28.481183
_cell_length_c 15.137645
_cell_angle_alpha 90.000000
_cell_angle_beta 90.000000
_cell_angle_gamma 90.000000
_cell_volume 3666.496170
_symmetry_space_group_name_H-M "P M M N"
_symmetry_group_IT_number 59
_space_group.IT_coordinate_system_code '2'
_symmetry_cell_setting 'orthorhombic'
loop_
_space_group_symop_operation_xyz
x,y,z
1/2-x,1/2-y,z
1/2+x,-y,-z
-x,1/2+y,-z
-x,-y,-z
1/2+x,1/2+y,-z
1/2-x,y,z
x,1/2-y,z
loop_
_atom_site_type_symbol
_atom_site_label
_atom_site_fract_x
_atom_site_fract_y
_atom_site_fract_z
Si Si1 0.940753 0.470251 0.645725
Si Si2 0.437898 0.422926 0.349186
Si Si3 0.562034 0.804099 0.151794
Si Si4 0.059975 0.884562 0.028003
Si Si5 0.560102 0.470630 0.848119
Si Si6 0.939908 0.196138 0.655527
Si Si7 0.562016 0.075064 0.154587
Si Si8 0.440085 0.614968 0.475913
O O1 0.750000 0.470537 0.641341
O O2 0.994965 0.523632 0.629735
O O3 0.982046 0.457866 0.746895
O O4 0.996931 0.431355 0.577149
O O5 0.250000 0.423343 0.351439
O O6 0.491545 0.412303 0.249712
O O7 0.501837 0.388816 0.424297
O O8 0.750000 0.804999 0.154834
O O9 0.510371 0.750000 0.138015
O O10 0.502796 0.838563 0.076036
O O11 0.497222 0.819240 0.247671
O O12 0.250000 0.883381 0.030311
O O13 0.009943 0.930144 0.084949
O O14 0.010171 0.892468 0.926927
O O15 0.750000 0.474930 0.851974
O O16 0.488292 0.521562 0.866759
O O17 0.750000 0.195759 0.656878
O O18 0.992344 0.250000 0.641385
O O19 0.991945 0.160424 0.579494
O O20 0.750000 0.076765 0.160676
O O21 0.250000 0.614551 0.475985
#
# Coordination Sequence:
#
# PCOD9446830 Si02
#       8
#     8   8   8   8   8   8   8   8
#     4   8  15  27  44  67  95 126 157 191 233 282
#     4  10  20  33  47  66  96 132 167 204 247 291
#     4  10  21  35  52  77 106 132 161 201 247 295
#     4  10  20  33  52  75  99 131 170 208 246 294
#     4   9  17  31  49  72 103 134 164 199 243 294
#     4   9  18  33  53  76 102 131 160 194 242 296
#     4  10  20  33  49  72 100 131 169 208 246 290
#     4  10  18  30  50  72  95 126 165 205 242 286
#
# _framework density 17.455355999999998
#
# number of rings (size 3 to 8) (size 9 to 14) (size 15 to 20)
#    0.000    2.500    0.000    3.375    0.000    4.750 
#    0.000    2.500    0.000    0.750    0.000    1.750 
#    0.000    0.000    0.000    0.000    0.000    0.000 
#
# Total GULP energy -357081.686595 kJ/mol
# GULP energy per Si atom -5579.401353 kJ/mol
# Density = 1.741563 g / cm^3
# Si number density = 17.455356 Si / 1000 Ang^3
#
#
#
# Elastic Constant Matrix: (Units=GPa)
#
#
# Indices 1 2 3 4 5 6 
#
# 1 12.8755 18.2963 21.5384 0.0000 0.0000 0.0000
# 2 18.2963 80.4662 85.7814 0.0000 0.0000 0.0000
# 3 21.5384 85.7814 135.1090 0.0000 0.0000 0.0000
# 4 0.0000 0.0000 0.0000 30.9364 0.0000 0.0000
# 5 0.0000 0.0000 0.0000 0.0000 20.5365 0.0000
# 6 0.0000 0.0000 0.0000 0.0000 0.0000 19.4585
#
#
#
# Elastic Compliance Matrix: (Units=1/GPa)
#
#
# Indices 1 2 3 4 5 6 
#
# 1 0.116001 -0.020617 -0.005403 0.000000 0.000000 0.000000
# 2 -0.020617 0.042121 -0.023456 0.000000 0.000000 0.000000
# 3 -0.005403 -0.023456 0.023155 0.000000 0.000000 0.000000
# 4 0.000000 0.000000 0.000000 0.032324 0.000000 0.000000
# 5 0.000000 0.000000 0.000000 0.000000 0.048694 0.000000
# 6 0.000000 0.000000 0.000000 0.000000 0.000000 0.051391
#
#
# Mechanical properties :
#
#
# Convention : Reuss Voigt Hill
#
# Bulk Modulus (GPa) = 12.14682 53.29811 32.72247
# Shear Modulus (GPa) = 11.36158 21.04193 16.20176
#
# Velocity S-wave (km/s) = 2.55403 3.47576 3.04991
# Velocity P-wave (km/s) = 3.95870 6.83433 5.58477
#
# Compressibility (1/GPa) = 0.08232605
#
# Stress axis : x y z
#
# Youngs Moduli (GPa) = 8.62063 23.74114 43.18687
#
# Poissons Ratio (x) = 0.48946 0.23332
# Poissons Ratio (y) = 0.17773 1.01300
# Poissons Ratio (z) = 0.04657 0.55688
#
# Static dielectric constant tensor:
#      x y z
#    x 1.591800 0.000000 0.000000 
#    y 0.000000 1.590050 0.000000 
#    z 0.000000 0.000000 1.589820 
# 
# From -- ./inp_files/21896.got.cif
#   From: 2010.05.17/outbox.cif.g08.bks.cpg/sg59_11_cif.got.tgz:21896.got - 2010.06.03 14:40:33.
