data_PCOD9446850
_publ_section_title
;
Structure prediction by ZEFSAII (Michael W. Deem and Ramdas Pophale) SiO2 
 PCOD9446850
Probable space group: P M M N
;
_chemical_formula_sum "Si O2"
_cell_formula_units_Z 56
_cell_length_a 22.556905
_cell_length_b 7.631830
_cell_length_c 14.933822
_cell_angle_alpha 90.000000
_cell_angle_beta 90.000000
_cell_angle_gamma 90.000000
_cell_volume 2570.864391
_symmetry_space_group_name_H-M "P M M N"
_symmetry_group_IT_number 59
_space_group.IT_coordinate_system_code '2'
_symmetry_cell_setting 'orthorhombic'
loop_
_space_group_symop_operation_xyz
x,y,z
1/2-x,1/2-y,z
1/2+x,-y,-z
-x,1/2+y,-z
-x,-y,-z
1/2+x,1/2+y,-z
1/2-x,y,z
x,1/2-y,z
loop_
_atom_site_type_symbol
_atom_site_label
_atom_site_fract_x
_atom_site_fract_y
_atom_site_fract_z
Si Si1 0.680771 0.957788 0.945911
Si Si2 0.250000 0.035893 0.751024
Si Si3 0.432038 0.537808 0.356577
Si Si4 0.750000 0.451853 0.456676
Si Si5 0.684274 0.453357 0.742408
Si Si6 0.059309 0.545506 0.718552
Si Si7 0.380487 0.964911 0.538631
Si Si8 0.860592 0.545054 0.130160
O O1 0.750000 0.980211 0.971827
O O2 0.670430 0.750000 0.932341
O O3 0.672767 0.041038 0.848868
O O4 0.642699 0.026909 0.029519
O O5 0.250000 0.250000 0.743129
O O6 0.192122 0.977449 0.806127
O O7 0.250000 0.960626 0.651427
O O8 0.432916 0.750000 0.353340
O O9 0.372438 0.472164 0.308015
O O10 0.491324 0.476824 0.308479
O O11 0.425609 0.484746 0.460270
O O12 0.750000 0.250000 0.487190
O O13 0.686182 0.526262 0.484005
O O14 0.750000 0.531118 0.726591
O O15 0.687633 0.250000 0.714613
O O16 0.072731 0.750000 0.724420
O O17 0.097951 0.471793 0.635542
O O18 0.079571 0.469904 0.813323
O O19 0.378938 0.750000 0.541498
O O20 0.846706 0.750000 0.118503
#
# Coordination Sequence:
#
# PCOD9446850 Si02
#       8
#     8   4   8   4   8   8   8   8
#     4   9  17  32  55  81 109 140 173 212 265 324
#     4  10  18  30  50  77 110 142 174 213 258 313
#     4  10  21  38  57  76 103 143 184 219 263 316
#     4  10  18  32  52  79 112 140 172 217 268 313
#     4   9  19  35  56  82 107 132 172 225 271 313
#     4  11  22  36  53  79 110 143 182 222 262 309
#     4   9  19  33  54  80 107 141 179 217 261 313
#     4  10  19  33  54  80 110 144 178 211 258 321
#
# _framework density 21.782557000000001
#
# number of rings (size 3 to 8) (size 9 to 14) (size 15 to 20)
#    0.000    2.286    2.143    0.857    1.000    1.143 
#    0.000    2.143    0.000    0.000    0.000    0.000 
#    0.000    0.000    0.000    0.000    0.000    0.000 
#
# Total GULP energy -312640.595159 kJ/mol
# GULP energy per Si atom -5582.867771 kJ/mol
# Density = 2.173298 g / cm^3
# Si number density = 21.782557 Si / 1000 Ang^3
#
#
#
# Elastic Constant Matrix: (Units=GPa)
#
#
# Indices 1 2 3 4 5 6 
#
# 1 91.1373 -4.8739 17.7701 0.0000 0.0000 0.0000
# 2 -4.8739 44.4838 -1.7724 0.0000 0.0000 0.0000
# 3 17.7701 -1.7724 51.4331 0.0000 0.0000 0.0000
# 4 0.0000 0.0000 0.0000 -38.6598 0.0000 0.0000
# 5 0.0000 0.0000 0.0000 0.0000 26.3865 0.0000
# 6 0.0000 0.0000 0.0000 0.0000 0.0000 12.3826
#
#
#
# Elastic Compliance Matrix: (Units=1/GPa)
#
#
# Indices 1 2 3 4 5 6 
#
# 1 0.011822 0.001134 -0.004045 0.000000 0.000000 0.000000
# 2 0.001134 0.022620 0.000388 0.000000 0.000000 0.000000
# 3 -0.004045 0.000388 0.020854 0.000000 0.000000 0.000000
# 4 0.000000 0.000000 0.000000 -0.025867 0.000000 0.000000
# 5 0.000000 0.000000 0.000000 0.000000 0.037898 0.000000
# 6 0.000000 0.000000 0.000000 0.000000 0.000000 0.080758
#
#
# Mechanical properties :
#
#
# Convention : Reuss Voigt Hill
#
# Bulk Modulus (GPa) = 19.90120 23.25575 21.57848
# Shear Modulus (GPa) = 29.43222 11.75056 20.59139
#
# Velocity S-wave (km/s) = 3.67983 2.32512 3.07793
# Velocity P-wave (km/s) = 5.21642 4.23175 4.74967
#
# Compressibility (1/GPa) = 0.05024822
#
# Stress axis : x y z
#
# Youngs Moduli (GPa) = 84.58892 44.20903 47.95294
#
# Poissons Ratio (x) = -0.05014 0.19399
# Poissons Ratio (y) = -0.09593 -0.01859
# Poissons Ratio (z) = 0.34219 -0.01714
#
# Static dielectric constant tensor:
#      x y z
#    x 1.791640 0.000000 0.000000 
#    y 0.000000 1.811100 0.000000 
#    z 0.000000 0.000000 1.794420 
# 
# From -- ./inp_files/24333.got.cif
#   From: 2010.05.17/outbox.cif.g08.bks.cpg/sg59_13_cif.got.tgz:24333.got - 2010.06.03 14:40:33.
