data_PCOD9446042
_publ_section_title
;
Structure prediction by ZEFSAII (Michael W. Deem and Ramdas Pophale) SiO2 
 PCOD9446042
Probable space group: P N N M
;
_chemical_formula_sum "Si O2"
_cell_formula_units_Z 48
_cell_length_a 9.000000
_cell_length_b 30.000000
_cell_length_c 9.000000
_cell_angle_alpha 90.000000
_cell_angle_beta 90.000000
_cell_angle_gamma 90.000000
_cell_volume 2430.000000
_symmetry_space_group_name_H-M "P N N M"
_symmetry_group_IT_number 58
_symmetry_cell_setting 'orthorhombic'
loop_
_space_group_symop_operation_xyz
x,y,z
-x,-y,z
1/2+x,1/2-y,1/2-z
1/2-x,1/2+y,1/2-z
-x,-y,-z
x,y,-z
1/2-x,1/2+y,1/2+z
1/2+x,1/2-y,1/2+z
loop_
_atom_site_type_symbol
_atom_site_label
_atom_site_fract_x
_atom_site_fract_y
_atom_site_fract_z
Si Si1 0.081537 0.702603 0.822313
Si Si2 0.066437 0.209581 0.321665
Si Si3 0.171303 0.050088 0.172637
Si Si4 0.715841 0.048152 0.822444
Si Si5 0.559021 0.611528 0.175653
Si Si6 0.462776 0.108052 0.828981
O O1 0.257855 0.706246 0.788819
O O2 0.028422 0.654567 0.758992
O O3 0.002185 0.746420 0.754486
O O4 0.061606 0.702683 0.000000
O O5 0.049324 0.214180 0.500000
O O6 0.992303 0.161616 0.280661
O O7 0.300016 0.086981 0.166141
O O8 0.061027 0.073225 0.287637
O O9 0.223680 0.000621 0.223247
O O10 0.112728 0.046111 0.000000
O O11 0.808676 0.091318 0.772216
O O12 0.555180 0.065109 0.771055
O O13 0.711799 0.044059 0.000000
O O14 0.592175 0.612363 0.000000
O O15 0.508029 0.117568 0.000000
#
# Coordination Sequence:
#
# PCOD9446042 Si02
#       6
#     8   8   8   8   8   8
#     4  11  24  42  65  90 118 153 196 245 297 352
#     4  10  24  44  62  87 121 155 195 244 295 354
#     4  10  20  38  63  88 118 159 202 243 292 348
#     4  10  22  38  59  90 123 157 201 245 286 347
#     4  11  23  40  60  86 123 159 196 245 298 349
#     4  10  21  39  63  89 121 157 196 244 298 349
#
# _framework density 19.753086
#
# number of rings (size 3 to 8) (size 9 to 14) (size 15 to 20)
#    0.000    1.667    1.667    2.000    2.333    8.000 
#    0.000    0.000    0.000    3.000    0.000    0.000 
#    0.000    0.000    0.000    0.000    0.000    0.000 
#
# Total GULP energy -267480.627125 kJ/mol
# GULP energy per Si atom -5572.513065 kJ/mol
# Density = 1.970813 g / cm^3
# Si number density = 19.753086 Si / 1000 Ang^3
#
#
#
# Elastic Constant Matrix: (Units=GPa)
#
#
# Indices 1 2 3 4 5 6 
#
# 1 13.0795 0.3615 -11.4566 0.0000 0.0000 0.0000
# 2 0.3615 121.1153 29.6415 0.0000 0.0000 0.0000
# 3 -11.4566 29.6415 -12.6168 0.0000 0.0000 0.0000
# 4 0.0000 0.0000 0.0000 46.7399 0.0000 0.0000
# 5 0.0000 0.0000 0.0000 0.0000 28.6232 0.0000
# 6 0.0000 0.0000 0.0000 0.0000 0.0000 36.5525
#
#
#
# Elastic Compliance Matrix: (Units=1/GPa)
#
#
# Indices 1 2 3 4 5 6 
#
# 1 0.050541 0.007036 -0.029364 0.000000 0.000000 0.000000
# 2 0.007036 0.006222 0.008229 0.000000 0.000000 0.000000
# 3 -0.029364 0.008229 -0.033264 0.000000 0.000000 0.000000
# 4 0.000000 0.000000 0.000000 0.021395 0.000000 0.000000
# 5 0.000000 0.000000 0.000000 0.000000 0.034937 0.000000
# 6 0.000000 0.000000 0.000000 0.000000 0.000000 0.027358
#
#
# Mechanical properties :
#
#
# Convention : Reuss Voigt Hill
#
# Bulk Modulus (GPa) = -212.72769 17.63007 -97.54881
# Shear Modulus (GPa) = 37.36348 29.25189 33.30769
#
# Velocity S-wave (km/s) = 4.35389 3.85239 4.11079
# Velocity P-wave (km/s) = 9.09132 5.36027 5.19228
#
# Compressibility (1/GPa) = -0.00470085
#
# Stress axis : x y z
#
# Youngs Moduli (GPa) = 19.78609 160.72614 -30.06268
#
# Poissons Ratio (x) = -1.13081 -0.88276
# Poissons Ratio (y) = -0.13921 0.24737
# Poissons Ratio (z) = 0.58100 -1.32254
#
# Static dielectric constant tensor:
#      x y z
#    x 2.051810 0.000000 0.000000 
#    y 0.000000 1.641280 0.000000 
#    z 0.000000 0.000000 1.678950 
# 
# From -- ./inp_files/2881.got.cif
#   From: 2010.05.17/outbox.ucp.g08.bks.cvg/sg58_2_cif.got.tgz:2881.got - 2010.06.11 16:41:41.
