data_PCOD9446574
_publ_section_title
;
Structure prediction by ZEFSAII (Michael W. Deem and Ramdas Pophale) SiO2 
 PCOD9446574
Probable space group: P M M N
;
_chemical_formula_sum "Si O2"
_cell_formula_units_Z 64
_cell_length_a 20.586827
_cell_length_b 9.166778
_cell_length_c 20.932866
_cell_angle_alpha 90.000000
_cell_angle_beta 90.000000
_cell_angle_gamma 90.000000
_cell_volume 3950.343145
_symmetry_space_group_name_H-M "P M M N"
_symmetry_group_IT_number 59
_space_group.IT_coordinate_system_code '2'
_symmetry_cell_setting 'orthorhombic'
loop_
_space_group_symop_operation_xyz
x,y,z
1/2-x,1/2-y,z
1/2+x,-y,-z
-x,1/2+y,-z
-x,-y,-z
1/2+x,1/2+y,-z
1/2-x,y,z
x,1/2-y,z
loop_
_atom_site_type_symbol
_atom_site_label
_atom_site_fract_x
_atom_site_fract_y
_atom_site_fract_z
Si Si1 0.038960 0.078288 0.330512
Si Si2 0.570287 0.918381 0.926702
Si Si3 0.103255 0.417598 0.818013
Si Si4 0.439722 0.573785 0.463492
Si Si5 0.053856 0.581539 0.201010
Si Si6 0.912980 0.418167 0.054554
Si Si7 0.177269 0.572688 0.556457
Si Si8 0.383399 0.578240 0.689428
O O1 0.054041 0.250000 0.335682
O O2 0.960293 0.065630 0.326237
O O3 0.061768 0.989675 0.392255
O O4 0.066114 0.009168 0.265281
O O5 0.590031 0.750000 0.921737
O O6 0.491625 0.919691 0.935958
O O7 0.583190 0.006079 0.861734
O O8 0.599356 0.995022 0.989260
O O9 0.123495 0.250000 0.823718
O O10 0.116323 0.505446 0.882913
O O11 0.130634 0.492250 0.754322
O O12 0.024605 0.419458 0.809000
O O13 0.500000 0.500000 0.500000
O O14 0.446559 0.750000 0.463175
O O15 0.375508 0.533166 0.503458
O O16 0.073679 0.750000 0.207133
O O17 0.893127 0.250000 0.049598
O O18 0.250000 0.522913 0.542155
O O19 0.177260 0.750000 0.558558
O O20 0.154749 0.525067 0.627004
O O21 0.369952 0.750000 0.699416
#
# Coordination Sequence:
#
# PCOD9446574 Si02
#       8
#     8   8   8   8   8   8   8   8
#     4  10  18  29  44  65  88 114 148 189 232 275
#     4   9  15  22  32  47  71 105 141 180 221 266
#     4   9  16  24  35  53  76 104 139 181 223 263
#     4  11  20  32  50  72  93 119 152 192 236 282
#     4   9  16  25  36  54  78 108 143 182 224 269
#     4   9  15  22  32  47  69 102 142 182 218 261
#     4   9  18  33  51  70  92 120 155 192 232 281
#     4   9  16  28  44  62  83 111 146 184 225 269
#
# _framework density 16.201122999999999
#
# number of rings (size 3 to 8) (size 9 to 14) (size 15 to 20)
#    0.000    2.625    1.250    2.250    0.000    6.500 
#    0.000    0.000    0.000    3.375    0.000    0.000 
#    0.000    0.000    0.000    1.125    0.000   23.750 
#
# Total GULP energy -356643.273823 kJ/mol
# GULP energy per Si atom -5572.551153 kJ/mol
# Density = 1.616425 g / cm^3
# Si number density = 16.201123 Si / 1000 Ang^3
#
#
#
# Elastic Constant Matrix: (Units=GPa)
#
#
# Indices 1 2 3 4 5 6 
#
# 1 36.8057 27.8074 38.5378 0.0000 0.0000 0.0000
# 2 27.8074 113.7835 77.2008 0.0000 0.0000 0.0000
# 3 38.5378 77.2008 161.4530 0.0000 0.0000 0.0000
# 4 0.0000 0.0000 0.0000 35.3595 0.0000 0.0000
# 5 0.0000 0.0000 0.0000 0.0000 7.6237 0.0000
# 6 0.0000 0.0000 0.0000 0.0000 0.0000 6.8035
#
#
#
# Elastic Compliance Matrix: (Units=1/GPa)
#
#
# Indices 1 2 3 4 5 6 
#
# 1 0.037790 -0.004611 -0.006815 0.000000 0.000000 0.000000
# 2 -0.004611 0.013572 -0.005389 0.000000 0.000000 0.000000
# 3 -0.006815 -0.005389 0.010397 0.000000 0.000000 0.000000
# 4 0.000000 0.000000 0.000000 0.028281 0.000000 0.000000
# 5 0.000000 0.000000 0.000000 0.000000 0.131170 0.000000
# 6 0.000000 0.000000 0.000000 0.000000 0.000000 0.146984
#
#
# Mechanical properties :
#
#
# Convention : Reuss Voigt Hill
#
# Bulk Modulus (GPa) = 35.55180 66.57046 51.06113
# Shear Modulus (GPa) = 12.15954 21.19041 16.67497
#
# Velocity S-wave (km/s) = 2.74256 3.62050 3.21167
# Velocity P-wave (km/s) = 5.65867 7.65876 6.73339
#
# Compressibility (1/GPa) = 0.02812797
#
# Stress axis : x y z
#
# Youngs Moduli (GPa) = 26.46234 73.68187 96.17935
#
# Poissons Ratio (x) = 0.33977 0.65548
# Poissons Ratio (y) = 0.12203 0.51830
# Poissons Ratio (z) = 0.18035 0.39706
#
# Static dielectric constant tensor:
#      x y z
#    x 1.520520 0.000000 0.000000 
#    y 0.000000 1.542320 0.000000 
#    z 0.000000 0.000000 1.546420 
# 
# From -- ./inp_files/30974.got.cif
#   From: 2010.05.17/outbox.cif.g08.bks.cpg/sg59_16_cif.got.tgz:30974.got - 2010.06.03 14:40:33.
