data_PCOD9446711
_publ_section_title
;
Structure prediction by ZEFSAII (Michael W. Deem and Ramdas Pophale) SiO2 
 PCOD9446711
Probable space group: P M M N
;
_chemical_formula_sum "Si O2"
_cell_formula_units_Z 64
_cell_length_a 7.983659
_cell_length_b 14.457353
_cell_length_c 26.927015
_cell_angle_alpha 90.000000
_cell_angle_beta 90.000000
_cell_angle_gamma 90.000000
_cell_volume 3107.985446
_symmetry_space_group_name_H-M "P M M N"
_symmetry_group_IT_number 59
_space_group.IT_coordinate_system_code '2'
_symmetry_cell_setting 'orthorhombic'
loop_
_space_group_symop_operation_xyz
x,y,z
1/2-x,1/2-y,z
1/2+x,-y,-z
-x,1/2+y,-z
-x,-y,-z
1/2+x,1/2+y,-z
1/2-x,y,z
x,1/2-y,z
loop_
_atom_site_type_symbol
_atom_site_label
_atom_site_fract_x
_atom_site_fract_y
_atom_site_fract_z
Si Si1 0.059564 0.637682 0.469859
Si Si2 0.953194 0.641639 0.972024
Si Si3 0.452271 0.355657 0.916924
Si Si4 0.455504 0.142577 0.224561
Si Si5 0.055333 0.354569 0.638222
Si Si6 0.951994 0.857330 0.577615
Si Si7 0.551745 0.542456 0.676084
Si Si8 0.549406 0.539206 0.874362
O O1 0.250000 0.609046 0.460688
O O2 0.051441 0.750000 0.473684
O O3 0.961103 0.616160 0.419715
O O4 0.003927 0.603813 0.523892
O O5 0.750000 0.633172 0.972827
O O6 0.990288 0.750000 0.964613
O O7 0.018459 0.584442 0.925321
O O8 0.012828 0.616454 0.027425
O O9 0.250000 0.355733 0.917870
O O10 0.506223 0.250000 0.907739
O O11 0.511299 0.430895 0.877746
O O12 0.250000 0.140866 0.224392
O O13 0.504894 0.250000 0.224999
O O14 0.514323 0.089510 0.273956
O O15 0.512867 0.090702 0.174726
O O16 0.250000 0.351144 0.650690
O O17 0.984939 0.250000 0.642591
O O18 0.973150 0.432991 0.671607
O O19 0.750000 0.858259 0.577991
O O20 0.005803 0.750000 0.581406
O O21 0.016830 0.911722 0.625513
O O22 0.750000 0.561257 0.675758
O O23 0.750000 0.551463 0.874930
#
# Coordination Sequence:
#
# PCOD9446711 Si02
#       8
#     8   8   8   8   8   8   8   8
#     4   9  17  30  50  76 104 133 165 202 244 292
#     4   8  14  26  46  73 103 135 171 208 251 306
#     4   9  18  32  48  68 101 143 177 206 248 303
#     4   9  18  34  56  81 106 130 161 204 253 303
#     4  10  21  37  55  74  99 131 166 206 251 297
#     4   9  17  30  49  74 104 135 165 198 241 296
#     4  10  20  34  54  77  99 129 168 207 248 294
#     4  10  18  29  51  79 102 129 169 216 258 295
#
# _framework density 20.592119
#
# number of rings (size 3 to 8) (size 9 to 14) (size 15 to 20)
#    0.000    2.750    0.000    2.625    0.000    6.500 
#    0.000    1.250    0.000    7.875    0.000    0.000 
#    0.000    0.000    0.000    0.000    0.000    0.000 
#
# Total GULP energy -357123.623599 kJ/mol
# GULP energy per Si atom -5580.056619 kJ/mol
# Density = 2.054525 g / cm^3
# Si number density = 20.592119 Si / 1000 Ang^3
#
#
#
# Elastic Constant Matrix: (Units=GPa)
#
#
# Indices 1 2 3 4 5 6 
#
# 1 11.0878 -4.4977 4.5868 0.0000 0.0000 0.0000
# 2 -4.4977 120.6013 93.7006 0.0000 0.0000 0.0000
# 3 4.5868 93.7006 114.9915 0.0000 0.0000 0.0000
# 4 0.0000 0.0000 0.0000 35.0512 0.0000 0.0000
# 5 0.0000 0.0000 0.0000 0.0000 6.5051 0.0000
# 6 0.0000 0.0000 0.0000 0.0000 0.0000 17.4536
#
#
#
# Elastic Compliance Matrix: (Units=1/GPa)
#
#
# Indices 1 2 3 4 5 6 
#
# 1 0.106698 0.019858 -0.020437 0.000000 0.000000 0.000000
# 2 0.019858 0.026295 -0.022218 0.000000 0.000000 0.000000
# 3 -0.020437 -0.022218 0.027616 0.000000 0.000000 0.000000
# 4 0.000000 0.000000 0.000000 0.028530 0.000000 0.000000
# 5 0.000000 0.000000 0.000000 0.000000 0.153726 0.000000
# 6 0.000000 0.000000 0.000000 0.000000 0.000000 0.057295
#
#
# Mechanical properties :
#
#
# Convention : Reuss Voigt Hill
#
# Bulk Modulus (GPa) = 8.69460 48.25110 28.47285
# Shear Modulus (GPa) = 10.32859 21.99469 16.16164
#
# Velocity S-wave (km/s) = 2.24203 3.27174 2.80455
# Velocity P-wave (km/s) = 3.30662 6.14452 4.93401
#
# Compressibility (1/GPa) = 0.11501394
#
# Stress axis : x y z
#
# Youngs Moduli (GPa) = 9.37221 38.03038 36.21086
#
# Poissons Ratio (x) = -0.75519 0.74004
# Poissons Ratio (y) = -0.18611 0.80454
# Poissons Ratio (z) = 0.19154 0.84497
#
# Static dielectric constant tensor:
#      x y z
#    x 1.761640 0.000000 0.000000 
#    y 0.000000 1.750680 0.000000 
#    z 0.000000 0.000000 1.727620 
# 
# From -- ./inp_files/31548.got.cif
#   From: 2010.05.17/outbox.cif.g08.bks.cpg/sg59_16_cif.got.tgz:31548.got - 2010.06.03 14:40:33.
