data_PCOD9446530
_publ_section_title
;
Structure prediction by ZEFSAII (Michael W. Deem and Ramdas Pophale) SiO2 
 PCOD9446530
Probable space group: P M M N
;
_chemical_formula_sum "Si O2"
_cell_formula_units_Z 64
_cell_length_a 7.541590
_cell_length_b 28.391257
_cell_length_c 15.284048
_cell_angle_alpha 90.000000
_cell_angle_beta 90.000000
_cell_angle_gamma 90.000000
_cell_volume 3272.547298
_symmetry_space_group_name_H-M "P M M N"
_symmetry_group_IT_number 59
_space_group.IT_coordinate_system_code '2'
_symmetry_cell_setting 'orthorhombic'
loop_
_space_group_symop_operation_xyz
x,y,z
1/2-x,1/2-y,z
1/2+x,-y,-z
-x,1/2+y,-z
-x,-y,-z
1/2+x,1/2+y,-z
1/2-x,y,z
x,1/2-y,z
loop_
_atom_site_type_symbol
_atom_site_label
_atom_site_fract_x
_atom_site_fract_y
_atom_site_fract_z
Si Si1 0.042247 0.079841 0.154116
Si Si2 0.963743 0.196515 0.854935
Si Si3 0.036243 0.470480 0.830373
Si Si4 0.037420 0.885406 0.471101
Si Si5 0.033519 0.696145 0.343280
Si Si6 0.040195 0.106876 0.967878
Si Si7 0.463030 0.420114 0.347012
Si Si8 0.957873 0.474788 0.630960
O O1 0.250000 0.092704 0.156733
O O2 0.968143 0.092277 0.250181
O O3 0.965151 0.101842 0.065647
O O4 0.026628 0.023163 0.147374
O O5 0.750000 0.197139 0.853919
O O6 0.023685 0.250000 0.873336
O O7 0.021697 0.183730 0.755991
O O8 0.019162 0.157669 0.924347
O O9 0.250000 0.470731 0.829389
O O10 0.970175 0.432562 0.900633
O O11 0.974222 0.459130 0.732062
O O12 0.250000 0.886074 0.459870
O O13 0.971326 0.841484 0.414313
O O14 0.965402 0.934418 0.430841
O O15 0.000970 0.885123 0.574003
O O16 0.250000 0.695926 0.343690
O O17 0.978961 0.750000 0.360899
O O18 0.250000 0.097004 0.974809
O O19 0.250000 0.424608 0.339097
O O20 0.533473 0.472333 0.372637
O O21 0.750000 0.478818 0.609242
#
# Coordination Sequence:
#
# PCOD9446530 Si02
#       8
#     8   8   8   8   8   8   8   8
#     4   9  19  35  49  63  91 130 163 189 228 281
#     4   9  18  33  53  75  97 122 153 188 227 276
#     4  10  19  29  45  72  99 122 155 197 233 268
#     4  10  18  28  47  70  89 117 157 191 224 273
#     4   8  15  29  48  70  95 120 146 179 223 276
#     4  10  20  32  48  71  97 125 157 192 233 280
#     4   9  18  31  45  62  89 123 155 191 230 265
#     4   9  18  31  45  64  93 128 157 182 225 283
#
# _framework density 19.556629999999998
#
# number of rings (size 3 to 8) (size 9 to 14) (size 15 to 20)
#    0.000    2.750    0.000    3.375    0.000    5.250 
#    0.000    0.625    0.000    1.875    0.000    3.500 
#    0.000    0.000    0.000    0.000    0.000    0.000 
#
# Total GULP energy -357065.538076 kJ/mol
# GULP energy per Si atom -5579.149032 kJ/mol
# Density = 1.951212 g / cm^3
# Si number density = 19.556630 Si / 1000 Ang^3
#
#
#
# Elastic Constant Matrix: (Units=GPa)
#
#
# Indices 1 2 3 4 5 6 
#
# 1 42.3736 -11.4104 -13.5851 0.0000 0.0000 0.0000
# 2 -11.4104 62.5830 85.9684 0.0000 0.0000 0.0000
# 3 -13.5851 85.9684 158.4313 0.0000 0.0000 0.0000
# 4 0.0000 0.0000 0.0000 29.5998 0.0000 0.0000
# 5 0.0000 0.0000 0.0000 0.0000 17.9755 0.0000
# 6 0.0000 0.0000 0.0000 0.0000 0.0000 11.9754
#
#
#
# Elastic Compliance Matrix: (Units=1/GPa)
#
#
# Indices 1 2 3 4 5 6 
#
# 1 0.024885 0.006307 -0.001289 0.000000 0.000000 0.000000
# 2 0.006307 0.064355 -0.034380 0.000000 0.000000 0.000000
# 3 -0.001289 -0.034380 0.024857 0.000000 0.000000 0.000000
# 4 0.000000 0.000000 0.000000 0.033784 0.000000 0.000000
# 5 0.000000 0.000000 0.000000 0.000000 0.055631 0.000000
# 6 0.000000 0.000000 0.000000 0.000000 0.000000 0.083505
#
#
# Mechanical properties :
#
#
# Convention : Reuss Voigt Hill
#
# Bulk Modulus (GPa) = 18.05885 42.81484 30.43684
# Shear Modulus (GPa) = 13.72885 25.40447 19.56666
#
# Velocity S-wave (km/s) = 2.65241 3.60810 3.16652
# Velocity P-wave (km/s) = 4.31678 6.26882 5.38204
#
# Compressibility (1/GPa) = 0.05537452
#
# Stress axis : x y z
#
# Youngs Moduli (GPa) = 40.18503 15.53882 40.23088
#
# Poissons Ratio (x) = -0.09801 0.05185
# Poissons Ratio (y) = -0.25346 1.38312
# Poissons Ratio (z) = 0.05179 0.53422
#
# Static dielectric constant tensor:
#      x y z
#    x 1.744320 0.000000 0.000000 
#    y 0.000000 1.660180 0.000000 
#    z 0.000000 0.000000 1.708850 
# 
# From -- ./inp_files/21925.got.cif
#   From: 2010.05.17/outbox.cif.g08.bks.cpg/sg59_11_cif.got.tgz:21925.got - 2010.06.03 14:40:33.
