data_PCOD9446026
_publ_section_title
;
Structure prediction by ZEFSAII (Michael W. Deem and Ramdas Pophale) SiO2 
 PCOD9446026
Probable space group: P N N M
;
_chemical_formula_sum "Si O2"
_cell_formula_units_Z 64
_cell_length_a 15.000000
_cell_length_b 12.000000
_cell_length_c 18.000000
_cell_angle_alpha 90.000000
_cell_angle_beta 90.000000
_cell_angle_gamma 90.000000
_cell_volume 3240.000000
_symmetry_space_group_name_H-M "P N N M"
_symmetry_group_IT_number 58
_symmetry_cell_setting 'orthorhombic'
loop_
_space_group_symop_operation_xyz
x,y,z
-x,-y,z
1/2+x,1/2-y,1/2-z
1/2-x,1/2+y,1/2-z
-x,-y,-z
x,y,-z
1/2-x,1/2+y,1/2+z
1/2+x,1/2-y,1/2+z
loop_
_atom_site_type_symbol
_atom_site_label
_atom_site_fract_x
_atom_site_fract_y
_atom_site_fract_z
Si Si1 0.538502 0.377242 0.311809
Si Si2 0.396993 0.268382 0.582567
Si Si3 0.054998 0.716591 0.412992
Si Si4 0.353173 0.035326 0.190025
Si Si5 0.686855 0.485718 0.584450
Si Si6 0.241585 0.622753 0.160076
Si Si7 0.605734 0.216538 0.817623
Si Si8 0.602941 0.531136 0.911526
O O1 0.500000 0.500000 0.290196
O O2 0.470802 0.298710 0.356786
O O3 0.617928 0.412105 0.367643
O O4 0.565920 0.302764 0.242215
O O5 0.435058 0.252294 0.500000
O O6 0.343956 0.385920 0.580964
O O7 0.335594 0.163262 0.603915
O O8 0.065993 0.684073 0.500000
O O9 0.085864 0.627608 0.350893
O O10 0.105491 0.834549 0.401150
O O11 0.950466 0.732114 0.393422
O O12 0.278563 0.016676 0.127597
O O13 0.305910 0.078677 0.265147
O O14 0.395620 0.913559 0.204328
O O15 0.692747 0.443945 0.500000
O O16 0.294493 0.737789 0.174786
O O17 0.317701 0.535817 0.130517
O O18 0.500000 0.500000 0.891095
O O19 0.611902 0.508069 0.000000
#
# Coordination Sequence:
#
# PCOD9446026 Si02
#       8
#     8   8   8   8   8   8   8   8
#     4  10  22  40  67  97 131 172 219 272 331 394
#     4  10  21  39  64  95 126 166 220 271 323 388
#     4  11  26  45  68  95 132 177 222 275 337 402
#     4  12  26  42  61  96 134 173 217 269 336 396
#     4  10  20  37  62  93 130 167 210 266 326 393
#     4  12  24  39  66  95 134 172 218 275 332 394
#     4  12  25  41  65  95 130 175 219 270 327 400
#     4  10  22  41  65  94 125 168 223 273 327 393
#
# _framework density 19.753086
#
# number of rings (size 3 to 8) (size 9 to 14) (size 15 to 20)
#    0.000    1.125    3.750    2.250    3.500    3.500 
#    0.000    0.000    0.000    3.000    0.000    0.000 
#    0.000    0.000    0.000    0.000    0.000    0.000 
#
# Total GULP energy -357209.764504 kJ/mol
# GULP energy per Si atom -5581.402570 kJ/mol
# Density = 1.970813 g / cm^3
# Si number density = 19.753086 Si / 1000 Ang^3
#
#
#
# Elastic Constant Matrix: (Units=GPa)
#
#
# Indices 1 2 3 4 5 6 
#
# 1 65.8176 29.0878 39.6581 0.0000 0.0000 0.0000
# 2 29.0878 113.5404 48.8656 0.0000 0.0000 0.0000
# 3 39.6581 48.8656 118.1507 0.0000 0.0000 0.0000
# 4 0.0000 0.0000 0.0000 28.3996 0.0000 0.0000
# 5 0.0000 0.0000 0.0000 0.0000 11.6412 0.0000
# 6 0.0000 0.0000 0.0000 0.0000 0.0000 30.9544
#
#
#
# Elastic Compliance Matrix: (Units=1/GPa)
#
#
# Indices 1 2 3 4 5 6 
#
# 1 0.019692 -0.002677 -0.005503 0.000000 0.000000 0.000000
# 2 -0.002677 0.011078 -0.003683 0.000000 0.000000 0.000000
# 3 -0.005503 -0.003683 0.011834 0.000000 0.000000 0.000000
# 4 0.000000 0.000000 0.000000 0.035212 0.000000 0.000000
# 5 0.000000 0.000000 0.000000 0.000000 0.085901 0.000000
# 6 0.000000 0.000000 0.000000 0.000000 0.000000 0.032306
#
#
# Mechanical properties :
#
#
# Convention : Reuss Voigt Hill
#
# Bulk Modulus (GPa) = 52.96873 59.19241 56.08057
# Shear Modulus (GPa) = 22.11975 26.19221 24.15598
#
# Velocity S-wave (km/s) = 3.34999 3.64535 3.50079
# Velocity P-wave (km/s) = 6.46814 6.91009 6.69277
#
# Compressibility (1/GPa) = 0.01887906
#
# Stress axis : x y z
#
# Youngs Moduli (GPa) = 50.78184 90.26534 84.50047
#
# Poissons Ratio (x) = 0.24160 0.46499
# Poissons Ratio (y) = 0.13592 0.31126
# Poissons Ratio (z) = 0.27944 0.33249
#
# Static dielectric constant tensor:
#      x y z
#    x 1.729740 0.000000 0.000000 
#    y 0.000000 1.699380 0.000000 
#    z 0.000000 0.000000 1.689770 
# 
# From -- ./inp_files/26990.got.cif
#   From: 2010.05.17/outbox.ucp.g08.bks.cvg/sg58_14_cif.got.tgz:26990.got - 2010.06.11 16:41:41.
