data_PCOD9446712
_publ_section_title
;
Structure prediction by ZEFSAII (Michael W. Deem and Ramdas Pophale) SiO2 
 PCOD9446712
Probable space group: P M M N
;
_chemical_formula_sum "Si O2"
_cell_formula_units_Z 64
_cell_length_a 29.096572
_cell_length_b 8.584378
_cell_length_c 12.559850
_cell_angle_alpha 90.000000
_cell_angle_beta 90.000000
_cell_angle_gamma 90.000000
_cell_volume 3137.148749
_symmetry_space_group_name_H-M "P M M N"
_symmetry_group_IT_number 59
_space_group.IT_coordinate_system_code '2'
_symmetry_cell_setting 'orthorhombic'
loop_
_space_group_symop_operation_xyz
x,y,z
1/2-x,1/2-y,z
1/2+x,-y,-z
-x,1/2+y,-z
-x,-y,-z
1/2+x,1/2+y,-z
1/2-x,y,z
x,1/2-y,z
loop_
_atom_site_type_symbol
_atom_site_label
_atom_site_fract_x
_atom_site_fract_y
_atom_site_fract_z
Si Si1 0.338321 0.435440 0.248288
Si Si2 0.699290 0.431309 0.203994
Si Si3 0.698625 0.064872 0.533894
Si Si4 0.939057 0.066581 0.785322
Si Si5 0.129114 0.432577 0.637941
Si Si6 0.823505 0.567889 0.988829
Si Si7 0.460961 0.439450 0.753765
Si Si8 0.422097 0.933286 0.973270
O O1 0.333751 0.250000 0.258282
O O2 0.313858 0.516568 0.346470
O O3 0.392507 0.478302 0.244849
O O4 0.317250 0.481014 0.133507
O O5 0.750000 0.464299 0.248637
O O6 0.688876 0.250000 0.223110
O O7 0.660500 0.534302 0.258576
O O8 0.700275 0.467108 0.079104
O O9 0.750000 0.003695 0.507137
O O10 0.700126 0.250000 0.524811
O O11 0.657913 0.007589 0.457268
O O12 0.930880 0.250000 0.764995
O O13 0.986330 0.017822 0.728964
O O14 0.947315 0.050940 0.913009
O O15 0.126195 0.250000 0.616837
O O16 0.077893 0.488413 0.668610
O O17 0.811639 0.750000 0.999929
O O18 0.877265 0.539729 0.012872
O O19 0.459084 0.250000 0.763459
O O20 0.447778 0.513123 0.867539
O O21 0.409165 0.750000 0.962942
#
# Coordination Sequence:
#
# PCOD9446712 Si02
#       8
#     8   8   8   8   8   8   8   8
#     4  10  22  40  63  90 120 152 195 250 300 353
#     4  11  23  37  55  82 117 154 193 240 296 359
#     4  11  25  45  68  90 113 148 196 249 304 362
#     4   9  19  35  55  84 122 162 201 241 290 348
#     4  11  23  39  61  88 119 155 197 246 297 350
#     4  10  20  35  55  82 117 154 190 235 291 351
#     4  10  20  34  54  83 121 161 200 242 290 348
#     4  10  18  29  51  81 116 159 200 240 283 339
#
# _framework density 20.400690000000001
#
# number of rings (size 3 to 8) (size 9 to 14) (size 15 to 20)
#    0.000    1.750    1.250    3.000    0.000    7.000 
#    0.000    3.125    0.000    0.000    0.000    0.000 
#    0.000    0.000    0.000    0.000    0.000    0.000 
#
# Total GULP energy -357358.008819 kJ/mol
# GULP energy per Si atom -5583.718888 kJ/mol
# Density = 2.035426 g / cm^3
# Si number density = 20.400690 Si / 1000 Ang^3
#
#
#
# Elastic Constant Matrix: (Units=GPa)
#
#
# Indices 1 2 3 4 5 6 
#
# 1 38.3544 -1.7508 3.1782 0.0000 0.0000 0.0000
# 2 -1.7508 22.1993 6.2431 0.0000 0.0000 0.0000
# 3 3.1782 6.2431 65.3606 0.0000 0.0000 0.0000
# 4 0.0000 0.0000 0.0000 27.4241 0.0000 0.0000
# 5 0.0000 0.0000 0.0000 0.0000 -75.8106 0.0000
# 6 0.0000 0.0000 0.0000 0.0000 0.0000 20.8788
#
#
#
# Elastic Compliance Matrix: (Units=1/GPa)
#
#
# Indices 1 2 3 4 5 6 
#
# 1 0.026313 0.002502 -0.001518 0.000000 0.000000 0.000000
# 2 0.002502 0.046528 -0.004566 0.000000 0.000000 0.000000
# 3 -0.001518 -0.004566 0.015810 0.000000 0.000000 0.000000
# 4 0.000000 0.000000 0.000000 0.036464 0.000000 0.000000
# 5 0.000000 0.000000 0.000000 0.000000 -0.013191 0.000000
# 6 0.000000 0.000000 0.000000 0.000000 0.000000 0.047895
#
#
# Mechanical properties :
#
#
# Convention : Reuss Voigt Hill
#
# Bulk Modulus (GPa) = 12.27205 15.69503 13.98354
# Shear Modulus (GPa) = 25.75388 2.38139 14.06763
#
# Velocity S-wave (km/s) = 3.55688 1.08159 2.62881
# Velocity P-wave (km/s) = 4.78510 3.04465 4.01042
#
# Compressibility (1/GPa) = 0.08148599
#
# Stress axis : x y z
#
# Youngs Moduli (GPa) = 38.00449 21.49249 63.25232
#
# Poissons Ratio (x) = -0.05378 0.09605
# Poissons Ratio (y) = -0.09510 0.28880
# Poissons Ratio (z) = 0.05771 0.09813
#
# Static dielectric constant tensor:
#      x y z
#    x 1.754810 0.000000 0.000000 
#    y 0.000000 1.688450 0.000000 
#    z 0.000000 0.000000 1.734390 
# 
# From -- ./inp_files/19270.got.cif
#   From: 2010.05.17/outbox.cif.g08.bks.cpg/sg59_10_cif.got.tgz:19270.got - 2010.06.03 14:40:33.
