data_PCOD9446143
_publ_section_title
;
Structure prediction by ZEFSAII (Michael W. Deem and Ramdas Pophale) SiO2 
 PCOD9446143
Probable space group: P M M N
;
_chemical_formula_sum "Si O2"
_cell_formula_units_Z 56
_cell_length_a 8.473209
_cell_length_b 21.822353
_cell_length_c 16.401741
_cell_angle_alpha 90.000000
_cell_angle_beta 90.000000
_cell_angle_gamma 90.000000
_cell_volume 3032.769789
_symmetry_space_group_name_H-M "P M M N"
_symmetry_group_IT_number 59
_space_group.IT_coordinate_system_code '2'
_symmetry_cell_setting 'orthorhombic'
loop_
_space_group_symop_operation_xyz
x,y,z
1/2-x,1/2-y,z
1/2+x,-y,-z
-x,1/2+y,-z
-x,-y,-z
1/2+x,1/2+y,-z
1/2-x,y,z
x,1/2-y,z
loop_
_atom_site_type_symbol
_atom_site_label
_atom_site_fract_x
_atom_site_fract_y
_atom_site_fract_z
Si Si1 0.439249 0.498006 0.908341
Si Si2 0.942229 0.881855 0.194125
Si Si3 0.438399 0.873052 0.484019
Si Si4 0.438641 0.457886 0.649875
Si Si5 0.437203 0.750000 0.380308
Si Si6 0.562497 0.570459 0.755149
Si Si7 0.935531 0.750000 0.202604
Si Si8 0.940972 0.178816 0.343400
O O1 0.250000 0.501245 0.907693
O O2 0.489467 0.432953 0.869950
O O3 0.501858 0.547556 0.843248
O O4 0.500000 0.500000 0.000000
O O5 0.750000 0.879448 0.195434
O O6 0.989484 0.906552 0.283230
O O7 0.004429 0.814566 0.174560
O O8 0.250000 0.882238 0.487791
O O9 0.508966 0.931448 0.437152
O O10 0.468035 0.811092 0.432261
O O11 0.495986 0.856146 0.574407
O O12 0.250000 0.463107 0.650928
O O13 0.504607 0.521093 0.686848
O O14 0.250000 0.750000 0.358802
O O15 0.542322 0.750000 0.299977
O O16 0.750000 0.570579 0.755346
O O17 0.497999 0.636991 0.730738
O O18 0.750000 0.750000 0.182072
O O19 0.750000 0.179354 0.345415
O O20 0.992395 0.250000 0.342228
#
# Coordination Sequence:
#
# PCOD9446143 Si02
#       8
#     8   8   8   8   4   8   4   8
#     4  10  20  38  62  88 112 141 180 222 273 337
#     4   8  16  28  48  77 108 138 175 214 260 319
#     4  10  19  32  51  77 110 149 193 236 281 329
#     4  10  19  33  52  78 111 148 189 233 277 328
#     4  10  18  28  44  74 109 144 185 230 269 316
#     4  11  23  39  59  85 113 144 183 232 287 340
#     4  10  16  28  48  74 107 146 177 214 269 324
#     4  10  21  39  60  80 108 150 195 239 287 337
#
# _framework density 18.464969
#
# number of rings (size 3 to 8) (size 9 to 14) (size 15 to 20)
#    0.000    2.143    2.143    3.000    0.000    1.429 
#    0.000    0.714    1.571    0.000    0.000    0.000 
#    0.000    0.000    0.000    0.000    0.000    0.000 
#
# Total GULP energy -312384.759383 kJ/mol
# GULP energy per Si atom -5578.299275 kJ/mol
# Density = 1.842294 g / cm^3
# Si number density = 18.464969 Si / 1000 Ang^3
#
#
#
# Elastic Constant Matrix: (Units=GPa)
#
#
# Indices 1 2 3 4 5 6 
#
# 1 39.5571 25.4359 25.9462 0.0000 0.0000 0.0000
# 2 25.4359 104.6528 73.9119 0.0000 0.0000 0.0000
# 3 25.9462 73.9119 110.3612 0.0000 0.0000 0.0000
# 4 0.0000 0.0000 0.0000 16.5116 0.0000 0.0000
# 5 0.0000 0.0000 0.0000 0.0000 25.1275 0.0000
# 6 0.0000 0.0000 0.0000 0.0000 0.0000 17.0769
#
#
#
# Elastic Compliance Matrix: (Units=1/GPa)
#
#
# Indices 1 2 3 4 5 6 
#
# 1 0.030979 -0.004527 -0.004252 0.000000 0.000000 0.000000
# 2 -0.004527 0.018793 -0.011522 0.000000 0.000000 0.000000
# 3 -0.004252 -0.011522 0.017777 0.000000 0.000000 0.000000
# 4 0.000000 0.000000 0.000000 0.060564 0.000000 0.000000
# 5 0.000000 0.000000 0.000000 0.000000 0.039797 0.000000
# 6 0.000000 0.000000 0.000000 0.000000 0.000000 0.058559
#
#
# Mechanical properties :
#
#
# Convention : Reuss Voigt Hill
#
# Bulk Modulus (GPa) = 37.10709 56.12878 46.61793
# Shear Modulus (GPa) = 18.11244 20.36165 19.23704
#
# Velocity S-wave (km/s) = 3.13534 3.32432 3.23121
# Velocity P-wave (km/s) = 5.76600 6.72296 6.26279
#
# Compressibility (1/GPa) = 0.02694903
#
# Stress axis : x y z
#
# Youngs Moduli (GPa) = 32.27943 53.21071 56.25137
#
# Poissons Ratio (x) = 0.24088 0.23916
# Poissons Ratio (y) = 0.14612 0.64813
# Poissons Ratio (z) = 0.13724 0.61310
#
# Static dielectric constant tensor:
#      x y z
#    x 1.628820 0.000000 0.000000 
#    y 0.000000 1.662050 0.000000 
#    z 0.000000 0.000000 1.628040 
# 
# From -- ./inp_files/21216.got.cif
#   From: 2010.05.17/outbox.cif.g08.bks.cpg/sg59_11_cif.got.tgz:21216.got - 2010.06.03 14:40:33.
