data_PCOD9446626
_publ_section_title
;
Structure prediction by ZEFSAII (Michael W. Deem and Ramdas Pophale) SiO2 
 PCOD9446626
Probable space group: P M M N
;
_chemical_formula_sum "Si O2"
_cell_formula_units_Z 64
_cell_length_a 19.826497
_cell_length_b 9.135819
_cell_length_c 20.946838
_cell_angle_alpha 90.000000
_cell_angle_beta 90.000000
_cell_angle_gamma 90.000000
_cell_volume 3794.127746
_symmetry_space_group_name_H-M "P M M N"
_symmetry_group_IT_number 59
_space_group.IT_coordinate_system_code '2'
_symmetry_cell_setting 'orthorhombic'
loop_
_space_group_symop_operation_xyz
x,y,z
1/2-x,1/2-y,z
1/2+x,-y,-z
-x,1/2+y,-z
-x,-y,-z
1/2+x,1/2+y,-z
1/2-x,y,z
x,1/2-y,z
loop_
_atom_site_type_symbol
_atom_site_label
_atom_site_fract_x
_atom_site_fract_y
_atom_site_fract_z
Si Si1 0.102524 0.919003 0.684381
Si Si2 0.896505 0.577363 0.187851
Si Si3 0.061440 0.082021 0.303434
Si Si4 0.329020 0.081501 0.945695
Si Si5 0.959991 0.573433 0.838021
Si Si6 0.925180 0.417683 0.570827
Si Si7 0.410931 0.081483 0.556648
Si Si8 0.065512 0.575409 0.031684
O O1 0.123409 0.750000 0.686810
O O2 0.020455 0.922006 0.690633
O O3 0.127880 0.008917 0.745509
O O4 0.118090 0.992185 0.616500
O O5 0.911478 0.750000 0.196538
O O6 0.845506 0.561566 0.129104
O O7 0.964570 0.492352 0.167523
O O8 0.081864 0.250000 0.313945
O O9 0.075187 0.040928 0.230083
O O10 0.090129 0.982890 0.359667
O O11 0.250000 0.066187 0.957191
O O12 0.349456 0.250000 0.961445
O O13 0.372315 0.970291 0.987298
O O14 0.963171 0.750000 0.845190
O O15 0.926762 0.495976 0.898479
O O16 0.904221 0.250000 0.565473
O O17 0.896641 0.510236 0.511876
O O18 0.007135 0.421969 0.564084
O O19 0.390040 0.250000 0.559094
O O20 0.056683 0.750000 0.035465
O O21 0.000000 0.500000 0.000000
#
# Coordination Sequence:
#
# PCOD9446626 Si02
#       8
#     8   8   8   8   8   8   8   8
#     4   9  16  25  37  54  79 109 146 191 233 275
#     4  10  18  29  47  68  91 121 156 196 241 291
#     4   8  15  25  36  53  78 110 145 184 230 278
#     4  10  22  39  56  75 101 132 165 204 252 304
#     4  10  19  31  48  69  94 122 157 201 246 290
#     4   9  15  21  31  47  71 105 143 183 226 273
#     4   9  15  22  32  47  70 103 145 187 226 273
#     4  12  23  35  54  77 101 129 165 207 252 302
#
# _framework density 16.868172000000001
#
# number of rings (size 3 to 8) (size 9 to 14) (size 15 to 20)
#    0.000    2.375    1.250    3.750    0.000    7.250 
#    0.000    0.000    0.000    0.000    0.000    0.000 
#    0.000    0.000    0.000    1.125    0.000   20.500 
#
# Total GULP energy -356750.979340 kJ/mol
# GULP energy per Si atom -5574.234052 kJ/mol
# Density = 1.682978 g / cm^3
# Si number density = 16.868172 Si / 1000 Ang^3
#
#
#
# Elastic Constant Matrix: (Units=GPa)
#
#
# Indices 1 2 3 4 5 6 
#
# 1 16.3496 18.8379 14.6548 0.0000 0.0000 0.0000
# 2 18.8379 135.7578 88.5164 0.0000 0.0000 0.0000
# 3 14.6548 88.5164 145.8334 0.0000 0.0000 0.0000
# 4 0.0000 0.0000 0.0000 36.3493 0.0000 0.0000
# 5 0.0000 0.0000 0.0000 0.0000 6.2922 0.0000
# 6 0.0000 0.0000 0.0000 0.0000 0.0000 9.4264
#
#
#
# Elastic Compliance Matrix: (Units=1/GPa)
#
#
# Indices 1 2 3 4 5 6 
#
# 1 0.073143 -0.008866 -0.001969 0.000000 0.000000 0.000000
# 2 -0.008866 0.013265 -0.007161 0.000000 0.000000 0.000000
# 3 -0.001969 -0.007161 0.011401 0.000000 0.000000 0.000000
# 4 0.000000 0.000000 0.000000 0.027511 0.000000 0.000000
# 5 0.000000 0.000000 0.000000 0.000000 0.158926 0.000000
# 6 0.000000 0.000000 0.000000 0.000000 0.000000 0.106084
#
#
# Mechanical properties :
#
#
# Convention : Reuss Voigt Hill
#
# Bulk Modulus (GPa) = 16.17622 60.21767 38.19695
# Shear Modulus (GPa) = 11.18749 22.14237 16.66493
#
# Velocity S-wave (km/s) = 2.57812 3.62701 3.14658
# Velocity P-wave (km/s) = 4.29801 7.30183 5.99123
#
# Compressibility (1/GPa) = 0.06181912
#
# Stress axis : x y z
#
# Youngs Moduli (GPa) = 13.67181 75.38576 87.70951
#
# Poissons Ratio (x) = 0.66834 0.17270
# Poissons Ratio (y) = 0.12121 0.62805
# Poissons Ratio (z) = 0.02692 0.53981
#
# Static dielectric constant tensor:
#      x y z
#    x 1.523480 0.000000 0.000000 
#    y 0.000000 1.572300 0.000000 
#    z 0.000000 0.000000 1.590530 
# 
# From -- ./inp_files/30915.got.cif
#   From: 2010.05.17/outbox.cif.g08.bks.cpg/sg59_16_cif.got.tgz:30915.got - 2010.06.03 14:40:33.
