data_PCOD9446303
_publ_section_title
;
Structure prediction by ZEFSAII (Michael W. Deem and Ramdas Pophale) SiO2 
 PCOD9446303
Probable space group: P M M N
;
_chemical_formula_sum "Si O2"
_cell_formula_units_Z 20
_cell_length_a 25.134611
_cell_length_b 5.213023
_cell_length_c 9.019995
_cell_angle_alpha 90.000000
_cell_angle_beta 90.000000
_cell_angle_gamma 90.000000
_cell_volume 1181.865638
_symmetry_space_group_name_H-M "P M M N"
_symmetry_group_IT_number 59
_space_group.IT_coordinate_system_code '2'
_symmetry_cell_setting 'orthorhombic'
loop_
_space_group_symop_operation_xyz
x,y,z
1/2-x,1/2-y,z
1/2+x,-y,-z
-x,1/2+y,-z
-x,-y,-z
1/2+x,1/2+y,-z
1/2-x,y,z
x,1/2-y,z
loop_
_atom_site_type_symbol
_atom_site_label
_atom_site_fract_x
_atom_site_fract_y
_atom_site_fract_z
Si Si1 0.633901 0.750000 0.433042
Si Si2 0.976183 0.750000 0.579535
Si Si3 0.750000 0.750000 0.426958
Si Si4 0.980868 0.250000 0.087151
Si Si5 0.250000 0.750000 0.780932
Si Si6 0.367261 0.750000 0.778760
O O1 0.586783 0.750000 0.550744
O O2 0.692805 0.750000 0.504967
O O3 0.628896 0.500344 0.327136
O O4 0.000000 0.500000 0.500000
O O5 0.993337 0.750000 0.749598
O O6 0.750000 0.500420 0.322714
O O7 0.917216 0.250000 0.111884
O O8 0.000000 0.500000 0.000000
O O9 0.308530 0.750000 0.854525
#
# Coordination Sequence:
#
# PCOD9446303 Si02
#       6
#     4   4   2   4   2   4
#     4  10  17  32  53  79 103 133 179 224 265 313
#     4  12  21  36  57  79 105 146 181 222 264 321
#     4   8  16  26  48  78 104 124 164 232 274 294
#     4  12  24  36  52  80 116 146 176 222 276 317
#     4   8  16  28  50  76  98 134 172 220 266 298
#     4  10  18  33  53  77 107 134 178 224 261 319
#
# _framework density 16.922397
#
# number of rings (size 3 to 8) (size 9 to 14) (size 15 to 20)
#    0.000    1.600    4.000    2.400    0.000    0.000 
#    0.000    0.000    0.000    2.400    0.000    0.000 
#    0.000    0.000    0.000    0.000    0.000    0.000 
#
# Total GULP energy -111487.565117 kJ/mol
# GULP energy per Si atom -5574.378256 kJ/mol
# Density = 1.688388 g / cm^3
# Si number density = 16.922397 Si / 1000 Ang^3
#
#
#
# Elastic Constant Matrix: (Units=GPa)
#
#
# Indices 1 2 3 4 5 6 
#
# 1 226.1237 31.4187 54.8241 0.0000 0.0000 0.0000
# 2 31.4187 155.3766 46.2867 0.0000 0.0000 0.0000
# 3 54.8241 46.2867 90.5683 0.0000 0.0000 0.0000
# 4 0.0000 0.0000 0.0000 24.2398 0.0000 0.0000
# 5 0.0000 0.0000 0.0000 0.0000 27.1353 0.0000
# 6 0.0000 0.0000 0.0000 0.0000 0.0000 26.3139
#
#
#
# Elastic Compliance Matrix: (Units=1/GPa)
#
#
# Indices 1 2 3 4 5 6 
#
# 1 0.005185 -0.000134 -0.003071 0.000000 0.000000 0.000000
# 2 -0.000134 0.007595 -0.003801 0.000000 0.000000 0.000000
# 3 -0.003071 -0.003801 0.014842 0.000000 0.000000 0.000000
# 4 0.000000 0.000000 0.000000 0.041254 0.000000 0.000000
# 5 0.000000 0.000000 0.000000 0.000000 0.036852 0.000000
# 6 0.000000 0.000000 0.000000 0.000000 0.000000 0.038003
#
#
# Mechanical properties :
#
#
# Convention : Reuss Voigt Hill
#
# Bulk Modulus (GPa) = 73.45868 81.90306 77.68087
# Shear Modulus (GPa) = 30.81085 38.17373 34.49229
#
# Velocity S-wave (km/s) = 4.27161 4.75469 4.51961
# Velocity P-wave (km/s) = 8.23604 8.86832 8.55802
#
# Compressibility (1/GPa) = 0.01361309
#
# Stress axis : x y z
#
# Youngs Moduli (GPa) = 192.84899 131.66103 67.37418
#
# Poissons Ratio (x) = 0.01762 0.20687
# Poissons Ratio (y) = 0.02581 0.25607
# Poissons Ratio (z) = 0.59214 0.50040
#
# Static dielectric constant tensor:
#      x y z
#    x 1.645360 0.000000 0.000000 
#    y 0.000000 1.564980 0.000000 
#    z 0.000000 0.000000 1.506480 
# 
# From -- ./inp_files/3999.got.cif
#   From: 2010.05.17/outbox.cif.g08.bks.cpg/sg59_2_cif.got.tgz:3999.got - 2010.06.03 14:40:33.
