data_PCOD9446818
_publ_section_title
;
Structure prediction by ZEFSAII (Michael W. Deem and Ramdas Pophale) SiO2 
 PCOD9446818
Probable space group: P M M N
;
_chemical_formula_sum "Si O2"
_cell_formula_units_Z 64
_cell_length_a 23.560186
_cell_length_b 8.931045
_cell_length_c 16.564184
_cell_angle_alpha 90.000000
_cell_angle_beta 90.000000
_cell_angle_gamma 90.000000
_cell_volume 3485.387253
_symmetry_space_group_name_H-M "P M M N"
_symmetry_group_IT_number 59
_space_group.IT_coordinate_system_code '2'
_symmetry_cell_setting 'orthorhombic'
loop_
_space_group_symop_operation_xyz
x,y,z
1/2-x,1/2-y,z
1/2+x,-y,-z
-x,1/2+y,-z
-x,-y,-z
1/2+x,1/2+y,-z
1/2-x,y,z
x,1/2-y,z
loop_
_atom_site_type_symbol
_atom_site_label
_atom_site_fract_x
_atom_site_fract_y
_atom_site_fract_z
Si Si1 0.394871 0.579439 0.977465
Si Si2 0.942012 0.572079 0.605751
Si Si3 0.520652 0.570369 0.140741
Si Si4 0.314860 0.914778 0.822062
Si Si5 0.683319 0.929823 0.886286
Si Si6 0.392966 0.076729 0.715504
Si Si7 0.073126 0.573457 0.558871
Si Si8 0.095769 0.929693 0.225564
O O1 0.406696 0.750000 0.005440
O O2 0.450918 0.506168 0.937317
O O3 0.352685 0.585358 0.901373
O O4 0.358385 0.490394 0.043434
O O5 0.935018 0.750000 0.614772
O O6 0.913431 0.512588 0.523660
O O7 0.921378 0.490154 0.686347
O O8 0.008579 0.540105 0.588482
O O9 0.525302 0.750000 0.131644
O O10 0.557764 0.529262 0.220739
O O11 0.456075 0.531003 0.163642
O O12 0.250000 0.931191 0.844703
O O13 0.322851 0.750000 0.782877
O O14 0.335951 0.045418 0.764585
O O15 0.750000 0.973774 0.896066
O O16 0.681242 0.750000 0.884615
O O17 0.653790 0.997839 0.806544
O O18 0.402318 0.250000 0.696259
O O19 0.391301 0.981637 0.634694
O O20 0.077315 0.750000 0.544839
O O21 0.099742 0.750000 0.227287
#
# Coordination Sequence:
#
# PCOD9446818 Si02
#       8
#     8   8   8   8   8   8   8   8
#     4  10  20  35  58  84 110 142 183 230 278 329
#     4  10  20  33  53  81 113 146 181 222 270 323
#     4   9  19  34  53  81 116 149 179 217 274 333
#     4   9  18  32  50  74 105 141 182 226 272 325
#     4  11  25  43  61  81 107 143 189 237 282 329
#     4  10  18  30  49  75 110 145 181 224 267 321
#     4  10  19  31  51  79 112 148 184 220 265 323
#     4  11  22  38  60  84 114 147 184 230 277 332
#
# _framework density 18.362379000000001
#
# number of rings (size 3 to 8) (size 9 to 14) (size 15 to 20)
#    0.000    2.000    1.250    2.625    0.000    5.250 
#    0.000    0.000    0.000    0.750    0.000    0.000 
#    0.000    0.000    0.000    0.000    0.000    0.000 
#
# Total GULP energy -357018.797845 kJ/mol
# GULP energy per Si atom -5578.418716 kJ/mol
# Density = 1.832059 g / cm^3
# Si number density = 18.362379 Si / 1000 Ang^3
#
#
#
# Elastic Constant Matrix: (Units=GPa)
#
#
# Indices 1 2 3 4 5 6 
#
# 1 71.7341 28.8243 51.5947 0.0000 0.0000 0.0000
# 2 28.8243 46.9234 47.1611 0.0000 0.0000 0.0000
# 3 51.5947 47.1611 103.5096 0.0000 0.0000 0.0000
# 4 0.0000 0.0000 0.0000 34.9889 0.0000 0.0000
# 5 0.0000 0.0000 0.0000 0.0000 14.7367 0.0000
# 6 0.0000 0.0000 0.0000 0.0000 0.0000 22.9257
#
#
#
# Elastic Compliance Matrix: (Units=1/GPa)
#
#
# Indices 1 2 3 4 5 6 
#
# 1 0.022269 -0.004655 -0.008979 0.000000 0.000000 0.000000
# 2 -0.004655 0.040287 -0.016036 0.000000 0.000000 0.000000
# 3 -0.008979 -0.016036 0.021443 0.000000 0.000000 0.000000
# 4 0.000000 0.000000 0.000000 0.028581 0.000000 0.000000
# 5 0.000000 0.000000 0.000000 0.000000 0.067858 0.000000
# 6 0.000000 0.000000 0.000000 0.000000 0.000000 0.043619
#
#
# Mechanical properties :
#
#
# Convention : Reuss Voigt Hill
#
# Bulk Modulus (GPa) = 40.55138 53.03637 46.79387
# Shear Modulus (GPa) = 17.14583 20.83607 18.99095
#
# Velocity S-wave (km/s) = 3.05904 3.37221 3.21944
# Velocity P-wave (km/s) = 5.88293 6.64140 6.27364
#
# Compressibility (1/GPa) = 0.02466008
#
# Stress axis : x y z
#
# Youngs Moduli (GPa) = 44.90522 24.82160 46.63566
#
# Poissons Ratio (x) = 0.11554 0.41875
# Poissons Ratio (y) = 0.20903 0.74783
# Poissons Ratio (z) = 0.40322 0.39803
#
# Static dielectric constant tensor:
#      x y z
#    x 1.633170 0.000000 0.000000 
#    y 0.000000 1.636130 0.000000 
#    z 0.000000 0.000000 1.643430 
# 
# From -- ./inp_files/24721.got.cif
#   From: 2010.05.17/outbox.cif.g08.bks.cpg/sg59_13_cif.got.tgz:24721.got - 2010.06.03 14:40:33.
