data_PCOD9446618
_publ_section_title
;
Structure prediction by ZEFSAII (Michael W. Deem and Ramdas Pophale) SiO2 
 PCOD9446618
Probable space group: P M M N
;
_chemical_formula_sum "Si O2"
_cell_formula_units_Z 64
_cell_length_a 24.494892
_cell_length_b 29.928203
_cell_length_c 5.233854
_cell_angle_alpha 90.000000
_cell_angle_beta 90.000000
_cell_angle_gamma 90.000000
_cell_volume 3836.876086
_symmetry_space_group_name_H-M "P M M N"
_symmetry_group_IT_number 59
_space_group.IT_coordinate_system_code '2'
_symmetry_cell_setting 'orthorhombic'
loop_
_space_group_symop_operation_xyz
x,y,z
1/2-x,1/2-y,z
1/2+x,-y,-z
-x,1/2+y,-z
-x,-y,-z
1/2+x,1/2+y,-z
1/2-x,y,z
x,1/2-y,z
loop_
_atom_site_type_symbol
_atom_site_label
_atom_site_fract_x
_atom_site_fract_y
_atom_site_fract_z
Si Si1 0.025101 0.300764 0.810994
Si Si2 0.087261 0.484087 0.102531
Si Si3 0.882186 0.908158 0.240396
Si Si4 0.004657 0.894415 0.304526
Si Si5 0.974789 0.049776 0.215864
Si Si6 0.311141 0.363230 0.113869
Si Si7 0.901368 0.800669 0.693331
Si Si8 0.811835 0.960859 0.627271
O O1 0.002826 0.250000 0.830754
O O2 0.985355 0.341920 0.743982
O O3 0.068153 0.300145 0.577122
O O4 0.055695 0.311713 0.078235
O O5 0.144390 0.493846 0.240126
O O6 0.030220 0.479929 0.256176
O O7 0.096003 0.433409 0.010055
O O8 0.072826 0.515542 0.863887
O O9 0.939333 0.897091 0.374140
O O10 0.843459 0.943681 0.377912
O O11 0.843531 0.868146 0.152415
O O12 0.033732 0.918947 0.540230
O O13 0.017281 0.920694 0.042203
O O14 0.250000 0.345372 0.088917
O O15 0.350924 0.334190 0.288286
O O16 0.306421 0.413937 0.217996
O O17 0.882434 0.750000 0.747209
O O18 0.750000 0.977467 0.587923
#
# Coordination Sequence:
#
# PCOD9446618 Si02
#       8
#     8   8   8   8   8   8   8   8
#     4  10  20  33  50  68  89 114 149 188 229 280
#     4   9  20  31  44  66  95 117 150 196 234 272
#     4  10  18  29  47  62  88 116 152 194 236 279
#     4  11  19  31  51  69  90 118 150 187 234 279
#     4  10  21  31  49  72  93 119 151 188 240 280
#     4  10  20  31  43  62  84 113 153 202 245 285
#     4  10  20  33  48  64  84 114 149 192 243 290
#     4  10  19  31  47  65  87 121 161 196 236 277
#
# _framework density 16.680237999999999
#
# number of rings (size 3 to 8) (size 9 to 14) (size 15 to 20)
#    0.000    2.000    2.500    1.875    3.500    2.250 
#    0.000    0.000    0.000    2.250    0.000    0.000 
#    0.000    0.000    0.000    0.000    0.000    3.750 
#
# Total GULP energy -356361.024228 kJ/mol
# GULP energy per Si atom -5568.141004 kJ/mol
# Density = 1.664227 g / cm^3
# Si number density = 16.680238 Si / 1000 Ang^3
#
#
#
# Elastic Constant Matrix: (Units=GPa)
#
#
# Indices 1 2 3 4 5 6 
#
# 1 42.6385 8.1367 5.4172 0.0000 0.0000 0.0000
# 2 8.1367 57.3858 3.7909 0.0000 0.0000 0.0000
# 3 5.4172 3.7909 64.6114 0.0000 0.0000 0.0000
# 4 0.0000 0.0000 0.0000 23.0007 0.0000 0.0000
# 5 0.0000 0.0000 0.0000 0.0000 10.1318 0.0000
# 6 0.0000 0.0000 0.0000 0.0000 0.0000 7.0725
#
#
#
# Elastic Compliance Matrix: (Units=1/GPa)
#
#
# Indices 1 2 3 4 5 6 
#
# 1 0.024322 -0.003327 -0.001844 0.000000 0.000000 0.000000
# 2 -0.003327 0.017949 -0.000774 0.000000 0.000000 0.000000
# 3 -0.001844 -0.000774 0.015677 0.000000 0.000000 0.000000
# 4 0.000000 0.000000 0.000000 0.043477 0.000000 0.000000
# 5 0.000000 0.000000 0.000000 0.000000 0.098699 0.000000
# 6 0.000000 0.000000 0.000000 0.000000 0.000000 0.141393
#
#
# Mechanical properties :
#
#
# Convention : Reuss Voigt Hill
#
# Bulk Modulus (GPa) = 21.71175 22.14727 21.92951
# Shear Modulus (GPa) = 13.55898 17.86040 15.70969
#
# Velocity S-wave (km/s) = 2.85419 3.27578 3.07223
# Velocity P-wave (km/s) = 4.88944 5.25491 5.07546
#
# Compressibility (1/GPa) = 0.04605801
#
# Stress axis : x y z
#
# Youngs Moduli (GPa) = 41.11482 55.71413 63.78705
#
# Poissons Ratio (x) = 0.18535 0.11763
# Poissons Ratio (y) = 0.13678 0.04938
# Poissons Ratio (z) = 0.07582 0.04313
#
# Static dielectric constant tensor:
#      x y z
#    x 1.583970 0.000000 0.000000 
#    y 0.000000 1.625750 0.000000 
#    z 0.000000 0.000000 1.668700 
# 
# From -- ./inp_files/3975.got.cif
#   From: 2010.05.17/outbox.cif.g08.bks.cpg/sg59_2_cif.got.tgz:3975.got - 2010.06.03 14:40:33.
