data_PCOD9446831
_publ_section_title
;
Structure prediction by ZEFSAII (Michael W. Deem and Ramdas Pophale) SiO2 
 PCOD9446831
Probable space group: P M M N
;
_chemical_formula_sum "Si O2"
_cell_formula_units_Z 48
_cell_length_a 35.887606
_cell_length_b 7.933774
_cell_length_c 9.051536
_cell_angle_alpha 90.000000
_cell_angle_beta 90.000000
_cell_angle_gamma 90.000000
_cell_volume 2577.190943
_symmetry_space_group_name_H-M "P M M N"
_symmetry_group_IT_number 59
_space_group.IT_coordinate_system_code '2'
_symmetry_cell_setting 'orthorhombic'
loop_
_space_group_symop_operation_xyz
x,y,z
1/2-x,1/2-y,z
1/2+x,-y,-z
-x,1/2+y,-z
-x,-y,-z
1/2+x,1/2+y,-z
1/2-x,y,z
x,1/2-y,z
loop_
_atom_site_type_symbol
_atom_site_label
_atom_site_fract_x
_atom_site_fract_y
_atom_site_fract_z
Si Si1 0.927885 0.454246 0.341791
Si Si2 0.154862 0.556934 0.693413
Si Si3 0.292999 0.250000 0.696432
Si Si4 0.157834 0.564955 0.333150
Si Si5 0.707243 0.750000 0.664764
Si Si6 0.001329 0.047112 0.169926
Si Si7 0.076782 0.051940 0.319621
O O1 0.928632 0.250000 0.356721
O O2 0.887745 0.493356 0.269618
O O3 0.963924 0.512027 0.251904
O O4 0.928801 0.530359 0.505086
O O5 0.162122 0.750000 0.741685
O O6 0.184402 0.417302 0.742821
O O7 0.155854 0.559057 0.513123
O O8 0.250000 0.250000 0.743999
O O9 0.292960 0.250000 0.515784
O O10 0.171260 0.750000 0.290294
O O11 0.184801 0.415125 0.286364
O O12 0.115573 0.536684 0.280113
O O13 0.750000 0.750000 0.712390
O O14 0.001693 0.250000 0.184979
O O15 0.039778 0.984051 0.241342
O O16 0.000000 0.000000 0.000000
O O17 0.081099 0.250000 0.286481
#
# Coordination Sequence:
#
# PCOD9446831 Si02
#       7
#     8   8   4   8   4   8   8
#     4   9  18  32  49  70  94 127 171 211 246 297
#     4   8  15  26  41  61  89 122 159 200 238 283
#     4   9  16  24  38  62  93 125 159 195 241 295
#     4   9  16  27  43  64  92 128 165 204 246 293
#     4   9  16  26  40  64  97 129 163 205 249 299
#     4  10  22  36  48  69 102 130 162 209 258 305
#     4  10  18  30  50  72  95 129 172 213 249 297
#
# _framework density 18.624929000000002
#
# number of rings (size 3 to 8) (size 9 to 14) (size 15 to 20)
#    0.000    2.833    0.833    2.000    3.500    2.667 
#    0.000    3.333    0.000    0.000    0.000    0.000 
#    0.000    2.667    0.000    4.333    0.000    6.167 
#
# Total GULP energy -267601.698700 kJ/mol
# GULP energy per Si atom -5575.035390 kJ/mol
# Density = 1.858254 g / cm^3
# Si number density = 18.624929 Si / 1000 Ang^3
#
#
#
# Elastic Constant Matrix: (Units=GPa)
#
#
# Indices 1 2 3 4 5 6 
#
# 1 179.4957 83.2434 26.7373 0.0000 0.0000 0.0000
# 2 83.2434 99.9820 9.1170 0.0000 0.0000 0.0000
# 3 26.7373 9.1170 14.7579 0.0000 0.0000 0.0000
# 4 0.0000 0.0000 0.0000 11.8512 0.0000 0.0000
# 5 0.0000 0.0000 0.0000 0.0000 -4.6737 0.0000
# 6 0.0000 0.0000 0.0000 0.0000 0.0000 20.1283
#
#
#
# Elastic Compliance Matrix: (Units=1/GPa)
#
#
# Indices 1 2 3 4 5 6 
#
# 1 0.011924 -0.008433 -0.016393 0.000000 0.000000 0.000000
# 2 -0.008433 0.016563 0.005046 0.000000 0.000000 0.000000
# 3 -0.016393 0.005046 0.094343 0.000000 0.000000 0.000000
# 4 0.000000 0.000000 0.000000 0.084379 0.000000 0.000000
# 5 0.000000 0.000000 0.000000 0.000000 -0.213965 0.000000
# 6 0.000000 0.000000 0.000000 0.000000 0.000000 0.049681
#
#
# Mechanical properties :
#
#
# Convention : Reuss Voigt Hill
#
# Bulk Modulus (GPa) = 12.00917 59.15902 35.58409
# Shear Modulus (GPa) = 45.35446 17.13703 31.24575
#
# Velocity S-wave (km/s) = 4.94008 3.03663 4.10033
# Velocity P-wave (km/s) = 6.24508 6.64282 6.44702
#
# Compressibility (1/GPa) = 0.08326971
#
# Stress axis : x y z
#
# Youngs Moduli (GPa) = 83.86510 60.37668 10.59958
#
# Poissons Ratio (x) = 0.50914 0.17376
# Poissons Ratio (y) = 0.70722 -0.05349
# Poissons Ratio (z) = 1.37483 -0.30466
#
# Static dielectric constant tensor:
#      x y z
#    x 1.650300 0.000000 0.000000 
#    y 0.000000 1.574180 0.000000 
#    z 0.000000 0.000000 1.595210 
# 
# From -- ./inp_files/13062.got.cif
#   From: 2010.05.17/outbox.cif.g08.bks.cpg/sg59_7_cif.got.tgz:13062.got - 2010.06.03 14:40:33.
