data_PCOD9446743
_publ_section_title
;
Structure prediction by ZEFSAII (Michael W. Deem and Ramdas Pophale) SiO2 
 PCOD9446743
Probable space group: P M M N
;
_chemical_formula_sum "Si O2"
_cell_formula_units_Z 48
_cell_length_a 24.206639
_cell_length_b 7.420534
_cell_length_c 13.258386
_cell_angle_alpha 90.000000
_cell_angle_beta 90.000000
_cell_angle_gamma 90.000000
_cell_volume 2381.553333
_symmetry_space_group_name_H-M "P M M N"
_symmetry_group_IT_number 59
_space_group.IT_coordinate_system_code '2'
_symmetry_cell_setting 'orthorhombic'
loop_
_space_group_symop_operation_xyz
x,y,z
1/2-x,1/2-y,z
1/2+x,-y,-z
-x,1/2+y,-z
-x,-y,-z
1/2+x,1/2+y,-z
1/2-x,y,z
x,1/2-y,z
loop_
_atom_site_type_symbol
_atom_site_label
_atom_site_fract_x
_atom_site_fract_y
_atom_site_fract_z
Si Si1 0.995859 0.463717 0.119897
Si Si2 0.686673 0.529615 0.992386
Si Si3 0.126002 0.460488 0.808206
Si Si4 0.612963 0.970399 0.802059
Si Si5 0.813617 0.530711 0.387774
Si Si6 0.686621 0.530231 0.616217
O O1 0.995291 0.250000 0.131109
O O2 0.938577 0.529365 0.166705
O O3 0.050665 0.532143 0.176257
O O4 0.000000 0.500000 0.000000
O O5 0.750000 0.474086 0.983778
O O6 0.685770 0.750000 0.992916
O O7 0.659135 0.464508 0.095969
O O8 0.650380 0.474516 0.896960
O O9 0.141057 0.250000 0.804867
O O10 0.146011 0.533826 0.700622
O O11 0.612097 0.750000 0.800970
O O12 0.642779 0.029281 0.699580
O O13 0.750000 0.482084 0.364130
O O14 0.815523 0.750000 0.391500
O O15 0.826122 0.471253 0.501947
O O16 0.750000 0.477234 0.640533
O O17 0.686347 0.750000 0.617131
#
# Coordination Sequence:
#
# PCOD9446743 Si02
#       6
#     8   8   8   8   8   8
#     4  11  21  34  49  67  93 128 164 196 235 282
#     4   9  15  23  40  66  91 115 148 191 233 274
#     4  10  18  30  47  70  97 124 156 190 230 278
#     4   9  16  26  41  64  92 121 155 193 234 278
#     4   8  14  25  44  70  97 124 153 190 236 280
#     4   8  13  23  41  67  97 122 147 189 242 282
#
# _framework density 20.154914000000002
#
# number of rings (size 3 to 8) (size 9 to 14) (size 15 to 20)
#    0.000    2.833    1.667    2.500    0.000    4.000 
#    0.000    0.833    0.000    2.000    0.000    1.167 
#    0.000    2.667    0.000    0.000    0.000    0.000 
#
# Total GULP energy -267883.569166 kJ/mol
# GULP energy per Si atom -5580.907691 kJ/mol
# Density = 2.010904 g / cm^3
# Si number density = 20.154914 Si / 1000 Ang^3
#
#
#
# Elastic Constant Matrix: (Units=GPa)
#
#
# Indices 1 2 3 4 5 6 
#
# 1 99.7467 -16.9202 69.9865 0.0000 0.0000 0.0000
# 2 -16.9202 60.2660 -5.3503 0.0000 0.0000 0.0000
# 3 69.9865 -5.3503 150.8850 0.0000 0.0000 0.0000
# 4 0.0000 0.0000 0.0000 -21.8786 0.0000 0.0000
# 5 0.0000 0.0000 0.0000 0.0000 30.2765 0.0000
# 6 0.0000 0.0000 0.0000 0.0000 0.0000 13.5263
#
#
#
# Elastic Compliance Matrix: (Units=1/GPa)
#
#
# Indices 1 2 3 4 5 6 
#
# 1 0.015671 0.003766 -0.007135 0.000000 0.000000 0.000000
# 2 0.003766 0.017551 -0.001125 0.000000 0.000000 0.000000
# 3 -0.007135 -0.001125 0.009897 0.000000 0.000000 0.000000
# 4 0.000000 0.000000 0.000000 -0.045707 0.000000 0.000000
# 5 0.000000 0.000000 0.000000 0.000000 0.033029 0.000000
# 6 0.000000 0.000000 0.000000 0.000000 0.000000 0.073930
#
#
# Mechanical properties :
#
#
# Convention : Reuss Voigt Hill
#
# Bulk Modulus (GPa) = 29.29846 45.14776 37.22311
# Shear Modulus (GPa) = 40.08508 21.93028 31.00768
#
# Velocity S-wave (km/s) = 4.46449 3.30219 3.92659
# Velocity P-wave (km/s) = 6.41434 6.08180 6.25028
#
# Compressibility (1/GPa) = 0.03413149
#
# Stress axis : x y z
#
# Youngs Moduli (GPa) = 63.81411 56.97795 101.03855
#
# Poissons Ratio (x) = -0.21459 0.72092
# Poissons Ratio (y) = -0.24034 0.11363
# Poissons Ratio (z) = 0.45532 0.06408
#
# Static dielectric constant tensor:
#      x y z
#    x 1.663510 0.000000 0.000000 
#    y 0.000000 1.807730 0.000000 
#    z 0.000000 0.000000 1.688800 
# 
# From -- ./inp_files/16116.got.cif
#   From: 2010.05.17/outbox.cif.g08.bks.cpg/sg59_9_cif.got.tgz:16116.got - 2010.06.03 14:40:33.
