data_PCOD9446828
_publ_section_title
;
Structure prediction by ZEFSAII (Michael W. Deem and Ramdas Pophale) SiO2 
 PCOD9446828
Probable space group: P M M N
;
_chemical_formula_sum "Si O2"
_cell_formula_units_Z 64
_cell_length_a 7.755853
_cell_length_b 21.363193
_cell_length_c 21.432990
_cell_angle_alpha 90.000000
_cell_angle_beta 90.000000
_cell_angle_gamma 90.000000
_cell_volume 3551.227495
_symmetry_space_group_name_H-M "P M M N"
_symmetry_group_IT_number 59
_space_group.IT_coordinate_system_code '2'
_symmetry_cell_setting 'orthorhombic'
loop_
_space_group_symop_operation_xyz
x,y,z
1/2-x,1/2-y,z
1/2+x,-y,-z
-x,1/2+y,-z
-x,-y,-z
1/2+x,1/2+y,-z
1/2-x,y,z
x,1/2-y,z
loop_
_atom_site_type_symbol
_atom_site_label
_atom_site_fract_x
_atom_site_fract_y
_atom_site_fract_z
Si Si1 0.044073 0.817185 0.577603
Si Si2 0.543939 0.056176 0.952807
Si Si3 0.949234 0.649171 0.849753
Si Si4 0.553385 0.007634 0.307145
Si Si5 0.545055 0.006530 0.173923
Si Si6 0.548736 0.317876 0.013852
Si Si7 0.041529 0.350777 0.285454
Si Si8 0.541747 0.458826 0.440017
O O1 0.250000 0.817772 0.567503
O O2 0.977960 0.750000 0.551882
O O3 0.978898 0.886178 0.556196
O O4 0.007992 0.816129 0.651700
O O5 0.750000 0.059691 0.951314
O O6 0.482692 0.039359 0.883700
O O7 0.472731 0.121342 0.979996
O O8 0.500000 0.000000 0.000000
O O9 0.750000 0.666692 0.857436
O O10 0.009898 0.674340 0.782474
O O11 0.963106 0.573612 0.843599
O O12 0.041986 0.670874 0.911837
O O13 0.750000 0.984351 0.312185
O O14 0.478751 0.982473 0.241592
O O15 0.547468 0.081912 0.293143
O O16 0.474719 0.007077 0.376632
O O17 0.750000 0.017442 0.180547
O O18 0.750000 0.315555 0.996280
O O19 0.470757 0.250000 0.999649
O O20 0.250000 0.358376 0.284043
O O21 0.500000 0.500000 0.500000
O O22 0.750000 0.455323 0.433334
#
# Coordination Sequence:
#
# PCOD9446828 Si02
#       8
#     8   8   8   8   8   8   8   8
#     4   9  18  32  47  63  88 126 166 195 223 271
#     4  11  21  33  51  73  95 120 156 202 247 290
#     4  10  19  30  45  66  93 124 157 194 235 276
#     4   8  16  30  46  66  94 126 158 188 226 279
#     4  10  18  30  50  72  94 122 157 199 239 281
#     4  10  22  37  49  63  88 124 161 195 237 292
#     4   9  17  27  41  64  92 120 153 194 232 265
#     4   9  17  30  48  71  97 125 156 192 232 276
#
# _framework density 18.021937999999999
#
# number of rings (size 3 to 8) (size 9 to 14) (size 15 to 20)
#    0.000    2.500    1.250    2.250    0.000    5.500 
#    0.000    2.500    0.000    0.000    0.000    0.875 
#    0.000    7.000    0.000    0.000    0.000    0.000 
#
# Total GULP energy -356372.714016 kJ/mol
# GULP energy per Si atom -5568.323657 kJ/mol
# Density = 1.798092 g / cm^3
# Si number density = 18.021938 Si / 1000 Ang^3
#
#
#
# Elastic Constant Matrix: (Units=GPa)
#
#
# Indices 1 2 3 4 5 6 
#
# 1 33.4210 -1.5245 -1.3967 0.0000 0.0000 0.0000
# 2 -1.5245 108.0659 67.6531 0.0000 0.0000 0.0000
# 3 -1.3967 67.6531 131.4323 0.0000 0.0000 0.0000
# 4 0.0000 0.0000 0.0000 67.3287 0.0000 0.0000
# 5 0.0000 0.0000 0.0000 0.0000 21.3101 0.0000
# 6 0.0000 0.0000 0.0000 0.0000 0.0000 5.8390
#
#
#
# Elastic Compliance Matrix: (Units=1/GPa)
#
#
# Indices 1 2 3 4 5 6 
#
# 1 0.029943 0.000329 0.000149 0.000000 0.000000 0.000000
# 2 0.000329 0.013657 -0.007026 0.000000 0.000000 0.000000
# 3 0.000149 -0.007026 0.011227 0.000000 0.000000 0.000000
# 4 0.000000 0.000000 0.000000 0.014853 0.000000 0.000000
# 5 0.000000 0.000000 0.000000 0.000000 0.046926 0.000000
# 6 0.000000 0.000000 0.000000 0.000000 0.000000 0.171262
#
#
# Mechanical properties :
#
#
# Convention : Reuss Voigt Hill
#
# Bulk Modulus (GPa) = 23.96370 44.70922 34.33646
# Shear Modulus (GPa) = 15.87940 32.77472 24.32706
#
# Velocity S-wave (km/s) = 2.97158 4.26913 3.67803
# Velocity P-wave (km/s) = 5.00994 7.01161 6.09353
#
# Compressibility (1/GPa) = 0.04172978
#
# Stress axis : x y z
#
# Youngs Moduli (GPa) = 33.39727 73.22286 89.07316
#
# Poissons Ratio (x) = -0.02412 -0.01324
# Poissons Ratio (y) = -0.01100 0.62585
# Poissons Ratio (z) = -0.00497 0.51448
#
# Static dielectric constant tensor:
#      x y z
#    x 1.673690 0.000000 0.000000 
#    y 0.000000 1.646520 0.000000 
#    z 0.000000 0.000000 1.635590 
# 
# From -- ./inp_files/29719.got.cif
#   From: 2010.05.17/outbox.cif.g08.bks.cpg/sg59_15_cif.got.tgz:29719.got - 2010.06.03 14:40:33.
