data_PCOD9446706
_publ_section_title
;
Structure prediction by ZEFSAII (Michael W. Deem and Ramdas Pophale) SiO2 
 PCOD9446706
Probable space group: P M M N
;
_chemical_formula_sum "Si O2"
_cell_formula_units_Z 64
_cell_length_a 17.429608
_cell_length_b 15.348639
_cell_length_c 11.968022
_cell_angle_alpha 90.000000
_cell_angle_beta 90.000000
_cell_angle_gamma 90.000000
_cell_volume 3201.694354
_symmetry_space_group_name_H-M "P M M N"
_symmetry_group_IT_number 59
_space_group.IT_coordinate_system_code '2'
_symmetry_cell_setting 'orthorhombic'
loop_
_space_group_symop_operation_xyz
x,y,z
1/2-x,1/2-y,z
1/2+x,-y,-z
-x,1/2+y,-z
-x,-y,-z
1/2+x,1/2+y,-z
1/2-x,y,z
x,1/2-y,z
loop_
_atom_site_type_symbol
_atom_site_label
_atom_site_fract_x
_atom_site_fract_y
_atom_site_fract_z
Si Si1 0.919841 0.155188 0.121880
Si Si2 0.335234 0.892271 0.662474
Si Si3 0.128404 0.347223 0.426670
Si Si4 0.001985 0.850255 0.245397
Si Si5 0.100661 0.354210 0.175213
Si Si6 0.834362 0.596465 0.325112
Si Si7 0.578255 0.025099 0.938218
Si Si8 0.529777 0.399673 0.505116
O O1 0.923226 0.250000 0.067407
O O2 0.868360 0.155725 0.231027
O O3 0.007245 0.138417 0.166922
O O4 0.886169 0.087624 0.032123
O O5 0.250000 0.864943 0.633531
O O6 0.392076 0.886371 0.559031
O O7 0.335401 0.993994 0.696725
O O8 0.159602 0.250000 0.433157
O O9 0.135406 0.376086 0.297931
O O10 0.157591 0.394066 0.539129
O O11 0.037020 0.346835 0.444165
O O12 0.012720 0.750000 0.211470
O O13 0.909683 0.865656 0.263551
O O14 0.046670 0.916925 0.165007
O O15 0.034086 0.868484 0.368699
O O16 0.117797 0.250000 0.152039
O O17 0.122354 0.436378 0.095906
O O18 0.750000 0.632204 0.293895
O O19 0.500000 0.000000 0.000000
O O20 0.500000 0.500000 0.500000
#
# Coordination Sequence:
#
# PCOD9446706 Si02
#       8
#     8   8   8   8   8   8   8   8
#     4  10  20  35  54  77 110 150 194 241 287 338
#     4  11  22  35  56  85 115 151 194 241 299 355
#     4  10  18  29  50  77 108 148 188 226 279 353
#     4  11  22  34  55  87 117 155 199 243 293 352
#     4   9  17  30  53  83 109 140 187 240 289 340
#     4  10  20  33  50  79 118 154 188 230 291 359
#     4  10  20  34  56  79 112 145 187 244 295 335
#     4  11  18  32  56  78 116 151 187 236 293 345
#
# _framework density 19.989415999999999
#
# number of rings (size 3 to 8) (size 9 to 14) (size 15 to 20)
#    0.000    1.750    3.750    4.125    0.000    2.250 
#    0.000    0.000    0.000    1.500    0.000    2.625 
#    0.000    9.000    0.000    0.000    0.000    0.000 
#
# Total GULP energy -356443.859908 kJ/mol
# GULP energy per Si atom -5569.435311 kJ/mol
# Density = 1.994392 g / cm^3
# Si number density = 19.989416 Si / 1000 Ang^3
#
#
#
# Elastic Constant Matrix: (Units=GPa)
#
#
# Indices 1 2 3 4 5 6 
#
# 1 78.0283 2.4950 9.9179 0.0000 0.0000 0.0000
# 2 2.4950 98.8800 29.7142 0.0000 0.0000 0.0000
# 3 9.9179 29.7142 69.0430 0.0000 0.0000 0.0000
# 4 0.0000 0.0000 0.0000 17.9221 0.0000 0.0000
# 5 0.0000 0.0000 0.0000 0.0000 10.8493 0.0000
# 6 0.0000 0.0000 0.0000 0.0000 0.0000 -0.9774
#
#
#
# Elastic Compliance Matrix: (Units=1/GPa)
#
#
# Indices 1 2 3 4 5 6 
#
# 1 0.013060 0.000269 -0.001992 0.000000 0.000000 0.000000
# 2 0.000269 0.011621 -0.005040 0.000000 0.000000 0.000000
# 3 -0.001992 -0.005040 0.016939 0.000000 0.000000 0.000000
# 4 0.000000 0.000000 0.000000 0.055797 0.000000 0.000000
# 5 0.000000 0.000000 0.000000 0.000000 0.092172 0.000000
# 6 0.000000 0.000000 0.000000 0.000000 0.000000 -1.023104
#
#
# Mechanical properties :
#
#
# Convention : Reuss Voigt Hill
#
# Bulk Modulus (GPa) = 35.59394 36.68949 36.14171
# Shear Modulus (GPa) = -6.16809 19.14707 6.48949
#
# Velocity S-wave (km/s) = -1.75851 3.09829 1.80375
# Velocity P-wave (km/s) = 3.70431 5.58511 4.73895
#
# Compressibility (1/GPa) = 0.02809467
#
# Stress axis : x y z
#
# Youngs Moduli (GPa) = 76.56705 86.05083 59.03559
#
# Poissons Ratio (x) = -0.02315 0.11759
# Poissons Ratio (y) = -0.02060 0.29754
# Poissons Ratio (z) = 0.15251 0.43370
#
# Static dielectric constant tensor:
#      x y z
#    x 1.713030 0.000000 0.000000 
#    y 0.000000 2.613160 0.000000 
#    z 0.000000 0.000000 1.742650 
# 
# From -- ./inp_files/17867.got.cif
#   From: 2010.05.17/outbox.cif.g08.bks.cpg/sg59_9_cif.got.tgz:17867.got - 2010.06.03 14:40:33.
