data_PCOD9446210
_publ_section_title
;
Structure prediction by ZEFSAII (Michael W. Deem and Ramdas Pophale) SiO2 
 PCOD9446210
Probable space group: P M M N
;
_chemical_formula_sum "Si O2"
_cell_formula_units_Z 64
_cell_length_a 8.687518
_cell_length_b 27.203592
_cell_length_c 17.872092
_cell_angle_alpha 90.000000
_cell_angle_beta 90.000000
_cell_angle_gamma 90.000000
_cell_volume 4223.741798
_symmetry_space_group_name_H-M "P M M N"
_symmetry_group_IT_number 59
_space_group.IT_coordinate_system_code '2'
_symmetry_cell_setting 'orthorhombic'
loop_
_space_group_symop_operation_xyz
x,y,z
1/2-x,1/2-y,z
1/2+x,-y,-z
-x,1/2+y,-z
-x,-y,-z
1/2+x,1/2+y,-z
1/2-x,y,z
x,1/2-y,z
loop_
_atom_site_type_symbol
_atom_site_label
_atom_site_fract_x
_atom_site_fract_y
_atom_site_fract_z
Si Si1 0.565250 0.554864 0.987961
Si Si2 0.430213 0.463600 0.603662
Si Si3 0.563492 0.886248 0.519505
Si Si4 0.937240 0.537266 0.825751
Si Si5 0.434076 0.575746 0.140709
Si Si6 0.934104 0.563063 0.663235
Si Si7 0.065686 0.693346 0.407710
Si Si8 0.430010 0.126512 0.719204
O O1 0.750000 0.554163 0.992714
O O2 0.520662 0.565888 0.901957
O O3 0.500000 0.500000 0.000000
O O4 0.498450 0.584952 0.057486
O O5 0.250000 0.477207 0.596587
O O6 0.479804 0.434607 0.529154
O O7 0.527203 0.510681 0.626034
O O8 0.443592 0.422843 0.668847
O O9 0.750000 0.883280 0.516466
O O10 0.511700 0.895650 0.604545
O O11 0.497305 0.839663 0.475934
O O12 0.750000 0.536405 0.822989
O O13 0.984886 0.479827 0.834394
O O14 0.994645 0.560336 0.748163
O O15 0.250000 0.575377 0.138318
O O16 0.492467 0.614032 0.202081
O O17 0.750000 0.568167 0.667524
O O18 0.250000 0.691035 0.408175
O O19 0.016895 0.750000 0.413739
O O20 0.005550 0.668849 0.331004
O O21 0.250000 0.136865 0.729256
#
# Coordination Sequence:
#
# PCOD9446210 Si02
#       8
#     8   8   8   8   8   8   8   8
#     4   9  16  26  38  55  81 116 155 190 222 257
#     4   9  17  27  37  58  87 114 145 179 215 254
#     4   9  19  31  44  63  86 112 145 181 220 265
#     4   8  15  25  38  57  83 117 153 185 218 250
#     4  10  17  27  42  61  86 117 152 186 219 258
#     4  10  17  27  42  60  85 118 151 182 217 258
#     4  10  21  36  52  67  85 111 143 181 225 270
#     4  10  19  30  46  68  90 114 146 183 222 265
#
# _framework density 15.152442000000001
#
# number of rings (size 3 to 8) (size 9 to 14) (size 15 to 20)
#    0.000    2.625    1.250    3.375    0.000    3.500 
#    0.000    0.625    0.000    0.000    0.000    0.000 
#    0.000    1.000    0.000    9.250    0.000    3.125 
#
# Total GULP energy -356439.374842 kJ/mol
# GULP energy per Si atom -5569.365232 kJ/mol
# Density = 1.511795 g / cm^3
# Si number density = 15.152442 Si / 1000 Ang^3
#
#
#
# Elastic Constant Matrix: (Units=GPa)
#
#
# Indices 1 2 3 4 5 6 
#
# 1 25.2856 15.7732 33.7873 0.0000 0.0000 0.0000
# 2 15.7732 50.7751 54.2407 0.0000 0.0000 0.0000
# 3 33.7873 54.2407 159.7745 0.0000 0.0000 0.0000
# 4 0.0000 0.0000 0.0000 10.5083 0.0000 0.0000
# 5 0.0000 0.0000 0.0000 0.0000 18.7443 0.0000
# 6 0.0000 0.0000 0.0000 0.0000 0.0000 15.6593
#
#
#
# Elastic Compliance Matrix: (Units=1/GPa)
#
#
# Indices 1 2 3 4 5 6 
#
# 1 0.056920 -0.007568 -0.009467 0.000000 0.000000 0.000000
# 2 -0.007568 0.031907 -0.009232 0.000000 0.000000 0.000000
# 3 -0.009467 -0.009232 0.011395 0.000000 0.000000 0.000000
# 4 0.000000 0.000000 0.000000 0.095163 0.000000 0.000000
# 5 0.000000 0.000000 0.000000 0.000000 0.053349 0.000000
# 6 0.000000 0.000000 0.000000 0.000000 0.000000 0.063860
#
#
# Mechanical properties :
#
#
# Convention : Reuss Voigt Hill
#
# Bulk Modulus (GPa) = 20.96988 49.27086 35.12037
# Shear Modulus (GPa) = 13.12248 17.78464 15.45356
#
# Velocity S-wave (km/s) = 2.94603 3.42967 3.19701
# Velocity P-wave (km/s) = 5.04395 6.94772 6.07093
#
# Compressibility (1/GPa) = 0.04768744
#
# Stress axis : x y z
#
# Youngs Moduli (GPa) = 17.56849 31.34061 87.75893
#
# Poissons Ratio (x) = 0.23720 0.83085
# Poissons Ratio (y) = 0.13297 0.81015
# Poissons Ratio (z) = 0.16633 0.28932
#
# Static dielectric constant tensor:
#      x y z
#    x 1.510580 0.000000 0.000000 
#    y 0.000000 1.471350 0.000000 
#    z 0.000000 0.000000 1.558120 
# 
# From -- ./inp_files/26663.got.cif
#   From: 2010.05.17/outbox.cif.g08.bks.cpg/sg59_14_cif.got.tgz:26663.got - 2010.06.03 14:40:33.
