data_PCOD9446496
_publ_section_title
;
Structure prediction by ZEFSAII (Michael W. Deem and Ramdas Pophale) SiO2 
 PCOD9446496
Probable space group: P M M N
;
_chemical_formula_sum "Si O2"
_cell_formula_units_Z 64
_cell_length_a 19.335370
_cell_length_b 9.010266
_cell_length_c 22.119913
_cell_angle_alpha 90.000000
_cell_angle_beta 90.000000
_cell_angle_gamma 90.000000
_cell_volume 3853.661054
_symmetry_space_group_name_H-M "P M M N"
_symmetry_group_IT_number 59
_space_group.IT_coordinate_system_code '2'
_symmetry_cell_setting 'orthorhombic'
loop_
_space_group_symop_operation_xyz
x,y,z
1/2-x,1/2-y,z
1/2+x,-y,-z
-x,1/2+y,-z
-x,-y,-z
1/2+x,1/2+y,-z
1/2-x,y,z
x,1/2-y,z
loop_
_atom_site_type_symbol
_atom_site_label
_atom_site_fract_x
_atom_site_fract_y
_atom_site_fract_z
Si Si1 0.508665 0.426266 0.307996
Si Si2 0.669374 0.573957 0.093801
Si Si3 0.324388 0.071892 0.388303
Si Si4 0.368226 0.925240 0.268193
Si Si5 0.831662 0.073074 0.965089
Si Si6 0.595931 0.926884 0.851994
Si Si7 0.472243 0.426580 0.439710
Si Si8 0.935566 0.075444 0.183270
O O1 0.487616 0.250000 0.302602
O O2 0.446112 0.531643 0.288162
O O3 0.518253 0.454187 0.379177
O O4 0.565433 0.448372 0.256002
O O5 0.750000 0.541619 0.107839
O O6 0.662612 0.750000 0.084563
O O7 0.619097 0.519499 0.146475
O O8 0.651992 0.490299 0.031414
O O9 0.250000 0.038388 0.417621
O O10 0.329535 0.250000 0.380899
O O11 0.393687 0.024341 0.423407
O O12 0.325674 0.998207 0.322360
O O13 0.357539 0.750000 0.264729
O O14 0.360897 0.000190 0.202865
O O15 0.750000 0.041925 0.953692
O O16 0.841408 0.250000 0.963812
O O17 0.877990 0.995848 0.914326
O O18 0.605131 0.750000 0.851404
O O19 0.514290 0.956007 0.839195
O O20 0.500000 0.500000 0.500000
O O21 0.470617 0.250000 0.448569
O O22 0.922778 0.250000 0.172161
#
# Coordination Sequence:
#
# PCOD9446496 Si02
#       8
#     8   8   8   8   8   8   8   8
#     4   8  16  32  50  70  98 128 159 193 233 286
#     4  10  21  36  53  73  97 126 160 200 253 311
#     4   9  18  33  50  67  93 132 173 207 240 284
#     4  10  18  28  45  70  98 125 156 196 240 284
#     4  10  21  36  52  70  94 126 166 209 248 291
#     4  10  20  34  51  72 100 133 166 199 243 297
#     4   9  17  30  50  75 101 131 165 200 240 287
#     4   9  18  33  54  76  96 124 163 205 244 285
#
# _framework density 16.607585
#
# number of rings (size 3 to 8) (size 9 to 14) (size 15 to 20)
#    0.000    2.625    0.000    3.750    0.000    7.250 
#    0.000    0.000    0.000    0.750    0.000    3.500 
#    0.000    0.000    0.000    0.000    0.000    0.000 
#
# Total GULP energy -356527.005093 kJ/mol
# GULP energy per Si atom -5570.734455 kJ/mol
# Density = 1.656979 g / cm^3
# Si number density = 16.607585 Si / 1000 Ang^3
#
#
#
# Elastic Constant Matrix: (Units=GPa)
#
#
# Indices 1 2 3 4 5 6 
#
# 1 61.4514 36.0347 62.8772 0.0000 0.0000 0.0000
# 2 36.0347 49.0153 49.9978 0.0000 0.0000 0.0000
# 3 62.8772 49.9978 137.1849 0.0000 0.0000 0.0000
# 4 0.0000 0.0000 0.0000 33.9909 0.0000 0.0000
# 5 0.0000 0.0000 0.0000 0.0000 15.0071 0.0000
# 6 0.0000 0.0000 0.0000 0.0000 0.0000 21.1908
#
#
#
# Elastic Compliance Matrix: (Units=1/GPa)
#
#
# Indices 1 2 3 4 5 6 
#
# 1 0.036978 -0.015753 -0.011207 0.000000 0.000000 0.000000
# 2 -0.015753 0.039186 -0.007061 0.000000 0.000000 0.000000
# 3 -0.011207 -0.007061 0.014999 0.000000 0.000000 0.000000
# 4 0.000000 0.000000 0.000000 0.029420 0.000000 0.000000
# 5 0.000000 0.000000 0.000000 0.000000 0.066635 0.000000
# 6 0.000000 0.000000 0.000000 0.000000 0.000000 0.047190
#
#
# Mechanical properties :
#
#
# Convention : Reuss Voigt Hill
#
# Bulk Modulus (GPa) = 43.25226 60.60788 51.93007
# Shear Modulus (GPa) = 16.12084 20.62056 18.37070
#
# Velocity S-wave (km/s) = 3.11897 3.52751 3.32951
# Velocity P-wave (km/s) = 6.25067 7.29139 6.79100
#
# Compressibility (1/GPa) = 0.02312018
#
# Stress axis : x y z
#
# Youngs Moduli (GPa) = 27.04334 25.51943 66.66903
#
# Poissons Ratio (x) = 0.40202 0.74716
# Poissons Ratio (y) = 0.42602 0.47076
# Poissons Ratio (z) = 0.30307 0.18020
#
# Static dielectric constant tensor:
#      x y z
#    x 1.577990 0.000000 0.000000 
#    y 0.000000 1.555230 0.000000 
#    z 0.000000 0.000000 1.556760 
# 
# From -- ./inp_files/31002.got.cif
#   From: 2010.05.17/outbox.cif.g08.bks.cpg/sg59_16_cif.got.tgz:31002.got - 2010.06.03 14:40:33.
