data_PCOD9446128
_publ_section_title
;
Structure prediction by ZEFSAII (Michael W. Deem and Ramdas Pophale) SiO2 
 PCOD9446128
Probable space group: P M M N
;
_chemical_formula_sum "Si O2"
_cell_formula_units_Z 56
_cell_length_a 8.520071
_cell_length_b 18.869916
_cell_length_c 19.203618
_cell_angle_alpha 90.000000
_cell_angle_beta 90.000000
_cell_angle_gamma 90.000000
_cell_volume 3087.423739
_symmetry_space_group_name_H-M "P M M N"
_symmetry_group_IT_number 59
_space_group.IT_coordinate_system_code '2'
_symmetry_cell_setting 'orthorhombic'
loop_
_space_group_symop_operation_xyz
x,y,z
1/2-x,1/2-y,z
1/2+x,-y,-z
-x,1/2+y,-z
-x,-y,-z
1/2+x,1/2+y,-z
1/2-x,y,z
x,1/2-y,z
loop_
_atom_site_type_symbol
_atom_site_label
_atom_site_fract_x
_atom_site_fract_y
_atom_site_fract_z
Si Si1 0.436034 0.081131 0.501470
Si Si2 0.941757 0.168011 0.072882
Si Si3 0.434910 0.835141 0.081520
Si Si4 0.564824 0.422358 0.643202
Si Si5 0.558751 0.422033 0.204508
Si Si6 0.436468 0.917522 0.643200
Si Si7 0.935984 0.586007 0.213612
O O1 0.250000 0.079471 0.507572
O O2 0.509409 0.113841 0.571507
O O3 0.484733 0.112243 0.426603
O O4 0.500000 0.000000 0.500000
O O5 0.750000 0.167047 0.072331
O O6 0.988492 0.250000 0.081550
O O7 0.996399 0.121261 0.137627
O O8 0.990375 0.142615 0.995862
O O9 0.250000 0.852570 0.088055
O O10 0.448537 0.750000 0.083762
O O11 0.524610 0.869851 0.145262
O O12 0.750000 0.435250 0.639534
O O13 0.476074 0.498344 0.645442
O O14 0.519985 0.386651 0.716224
O O15 0.750000 0.420736 0.203976
O O16 0.511347 0.391602 0.280292
O O17 0.511861 0.504467 0.200953
O O18 0.250000 0.909009 0.636718
O O19 0.750000 0.585697 0.226435
#
# Coordination Sequence:
#
# PCOD9446128 Si02
#       7
#     8   8   8   8   8   8   8
#     4  10  16  23  36  56  84 117 152 185 221 268
#     4   8  14  27  47  68  90 118 152 188 225 265
#     4   9  18  32  49  68  89 115 151 191 225 264
#     4  10  17  26  40  59  85 116 150 186 225 268
#     4   8  15  26  41  64  93 121 150 187 227 267
#     4   9  15  24  37  57  88 120 149 184 226 270
#     4  10  19  30  44  65  94 122 148 183 229 277
#
# _framework density 18.138100000000001
#
# number of rings (size 3 to 8) (size 9 to 14) (size 15 to 20)
#    0.000    2.857    0.000    6.857    0.000    0.857 
#    0.000    0.000    0.000    4.286    0.000    1.000 
#    0.000    5.714    0.000    0.000    0.000    0.000 
#
# Total GULP energy -311821.884405 kJ/mol
# GULP energy per Si atom -5568.247936 kJ/mol
# Density = 1.809682 g / cm^3
# Si number density = 18.138100 Si / 1000 Ang^3
#
#
#
# Elastic Constant Matrix: (Units=GPa)
#
#
# Indices 1 2 3 4 5 6 
#
# 1 47.0209 8.7025 32.2902 0.0000 0.0000 0.0000
# 2 8.7025 7.3288 27.8346 0.0000 0.0000 0.0000
# 3 32.2902 27.8346 185.1237 0.0000 0.0000 0.0000
# 4 0.0000 0.0000 0.0000 -11.6592 0.0000 0.0000
# 5 0.0000 0.0000 0.0000 0.0000 24.7029 0.0000
# 6 0.0000 0.0000 0.0000 0.0000 0.0000 9.3050
#
#
#
# Elastic Compliance Matrix: (Units=1/GPa)
#
#
# Indices 1 2 3 4 5 6 
#
# 1 0.027263 -0.033367 0.000262 0.000000 0.000000 0.000000
# 2 -0.033367 0.358934 -0.048148 0.000000 0.000000 0.000000
# 3 0.000262 -0.048148 0.012596 0.000000 0.000000 0.000000
# 4 0.000000 0.000000 0.000000 -0.085769 0.000000 0.000000
# 5 0.000000 0.000000 0.000000 0.000000 0.040481 0.000000
# 6 0.000000 0.000000 0.000000 0.000000 0.000000 0.107469
#
#
# Mechanical properties :
#
#
# Convention : Reuss Voigt Hill
#
# Bulk Modulus (GPa) = 4.23215 41.90311 23.06763
# Shear Modulus (GPa) = 7.12005 15.84614 11.48309
#
# Velocity S-wave (km/s) = 1.98343 2.95894 2.51886
# Velocity P-wave (km/s) = 2.75385 5.90137 4.60488
#
# Compressibility (1/GPa) = 0.23628627
#
# Stress axis : x y z
#
# Youngs Moduli (GPa) = 36.67977 2.78602 79.39285
#
# Poissons Ratio (x) = 0.09296 -0.02077
# Poissons Ratio (y) = 1.22388 3.82263
# Poissons Ratio (z) = -0.00959 0.13414
#
# Static dielectric constant tensor:
#      x y z
#    x 1.608790 0.000000 0.000000 
#    y 0.000000 1.597040 0.000000 
#    z 0.000000 0.000000 1.702990 
# 
# From -- ./inp_files/26063.got.cif
#   From: 2010.05.17/outbox.cif.g08.bks.cpg/sg59_14_cif.got.tgz:26063.got - 2010.06.03 14:40:33.
