data_PCOD9446702
_publ_section_title
;
Structure prediction by ZEFSAII (Michael W. Deem and Ramdas Pophale) SiO2 
 PCOD9446702
Probable space group: P M M N
;
_chemical_formula_sum "Si O2"
_cell_formula_units_Z 64
_cell_length_a 19.481141
_cell_length_b 9.215135
_cell_length_c 20.259444
_cell_angle_alpha 90.000000
_cell_angle_beta 90.000000
_cell_angle_gamma 90.000000
_cell_volume 3637.002621
_symmetry_space_group_name_H-M "P M M N"
_symmetry_group_IT_number 59
_space_group.IT_coordinate_system_code '2'
_symmetry_cell_setting 'orthorhombic'
loop_
_space_group_symop_operation_xyz
x,y,z
1/2-x,1/2-y,z
1/2+x,-y,-z
-x,1/2+y,-z
-x,-y,-z
1/2+x,1/2+y,-z
1/2-x,y,z
x,1/2-y,z
loop_
_atom_site_type_symbol
_atom_site_label
_atom_site_fract_x
_atom_site_fract_y
_atom_site_fract_z
Si Si1 0.407667 0.585675 0.730887
Si Si2 0.830352 0.912618 0.161075
Si Si3 0.929379 0.576915 0.400501
Si Si4 0.585989 0.076706 0.633417
Si Si5 0.329802 0.924189 0.495159
Si Si6 0.907918 0.920320 0.033375
Si Si7 0.568407 0.583124 0.767573
Si Si8 0.443115 0.577395 0.095503
O O1 0.389877 0.750000 0.711371
O O2 0.363935 0.528989 0.791618
O O3 0.400293 0.478203 0.669410
O O4 0.486663 0.583409 0.753605
O O5 0.750000 0.909451 0.172288
O O6 0.859374 0.750000 0.174919
O O7 0.847114 0.942337 0.084929
O O8 0.925209 0.750000 0.407033
O O9 0.883758 0.501246 0.456350
O O10 0.010761 0.536412 0.397244
O O11 0.583371 0.250000 0.645498
O O12 0.643825 0.046022 0.579084
O O13 0.597683 0.995887 0.702589
O O14 0.250000 0.967126 0.504906
O O15 0.334259 0.750000 0.505073
O O16 0.063862 0.750000 0.102001
O O17 0.903435 0.015487 0.967994
O O18 0.977375 0.954557 0.075078
O O19 0.591510 0.750000 0.772312
O O20 0.577655 0.499830 0.836571
O O21 0.412272 0.250000 0.985119
#
# Coordination Sequence:
#
# PCOD9446702 Si02
#       8
#     8   8   8   8   8   8   8   8
#     4  10  20  33  50  73 102 133 168 208 251 299
#     4  10  20  34  51  70  98 137 174 207 247 299
#     4  10  20  34  55  79 105 137 174 216 258 306
#     4   9  19  35  55  79 106 137 172 213 262 313
#     4  10  21  37  56  78 106 138 172 213 262 315
#     4   9  18  31  47  71 101 131 165 206 250 296
#     4  10  19  31  51  78 105 131 163 209 259 305
#     4  10  18  29  50  75 101 131 162 206 256 300
#
# _framework density 17.596909
#
# number of rings (size 3 to 8) (size 9 to 14) (size 15 to 20)
#    0.000    2.250    1.250    1.875    0.000    4.000 
#    0.000    0.000    0.000    0.750    0.000    0.000 
#    0.000    0.000    0.000    0.000    0.000    0.000 
#
# Total GULP energy -356893.854058 kJ/mol
# GULP energy per Si atom -5576.466470 kJ/mol
# Density = 1.755686 g / cm^3
# Si number density = 17.596909 Si / 1000 Ang^3
#
#
#
# Elastic Constant Matrix: (Units=GPa)
#
#
# Indices 1 2 3 4 5 6 
#
# 1 19.0225 11.9656 7.8974 0.0000 0.0000 0.0000
# 2 11.9656 45.0335 36.5933 0.0000 0.0000 0.0000
# 3 7.8974 36.5933 90.3943 0.0000 0.0000 0.0000
# 4 0.0000 0.0000 0.0000 36.5860 0.0000 0.0000
# 5 0.0000 0.0000 0.0000 0.0000 10.6831 0.0000
# 6 0.0000 0.0000 0.0000 0.0000 0.0000 12.5090
#
#
#
# Elastic Compliance Matrix: (Units=1/GPa)
#
#
# Indices 1 2 3 4 5 6 
#
# 1 0.063338 -0.018378 0.001906 0.000000 0.000000 0.000000
# 2 -0.018378 0.038423 -0.013949 0.000000 0.000000 0.000000
# 3 0.001906 -0.013949 0.016543 0.000000 0.000000 0.000000
# 4 0.000000 0.000000 0.000000 0.027333 0.000000 0.000000
# 5 0.000000 0.000000 0.000000 0.000000 0.093606 0.000000
# 6 0.000000 0.000000 0.000000 0.000000 0.000000 0.079943
#
#
# Mechanical properties :
#
#
# Convention : Reuss Voigt Hill
#
# Bulk Modulus (GPa) = 17.40256 29.70700 23.55478
# Shear Modulus (GPa) = 12.52562 18.48854 15.50708
#
# Velocity S-wave (km/s) = 2.67087 3.24492 2.97179
# Velocity P-wave (km/s) = 4.40709 5.56399 5.01898
#
# Compressibility (1/GPa) = 0.05746280
#
# Stress axis : x y z
#
# Youngs Moduli (GPa) = 15.78827 26.02582 60.44900
#
# Poissons Ratio (x) = 0.47830 -0.11523
# Poissons Ratio (y) = 0.29016 0.84320
# Poissons Ratio (z) = -0.03009 0.36303
#
# Static dielectric constant tensor:
#      x y z
#    x 1.594770 0.000000 0.000000 
#    y 0.000000 1.607680 0.000000 
#    z 0.000000 0.000000 1.587730 
# 
# From -- ./inp_files/29761.got.cif
#   From: 2010.05.17/outbox.cif.g08.bks.cpg/sg59_15_cif.got.tgz:29761.got - 2010.06.03 14:40:33.
