data_PCOD9446451
_publ_section_title
;
Structure prediction by ZEFSAII (Michael W. Deem and Ramdas Pophale) SiO2 
 PCOD9446451
Probable space group: P M M N
;
_chemical_formula_sum "Si O2"
_cell_formula_units_Z 64
_cell_length_a 9.320709
_cell_length_b 23.846867
_cell_length_c 16.293865
_cell_angle_alpha 90.000000
_cell_angle_beta 90.000000
_cell_angle_gamma 90.000000
_cell_volume 3621.632614
_symmetry_space_group_name_H-M "P M M N"
_symmetry_group_IT_number 59
_space_group.IT_coordinate_system_code '2'
_symmetry_cell_setting 'orthorhombic'
loop_
_space_group_symop_operation_xyz
x,y,z
1/2-x,1/2-y,z
1/2+x,-y,-z
-x,1/2+y,-z
-x,-y,-z
1/2+x,1/2+y,-z
1/2-x,y,z
x,1/2-y,z
loop_
_atom_site_type_symbol
_atom_site_label
_atom_site_fract_x
_atom_site_fract_y
_atom_site_fract_z
Si Si1 0.918856 0.018526 0.581551
Si Si2 0.420687 0.432929 0.267234
Si Si3 0.919181 0.810395 0.743844
Si Si4 0.917162 0.102907 0.947650
Si Si5 0.586136 0.897768 0.310591
Si Si6 0.582107 0.813105 0.941315
Si Si7 0.415336 0.015971 0.844600
Si Si8 0.584299 0.314471 0.791149
O O1 0.750000 0.025956 0.566699
O O2 0.936093 0.971469 0.652522
O O3 0.000000 0.000000 0.500000
O O4 0.989901 0.073987 0.619796
O O5 0.250000 0.430429 0.247354
O O6 0.476015 0.370246 0.285337
O O7 0.502827 0.462173 0.191771
O O8 0.750000 0.809147 0.722047
O O9 0.981926 0.750000 0.717936
O O10 0.926669 0.813149 0.842823
O O11 0.750000 0.090803 0.962860
O O12 0.926257 0.147181 0.872011
O O13 0.001118 0.047730 0.917293
O O14 0.991122 0.136626 0.021134
O O15 0.750000 0.891684 0.337316
O O16 0.584386 0.940303 0.232358
O O17 0.518807 0.840773 0.276693
O O18 0.750000 0.819855 0.964023
O O19 0.536516 0.750000 0.968554
O O20 0.250000 0.004270 0.865812
O O21 0.750000 0.318312 0.763436
O O22 0.551019 0.250000 0.809491
#
# Coordination Sequence:
#
# PCOD9446451 Si02
#       8
#     8   8   8   8   8   8   8   8
#     4  10  19  31  50  75  99 122 148 183 228 278
#     4   9  17  31  52  75  96 120 154 192 230 280
#     4   8  15  30  52  74  94 119 153 194 239 283
#     4  10  18  28  43  64  92 125 163 205 243 279
#     4   9  17  29  45  66  92 120 152 190 227 267
#     4   9  17  29  45  65  90 121 157 198 244 289
#     4   9  17  29  45  66  93 124 156 193 239 284
#     4   9  17  28  42  62  90 125 160 191 228 273
#
# _framework density 17.671588
#
# number of rings (size 3 to 8) (size 9 to 14) (size 15 to 20)
#    0.000    2.875    0.000    2.625    0.000    5.000 
#    0.000    1.250    0.000    1.875    0.000    1.750 
#    0.000    0.000    0.000    0.000    0.000    0.000 
#
# Total GULP energy -356683.757694 kJ/mol
# GULP energy per Si atom -5573.183714 kJ/mol
# Density = 1.763137 g / cm^3
# Si number density = 17.671588 Si / 1000 Ang^3
#
#
#
# Elastic Constant Matrix: (Units=GPa)
#
#
# Indices 1 2 3 4 5 6 
#
# 1 74.5087 31.0904 20.4652 0.0000 0.0000 0.0000
# 2 31.0904 83.6447 2.1448 0.0000 0.0000 0.0000
# 3 20.4652 2.1448 19.7245 0.0000 0.0000 0.0000
# 4 0.0000 0.0000 0.0000 16.9182 0.0000 0.0000
# 5 0.0000 0.0000 0.0000 0.0000 14.4145 0.0000
# 6 0.0000 0.0000 0.0000 0.0000 0.0000 21.1072
#
#
#
# Elastic Compliance Matrix: (Units=1/GPa)
#
#
# Indices 1 2 3 4 5 6 
#
# 1 0.023102 -0.007995 -0.023100 0.000000 0.000000 0.000000
# 2 -0.007995 0.014755 0.006690 0.000000 0.000000 0.000000
# 3 -0.023100 0.006690 0.073939 0.000000 0.000000 0.000000
# 4 0.000000 0.000000 0.000000 0.059108 0.000000 0.000000
# 5 0.000000 0.000000 0.000000 0.000000 0.069374 0.000000
# 6 0.000000 0.000000 0.000000 0.000000 0.000000 0.047377
#
#
# Mechanical properties :
#
#
# Convention : Reuss Voigt Hill
#
# Bulk Modulus (GPa) = 15.87632 31.69762 23.78697
# Shear Modulus (GPa) = 13.98757 18.76649 16.37703
#
# Velocity S-wave (km/s) = 2.81646 3.26231 3.04755
# Velocity P-wave (km/s) = 4.42495 5.67152 5.08657
#
# Compressibility (1/GPa) = 0.06298689
#
# Stress axis : x y z
#
# Youngs Moduli (GPa) = 43.28615 67.77210 13.52475
#
# Poissons Ratio (x) = 0.54181 0.31242
# Poissons Ratio (y) = 0.34606 -0.09048
# Poissons Ratio (z) = 0.99992 -0.45342
#
# Static dielectric constant tensor:
#      x y z
#    x 1.594780 0.000000 0.000000 
#    y 0.000000 1.633760 0.000000 
#    z 0.000000 0.000000 1.582220 
# 
# From -- ./inp_files/26217.got.cif
#   From: 2010.05.17/outbox.cif.g08.bks.cpg/sg59_14_cif.got.tgz:26217.got - 2010.06.03 14:40:33.
