data_PCOD9446864
_publ_section_title
;
Structure prediction by ZEFSAII (Michael W. Deem and Ramdas Pophale) SiO2 
 PCOD9446864
Probable space group: P M M N
;
_chemical_formula_sum "Si O2"
_cell_formula_units_Z 56
_cell_length_a 21.628180
_cell_length_b 7.707544
_cell_length_c 15.628956
_cell_angle_alpha 90.000000
_cell_angle_beta 90.000000
_cell_angle_gamma 90.000000
_cell_volume 2605.349294
_symmetry_space_group_name_H-M "P M M N"
_symmetry_group_IT_number 59
_space_group.IT_coordinate_system_code '2'
_symmetry_cell_setting 'orthorhombic'
loop_
_space_group_symop_operation_xyz
x,y,z
1/2-x,1/2-y,z
1/2+x,-y,-z
-x,1/2+y,-z
-x,-y,-z
1/2+x,1/2+y,-z
1/2-x,y,z
x,1/2-y,z
loop_
_atom_site_type_symbol
_atom_site_label
_atom_site_fract_x
_atom_site_fract_y
_atom_site_fract_z
Si Si1 0.820539 0.949765 0.883302
Si Si2 0.987765 0.548487 0.266691
Si Si3 0.318917 0.948248 0.925583
Si Si4 0.682269 0.538119 0.538181
Si Si5 0.940217 0.540364 0.441318
Si Si6 0.123446 0.039217 0.288407
Si Si7 0.544633 0.449614 0.079874
O O1 0.750000 0.942860 0.852333
O O2 0.839846 0.750000 0.901846
O O3 0.859321 0.023502 0.805855
O O4 0.821434 0.050775 0.971267
O O5 0.973413 0.750000 0.252985
O O6 0.055586 0.528061 0.306842
O O7 0.945650 0.475951 0.343334
O O8 0.986982 0.465209 0.172747
O O9 0.250000 0.024706 0.904140
O O10 0.317823 0.750000 0.892803
O O11 0.386310 0.031403 0.906266
O O12 0.750000 0.479999 0.509548
O O13 0.681818 0.750000 0.535427
O O14 0.623065 0.478468 0.484742
O O15 0.669877 0.488823 0.636748
O O16 0.937996 0.750000 0.436791
O O17 0.000000 0.500000 0.500000
O O18 0.122529 0.250000 0.285409
O O19 0.557915 0.250000 0.061629
O O20 0.500000 0.500000 0.000000
#
# Coordination Sequence:
#
# PCOD9446864 Si02
#       7
#     8   8   8   8   8   8   8
#     4   9  17  28  45  73 105 135 172 220 274 333
#     4  11  23  36  53  81 114 148 189 234 282 339
#     4   9  19  36  55  74 100 140 186 228 277 334
#     4   9  17  31  54  82 110 143 187 238 288 335
#     4  10  20  36  58  82 110 147 188 232 279 331
#     4  10  18  30  51  77 106 142 184 228 281 340
#     4  11  23  39  60  85 115 150 189 239 290 340
#
# _framework density 21.494239
#
# number of rings (size 3 to 8) (size 9 to 14) (size 15 to 20)
#    0.000    2.143    1.429    2.143    0.000    6.286 
#    0.000    0.714    0.000    3.429    0.000    0.000 
#    0.000    0.000    0.000    0.000    0.000    0.000 
#
# Total GULP energy -312060.258843 kJ/mol
# GULP energy per Si atom -5572.504622 kJ/mol
# Density = 2.144532 g / cm^3
# Si number density = 21.494239 Si / 1000 Ang^3
#
#
#
# Elastic Constant Matrix: (Units=GPa)
#
#
# Indices 1 2 3 4 5 6 
#
# 1 139.6493 0.8090 36.2863 0.0000 0.0000 0.0000
# 2 0.8090 37.0924 -1.7207 0.0000 0.0000 0.0000
# 3 36.2863 -1.7207 80.2175 0.0000 0.0000 0.0000
# 4 0.0000 0.0000 0.0000 5.4873 0.0000 0.0000
# 5 0.0000 0.0000 0.0000 0.0000 37.0191 0.0000
# 6 0.0000 0.0000 0.0000 0.0000 0.0000 15.2891
#
#
#
# Elastic Compliance Matrix: (Units=1/GPa)
#
#
# Indices 1 2 3 4 5 6 
#
# 1 0.008119 -0.000348 -0.003680 0.000000 0.000000 0.000000
# 2 -0.000348 0.027001 0.000737 0.000000 0.000000 0.000000
# 3 -0.003680 0.000737 0.014147 0.000000 0.000000 0.000000
# 4 0.000000 0.000000 0.000000 0.182240 0.000000 0.000000
# 5 0.000000 0.000000 0.000000 0.000000 0.027013 0.000000
# 6 0.000000 0.000000 0.000000 0.000000 0.000000 0.065406
#
#
# Mechanical properties :
#
#
# Convention : Reuss Voigt Hill
#
# Bulk Modulus (GPa) = 23.42781 36.41205 29.91993
# Shear Modulus (GPa) = 14.50380 26.33138 20.41759
#
# Velocity S-wave (km/s) = 2.60046 3.50386 3.08540
# Velocity P-wave (km/s) = 4.46540 5.77465 5.16170
#
# Compressibility (1/GPa) = 0.04268432
#
# Stress axis : x y z
#
# Youngs Moduli (GPa) = 123.16717 37.03505 70.68833
#
# Poissons Ratio (x) = 0.01288 0.26014
# Poissons Ratio (y) = 0.04284 -0.05206
# Poissons Ratio (z) = 0.45327 -0.02728
#
# Static dielectric constant tensor:
#      x y z
#    x 1.873930 0.000000 0.000000 
#    y 0.000000 1.830790 0.000000 
#    z 0.000000 0.000000 1.754320 
# 
# From -- ./inp_files/24218.got.cif
#   From: 2010.05.17/outbox.cif.g08.bks.cpg/sg59_13_cif.got.tgz:24218.got - 2010.06.03 14:40:33.
