data_PCOD9446935
_publ_section_title
;
Structure prediction by ZEFSAII (Michael W. Deem and Ramdas Pophale) SiO2 
 PCOD9446935
Probable space group: P M M N
;
_chemical_formula_sum "Si O2"
_cell_formula_units_Z 56
_cell_length_a 7.565653
_cell_length_b 22.250379
_cell_length_c 17.417091
_cell_angle_alpha 90.000000
_cell_angle_beta 90.000000
_cell_angle_gamma 90.000000
_cell_volume 2931.969527
_symmetry_space_group_name_H-M "P M M N"
_symmetry_group_IT_number 59
_space_group.IT_coordinate_system_code '2'
_symmetry_cell_setting 'orthorhombic'
loop_
_space_group_symop_operation_xyz
x,y,z
1/2-x,1/2-y,z
1/2+x,-y,-z
-x,1/2+y,-z
-x,-y,-z
1/2+x,1/2+y,-z
1/2-x,y,z
x,1/2-y,z
loop_
_atom_site_type_symbol
_atom_site_label
_atom_site_fract_x
_atom_site_fract_y
_atom_site_fract_z
Si Si1 0.462315 0.937636 0.044931
Si Si2 0.953267 0.034147 0.625433
Si Si3 0.957558 0.080637 0.467885
Si Si4 0.536292 0.875527 0.801217
Si Si5 0.533288 0.013428 0.795217
Si Si6 0.541317 0.182595 0.039068
Si Si7 0.463552 0.182017 0.358068
O O1 0.250000 0.932948 0.045801
O O2 0.522873 0.946733 0.132616
O O3 0.531467 0.876387 0.005532
O O4 0.500000 0.000000 0.000000
O O5 0.750000 0.053737 0.634161
O O6 0.030305 0.071543 0.553858
O O7 0.029978 0.033574 0.710907
O O8 0.956952 0.966376 0.591610
O O9 0.750000 0.064824 0.470206
O O10 0.979787 0.145686 0.432669
O O11 0.750000 0.875247 0.801289
O O12 0.477948 0.834059 0.871344
O O13 0.475006 0.851069 0.719181
O O14 0.478541 0.944525 0.810672
O O15 0.750000 0.013051 0.793120
O O16 0.750000 0.185295 0.021480
O O17 0.468861 0.250000 0.024062
O O18 0.250000 0.181847 0.356174
O O19 0.525632 0.250000 0.358332
#
# Coordination Sequence:
#
# PCOD9446935 Si02
#       7
#     8   8   8   8   8   8   8
#     4  10  19  32  50  71  95 125 162 200 240 286
#     4   9  17  32  50  68  93 124 155 191 235 284
#     4  10  19  29  47  72  96 122 154 195 237 275
#     4  10  18  31  51  72  94 126 166 197 229 282
#     4   9  16  29  51  72  93 122 157 200 237 273
#     4  10  21  34  47  68 101 133 157 194 247 296
#     4  10  20  33  48  66  94 132 164 190 228 285
#
# _framework density 19.099789999999999
#
# number of rings (size 3 to 8) (size 9 to 14) (size 15 to 20)
#    0.000    2.286    2.857    0.857    0.000    2.286 
#    0.000    0.714    0.000    0.857    0.000    4.000 
#    0.000    0.000    0.000    0.000    0.000    0.000 
#
# Total GULP energy -312356.482181 kJ/mol
# GULP energy per Si atom -5577.794325 kJ/mol
# Density = 1.905632 g / cm^3
# Si number density = 19.099790 Si / 1000 Ang^3
#
#
#
# Elastic Constant Matrix: (Units=GPa)
#
#
# Indices 1 2 3 4 5 6 
#
# 1 46.1349 4.4883 1.6375 0.0000 0.0000 0.0000
# 2 4.4883 133.4888 72.6732 0.0000 0.0000 0.0000
# 3 1.6375 72.6732 147.8554 0.0000 0.0000 0.0000
# 4 0.0000 0.0000 0.0000 21.7135 0.0000 0.0000
# 5 0.0000 0.0000 0.0000 0.0000 11.7263 0.0000
# 6 0.0000 0.0000 0.0000 0.0000 0.0000 14.2819
#
#
#
# Elastic Compliance Matrix: (Units=1/GPa)
#
#
# Indices 1 2 3 4 5 6 
#
# 1 0.021750 -0.000819 0.000162 0.000000 0.000000 0.000000
# 2 -0.000819 0.010259 -0.005033 0.000000 0.000000 0.000000
# 3 0.000162 -0.005033 0.009236 0.000000 0.000000 0.000000
# 4 0.000000 0.000000 0.000000 0.046054 0.000000 0.000000
# 5 0.000000 0.000000 0.000000 0.000000 0.085279 0.000000
# 6 0.000000 0.000000 0.000000 0.000000 0.000000 0.070018
#
#
# Mechanical properties :
#
#
# Convention : Reuss Voigt Hill
#
# Bulk Modulus (GPa) = 33.48709 53.89748 43.69228
# Shear Modulus (GPa) = 18.94430 26.12302 22.53366
#
# Velocity S-wave (km/s) = 3.15280 3.70227 3.43853
# Velocity P-wave (km/s) = 5.55196 6.82319 6.22013
#
# Compressibility (1/GPa) = 0.02986225
#
# Stress axis : x y z
#
# Youngs Moduli (GPa) = 45.97803 97.47464 108.27700
#
# Poissons Ratio (x) = 0.07987 -0.01753
# Poissons Ratio (y) = 0.03767 0.54500
# Poissons Ratio (z) = -0.00744 0.49063
#
# Static dielectric constant tensor:
#      x y z
#    x 1.750280 0.000000 0.000000 
#    y 0.000000 1.655820 0.000000 
#    z 0.000000 0.000000 1.673180 
# 
# From -- ./inp_files/26004.got.cif
#   From: 2010.05.17/outbox.cif.g08.bks.cpg/sg59_14_cif.got.tgz:26004.got - 2010.06.03 14:40:33.
