data_PCOD9446227
_publ_section_title
;
Structure prediction by ZEFSAII (Michael W. Deem and Ramdas Pophale) SiO2 
 PCOD9446227
Probable space group: P M M N
;
_chemical_formula_sum "Si O2"
_cell_formula_units_Z 40
_cell_length_a 20.536320
_cell_length_b 13.207531
_cell_length_c 9.759481
_cell_angle_alpha 90.000000
_cell_angle_beta 90.000000
_cell_angle_gamma 90.000000
_cell_volume 2647.103880
_symmetry_space_group_name_H-M "P M M N"
_symmetry_group_IT_number 59
_space_group.IT_coordinate_system_code '2'
_symmetry_cell_setting 'orthorhombic'
loop_
_space_group_symop_operation_xyz
x,y,z
1/2-x,1/2-y,z
1/2+x,-y,-z
-x,1/2+y,-z
-x,-y,-z
1/2+x,1/2+y,-z
1/2-x,y,z
x,1/2-y,z
loop_
_atom_site_type_symbol
_atom_site_label
_atom_site_fract_x
_atom_site_fract_y
_atom_site_fract_z
Si Si1 0.325750 0.630744 0.657158
Si Si2 0.941697 0.445206 0.167024
Si Si3 0.467407 0.632123 0.133327
Si Si4 0.590052 0.075585 0.590021
Si Si5 0.031202 0.136411 0.402205
O O1 0.250000 0.606558 0.672951
O O2 0.335538 0.750000 0.688167
O O3 0.373517 0.567321 0.755322
O O4 0.350458 0.612227 0.502067
O O5 0.971121 0.558462 0.163110
O O6 0.993501 0.382417 0.259023
O O7 0.940502 0.401602 0.014324
O O8 0.484522 0.750000 0.132847
O O9 0.415377 0.610917 0.253921
O O10 0.524877 0.119450 0.516266
O O11 0.582385 0.954138 0.582689
O O12 0.056618 0.250000 0.410580
#
# Coordination Sequence:
#
# PCOD9446227 Si02
#       5
#     8   8   8   8   8
#     4  10  19  32  47  60  84 122 153 177 210 259
#     4   9  18  29  44  68  92 117 147 175 213 269
#     4  10  17  27  46  70  94 112 135 184 233 260
#     4   9  17  26  41  65  85 107 142 179 214 250
#     4   9  15  26  43  61  86 114 138 171 214 259
#
# _framework density 15.110854
#
# number of rings (size 3 to 8) (size 9 to 14) (size 15 to 20)
#    0.000    2.600    0.000    6.000    0.000    0.000 
#    0.000    1.000    0.000    6.000    0.000    0.000 
#    0.000    9.600    0.000    0.000    0.000    0.000 
#
# Total GULP energy -222861.638178 kJ/mol
# GULP energy per Si atom -5571.540954 kJ/mol
# Density = 1.507646 g / cm^3
# Si number density = 15.110854 Si / 1000 Ang^3
#
#
#
# Elastic Constant Matrix: (Units=GPa)
#
#
# Indices 1 2 3 4 5 6 
#
# 1 71.2729 29.6678 27.9434 0.0000 0.0000 0.0000
# 2 29.6678 118.9100 24.2133 0.0000 0.0000 0.0000
# 3 27.9434 24.2133 107.5079 0.0000 0.0000 0.0000
# 4 0.0000 0.0000 0.0000 10.6134 0.0000 0.0000
# 5 0.0000 0.0000 0.0000 0.0000 10.5154 0.0000
# 6 0.0000 0.0000 0.0000 0.0000 0.0000 12.6293
#
#
#
# Elastic Compliance Matrix: (Units=1/GPa)
#
#
# Indices 1 2 3 4 5 6 
#
# 1 0.016894 -0.003480 -0.003607 0.000000 0.000000 0.000000
# 2 -0.003480 0.009531 -0.001242 0.000000 0.000000 0.000000
# 3 -0.003607 -0.001242 0.010519 0.000000 0.000000 0.000000
# 4 0.000000 0.000000 0.000000 0.094220 0.000000 0.000000
# 5 0.000000 0.000000 0.000000 0.000000 0.095099 0.000000
# 6 0.000000 0.000000 0.000000 0.000000 0.000000 0.079181
#
#
# Mechanical properties :
#
#
# Convention : Reuss Voigt Hill
#
# Bulk Modulus (GPa) = 49.29876 51.25998 50.27937
# Shear Modulus (GPa) = 15.20385 21.14270 18.17327
#
# Velocity S-wave (km/s) = 3.17543 3.74461 3.47171
# Velocity P-wave (km/s) = 6.79265 7.25895 7.02967
#
# Compressibility (1/GPa) = 0.02028449
#
# Stress axis : x y z
#
# Youngs Moduli (GPa) = 59.19428 104.92104 95.06677
#
# Poissons Ratio (x) = 0.36517 0.34291
# Poissons Ratio (y) = 0.20602 0.11807
# Poissons Ratio (z) = 0.21352 0.13031
#
# Static dielectric constant tensor:
#      x y z
#    x 1.468410 0.000000 0.000000 
#    y 0.000000 1.519680 0.000000 
#    z 0.000000 0.000000 1.528590 
# 
# From -- ./inp_files/11141.got.cif
#   From: 2010.05.17/outbox.cif.g08.bks.cpg/sg59_6_cif.got.tgz:11141.got - 2010.06.03 14:40:33.
