data_PCOD9446073
_publ_section_title
;
Structure prediction by ZEFSAII (Michael W. Deem and Ramdas Pophale) SiO2 
 PCOD9446073
Probable space group: P N N M
;
_chemical_formula_sum "Si O2"
_cell_formula_units_Z 48
_cell_length_a 9.000000
_cell_length_b 30.000000
_cell_length_c 9.000000
_cell_angle_alpha 90.000000
_cell_angle_beta 90.000000
_cell_angle_gamma 90.000000
_cell_volume 2430.000000
_symmetry_space_group_name_H-M "P N N M"
_symmetry_group_IT_number 58
_symmetry_cell_setting 'orthorhombic'
loop_
_space_group_symop_operation_xyz
x,y,z
-x,-y,z
1/2+x,1/2-y,1/2-z
1/2-x,1/2+y,1/2-z
-x,-y,-z
x,y,-z
1/2-x,1/2+y,1/2+z
1/2+x,1/2-y,1/2+z
loop_
_atom_site_type_symbol
_atom_site_label
_atom_site_fract_x
_atom_site_fract_y
_atom_site_fract_z
Si Si1 0.093334 0.790629 0.675703
Si Si2 0.563938 0.207019 0.677021
Si Si3 0.885175 0.038088 0.171103
Si Si4 0.091198 0.623842 0.674187
Si Si5 0.420828 0.952587 0.333274
Si Si6 0.437492 0.630010 0.330647
O O1 0.090590 0.782912 0.500000
O O2 0.264190 0.794680 0.724495
O O3 0.014077 0.750156 0.756869
O O4 0.006853 0.835110 0.718519
O O5 0.559600 0.208484 0.500000
O O6 0.478205 0.164253 0.735715
O O7 0.744947 0.040825 0.276300
O O8 0.970388 0.084742 0.172786
O O9 0.838436 0.028621 0.000000
O O10 0.000000 0.000000 0.216500
O O11 0.069454 0.631995 0.500000
O O12 0.266258 0.620436 0.702820
O O13 0.008059 0.579563 0.723551
O O14 0.422434 0.933399 0.500000
O O15 0.500000 0.000000 0.335787
O O16 0.445332 0.648309 0.500000
#
# Coordination Sequence:
#
# PCOD9446073 Si02
#       6
#     8   8   8   8   8   8
#     4  11  24  40  60  87 118 155 197 240 290 348
#     4  11  24  41  61  88 121 154 194 243 293 348
#     4  10  21  39  63  89 118 155 199 246 296 349
#     4  11  23  40  63  89 118 154 197 242 291 349
#     4  11  24  40  59  87 122 158 197 242 293 348
#     4  10  22  39  60  88 119 152 194 244 295 348
#
# _framework density 19.753086
#
# number of rings (size 3 to 8) (size 9 to 14) (size 15 to 20)
#    0.000    1.333    0.000    5.000    0.000   14.333 
#    0.000    0.000    0.000    0.000    0.000    0.000 
#    0.000    0.000    0.000    0.000    0.000    0.000 
#
# Total GULP energy -268379.926153 kJ/mol
# GULP energy per Si atom -5591.248462 kJ/mol
# Density = 1.970813 g / cm^3
# Si number density = 19.753086 Si / 1000 Ang^3
#
#
#
# Elastic Constant Matrix: (Units=GPa)
#
#
# Indices 1 2 3 4 5 6 
#
# 1 83.8025 17.5822 46.0545 0.0000 0.0000 0.0000
# 2 17.5822 62.8917 20.6063 0.0000 0.0000 0.0000
# 3 46.0545 20.6063 33.0006 0.0000 0.0000 0.0000
# 4 0.0000 0.0000 0.0000 38.6082 0.0000 0.0000
# 5 0.0000 0.0000 0.0000 0.0000 26.5127 0.0000
# 6 0.0000 0.0000 0.0000 0.0000 0.0000 28.5625
#
#
#
# Elastic Compliance Matrix: (Units=1/GPa)
#
#
# Indices 1 2 3 4 5 6 
#
# 1 0.058706 0.013115 -0.090117 0.000000 0.000000 0.000000
# 2 0.013115 0.022920 -0.032614 0.000000 0.000000 0.000000
# 3 -0.090117 -0.032614 0.176432 0.000000 0.000000 0.000000
# 4 0.000000 0.000000 0.000000 0.025901 0.000000 0.000000
# 5 0.000000 0.000000 0.000000 0.000000 0.037718 0.000000
# 6 0.000000 0.000000 0.000000 0.000000 0.000000 0.035011
#
#
# Mechanical properties :
#
#
# Convention : Reuss Voigt Hill
#
# Bulk Modulus (GPa) = 25.75692 38.68676 32.22184
# Shear Modulus (GPa) = 8.49094 25.10011 16.79553
#
# Velocity S-wave (km/s) = 2.07554 3.56855 2.91911
# Velocity P-wave (km/s) = 4.33723 6.05038 5.26396
#
# Compressibility (1/GPa) = 0.03882452
#
# Stress axis : x y z
#
# Youngs Moduli (GPa) = 17.03398 43.63018 5.66791
#
# Poissons Ratio (x) = -0.57220 0.51078
# Poissons Ratio (y) = -0.22340 0.18485
# Poissons Ratio (z) = 1.53506 1.42296
#
# Static dielectric constant tensor:
#      x y z
#    x 1.658040 0.000000 0.000000 
#    y 0.000000 1.664720 0.000000 
#    z 0.000000 0.000000 1.683010 
# 
# From -- ./inp_files/2989.got.cif
#   From: 2010.05.17/outbox.ucp.g08.bks.cvg/sg58_2_cif.got.tgz:2989.got - 2010.06.11 16:41:41.
