data_PCOD9446708
_publ_section_title
;
Structure prediction by ZEFSAII (Michael W. Deem and Ramdas Pophale) SiO2 
 PCOD9446708
Probable space group: P M M N
;
_chemical_formula_sum "Si O2"
_cell_formula_units_Z 48
_cell_length_a 18.718702
_cell_length_b 13.978243
_cell_length_c 10.552907
_cell_angle_alpha 90.000000
_cell_angle_beta 90.000000
_cell_angle_gamma 90.000000
_cell_volume 2761.216293
_symmetry_space_group_name_H-M "P M M N"
_symmetry_group_IT_number 59
_space_group.IT_coordinate_system_code '2'
_symmetry_cell_setting 'orthorhombic'
loop_
_space_group_symop_operation_xyz
x,y,z
1/2-x,1/2-y,z
1/2+x,-y,-z
-x,1/2+y,-z
-x,-y,-z
1/2+x,1/2+y,-z
1/2-x,y,z
x,1/2-y,z
loop_
_atom_site_type_symbol
_atom_site_label
_atom_site_fract_x
_atom_site_fract_y
_atom_site_fract_z
Si Si1 0.084041 0.459122 0.607591
Si Si2 0.335499 0.857091 0.221808
Si Si3 0.937428 0.361840 0.540578
Si Si4 0.834746 0.637344 0.624645
Si Si5 0.163391 0.053284 0.106538
Si Si6 0.336361 0.137743 0.837467
O O1 0.076913 0.572253 0.581902
O O2 0.123916 0.418895 0.483166
O O3 0.127344 0.425914 0.729718
O O4 0.006746 0.409001 0.606109
O O5 0.250000 0.863604 0.238999
O O6 0.352632 0.750000 0.175352
O O7 0.373692 0.869168 0.357173
O O8 0.357163 0.942787 0.128490
O O9 0.949170 0.250000 0.512342
O O10 0.750000 0.616488 0.615058
O O11 0.844664 0.750000 0.605480
O O12 0.858744 0.608105 0.765615
O O13 0.250000 0.057894 0.103496
O O14 0.139885 0.101386 0.976139
O O15 0.250000 0.129739 0.828814
O O16 0.354050 0.250000 0.820136
#
# Coordination Sequence:
#
# PCOD9446708 Si02
#       6
#     8   8   8   8   8   8
#     4  11  21  34  54  77 105 140 173 212 260 314
#     4   9  17  32  55  77  98 133 179 219 256 305
#     4  10  21  36  54  76 105 137 173 219 266 306
#     4  10  18  29  50  78 104 133 174 217 254 302
#     4   9  17  31  50  76 105 133 170 214 257 300
#     4  10  20  34  53  79 112 144 170 206 261 316
#
# _framework density 17.383642999999999
#
# number of rings (size 3 to 8) (size 9 to 14) (size 15 to 20)
#    0.000    2.167    1.667    2.500    0.000    4.000 
#    0.000    1.667    0.000    1.000    0.000    0.000 
#    0.000    0.000    0.000    0.000    0.000    0.000 
#
# Total GULP energy -267682.616790 kJ/mol
# GULP energy per Si atom -5576.721183 kJ/mol
# Density = 1.734408 g / cm^3
# Si number density = 17.383643 Si / 1000 Ang^3
#
#
#
# Elastic Constant Matrix: (Units=GPa)
#
#
# Indices 1 2 3 4 5 6 
#
# 1 19.5825 16.6504 8.0316 0.0000 0.0000 0.0000
# 2 16.6504 75.7893 17.6959 0.0000 0.0000 0.0000
# 3 8.0316 17.6959 76.6537 0.0000 0.0000 0.0000
# 4 0.0000 0.0000 0.0000 26.5446 0.0000 0.0000
# 5 0.0000 0.0000 0.0000 0.0000 -14.6135 0.0000
# 6 0.0000 0.0000 0.0000 0.0000 0.0000 19.4416
#
#
#
# Elastic Compliance Matrix: (Units=1/GPa)
#
#
# Indices 1 2 3 4 5 6 
#
# 1 0.063744 -0.013154 -0.003642 0.000000 0.000000 0.000000
# 2 -0.013154 0.016660 -0.002468 0.000000 0.000000 0.000000
# 3 -0.003642 -0.002468 0.013997 0.000000 0.000000 0.000000
# 4 0.000000 0.000000 0.000000 0.037672 0.000000 0.000000
# 5 0.000000 0.000000 0.000000 0.000000 -0.068430 0.000000
# 6 0.000000 0.000000 0.000000 0.000000 0.000000 0.051436
#
#
# Mechanical properties :
#
#
# Convention : Reuss Voigt Hill
#
# Bulk Modulus (GPa) = 17.89756 28.53126 23.21441
# Shear Modulus (GPa) = 29.03051 14.91771 21.97411
#
# Velocity S-wave (km/s) = 4.09098 2.93259 3.55923
# Velocity P-wave (km/s) = 5.71252 5.28348 5.50218
#
# Compressibility (1/GPa) = 0.05587354
#
# Stress axis : x y z
#
# Youngs Moduli (GPa) = 15.68777 60.02228 71.44358
#
# Poissons Ratio (x) = 0.78951 0.26022
# Poissons Ratio (y) = 0.20635 0.17632
# Poissons Ratio (z) = 0.05714 0.14813
#
# Static dielectric constant tensor:
#      x y z
#    x 1.629480 0.000000 0.000000 
#    y 0.000000 1.623880 0.000000 
#    z 0.000000 0.000000 1.563970 
# 
# From -- ./inp_files/9195.got.cif
#   From: 2010.05.17/outbox.cif.g08.bks.cpg/sg59_5_cif.got.tgz:9195.got - 2010.06.03 14:40:33.
