data_PCOD9446909
_publ_section_title
;
Structure prediction by ZEFSAII (Michael W. Deem and Ramdas Pophale) SiO2 
 PCOD9446909
Probable space group: P M M N
;
_chemical_formula_sum "Si O2"
_cell_formula_units_Z 64
_cell_length_a 29.694161
_cell_length_b 8.349243
_cell_length_c 16.136213
_cell_angle_alpha 90.000000
_cell_angle_beta 90.000000
_cell_angle_gamma 90.000000
_cell_volume 4000.550694
_symmetry_space_group_name_H-M "P M M N"
_symmetry_group_IT_number 59
_space_group.IT_coordinate_system_code '2'
_symmetry_cell_setting 'orthorhombic'
loop_
_space_group_symop_operation_xyz
x,y,z
1/2-x,1/2-y,z
1/2+x,-y,-z
-x,1/2+y,-z
-x,-y,-z
1/2+x,1/2+y,-z
1/2-x,y,z
x,1/2-y,z
loop_
_atom_site_type_symbol
_atom_site_label
_atom_site_fract_x
_atom_site_fract_y
_atom_site_fract_z
Si Si1 0.799920 0.555090 0.595737
Si Si2 0.050501 0.442901 0.819629
Si Si3 0.394632 0.058121 0.339374
Si Si4 0.945782 0.056379 0.821963
Si Si5 0.948749 0.440365 0.500285
Si Si6 0.605401 0.943472 0.339740
Si Si7 0.551638 0.058456 0.003799
Si Si8 0.299995 0.054887 0.597771
O O1 0.750000 0.500622 0.622164
O O2 0.799454 0.750000 0.597872
O O3 0.843156 0.501120 0.647265
O O4 0.806182 0.510498 0.499001
O O5 0.049525 0.250000 0.817348
O O6 0.079889 0.502008 0.742400
O O7 0.069544 0.492857 0.909276
O O8 0.998179 0.496602 0.812366
O O9 0.394945 0.250000 0.345304
O O10 0.415988 0.007513 0.252575
O O11 0.424325 0.992380 0.415164
O O12 0.945834 0.250000 0.818615
O O13 0.929156 0.008156 0.914157
O O14 0.948362 0.250000 0.494505
O O15 0.922201 0.510759 0.421704
O O16 0.000000 0.500000 0.500000
O O17 0.606467 0.750000 0.335572
O O18 0.656812 0.000831 0.350918
O O19 0.552385 0.250000 0.007080
O O20 0.500000 0.000000 0.000000
O O21 0.250000 0.001634 0.624186
O O22 0.299917 0.250000 0.599967
#
# Coordination Sequence:
#
# PCOD9446909 Si02
#       8
#     8   8   8   8   8   8   8   8
#     4   8  14  26  45  68  92 118 152 193 232 272
#     4   9  18  30  46  67  93 122 152 190 230 269
#     4  11  20  31  49  71  92 121 158 193 231 276
#     4   9  18  31  44  64  94 125 153 188 234 274
#     4  12  24  35  46  62  91 128 161 192 224 268
#     4  10  18  31  49  70  95 123 157 194 231 273
#     4   9  17  30  48  66  89 119 151 188 228 272
#     4   8  13  24  45  69  92 120 154 192 231 272
#
# _framework density 15.997798
#
# number of rings (size 3 to 8) (size 9 to 14) (size 15 to 20)
#    0.000    2.500    1.250    4.125    0.000    4.000 
#    0.000    0.000    0.000    2.625    0.000    0.875 
#    0.000    5.000    0.000    0.000    0.000    0.000 
#
# Total GULP energy -356639.898193 kJ/mol
# GULP energy per Si atom -5572.498409 kJ/mol
# Density = 1.596139 g / cm^3
# Si number density = 15.997798 Si / 1000 Ang^3
#
#
#
# Elastic Constant Matrix: (Units=GPa)
#
#
# Indices 1 2 3 4 5 6 
#
# 1 122.3440 9.8744 64.7573 0.0000 0.0000 0.0000
# 2 9.8744 4.9458 5.1064 0.0000 0.0000 0.0000
# 3 64.7573 5.1064 119.6195 0.0000 0.0000 0.0000
# 4 0.0000 0.0000 0.0000 24.7235 0.0000 0.0000
# 5 0.0000 0.0000 0.0000 0.0000 6.6964 0.0000
# 6 0.0000 0.0000 0.0000 0.0000 0.0000 12.0277
#
#
#
# Elastic Compliance Matrix: (Units=1/GPa)
#
#
# Indices 1 2 3 4 5 6 
#
# 1 0.013056 -0.019634 -0.006230 0.000000 0.000000 0.000000
# 2 -0.019634 0.241040 0.000339 0.000000 0.000000 0.000000
# 3 -0.006230 0.000339 0.011718 0.000000 0.000000 0.000000
# 4 0.000000 0.000000 0.000000 0.040447 0.000000 0.000000
# 5 0.000000 0.000000 0.000000 0.000000 0.149333 0.000000
# 6 0.000000 0.000000 0.000000 0.000000 0.000000 0.083141
#
#
# Mechanical properties :
#
#
# Convention : Reuss Voigt Hill
#
# Bulk Modulus (GPa) = 4.65625 45.15396 24.90510
# Shear Modulus (GPa) = 7.56003 19.83428 13.69716
#
# Velocity S-wave (km/s) = 2.17622 3.52492 2.92925
# Velocity P-wave (km/s) = 3.03833 6.69725 5.20022
#
# Compressibility (1/GPa) = 0.21476515
#
# Stress axis : x y z
#
# Youngs Moduli (GPa) = 76.59455 4.14868 85.33975
#
# Poissons Ratio (x) = 0.08146 0.53164
# Poissons Ratio (y) = 1.50386 -0.02896
# Poissons Ratio (z) = 0.47716 -0.00141
#
# Static dielectric constant tensor:
#      x y z
#    x 1.525900 0.000000 0.000000 
#    y 0.000000 1.568480 0.000000 
#    z 0.000000 0.000000 1.529160 
# 
# From -- ./inp_files/25022.got.cif
#   From: 2010.05.17/outbox.cif.g08.bks.cpg/sg59_13_cif.got.tgz:25022.got - 2010.06.03 14:40:33.
