data_PCOD9446145
_publ_section_title
;
Structure prediction by ZEFSAII (Michael W. Deem and Ramdas Pophale) SiO2 
 PCOD9446145
Probable space group: P M M N
;
_chemical_formula_sum "Si O2"
_cell_formula_units_Z 48
_cell_length_a 17.185698
_cell_length_b 7.479754
_cell_length_c 14.257972
_cell_angle_alpha 90.000000
_cell_angle_beta 90.000000
_cell_angle_gamma 90.000000
_cell_volume 1832.788064
_symmetry_space_group_name_H-M "P M M N"
_symmetry_group_IT_number 59
_space_group.IT_coordinate_system_code '2'
_symmetry_cell_setting 'orthorhombic'
loop_
_space_group_symop_operation_xyz
x,y,z
1/2-x,1/2-y,z
1/2+x,-y,-z
-x,1/2+y,-z
-x,-y,-z
1/2+x,1/2+y,-z
1/2-x,y,z
x,1/2-y,z
loop_
_atom_site_type_symbol
_atom_site_label
_atom_site_fract_x
_atom_site_fract_y
_atom_site_fract_z
Si Si1 0.334499 0.454567 0.794484
Si Si2 0.750000 0.466222 0.727885
Si Si3 0.596697 0.468680 0.610260
Si Si4 0.417752 0.038664 0.048715
Si Si5 0.838819 0.462322 0.421171
Si Si6 0.750000 0.540867 0.949435
Si Si7 0.503251 0.961959 0.227929
O O1 0.250000 0.534976 0.816362
O O2 0.333062 0.250000 0.829479
O O3 0.340968 0.451066 0.680759
O O4 0.417811 0.539021 0.817117
O O5 0.750000 0.250000 0.731500
O O6 0.673502 0.520627 0.669283
O O7 0.750000 0.529428 0.835610
O O8 0.595667 0.250000 0.608132
O O9 0.605216 0.529236 0.503298
O O10 0.523093 0.531165 0.671028
O O11 0.409973 0.250000 0.044729
O O12 0.333564 0.964699 0.017082
O O13 0.432998 0.984126 0.155944
O O14 0.500000 0.000000 0.000000
O O15 0.750000 0.484086 0.456915
O O16 0.850374 0.250000 0.406779
O O17 0.750000 0.750000 0.974243
O O18 0.516453 0.750000 0.236608
#
# Coordination Sequence:
#
# PCOD9446145 Si02
#       7
#     8   4   8   8   8   4   8
#     4   9  19  35  51  71 105 150 194 235 284 336
#     4  10  16  28  54  82 109 144 185 224 271 338
#     4   9  16  27  49  80 107 138 184 233 280 331
#     4  11  24  43  65  91 122 151 184 228 280 342
#     4   9  16  28  47  71 102 142 188 237 283 330
#     4  10  22  40  62  90 121 150 179 224 287 340
#     4  10  20  36  58  81 109 146 188 235 284 338
#
# _framework density 26.189609000000001
#
# number of rings (size 3 to 8) (size 9 to 14) (size 15 to 20)
#    0.000    2.333    2.500    0.500    0.000    2.000 
#    1.500    1.667    0.000    0.000    0.000    0.000 
#    0.000    0.000    0.000    0.000    0.000    0.000 
#
# Total GULP energy -268313.385791 kJ/mol
# GULP energy per Si atom -5589.862204 kJ/mol
# Density = 2.613000 g / cm^3
# Si number density = 26.189609 Si / 1000 Ang^3
#
#
#
# Elastic Constant Matrix: (Units=GPa)
#
#
# Indices 1 2 3 4 5 6 
#
# 1 202.7798 10.8420 34.5722 0.0000 0.0000 0.0000
# 2 10.8420 81.0543 -2.5494 0.0000 0.0000 0.0000
# 3 34.5722 -2.5494 109.7434 0.0000 0.0000 0.0000
# 4 0.0000 0.0000 0.0000 8.3582 0.0000 0.0000
# 5 0.0000 0.0000 0.0000 0.0000 55.3760 0.0000
# 6 0.0000 0.0000 0.0000 0.0000 0.0000 3.0626
#
#
#
# Elastic Compliance Matrix: (Units=1/GPa)
#
#
# Indices 1 2 3 4 5 6 
#
# 1 0.005257 -0.000756 -0.001674 0.000000 0.000000 0.000000
# 2 -0.000756 0.012455 0.000527 0.000000 0.000000 0.000000
# 3 -0.001674 0.000527 0.009652 0.000000 0.000000 0.000000
# 4 0.000000 0.000000 0.000000 0.119643 0.000000 0.000000
# 5 0.000000 0.000000 0.000000 0.000000 0.018058 0.000000
# 6 0.000000 0.000000 0.000000 0.000000 0.000000 0.326519
#
#
# Mechanical properties :
#
#
# Convention : Reuss Voigt Hill
#
# Bulk Modulus (GPa) = 42.44527 53.25634 47.85081
# Shear Modulus (GPa) = 9.93559 36.74021 23.33790
#
# Velocity S-wave (km/s) = 1.94986 3.74953 2.98839
# Velocity P-wave (km/s) = 4.61642 6.25495 5.49708
#
# Compressibility (1/GPa) = 0.02355975
#
# Stress axis : x y z
#
# Youngs Moduli (GPa) = 190.21428 80.28840 103.60878
#
# Poissons Ratio (x) = 0.06069 0.17341
# Poissons Ratio (y) = 0.14378 -0.05465
# Poissons Ratio (z) = 0.31837 -0.04235
#
# Static dielectric constant tensor:
#      x y z
#    x 2.136010 0.000000 0.000000 
#    y 0.000000 1.968620 0.000000 
#    z 0.000000 0.000000 2.047160 
# 
# From -- ./inp_files/23203.got.cif
#   From: 2010.05.17/outbox.cif.g08.bks.cpg/sg59_12_cif.got.tgz:23203.got - 2010.06.03 14:40:33.
