data_PCOD9446194
_publ_section_title
;
Structure prediction by ZEFSAII (Michael W. Deem and Ramdas Pophale) SiO2 
 PCOD9446194
Probable space group: P M M N
;
_chemical_formula_sum "Si O2"
_cell_formula_units_Z 48
_cell_length_a 7.415052
_cell_length_b 27.233587
_cell_length_c 12.175519
_cell_angle_alpha 90.000000
_cell_angle_beta 90.000000
_cell_angle_gamma 90.000000
_cell_volume 2458.705602
_symmetry_space_group_name_H-M "P M M N"
_symmetry_group_IT_number 59
_space_group.IT_coordinate_system_code '2'
_symmetry_cell_setting 'orthorhombic'
loop_
_space_group_symop_operation_xyz
x,y,z
1/2-x,1/2-y,z
1/2+x,-y,-z
-x,1/2+y,-z
-x,-y,-z
1/2+x,1/2+y,-z
1/2-x,y,z
x,1/2-y,z
loop_
_atom_site_type_symbol
_atom_site_label
_atom_site_fract_x
_atom_site_fract_y
_atom_site_fract_z
Si Si1 0.958983 0.541332 0.132926
Si Si2 0.953109 0.130485 0.017477
Si Si3 0.968355 0.393196 0.662663
Si Si4 0.965524 0.054099 0.450942
Si Si5 0.970779 0.306095 0.818531
Si Si6 0.027998 0.935952 0.798913
O O1 0.750000 0.540665 0.100379
O O2 0.028721 0.486073 0.139714
O O3 0.971976 0.563481 0.255544
O O4 0.054489 0.580783 0.056012
O O5 0.750000 0.147491 0.041440
O O6 0.033057 0.111271 0.131597
O O7 0.034451 0.170105 0.933907
O O8 0.750000 0.393256 0.662473
O O9 0.031243 0.406553 0.540856
O O10 0.026627 0.342567 0.720308
O O11 0.750000 0.059324 0.444261
O O12 0.032693 0.061212 0.327061
O O13 0.000000 0.000000 0.500000
O O14 0.750000 0.307358 0.820975
O O15 0.026284 0.250000 0.805168
O O16 0.250000 0.936311 0.800432
#
# Coordination Sequence:
#
# PCOD9446194 Si02
#       6
#     8   8   8   8   8   8
#     4  10  17  26  41  61  87 114 139 175 210 244
#     4   9  17  29  43  60  83 112 142 173 212 258
#     4   9  17  28  44  64  85 113 146 175 208 253
#     4  10  18  29  43  61  87 118 147 173 205 249
#     4   8  14  26  45  65  81 103 141 184 218 248
#     4   9  17  27  40  59  86 116 142 169 207 247
#
# _framework density 19.522466999999999
#
# number of rings (size 3 to 8) (size 9 to 14) (size 15 to 20)
#    0.000    2.833    1.667    2.000    0.000    0.000 
#    0.000    1.667    0.000    9.000    0.000    7.000 
#    0.000    0.000    0.000   12.000    0.000   13.333 
#
# Total GULP energy -267668.688723 kJ/mol
# GULP energy per Si atom -5576.431015 kJ/mol
# Density = 1.947803 g / cm^3
# Si number density = 19.522467 Si / 1000 Ang^3
#
#
#
# Elastic Constant Matrix: (Units=GPa)
#
#
# Indices 1 2 3 4 5 6 
#
# 1 69.2324 1.7519 1.6224 0.0000 0.0000 0.0000
# 2 1.7519 116.8124 41.2778 0.0000 0.0000 0.0000
# 3 1.6224 41.2778 103.0021 0.0000 0.0000 0.0000
# 4 0.0000 0.0000 0.0000 18.2078 0.0000 0.0000
# 5 0.0000 0.0000 0.0000 0.0000 7.5250 0.0000
# 6 0.0000 0.0000 0.0000 0.0000 0.0000 7.2963
#
#
#
# Elastic Compliance Matrix: (Units=1/GPa)
#
#
# Indices 1 2 3 4 5 6 
#
# 1 0.014452 -0.000159 -0.000164 0.000000 0.000000 0.000000
# 2 -0.000159 0.009975 -0.003995 0.000000 0.000000 0.000000
# 3 -0.000164 -0.003995 0.011312 0.000000 0.000000 0.000000
# 4 0.000000 0.000000 0.000000 0.054921 0.000000 0.000000
# 5 0.000000 0.000000 0.000000 0.000000 0.132891 0.000000
# 6 0.000000 0.000000 0.000000 0.000000 0.000000 0.137056
#
#
# Mechanical properties :
#
#
# Convention : Reuss Voigt Hill
#
# Bulk Modulus (GPa) = 36.89560 42.03899 39.46730
# Shear Modulus (GPa) = 13.21783 22.89880 18.05832
#
# Velocity S-wave (km/s) = 2.60486 3.42855 3.04468
# Velocity P-wave (km/s) = 5.29028 6.10357 5.71142
#
# Compressibility (1/GPa) = 0.02710350
#
# Stress axis : x y z
#
# Youngs Moduli (GPa) = 69.19469 100.25291 88.40129
#
# Poissons Ratio (x) = 0.01592 0.01450
# Poissons Ratio (y) = 0.01099 0.35315
# Poissons Ratio (z) = 0.01135 0.40050
#
# Static dielectric constant tensor:
#      x y z
#    x 1.755790 0.000000 0.000000 
#    y 0.000000 1.654460 0.000000 
#    z 0.000000 0.000000 1.724840 
# 
# From -- ./inp_files/14492.got.cif
#   From: 2010.05.17/outbox.cif.g08.bks.cpg/sg59_8_cif.got.tgz:14492.got - 2010.06.03 14:40:33.
