data_PCOD9446777
_publ_section_title
;
Structure prediction by ZEFSAII (Michael W. Deem and Ramdas Pophale) SiO2 
 PCOD9446777
Probable space group: P M M N
;
_chemical_formula_sum "Si O2"
_cell_formula_units_Z 40
_cell_length_a 25.760351
_cell_length_b 8.512061
_cell_length_c 10.523005
_cell_angle_alpha 90.000000
_cell_angle_beta 90.000000
_cell_angle_gamma 90.000000
_cell_volume 2307.418021
_symmetry_space_group_name_H-M "P M M N"
_symmetry_group_IT_number 59
_space_group.IT_coordinate_system_code '2'
_symmetry_cell_setting 'orthorhombic'
loop_
_space_group_symop_operation_xyz
x,y,z
1/2-x,1/2-y,z
1/2+x,-y,-z
-x,1/2+y,-z
-x,-y,-z
1/2+x,1/2+y,-z
1/2-x,y,z
x,1/2-y,z
loop_
_atom_site_type_symbol
_atom_site_label
_atom_site_fract_x
_atom_site_fract_y
_atom_site_fract_z
Si Si1 0.250000 0.932186 0.026648
Si Si2 0.138466 0.061969 0.726966
Si Si3 0.861718 0.440935 0.984783
Si Si4 0.750000 0.430784 0.282472
Si Si5 0.028815 0.439846 0.624454
Si Si6 0.030603 0.939578 0.122271
O O1 0.250000 0.750000 0.067812
O O2 0.194325 0.001117 0.062949
O O3 0.250000 0.934875 0.872307
O O4 0.138320 0.250000 0.733960
O O5 0.088936 0.010582 0.643313
O O6 0.130437 0.997885 0.870479
O O7 0.195224 0.007652 0.679885
O O8 0.859546 0.250000 0.989465
O O9 0.909750 0.488428 0.897462
O O10 0.750000 0.250000 0.321915
O O11 0.028334 0.250000 0.622425
O O12 0.000000 0.500000 0.500000
O O13 0.996992 0.493382 0.749147
O O14 0.028989 0.750000 0.121578
O O15 0.000000 0.000000 0.000000
#
# Coordination Sequence:
#
# PCOD9446777 Si02
#       6
#     4   8   8   4   8   8
#     4   7  12  23  39  66  95 120 152 190 236 294
#     4  10  18  30  48  73 103 131 166 212 255 299
#     4   9  16  27  47  71  99 131 163 202 252 308
#     4   9  17  29  47  72  99 130 168 206 252 306
#     4  10  22  36  50  72 104 140 178 216 257 308
#     4  10  19  32  50  74 100 131 170 212 256 306
#
# _framework density 17.335394000000001
#
# number of rings (size 3 to 8) (size 9 to 14) (size 15 to 20)
#    0.000    2.600    2.000    2.100    0.000    2.400 
#    0.000    0.000    0.000    1.200    0.000    2.800 
#    0.000    0.000    0.000    0.000    0.000    0.000 
#
# Total GULP energy -222794.996674 kJ/mol
# GULP energy per Si atom -5569.874917 kJ/mol
# Density = 1.729594 g / cm^3
# Si number density = 17.335394 Si / 1000 Ang^3
#
#
#
# Elastic Constant Matrix: (Units=GPa)
#
#
# Indices 1 2 3 4 5 6 
#
# 1 209.2000 32.5194 68.3054 0.0000 0.0000 0.0000
# 2 32.5194 18.3542 11.7516 0.0000 0.0000 0.0000
# 3 68.3054 11.7516 81.7256 0.0000 0.0000 0.0000
# 4 0.0000 0.0000 0.0000 18.3180 0.0000 0.0000
# 5 0.0000 0.0000 0.0000 0.0000 21.2938 0.0000
# 6 0.0000 0.0000 0.0000 0.0000 0.0000 22.9850
#
#
#
# Elastic Compliance Matrix: (Units=1/GPa)
#
#
# Indices 1 2 3 4 5 6 
#
# 1 0.008251 -0.011238 -0.005280 0.000000 0.000000 0.000000
# 2 -0.011238 0.075315 -0.001437 0.000000 0.000000 0.000000
# 3 -0.005280 -0.001437 0.016856 0.000000 0.000000 0.000000
# 4 0.000000 0.000000 0.000000 0.054591 0.000000 0.000000
# 5 0.000000 0.000000 0.000000 0.000000 0.046962 0.000000
# 6 0.000000 0.000000 0.000000 0.000000 0.000000 0.043507
#
#
# Mechanical properties :
#
#
# Convention : Reuss Voigt Hill
#
# Bulk Modulus (GPa) = 15.50115 59.38139 37.44127
# Shear Modulus (GPa) = 16.50726 25.63290 21.07008
#
# Velocity S-wave (km/s) = 3.08917 3.84949 3.49009
# Velocity P-wave (km/s) = 4.65674 7.35438 6.15517
#
# Compressibility (1/GPa) = 0.06451135
#
# Stress axis : x y z
#
# Youngs Moduli (GPa) = 121.19604 13.27751 59.32675
#
# Poissons Ratio (x) = 0.14922 0.31326
# Poissons Ratio (y) = 1.36204 0.08525
# Poissons Ratio (z) = 0.63994 0.01908
#
# Static dielectric constant tensor:
#      x y z
#    x 1.655710 0.000000 0.000000 
#    y 0.000000 1.713390 0.000000 
#    z 0.000000 0.000000 1.542040 
# 
# From -- ./inp_files/12410.got.cif
#   From: 2010.05.17/outbox.cif.g08.bks.cpg/sg59_7_cif.got.tgz:12410.got - 2010.06.03 14:40:33.
