data_PCOD9446965
_publ_section_title
;
Structure prediction by ZEFSAII (Michael W. Deem and Ramdas Pophale) SiO2 
 PCOD9446965
Probable space group: P M M N
;
_chemical_formula_sum "Si O2"
_cell_formula_units_Z 64
_cell_length_a 19.931583
_cell_length_b 7.341361
_cell_length_c 19.557071
_cell_angle_alpha 90.000000
_cell_angle_beta 90.000000
_cell_angle_gamma 90.000000
_cell_volume 2861.687360
_symmetry_space_group_name_H-M "P M M N"
_symmetry_group_IT_number 59
_space_group.IT_coordinate_system_code '2'
_symmetry_cell_setting 'orthorhombic'
loop_
_space_group_symop_operation_xyz
x,y,z
1/2-x,1/2-y,z
1/2+x,-y,-z
-x,1/2+y,-z
-x,-y,-z
1/2+x,1/2+y,-z
1/2-x,y,z
x,1/2-y,z
loop_
_atom_site_type_symbol
_atom_site_label
_atom_site_fract_x
_atom_site_fract_y
_atom_site_fract_z
Si Si1 0.398549 0.029926 0.415759
Si Si2 0.910053 0.527876 0.856528
Si Si3 0.959060 0.027626 0.372161
Si Si4 0.043648 0.527573 0.784945
Si Si5 0.824736 0.035751 0.142842
Si Si6 0.173573 0.469393 0.015164
Si Si7 0.673171 0.971907 0.723758
Si Si8 0.674441 0.461868 0.443846
O O1 0.398341 0.250000 0.417094
O O2 0.476240 0.969494 0.416168
O O3 0.366550 0.971335 0.343822
O O4 0.353007 0.969815 0.478738
O O5 0.910298 0.750000 0.858053
O O6 0.862589 0.472354 0.793596
O O7 0.984636 0.469750 0.835999
O O8 0.878750 0.466002 0.928041
O O9 0.958220 0.250000 0.374641
O O10 0.969789 0.975411 0.293263
O O11 0.887267 0.961486 0.399448
O O12 0.043665 0.750000 0.785631
O O13 0.115590 0.462226 0.811081
O O14 0.750000 0.958334 0.152346
O O15 0.820525 0.250000 0.158452
O O16 0.842417 0.019644 0.062704
O O17 0.250000 0.531240 0.029936
O O18 0.174502 0.250000 0.018171
O O19 0.750000 0.030458 0.721168
O O20 0.672460 0.750000 0.723628
O O21 0.750000 0.538528 0.438231
O O22 0.679562 0.250000 0.424175
#
# Coordination Sequence:
#
# PCOD9446965 Si02
#       8
#     8   8   8   8   8   8   8   8
#     4  10  18  31  52  75  96 122 157 199 242 284
#     4   9  15  25  42  67  95 119 148 190 233 272
#     4   9  17  31  50  72  97 125 159 200 243 282
#     4   9  16  28  47  70  94 119 153 197 237 271
#     4   9  18  31  47  68  93 122 156 193 232 273
#     4   9  17  29  46  68  94 123 153 187 230 279
#     4   9  15  23  40  68  96 118 146 188 233 272
#     4  10  21  34  48  70 100 131 161 194 235 285
#
# _framework density 22.364429000000001
#
# number of rings (size 3 to 8) (size 9 to 14) (size 15 to 20)
#    0.000    2.750    1.250    1.125    0.000    3.250 
#    0.000    2.500    0.000    2.250    0.000    3.500 
#    0.000    0.000    0.000    0.000    0.000    0.000 
#
# Total GULP energy -357466.356006 kJ/mol
# GULP energy per Si atom -5585.411813 kJ/mol
# Density = 2.231353 g / cm^3
# Si number density = 22.364429 Si / 1000 Ang^3
#
#
#
# Elastic Constant Matrix: (Units=GPa)
#
#
# Indices 1 2 3 4 5 6 
#
# 1 144.7039 2.2395 18.1054 0.0000 0.0000 0.0000
# 2 2.2395 85.4635 -11.8584 0.0000 0.0000 0.0000
# 3 18.1054 -11.8584 12.6732 0.0000 0.0000 0.0000
# 4 0.0000 0.0000 0.0000 4.1585 0.0000 0.0000
# 5 0.0000 0.0000 0.0000 0.0000 29.4139 0.0000
# 6 0.0000 0.0000 0.0000 0.0000 0.0000 -5.9893
#
#
#
# Elastic Compliance Matrix: (Units=1/GPa)
#
#
# Indices 1 2 3 4 5 6 
#
# 1 0.008780 -0.002265 -0.014663 0.000000 0.000000 0.000000
# 2 -0.002265 0.014031 0.016364 0.000000 0.000000 0.000000
# 3 -0.014663 0.016364 0.115167 0.000000 0.000000 0.000000
# 4 0.000000 0.000000 0.000000 0.240470 0.000000 0.000000
# 5 0.000000 0.000000 0.000000 0.000000 0.033998 0.000000
# 6 0.000000 0.000000 0.000000 0.000000 0.000000 -0.166965
#
#
# Mechanical properties :
#
#
# Convention : Reuss Voigt Hill
#
# Bulk Modulus (GPa) = 7.30724 28.86818 18.08771
# Shear Modulus (GPa) = 17.11015 21.14024 19.12520
#
# Velocity S-wave (km/s) = 2.76897 3.07785 2.92749
# Velocity P-wave (km/s) = 3.67388 5.05638 4.41952
#
# Compressibility (1/GPa) = 0.13685064
#
# Stress axis : x y z
#
# Youngs Moduli (GPa) = 113.89081 71.27171 8.68308
#
# Poissons Ratio (x) = 0.16140 0.12732
# Poissons Ratio (y) = 0.25792 -0.14209
# Poissons Ratio (z) = 1.66997 -1.16629
#
# Static dielectric constant tensor:
#      x y z
#    x 1.814840 0.000000 0.000000 
#    y 0.000000 1.889530 0.000000 
#    z 0.000000 0.000000 1.759700 
# 
# From -- ./inp_files/27989.got.cif
#   From: 2010.05.17/outbox.cif.g08.bks.cpg/sg59_14_cif.got.tgz:27989.got - 2010.06.03 14:40:33.
