data_PCOD9446171
_publ_section_title
;
Structure prediction by ZEFSAII (Michael W. Deem and Ramdas Pophale) SiO2 
 PCOD9446171
Probable space group: P M M N
;
_chemical_formula_sum "Si O2"
_cell_formula_units_Z 56
_cell_length_a 29.358321
_cell_length_b 7.480514
_cell_length_c 14.265660
_cell_angle_alpha 90.000000
_cell_angle_beta 90.000000
_cell_angle_gamma 90.000000
_cell_volume 3132.957646
_symmetry_space_group_name_H-M "P M M N"
_symmetry_group_IT_number 59
_space_group.IT_coordinate_system_code '2'
_symmetry_cell_setting 'orthorhombic'
loop_
_space_group_symop_operation_xyz
x,y,z
1/2-x,1/2-y,z
1/2+x,-y,-z
-x,1/2+y,-z
-x,-y,-z
1/2+x,1/2+y,-z
1/2-x,y,z
x,1/2-y,z
loop_
_atom_site_type_symbol
_atom_site_label
_atom_site_fract_x
_atom_site_fract_y
_atom_site_fract_z
Si Si1 0.104877 0.536508 0.299925
Si Si2 0.984700 0.035397 0.605021
Si Si3 0.048444 0.462716 0.113569
Si Si4 0.300335 0.964291 0.240730
Si Si5 0.199301 0.035471 0.019625
Si Si6 0.541130 0.545084 0.220661
Si Si7 0.605103 0.530206 0.066308
O O1 0.108046 0.750000 0.313488
O O2 0.066175 0.467952 0.370842
O O3 0.083591 0.502733 0.197392
O O4 0.156254 0.465194 0.297771
O O5 0.983264 0.250000 0.618316
O O6 0.019720 0.964984 0.684476
O O7 0.000000 0.000000 0.500000
O O8 0.041799 0.250000 0.107776
O O9 0.000701 0.544187 0.146338
O O10 0.071027 0.525622 0.017380
O O11 0.250000 0.034340 0.264655
O O12 0.299205 0.750000 0.252579
O O13 0.307894 0.997364 0.129919
O O14 0.250000 0.967937 0.994645
O O15 0.200136 0.250000 0.009955
O O16 0.155985 0.971200 0.960472
O O17 0.553003 0.750000 0.242845
O O18 0.583988 0.467883 0.164680
O O19 0.604889 0.750000 0.066333
#
# Coordination Sequence:
#
# PCOD9446171 Si02
#       7
#     8   8   8   8   8   8   8
#     4   9  17  29  43  61  86 115 140 165 206 252
#     4   9  18  31  46  61  78 104 135 172 216 255
#     4  10  17  25  39  61  86 111 141 169 196 232
#     4   9  16  26  41  61  85 113 143 170 195 234
#     4   9  16  26  40  59  85 115 144 171 198 229
#     4   9  18  31  43  57  81 110 138 168 208 252
#     4   9  16  26  40  59  84 113 142 168 195 236
#
# _framework density 17.874483999999999
#
# number of rings (size 3 to 8) (size 9 to 14) (size 15 to 20)
#    0.000    2.857    1.429    1.714    0.000    2.286 
#    0.000    1.429    0.000    0.000    0.000    1.000 
#    0.000    1.143    0.000    0.000    0.000    0.000 
#
# Total GULP energy -312046.118261 kJ/mol
# GULP energy per Si atom -5572.252112 kJ/mol
# Density = 1.783380 g / cm^3
# Si number density = 17.874484 Si / 1000 Ang^3
#
#
#
# Elastic Constant Matrix: (Units=GPa)
#
#
# Indices 1 2 3 4 5 6 
#
# 1 175.8895 -10.7266 82.1419 0.0000 0.0000 0.0000
# 2 -10.7266 55.3875 2.1666 0.0000 0.0000 0.0000
# 3 82.1419 2.1666 98.6593 0.0000 0.0000 0.0000
# 4 0.0000 0.0000 0.0000 79.8966 0.0000 0.0000
# 5 0.0000 0.0000 0.0000 0.0000 21.5354 0.0000
# 6 0.0000 0.0000 0.0000 0.0000 0.0000 7.2024
#
#
#
# Elastic Compliance Matrix: (Units=1/GPa)
#
#
# Indices 1 2 3 4 5 6 
#
# 1 0.009555 0.002163 -0.008002 0.000000 0.000000 0.000000
# 2 0.002163 0.018560 -0.002209 0.000000 0.000000 0.000000
# 3 -0.008002 -0.002209 0.016847 0.000000 0.000000 0.000000
# 4 0.000000 0.000000 0.000000 0.012516 0.000000 0.000000
# 5 0.000000 0.000000 0.000000 0.000000 0.046435 0.000000
# 6 0.000000 0.000000 0.000000 0.000000 0.000000 0.138843
#
#
# Mechanical properties :
#
#
# Convention : Reuss Voigt Hill
#
# Bulk Modulus (GPa) = 34.64286 53.01111 43.82698
# Shear Modulus (GPa) = 18.62380 38.81716 28.72048
#
# Velocity S-wave (km/s) = 3.23138 4.66515 4.01282
# Velocity P-wave (km/s) = 5.77457 7.66420 6.78549
#
# Compressibility (1/GPa) = 0.02886597
#
# Stress axis : x y z
#
# Youngs Moduli (GPa) = 104.66230 53.87929 59.35740
#
# Poissons Ratio (x) = -0.11656 0.47500
# Poissons Ratio (y) = -0.22643 0.13111
# Poissons Ratio (z) = 0.83755 0.11901
#
# Static dielectric constant tensor:
#      x y z
#    x 1.663510 0.000000 0.000000 
#    y 0.000000 1.665510 0.000000 
#    z 0.000000 0.000000 1.576260 
# 
# From -- ./inp_files/21734.got.cif
#   From: 2010.05.17/outbox.cif.g08.bks.cpg/sg59_11_cif.got.tgz:21734.got - 2010.06.03 14:40:33.
