data_PCOD9446339
_publ_section_title
;
Structure prediction by ZEFSAII (Michael W. Deem and Ramdas Pophale) SiO2 
 PCOD9446339
Probable space group: P M M N
;
_chemical_formula_sum "Si O2"
_cell_formula_units_Z 64
_cell_length_a 7.371039
_cell_length_b 14.398372
_cell_length_c 30.269066
_cell_angle_alpha 90.000000
_cell_angle_beta 90.000000
_cell_angle_gamma 90.000000
_cell_volume 3212.485080
_symmetry_space_group_name_H-M "P M M N"
_symmetry_group_IT_number 59
_space_group.IT_coordinate_system_code '2'
_symmetry_cell_setting 'orthorhombic'
loop_
_space_group_symop_operation_xyz
x,y,z
1/2-x,1/2-y,z
1/2+x,-y,-z
-x,1/2+y,-z
-x,-y,-z
1/2+x,1/2+y,-z
1/2-x,y,z
x,1/2-y,z
loop_
_atom_site_type_symbol
_atom_site_label
_atom_site_fract_x
_atom_site_fract_y
_atom_site_fract_z
Si Si1 0.469845 0.641539 0.082043
Si Si2 0.529127 0.643108 0.346256
Si Si3 0.459064 0.480546 0.833011
Si Si4 0.972599 0.142980 0.109971
Si Si5 0.463286 0.636927 0.986297
Si Si6 0.532975 0.645178 0.518132
Si Si7 0.533534 0.536162 0.431495
Si Si8 0.971663 0.643634 0.246202
O O1 0.250000 0.637658 0.081882
O O2 0.520539 0.750000 0.086111
O O3 0.536732 0.585632 0.124070
O O4 0.536008 0.606035 0.033892
O O5 0.750000 0.641577 0.345932
O O6 0.476980 0.750000 0.355754
O O7 0.465584 0.575211 0.384953
O O8 0.472638 0.620122 0.296250
O O9 0.250000 0.499744 0.821433
O O10 0.537626 0.576557 0.851181
O O11 0.537919 0.426313 0.791326
O O12 0.750000 0.140091 0.108828
O O13 0.023769 0.250000 0.115542
O O14 0.036738 0.108713 0.061508
O O15 0.250000 0.614252 0.986400
O O16 0.476009 0.750000 0.986657
O O17 0.750000 0.650996 0.513846
O O18 0.464868 0.750000 0.524369
O O19 0.463435 0.597189 0.472925
O O20 0.498513 0.571279 0.556936
O O21 0.750000 0.548843 0.430947
O O22 0.750000 0.643580 0.245236
O O23 0.026506 0.750000 0.236773
#
# Coordination Sequence:
#
# PCOD9446339 Si02
#       8
#     8   8   8   8   8   8   8   8
#     4   9  17  28  41  57  79 107 133 156 190 241
#     4   8  13  23  41  62  83 110 141 169 199 239
#     4  10  18  26  41  64  84 103 130 165 203 240
#     4   8  14  25  40  57  77 102 133 166 197 232
#     4   7  11  22  38  53  72 101 133 159 186 229
#     4   9  17  28  41  60  89 120 144 170 211 259
#     4   9  16  26  43  65  84 107 147 189 211 232
#     4   8  14  24  38  59  86 109 128 158 204 250
#
# _framework density 19.922270000000001
#
# number of rings (size 3 to 8) (size 9 to 14) (size 15 to 20)
#    0.000    3.500    0.000    3.000    0.000    3.000 
#    0.000    0.000    0.000    3.000    0.000    7.000 
#    0.000    0.000    0.000    0.000    0.000    0.000 
#
# Total GULP energy -356891.094392 kJ/mol
# GULP energy per Si atom -5576.423350 kJ/mol
# Density = 1.987693 g / cm^3
# Si number density = 19.922270 Si / 1000 Ang^3
#
#
#
# Elastic Constant Matrix: (Units=GPa)
#
#
# Indices 1 2 3 4 5 6 
#
# 1 71.3860 -0.7286 2.7550 0.0000 0.0000 0.0000
# 2 -0.7286 133.3518 99.4438 0.0000 0.0000 0.0000
# 3 2.7550 99.4438 152.9381 0.0000 0.0000 0.0000
# 4 0.0000 0.0000 0.0000 30.4795 0.0000 0.0000
# 5 0.0000 0.0000 0.0000 0.0000 -0.4375 0.0000
# 6 0.0000 0.0000 0.0000 0.0000 0.0000 5.6275
#
#
#
# Elastic Compliance Matrix: (Units=1/GPa)
#
#
# Indices 1 2 3 4 5 6 
#
# 1 0.014036 0.000515 -0.000588 0.000000 0.000000 0.000000
# 2 0.000515 0.014577 -0.009487 0.000000 0.000000 0.000000
# 3 -0.000588 -0.009487 0.012718 0.000000 0.000000 0.000000
# 4 0.000000 0.000000 0.000000 0.032809 0.000000 0.000000
# 5 0.000000 0.000000 0.000000 0.000000 -2.285652 0.000000
# 6 0.000000 0.000000 0.000000 0.000000 0.000000 0.177699
#
#
# Mechanical properties :
#
#
# Convention : Reuss Voigt Hill
#
# Bulk Modulus (GPa) = 45.02303 62.29070 53.65686
# Shear Modulus (GPa) = -2.49092 24.21427 10.86167
#
# Velocity S-wave (km/s) = -1.11939 3.49009 2.33749
# Velocity P-wave (km/s) = 4.58014 6.89752 5.85463
#
# Compressibility (1/GPa) = 0.02221085
#
# Stress axis : x y z
#
# Youngs Moduli (GPa) = 71.24394 68.60218 78.62795
#
# Poissons Ratio (x) = -0.03533 0.04621
# Poissons Ratio (y) = -0.03669 0.74598
# Poissons Ratio (z) = 0.04187 0.65086
#
# Static dielectric constant tensor:
#      x y z
#    x 1.775260 0.000000 0.000000 
#    y 0.000000 1.708970 0.000000 
#    z 0.000000 0.000000 1.698320 
# 
# From -- ./inp_files/33249.got.cif
#   From: 2010.05.17/outbox.cif.g08.bks.cpg/sg59_17_cif.got.tgz:33249.got - 2010.06.03 14:40:33.
