data_PCOD9446185
_publ_section_title
;
Structure prediction by ZEFSAII (Michael W. Deem and Ramdas Pophale) SiO2 
 PCOD9446185
Probable space group: P M M N
;
_chemical_formula_sum "Si O2"
_cell_formula_units_Z 56
_cell_length_a 7.481048
_cell_length_b 27.642781
_cell_length_c 15.168480
_cell_angle_alpha 90.000000
_cell_angle_beta 90.000000
_cell_angle_gamma 90.000000
_cell_volume 3136.795726
_symmetry_space_group_name_H-M "P M M N"
_symmetry_group_IT_number 59
_space_group.IT_coordinate_system_code '2'
_symmetry_cell_setting 'orthorhombic'
loop_
_space_group_symop_operation_xyz
x,y,z
1/2-x,1/2-y,z
1/2+x,-y,-z
-x,1/2+y,-z
-x,-y,-z
1/2+x,1/2+y,-z
1/2-x,y,z
x,1/2-y,z
loop_
_atom_site_type_symbol
_atom_site_label
_atom_site_fract_x
_atom_site_fract_y
_atom_site_fract_z
Si Si1 0.535822 0.935743 0.811338
Si Si2 0.466023 0.620944 0.261315
Si Si3 0.466347 0.962002 0.119857
Si Si4 0.536846 0.113692 0.018946
Si Si5 0.968958 0.305223 0.883725
Si Si6 0.535897 0.957703 0.618538
Si Si7 0.036100 0.933913 0.425571
O O1 0.750000 0.939719 0.807086
O O2 0.498314 0.892108 0.877952
O O3 0.470349 0.935412 0.710537
O O4 0.465309 0.984976 0.857180
O O5 0.250000 0.625309 0.264696
O O6 0.505067 0.574275 0.200468
O O7 0.527634 0.667315 0.205763
O O8 0.530674 0.607298 0.358855
O O9 0.250000 0.965383 0.113690
O O10 0.532707 0.934005 0.033123
O O11 0.750000 0.113390 0.007598
O O12 0.473608 0.160847 0.965686
O O13 0.750000 0.304867 0.883691
O O14 0.028326 0.250000 0.889336
O O15 0.750000 0.961473 0.625044
O O16 0.498658 0.928640 0.529115
O O17 0.467701 0.012724 0.603364
O O18 0.250000 0.935544 0.414853
#
# Coordination Sequence:
#
# PCOD9446185 Si02
#       7
#     8   8   8   8   8   8   8
#     4  10  17  26  39  54  78 112 142 163 190 232
#     4   8  12  21  39  59  79 105 135 162 195 241
#     4   8  13  23  37  54  78 108 135 160 190 230
#     4   9  17  26  39  59  81 103 131 166 201 234
#     4   8  14  25  42  64  85 103 127 163 206 249
#     4   9  17  26  37  54  79 110 139 165 193 229
#     4   9  15  25  40  57  77 105 138 168 197 228
#
# _framework density 17.852613000000002
#
# number of rings (size 3 to 8) (size 9 to 14) (size 15 to 20)
#    0.000    3.286    1.429    2.143    0.000    0.571 
#    0.000    0.000    0.000    3.857    0.000    1.000 
#    0.000    5.714    0.000    0.000    0.000    0.000 
#
# Total GULP energy -311919.931820 kJ/mol
# GULP energy per Si atom -5569.998782 kJ/mol
# Density = 1.781198 g / cm^3
# Si number density = 17.852613 Si / 1000 Ang^3
#
#
#
# Elastic Constant Matrix: (Units=GPa)
#
#
# Indices 1 2 3 4 5 6 
#
# 1 48.7438 3.6457 2.4750 0.0000 0.0000 0.0000
# 2 3.6457 91.0940 78.9367 0.0000 0.0000 0.0000
# 3 2.4750 78.9367 179.1567 0.0000 0.0000 0.0000
# 4 0.0000 0.0000 0.0000 10.2872 0.0000 0.0000
# 5 0.0000 0.0000 0.0000 0.0000 14.3549 0.0000
# 6 0.0000 0.0000 0.0000 0.0000 0.0000 0.8528
#
#
#
# Elastic Compliance Matrix: (Units=1/GPa)
#
#
# Indices 1 2 3 4 5 6 
#
# 1 0.020579 -0.000934 0.000127 0.000000 0.000000 0.000000
# 2 -0.000934 0.017800 -0.007830 0.000000 0.000000 0.000000
# 3 0.000127 -0.007830 0.009030 0.000000 0.000000 0.000000
# 4 0.000000 0.000000 0.000000 0.097208 0.000000 0.000000
# 5 0.000000 0.000000 0.000000 0.000000 0.069662 0.000000
# 6 0.000000 0.000000 0.000000 0.000000 0.000000 1.172670
#
#
# Mechanical properties :
#
#
# Convention : Reuss Voigt Hill
#
# Bulk Modulus (GPa) = 33.18326 54.34547 43.76437
# Shear Modulus (GPa) = 3.53540 20.69480 12.11510
#
# Velocity S-wave (km/s) = 1.40877 3.40840 2.60786
# Velocity P-wave (km/s) = 4.61236 6.78210 5.79960
#
# Compressibility (1/GPa) = 0.03013567
#
# Stress axis : x y z
#
# Youngs Moduli (GPa) = 48.59367 56.18034 110.74515
#
# Poissons Ratio (x) = 0.05246 -0.01408
# Poissons Ratio (y) = 0.04537 0.86710
# Poissons Ratio (z) = -0.00618 0.43988
#
# Static dielectric constant tensor:
#      x y z
#    x 1.692410 0.000000 0.000000 
#    y 0.000000 1.584700 0.000000 
#    z 0.000000 0.000000 1.657720 
# 
# From -- ./inp_files/16162.got.cif
#   From: 2010.05.17/outbox.cif.g08.bks.cpg/sg59_9_cif.got.tgz:16162.got - 2010.06.03 14:40:33.
