data_PCOD9446577
_publ_section_title
;
Structure prediction by ZEFSAII (Michael W. Deem and Ramdas Pophale) SiO2 
 PCOD9446577
Probable space group: P M M N
;
_chemical_formula_sum "Si O2"
_cell_formula_units_Z 48
_cell_length_a 24.057526
_cell_length_b 7.412645
_cell_length_c 13.407410
_cell_angle_alpha 90.000000
_cell_angle_beta 90.000000
_cell_angle_gamma 90.000000
_cell_volume 2390.942082
_symmetry_space_group_name_H-M "P M M N"
_symmetry_group_IT_number 59
_space_group.IT_coordinate_system_code '2'
_symmetry_cell_setting 'orthorhombic'
loop_
_space_group_symop_operation_xyz
x,y,z
1/2-x,1/2-y,z
1/2+x,-y,-z
-x,1/2+y,-z
-x,-y,-z
1/2+x,1/2+y,-z
1/2-x,y,z
x,1/2-y,z
loop_
_atom_site_type_symbol
_atom_site_label
_atom_site_fract_x
_atom_site_fract_y
_atom_site_fract_z
Si Si1 0.936348 0.467416 0.884513
Si Si2 0.877854 0.451816 0.695098
Si Si3 0.066577 0.965644 0.890114
Si Si4 0.994914 0.962864 0.615685
Si Si5 0.115489 0.969324 0.693172
Si Si6 0.185317 0.529894 0.501164
O O1 0.931412 0.250000 0.883940
O O2 0.891500 0.535913 0.803445
O O3 0.001522 0.504726 0.860372
O O4 0.927004 0.534961 0.997161
O O5 0.854558 0.250000 0.711163
O O6 0.940650 0.440493 0.654576
O O7 0.843723 0.533408 0.602060
O O8 0.072634 0.750000 0.894391
O O9 0.111776 0.030054 0.808666
O O10 0.987596 0.750000 0.635142
O O11 0.053695 0.018685 0.658818
O O12 0.000000 0.000000 0.500000
O O13 0.120389 0.750000 0.694352
O O14 0.156468 0.031054 0.604859
O O15 0.250000 0.483500 0.501162
O O16 0.180139 0.750000 0.500217
#
# Coordination Sequence:
#
# PCOD9446577 Si02
#       6
#     8   8   8   8   8   8
#     4   9  17  26  40  63  92 119 141 172 213 261
#     4  10  18  29  44  66  92 116 148 183 218 266
#     4   9  16  27  41  61  91 120 142 170 213 263
#     4  11  19  28  43  67  94 119 143 176 224 273
#     4   9  16  26  42  63  87 113 145 177 212 260
#     4   9  17  29  45  63  83 113 153 191 222 258
#
# _framework density 20.075769000000001
#
# number of rings (size 3 to 8) (size 9 to 14) (size 15 to 20)
#    0.000    2.500    3.333    0.500    0.000    0.000 
#    0.000    0.000    0.000    1.500    0.000    7.000 
#    0.000    0.000    0.000    8.333    0.000    8.667 
#
# Total GULP energy -267293.277655 kJ/mol
# GULP energy per Si atom -5568.609951 kJ/mol
# Density = 2.003008 g / cm^3
# Si number density = 20.075769 Si / 1000 Ang^3
#
#
#
# Elastic Constant Matrix: (Units=GPa)
#
#
# Indices 1 2 3 4 5 6 
#
# 1 97.0262 7.7496 76.7350 0.0000 0.0000 0.0000
# 2 7.7496 66.4501 2.3510 0.0000 0.0000 0.0000
# 3 76.7350 2.3510 200.7129 0.0000 0.0000 0.0000
# 4 0.0000 0.0000 0.0000 -10.8225 0.0000 0.0000
# 5 0.0000 0.0000 0.0000 0.0000 13.5674 0.0000
# 6 0.0000 0.0000 0.0000 0.0000 0.0000 9.6472
#
#
#
# Elastic Compliance Matrix: (Units=1/GPa)
#
#
# Indices 1 2 3 4 5 6 
#
# 1 0.014929 -0.001540 -0.005690 0.000000 0.000000 0.000000
# 2 -0.001540 0.015214 0.000410 0.000000 0.000000 0.000000
# 3 -0.005690 0.000410 0.007153 0.000000 0.000000 0.000000
# 4 0.000000 0.000000 0.000000 -0.092400 0.000000 0.000000
# 5 0.000000 0.000000 0.000000 0.000000 0.073706 0.000000
# 6 0.000000 0.000000 0.000000 0.000000 0.000000 0.103657
#
#
# Mechanical properties :
#
#
# Convention : Reuss Voigt Hill
#
# Bulk Modulus (GPa) = 42.26907 59.76229 51.01568
# Shear Modulus (GPa) = 34.77479 20.96866 27.87172
#
# Velocity S-wave (km/s) = 4.16646 3.23534 3.73007
# Velocity P-wave (km/s) = 6.65179 6.61737 6.63460
#
# Compressibility (1/GPa) = 0.02365796
#
# Stress axis : x y z
#
# Youngs Moduli (GPa) = 66.98285 65.72923 139.80865
#
# Poissons Ratio (x) = 0.10121 0.79545
# Poissons Ratio (y) = 0.10314 -0.05739
# Poissons Ratio (z) = 0.38110 -0.02698
#
# Static dielectric constant tensor:
#      x y z
#    x 1.647560 0.000000 0.000000 
#    y 0.000000 1.807750 0.000000 
#    z 0.000000 0.000000 1.812840 
# 
# From -- ./inp_files/24508.got.cif
#   From: 2010.05.17/outbox.cif.g08.bks.cpg/sg59_13_cif.got.tgz:24508.got - 2010.06.03 14:40:33.
