data_PCOD9446607
_publ_section_title
;
Structure prediction by ZEFSAII (Michael W. Deem and Ramdas Pophale) SiO2 
 PCOD9446607
Probable space group: P M M N
;
_chemical_formula_sum "Si O2"
_cell_formula_units_Z 64
_cell_length_a 20.803394
_cell_length_b 8.643146
_cell_length_c 20.354264
_cell_angle_alpha 90.000000
_cell_angle_beta 90.000000
_cell_angle_gamma 90.000000
_cell_volume 3659.834499
_symmetry_space_group_name_H-M "P M M N"
_symmetry_group_IT_number 59
_space_group.IT_coordinate_system_code '2'
_symmetry_cell_setting 'orthorhombic'
loop_
_space_group_symop_operation_xyz
x,y,z
1/2-x,1/2-y,z
1/2+x,-y,-z
-x,1/2+y,-z
-x,-y,-z
1/2+x,1/2+y,-z
1/2-x,y,z
x,1/2-y,z
loop_
_atom_site_type_symbol
_atom_site_label
_atom_site_fract_x
_atom_site_fract_y
_atom_site_fract_z
Si Si1 0.538348 0.437510 0.436916
Si Si2 0.679473 0.430149 0.058357
Si Si3 0.680697 0.430893 0.217934
Si Si4 0.953860 0.931389 0.054930
Si Si5 0.178540 0.937982 0.526824
Si Si6 0.049871 0.063630 0.314634
Si Si7 0.958510 0.437816 0.201172
Si Si8 0.678364 0.063834 0.627353
O O1 0.500000 0.500000 0.500000
O O2 0.538495 0.250000 0.439964
O O3 0.613097 0.489040 0.437632
O O4 0.498752 0.484975 0.372725
O O5 0.750000 0.479808 0.035181
O O6 0.669614 0.250000 0.040773
O O7 0.681090 0.434505 0.138152
O O8 0.619708 0.530095 0.036123
O O9 0.750000 0.498413 0.239766
O O10 0.681249 0.250000 0.238335
O O11 0.609650 0.493820 0.232905
O O12 0.963483 0.750000 0.060171
O O13 0.964410 0.006056 0.126663
O O14 0.000000 0.000000 0.000000
O O15 0.250000 0.990942 0.548830
O O16 0.179790 0.750000 0.530320
O O17 0.170970 0.979611 0.449683
O O18 0.052200 0.250000 0.315075
O O19 0.017843 0.014098 0.246313
O O20 0.120190 0.001678 0.330697
O O21 0.955013 0.250000 0.200217
O O22 0.750000 0.014285 0.648281
O O23 0.676106 0.250000 0.629532
#
# Coordination Sequence:
#
# PCOD9446607 Si02
#       8
#     8   8   8   8   8   8   8   8
#     4  10  18  29  46  69  95 125 161 201 246 292
#     4   8  14  27  48  73 101 131 162 199 243 290
#     4   7  10  20  41  64  86 118 156 188 221 267
#     4  11  21  33  52  77 103 133 170 210 253 301
#     4   8  14  26  44  65  91 124 162 203 242 283
#     4  10  20  31  47  73 102 129 160 204 256 298
#     4   9  18  33  48  68 101 133 163 204 250 301
#     4   9  17  30  49  70  91 123 166 207 248 296
#
# _framework density 17.487130000000001
#
# number of rings (size 3 to 8) (size 9 to 14) (size 15 to 20)
#    0.000    3.000    1.250    3.375    0.000    1.000 
#    0.000    0.625    0.000    4.875    0.000    3.500 
#    0.000    3.000    0.000    0.000    0.000    0.000 
#
# Total GULP energy -356296.503024 kJ/mol
# GULP energy per Si atom -5567.132860 kJ/mol
# Density = 1.744733 g / cm^3
# Si number density = 17.487130 Si / 1000 Ang^3
#
#
#
# Elastic Constant Matrix: (Units=GPa)
#
#
# Indices 1 2 3 4 5 6 
#
# 1 171.4856 26.3204 55.1209 0.0000 0.0000 0.0000
# 2 26.3204 16.9307 16.0883 0.0000 0.0000 0.0000
# 3 55.1209 16.0883 52.5946 0.0000 0.0000 0.0000
# 4 0.0000 0.0000 0.0000 14.0379 0.0000 0.0000
# 5 0.0000 0.0000 0.0000 0.0000 24.4115 0.0000
# 6 0.0000 0.0000 0.0000 0.0000 0.0000 24.0390
#
#
#
# Elastic Compliance Matrix: (Units=1/GPa)
#
#
# Indices 1 2 3 4 5 6 
#
# 1 0.009410 -0.007412 -0.007595 0.000000 0.000000 0.000000
# 2 -0.007412 0.089106 -0.019489 0.000000 0.000000 0.000000
# 3 -0.007595 -0.019489 0.032935 0.000000 0.000000 0.000000
# 4 0.000000 0.000000 0.000000 0.071236 0.000000 0.000000
# 5 0.000000 0.000000 0.000000 0.000000 0.040964 0.000000
# 6 0.000000 0.000000 0.000000 0.000000 0.000000 0.041599
#
#
# Mechanical properties :
#
#
# Convention : Reuss Voigt Hill
#
# Bulk Modulus (GPa) = 16.01041 48.45222 32.23131
# Shear Modulus (GPa) = 13.33115 22.06311 17.69713
#
# Velocity S-wave (km/s) = 2.76405 3.55586 3.18466
# Velocity P-wave (km/s) = 4.40023 6.68030 5.65634
#
# Compressibility (1/GPa) = 0.06245938
#
# Stress axis : x y z
#
# Youngs Moduli (GPa) = 106.26634 11.22259 30.36319
#
# Poissons Ratio (x) = 0.08318 0.23061
# Poissons Ratio (y) = 0.78766 0.59174
# Poissons Ratio (z) = 0.80710 0.21871
#
# Static dielectric constant tensor:
#      x y z
#    x 1.641750 0.000000 0.000000 
#    y 0.000000 1.601400 0.000000 
#    z 0.000000 0.000000 1.578780 
# 
# From -- ./inp_files/30949.got.cif
#   From: 2010.05.17/outbox.cif.g08.bks.cpg/sg59_16_cif.got.tgz:30949.got - 2010.06.03 14:40:33.
