data_PCOD9446272
_publ_section_title
;
Structure prediction by ZEFSAII (Michael W. Deem and Ramdas Pophale) SiO2 
 PCOD9446272
Probable space group: P M M N
;
_chemical_formula_sum "Si O2"
_cell_formula_units_Z 64
_cell_length_a 22.423651
_cell_length_b 8.025792
_cell_length_c 15.525006
_cell_angle_alpha 90.000000
_cell_angle_beta 90.000000
_cell_angle_gamma 90.000000
_cell_volume 2793.997430
_symmetry_space_group_name_H-M "P M M N"
_symmetry_group_IT_number 59
_space_group.IT_coordinate_system_code '2'
_symmetry_cell_setting 'orthorhombic'
loop_
_space_group_symop_operation_xyz
x,y,z
1/2-x,1/2-y,z
1/2+x,-y,-z
-x,1/2+y,-z
-x,-y,-z
1/2+x,1/2+y,-z
1/2-x,y,z
x,1/2-y,z
loop_
_atom_site_type_symbol
_atom_site_label
_atom_site_fract_x
_atom_site_fract_y
_atom_site_fract_z
Si Si1 0.370116 0.951827 0.924857
Si Si2 0.313473 0.441066 0.468714
Si Si3 0.368381 0.051760 0.109104
Si Si4 0.154566 0.937327 0.293285
Si Si5 0.002404 0.554663 0.871551
Si Si6 0.477034 0.445253 0.325050
Si Si7 0.907893 0.052172 0.404329
Si Si8 0.682866 0.046234 0.257829
O O1 0.371549 0.750000 0.925125
O O2 0.438498 0.016576 0.915169
O O3 0.335665 0.003387 0.838694
O O4 0.343522 0.010362 0.015329
O O5 0.250000 0.517068 0.497798
O O6 0.314903 0.250000 0.496076
O O7 0.315993 0.450345 0.365785
O O8 0.371971 0.523629 0.508443
O O9 0.371526 0.250000 0.121398
O O10 0.436942 0.982928 0.109557
O O11 0.336278 0.981924 0.193562
O O12 0.173903 0.750000 0.309624
O O13 0.083857 0.957328 0.311567
O O14 0.999907 0.750000 0.896031
O O15 0.009701 0.550202 0.768146
O O16 0.461271 0.250000 0.341804
O O17 0.524926 0.512984 0.393177
O O18 0.914394 0.250000 0.391145
O O19 0.864356 0.987432 0.328817
O O20 0.750000 0.992090 0.277535
O O21 0.681957 0.250000 0.259903
#
# Coordination Sequence:
#
# PCOD9446272 Si02
#       8
#     8   8   8   8   8   8   8   8
#     4  10  17  29  50  77 110 148 192 235 276 330
#     4  11  25  44  64  86 114 149 189 237 293 348
#     4  10  20  34  53  78 111 148 187 235 290 343
#     4  11  23  40  62  87 114 148 193 244 290 344
#     4   8  14  27  48  75 109 146 183 226 276 331
#     4   9  17  33  57  87 123 158 187 228 289 347
#     4  10  19  35  62  91 119 152 192 236 282 340
#     4   9  17  30  52  82 115 151 191 236 282 329
#
# _framework density 22.906247
#
# number of rings (size 3 to 8) (size 9 to 14) (size 15 to 20)
#    0.000    2.250    1.250    3.375    0.000    2.500 
#    0.000    3.750    0.000    3.375    0.000    0.000 
#    0.000    0.000    0.000    0.000    0.000    0.000 
#
# Total GULP energy -357408.529419 kJ/mol
# GULP energy per Si atom -5584.508272 kJ/mol
# Density = 2.285411 g / cm^3
# Si number density = 22.906247 Si / 1000 Ang^3
#
#
#
# Elastic Constant Matrix: (Units=GPa)
#
#
# Indices 1 2 3 4 5 6 
#
# 1 38.4240 1.0593 11.7199 0.0000 0.0000 0.0000
# 2 1.0593 31.8202 -6.5222 0.0000 0.0000 0.0000
# 3 11.7199 -6.5222 98.0550 0.0000 0.0000 0.0000
# 4 0.0000 0.0000 0.0000 23.1010 0.0000 0.0000
# 5 0.0000 0.0000 0.0000 0.0000 6.5234 0.0000
# 6 0.0000 0.0000 0.0000 0.0000 0.0000 5.5786
#
#
#
# Elastic Compliance Matrix: (Units=1/GPa)
#
#
# Indices 1 2 3 4 5 6 
#
# 1 0.027089 -0.001587 -0.003343 0.000000 0.000000 0.000000
# 2 -0.001587 0.031954 0.002315 0.000000 0.000000 0.000000
# 3 -0.003343 0.002315 0.010752 0.000000 0.000000 0.000000
# 4 0.000000 0.000000 0.000000 0.043288 0.000000 0.000000
# 5 0.000000 0.000000 0.000000 0.000000 0.153295 0.000000
# 6 0.000000 0.000000 0.000000 0.000000 0.000000 0.179255
#
#
# Mechanical properties :
#
#
# Convention : Reuss Voigt Hill
#
# Bulk Modulus (GPa) = 15.48844 20.09035 17.78939
# Shear Modulus (GPa) = 10.58459 17.84343 14.21401
#
# Velocity S-wave (km/s) = 2.15194 2.79404 2.49375
# Velocity P-wave (km/s) = 3.59873 4.38162 4.00933
#
# Compressibility (1/GPa) = 0.06456429
#
# Stress axis : x y z
#
# Youngs Moduli (GPa) = 36.91549 31.29508 93.00633
#
# Poissons Ratio (x) = 0.04967 0.31095
# Poissons Ratio (y) = 0.05859 -0.21532
# Poissons Ratio (z) = 0.12342 -0.07245
#
# Static dielectric constant tensor:
#      x y z
#    x 1.897900 0.000000 0.000000 
#    y 0.000000 1.825380 0.000000 
#    z 0.000000 0.000000 1.868050 
# 
# From -- ./inp_files/24758.got.cif
#   From: 2010.05.17/outbox.cif.g08.bks.cpg/sg59_13_cif.got.tgz:24758.got - 2010.06.03 14:40:33.
