data_PCOD9446897
_publ_section_title
;
Structure prediction by ZEFSAII (Michael W. Deem and Ramdas Pophale) SiO2 
 PCOD9446897
Probable space group: P M M N
;
_chemical_formula_sum "Si O2"
_cell_formula_units_Z 56
_cell_length_a 16.193997
_cell_length_b 8.668191
_cell_length_c 20.654251
_cell_angle_alpha 90.000000
_cell_angle_beta 90.000000
_cell_angle_gamma 90.000000
_cell_volume 2899.292134
_symmetry_space_group_name_H-M "P M M N"
_symmetry_group_IT_number 59
_space_group.IT_coordinate_system_code '2'
_symmetry_cell_setting 'orthorhombic'
loop_
_space_group_symop_operation_xyz
x,y,z
1/2-x,1/2-y,z
1/2+x,-y,-z
-x,1/2+y,-z
-x,-y,-z
1/2+x,1/2+y,-z
1/2-x,y,z
x,1/2-y,z
loop_
_atom_site_type_symbol
_atom_site_label
_atom_site_fract_x
_atom_site_fract_y
_atom_site_fract_z
Si Si1 0.945633 0.937028 0.290001
Si Si2 0.155054 0.435933 0.835487
Si Si3 0.340866 0.424792 0.392451
Si Si4 0.881426 0.925444 0.754122
Si Si5 0.509711 0.067563 0.071900
Si Si6 0.159872 0.570201 0.120715
Si Si7 0.496793 0.426060 0.570696
O O1 0.957359 0.750000 0.289947
O O2 0.872466 0.971292 0.239018
O O3 0.944610 0.985768 0.366313
O O4 0.025232 0.020082 0.259422
O O5 0.250000 0.487158 0.847690
O O6 0.153159 0.250000 0.841625
O O7 0.085568 0.500018 0.885151
O O8 0.250000 0.453975 0.419321
O O9 0.367261 0.250000 0.412380
O O10 0.338587 0.422225 0.315111
O O11 0.408505 0.550877 0.408299
O O12 0.879192 0.750000 0.780108
O O13 0.839955 0.043888 0.802532
O O14 0.520971 0.250000 0.069114
O O15 0.420783 0.024114 0.101402
O O16 0.500000 0.000000 0.000000
O O17 0.250000 0.520463 0.094688
O O18 0.148441 0.750000 0.104526
O O19 0.500000 0.500000 0.500000
O O20 0.472287 0.250000 0.562835
#
# Coordination Sequence:
#
# PCOD9446897 Si02
#       7
#     8   8   8   8   8   8   8
#     4   9  18  34  57  83 116 156 201 247 297 359
#     4  10  21  40  67  95 124 161 207 260 315 373
#     4   9  18  32  50  75 108 144 183 229 282 344
#     4  10  18  30  53  84 116 149 184 227 284 345
#     4  12  26  44  66  90 121 161 202 252 309 368
#     4  11  23  38  58  86 121 157 193 237 290 351
#     4  10  20  34  53  79 112 155 200 244 298 360
#
# _framework density 19.315059000000002
#
# number of rings (size 3 to 8) (size 9 to 14) (size 15 to 20)
#    0.000    1.857    1.429    3.000    0.000    4.000 
#    0.000    0.714    0.000    2.571    0.000    0.000 
#    0.000    0.000    0.000    0.000    0.000    0.000 
#
# Total GULP energy -311863.622407 kJ/mol
# GULP energy per Si atom -5568.993257 kJ/mol
# Density = 1.927110 g / cm^3
# Si number density = 19.315059 Si / 1000 Ang^3
#
#
#
# Elastic Constant Matrix: (Units=GPa)
#
#
# Indices 1 2 3 4 5 6 
#
# 1 120.3430 29.5820 51.9361 0.0000 0.0000 0.0000
# 2 29.5820 43.6208 28.6220 0.0000 0.0000 0.0000
# 3 51.9361 28.6220 119.2435 0.0000 0.0000 0.0000
# 4 0.0000 0.0000 0.0000 32.0214 0.0000 0.0000
# 5 0.0000 0.0000 0.0000 0.0000 1.6923 0.0000
# 6 0.0000 0.0000 0.0000 0.0000 0.0000 11.6443
#
#
#
# Elastic Compliance Matrix: (Units=1/GPa)
#
#
# Indices 1 2 3 4 5 6 
#
# 1 0.011142 -0.005189 -0.003607 0.000000 0.000000 0.000000
# 2 -0.005189 0.029627 -0.004851 0.000000 0.000000 0.000000
# 3 -0.003607 -0.004851 0.011122 0.000000 0.000000 0.000000
# 4 0.000000 0.000000 0.000000 0.031229 0.000000 0.000000
# 5 0.000000 0.000000 0.000000 0.000000 0.590898 0.000000
# 6 0.000000 0.000000 0.000000 0.000000 0.000000 0.085879
#
#
# Mechanical properties :
#
#
# Convention : Reuss Voigt Hill
#
# Bulk Modulus (GPa) = 40.65794 55.94306 48.30050
# Shear Modulus (GPa) = 6.28622 20.60942 13.44782
#
# Velocity S-wave (km/s) = 1.80600 3.27006 2.64149
# Velocity P-wave (km/s) = 5.04425 6.57906 5.86210
#
# Compressibility (1/GPa) = 0.02459544
#
# Stress axis : x y z
#
# Youngs Moduli (GPa) = 89.75108 33.75293 89.91348
#
# Poissons Ratio (x) = 0.17515 0.32434
# Poissons Ratio (y) = 0.46573 0.43620
# Poissons Ratio (z) = 0.32376 0.16374
#
# Static dielectric constant tensor:
#      x y z
#    x 1.702660 0.000000 0.000000 
#    y 0.000000 1.678970 0.000000 
#    z 0.000000 0.000000 1.763780 
# 
# From -- ./inp_files/30408.got.cif
#   From: 2010.05.17/outbox.cif.g08.bks.cpg/sg59_16_cif.got.tgz:30408.got - 2010.06.03 14:40:33.
