data_PCOD9446699
_publ_section_title
;
Structure prediction by ZEFSAII (Michael W. Deem and Ramdas Pophale) SiO2 
 PCOD9446699
Probable space group: P M M N
;
_chemical_formula_sum "Si O2"
_cell_formula_units_Z 58
_cell_length_a 7.637588
_cell_length_b 25.050174
_cell_length_c 12.487339
_cell_angle_alpha 90.000000
_cell_angle_beta 90.000000
_cell_angle_gamma 90.000000
_cell_volume 2389.114015
_symmetry_space_group_name_H-M "P M M N"
_symmetry_group_IT_number 59
_space_group.IT_coordinate_system_code '2'
_symmetry_cell_setting 'orthorhombic'
loop_
_space_group_symop_operation_xyz
x,y,z
1/2-x,1/2-y,z
1/2+x,-y,-z
-x,1/2+y,-z
-x,-y,-z
1/2+x,1/2+y,-z
1/2-x,y,z
x,1/2-y,z
loop_
_atom_site_type_symbol
_atom_site_label
_atom_site_fract_x
_atom_site_fract_y
_atom_site_fract_z
Si Si1 0.050913 0.843012 0.091395
Si Si2 0.534680 0.334252 0.147765
Si Si3 0.946079 0.525472 0.339204
Si Si4 0.543561 0.086355 0.318084
Si Si5 0.542410 0.644628 0.329983
Si Si6 0.962283 0.808293 0.547871
Si Si7 0.551564 0.029899 0.893553
Si Si8 0.750000 0.750000 0.781372
O O1 0.250000 0.824239 0.092777
O O2 0.044804 0.907130 0.083814
O O3 0.981719 0.832720 0.210451
O O4 0.980222 0.825003 0.976362
O O5 0.750000 0.326271 0.156819
O O6 0.497122 0.392979 0.198260
O O7 0.405850 0.295738 0.211588
O O8 0.750000 0.528379 0.385844
O O9 0.033080 0.468480 0.367439
O O10 0.031740 0.584286 0.348332
O O11 0.936560 0.519195 0.210011
O O12 0.750000 0.076320 0.315804
O O13 0.515244 0.138375 0.390546
O O14 0.750000 0.638290 0.341772
O O15 0.482691 0.682462 0.424847
O O16 0.750000 0.805549 0.554250
O O17 0.028396 0.750000 0.582541
O O18 0.750000 0.016044 0.863637
O O19 0.500000 0.000000 0.000000
#
# Coordination Sequence:
#
# PCOD9446699 Si02
#       8
#     8   8   8   8   8   8   8   2
#     4   9  19  37  58  82 121 159 192 245 300 357
#     4  10  23  42  61  91 129 162 210 266 317 370
#     4   9  18  35  56  83 116 153 193 242 311 366
#     4  10  22  39  61  86 120 158 198 255 311 372
#     4   9  19  37  61  88 121 158 201 253 304 369
#     4  10  23  41  60  85 117 153 199 255 307 364
#     4  10  18  29  49  80 116 155 192 231 287 352
#     4  12  26  40  64  90 118 180 214 256 318 384
#
# _framework density 24.276782999999998
#
# number of rings (size 3 to 8) (size 9 to 14) (size 15 to 20)
#    0.000    2.345    0.000    1.448    2.897    4.690 
#    3.724    0.000    0.000    0.000    0.000    0.000 
#    0.000    0.000    0.000    0.000    0.000    0.000 
#
# Total GULP energy -322977.745294 kJ/mol
# GULP energy per Si atom -5568.581815 kJ/mol
# Density = 2.422153 g / cm^3
# Si number density = 24.276783 Si / 1000 Ang^3
#
#
#
# Elastic Constant Matrix: (Units=GPa)
#
#
# Indices 1 2 3 4 5 6 
#
# 1 76.9466 17.6684 3.6238 0.0000 0.0000 0.0000
# 2 17.6684 86.3115 29.6388 0.0000 0.0000 0.0000
# 3 3.6238 29.6388 110.9009 0.0000 0.0000 0.0000
# 4 0.0000 0.0000 0.0000 4.1281 0.0000 0.0000
# 5 0.0000 0.0000 0.0000 0.0000 19.0895 0.0000
# 6 0.0000 0.0000 0.0000 0.0000 0.0000 10.4097
#
#
#
# Elastic Compliance Matrix: (Units=1/GPa)
#
#
# Indices 1 2 3 4 5 6 
#
# 1 0.013648 -0.002908 0.000331 0.000000 0.000000 0.000000
# 2 -0.002908 0.013376 -0.003480 0.000000 0.000000 0.000000
# 3 0.000331 -0.003480 0.009936 0.000000 0.000000 0.000000
# 4 0.000000 0.000000 0.000000 0.242240 0.000000 0.000000
# 5 0.000000 0.000000 0.000000 0.000000 0.052385 0.000000
# 6 0.000000 0.000000 0.000000 0.000000 0.000000 0.096064
#
#
# Mechanical properties :
#
#
# Convention : Reuss Voigt Hill
#
# Bulk Modulus (GPa) = 40.24491 41.78012 41.01251
# Shear Modulus (GPa) = 11.15960 21.60734 16.38347
#
# Velocity S-wave (km/s) = 2.14635 2.98659 2.60063
# Velocity P-wave (km/s) = 4.77032 5.39817 5.09393
#
# Compressibility (1/GPa) = 0.02484786
#
# Stress axis : x y z
#
# Youngs Moduli (GPa) = 73.27051 74.76036 100.64176
#
# Poissons Ratio (x) = 0.21737 -0.03332
# Poissons Ratio (y) = 0.21304 0.35021
# Poissons Ratio (z) = -0.02426 0.26015
#
# Static dielectric constant tensor:
#      x y z
#    x 1.937910 0.000000 0.000000 
#    y 0.000000 2.033810 0.000000 
#    z 0.000000 0.000000 2.016400 
# 
# From -- ./inp_files/14664.got.cif
#   From: 2010.05.17/outbox.cif.g08.bks.cpg/sg59_8_cif.got.tgz:14664.got - 2010.06.03 14:40:33.
