data_PCOD9446000
_publ_section_title
;
Structure prediction by ZEFSAII (Michael W. Deem and Ramdas Pophale) SiO2 
 PCOD9446000
Probable space group: P N N M
;
_chemical_formula_sum "Si O2"
_cell_formula_units_Z 64
_cell_length_a 15.000000
_cell_length_b 24.000000
_cell_length_c 9.000000
_cell_angle_alpha 90.000000
_cell_angle_beta 90.000000
_cell_angle_gamma 90.000000
_cell_volume 3240.000000
_symmetry_space_group_name_H-M "P N N M"
_symmetry_group_IT_number 58
_symmetry_cell_setting 'orthorhombic'
loop_
_space_group_symop_operation_xyz
x,y,z
-x,-y,z
1/2+x,1/2-y,1/2-z
1/2-x,1/2+y,1/2-z
-x,-y,-z
x,y,-z
1/2-x,1/2+y,1/2+z
1/2+x,1/2-y,1/2+z
loop_
_atom_site_type_symbol
_atom_site_label
_atom_site_fract_x
_atom_site_fract_y
_atom_site_fract_z
Si Si1 0.037862 0.156555 0.675240
Si Si2 0.793856 0.561233 0.828583
Si Si3 0.854156 0.435030 0.169522
Si Si4 0.430587 0.782810 0.826923
Si Si5 0.242441 0.777244 0.674969
Si Si6 0.974063 0.596446 0.326283
Si Si7 0.229221 0.151244 0.824672
Si Si8 0.138262 0.876226 0.823642
O O1 0.032204 0.144959 0.500000
O O2 0.023772 0.223269 0.696792
O O3 0.136914 0.145338 0.735455
O O4 0.962142 0.123908 0.763402
O O5 0.810309 0.495551 0.828083
O O6 0.874703 0.586456 0.733016
O O7 0.700890 0.578489 0.755878
O O8 0.798105 0.580905 0.000000
O O9 0.798041 0.395044 0.274524
O O10 0.954475 0.436689 0.230460
O O11 0.853967 0.414337 0.000000
O O12 0.345591 0.787093 0.719618
O O13 0.490859 0.837230 0.808930
O O14 0.398936 0.783451 0.000000
O O15 0.227406 0.787555 0.500000
O O16 0.229369 0.712047 0.706061
O O17 0.182244 0.817898 0.771544
O O18 0.980471 0.582073 0.500000
O O19 0.210178 0.148692 0.000000
O O20 0.141525 0.881961 0.000000
#
# Coordination Sequence:
#
# PCOD9446000 Si02
#       8
#     8   8   8   8   8   8   8   8
#     4  10  21  39  62  88 125 163 199 246 304 364
#     4  11  24  43  63  87 121 161 207 254 303 361
#     4  11  25  42  62  88 120 162 208 252 303 362
#     4   9  19  35  56  86 122 158 196 239 291 355
#     4  10  20  35  58  86 120 159 196 241 298 358
#     4  11  22  37  60  92 125 160 202 248 302 360
#     4  10  22  41  63  90 123 158 203 253 304 358
#     4  12  24  38  60  91 123 158 204 252 303 360
#
# _framework density 19.753086
#
# number of rings (size 3 to 8) (size 9 to 14) (size 15 to 20)
#    0.000    1.500    1.250    3.750    1.750    6.000 
#    0.000    0.625    0.000    3.750    0.000    0.000 
#    0.000    0.000    0.000    0.000    0.000    0.000 
#
# Total GULP energy -357698.285130 kJ/mol
# GULP energy per Si atom -5589.035705 kJ/mol
# Density = 1.970813 g / cm^3
# Si number density = 19.753086 Si / 1000 Ang^3
#
#
#
# Elastic Constant Matrix: (Units=GPa)
#
#
# Indices 1 2 3 4 5 6 
#
# 1 -9.7053 -1.3044 -8.8946 0.0000 0.0000 0.0000
# 2 -1.3044 44.0175 -2.0580 0.0000 0.0000 0.0000
# 3 -8.8946 -2.0580 56.9912 0.0000 0.0000 0.0000
# 4 0.0000 0.0000 0.0000 35.3282 0.0000 0.0000
# 5 0.0000 0.0000 0.0000 0.0000 35.8888 0.0000
# 6 0.0000 0.0000 0.0000 0.0000 0.0000 24.6166
#
#
#
# Elastic Compliance Matrix: (Units=1/GPa)
#
#
# Indices 1 2 3 4 5 6 
#
# 1 -0.089657 -0.003317 -0.014112 0.000000 0.000000 0.000000
# 2 -0.003317 0.022634 0.000300 0.000000 0.000000 0.000000
# 3 -0.014112 0.000300 0.015355 0.000000 0.000000 0.000000
# 4 0.000000 0.000000 0.000000 0.028306 0.000000 0.000000
# 5 0.000000 0.000000 0.000000 0.000000 0.027864 0.000000
# 6 0.000000 0.000000 0.000000 0.000000 0.000000 0.040623
#
#
# Mechanical properties :
#
#
# Convention : Reuss Voigt Hill
#
# Bulk Modulus (GPa) = -11.63778 7.42104 -2.10837
# Shear Modulus (GPa) = 98.53945 26.07077 62.30511
#
# Velocity S-wave (km/s) = 7.07064 3.63689 5.62232
# Velocity P-wave (km/s) = 7.79449 4.62612 6.40918
#
# Compressibility (1/GPa) = -0.08592707
#
# Stress axis : x y z
#
# Youngs Moduli (GPa) = -11.15362 44.18140 65.12592
#
# Poissons Ratio (x) = 0.14654 0.91909
# Poissons Ratio (y) = -0.03699 -0.01952
# Poissons Ratio (z) = -0.15740 -0.01324
#
# Static dielectric constant tensor:
#      x y z
#    x 1.670200 0.000000 0.000000 
#    y 0.000000 1.718940 0.000000 
#    z 0.000000 0.000000 1.658540 
# 
# From -- ./inp_files/6765.got.cif
#   From: 2010.05.17/outbox.ucp.g08.bks.cvg/sg58_4_cif.got.tgz:6765.got - 2010.06.11 16:41:41.
