data_PCOD9446209
_publ_section_title
;
Structure prediction by ZEFSAII (Michael W. Deem and Ramdas Pophale) SiO2 
 PCOD9446209
Probable space group: P M M N
;
_chemical_formula_sum "Si O2"
_cell_formula_units_Z 64
_cell_length_a 8.904404
_cell_length_b 27.475857
_cell_length_c 17.615758
_cell_angle_alpha 90.000000
_cell_angle_beta 90.000000
_cell_angle_gamma 90.000000
_cell_volume 4309.803196
_symmetry_space_group_name_H-M "P M M N"
_symmetry_group_IT_number 59
_space_group.IT_coordinate_system_code '2'
_symmetry_cell_setting 'orthorhombic'
loop_
_space_group_symop_operation_xyz
x,y,z
1/2-x,1/2-y,z
1/2+x,-y,-z
-x,1/2+y,-z
-x,-y,-z
1/2+x,1/2+y,-z
1/2-x,y,z
x,1/2-y,z
loop_
_atom_site_type_symbol
_atom_site_label
_atom_site_fract_x
_atom_site_fract_y
_atom_site_fract_z
Si Si1 0.431219 0.306461 0.583938
Si Si2 0.574112 0.453221 0.610742
Si Si3 0.427739 0.376341 0.718521
Si Si4 0.430005 0.552438 0.982461
Si Si5 0.069430 0.531449 0.818544
Si Si6 0.927939 0.561977 0.661360
Si Si7 0.570098 0.075022 0.854802
Si Si8 0.427477 0.616306 0.528420
O O1 0.250000 0.310222 0.578247
O O2 0.473534 0.250000 0.581012
O O3 0.474164 0.331587 0.664204
O O4 0.503237 0.338143 0.516720
O O5 0.750000 0.444354 0.630802
O O6 0.470613 0.423712 0.668753
O O7 0.546710 0.510194 0.618985
O O8 0.549158 0.429613 0.528598
O O9 0.250000 0.374147 0.730712
O O10 0.510325 0.384040 0.797978
O O11 0.250000 0.548365 0.983744
O O12 0.470646 0.562050 0.894927
O O13 0.500000 0.500000 0.000000
O O14 0.471235 0.583855 0.056584
O O15 0.250000 0.527199 0.813181
O O16 0.004241 0.555662 0.743131
O O17 0.000802 0.477162 0.830004
O O18 0.750000 0.568483 0.670107
O O19 0.996088 0.603455 0.607879
O O20 0.750000 0.070999 0.848286
O O21 0.250000 0.622917 0.538030
#
# Coordination Sequence:
#
# PCOD9446209 Si02
#       8
#     8   8   8   8   8   8   8   8
#     4   9  19  36  53  67  87 114 143 179 225 271
#     4   9  18  30  42  58  85 117 147 180 217 256
#     4  10  18  27  44  67  87 113 148 183 218 260
#     4   8  16  27  39  55  79 113 150 183 215 249
#     4  10  18  28  41  59  83 116 155 189 218 251
#     4  11  20  29  42  61  88 121 151 181 220 262
#     4  10  17  27  41  59  86 117 148 182 218 258
#     4  10  20  32  46  65  86 112 147 184 220 262
#
# _framework density 14.849867
#
# number of rings (size 3 to 8) (size 9 to 14) (size 15 to 20)
#    0.000    2.375    1.250    2.250    0.000    2.750 
#    0.000    0.000    0.000    0.000    0.000    0.000 
#    0.000    1.000    0.000    8.000    0.000    2.625 
#
# Total GULP energy -356514.952264 kJ/mol
# GULP energy per Si atom -5570.546129 kJ/mol
# Density = 1.481607 g / cm^3
# Si number density = 14.849867 Si / 1000 Ang^3
#
#
#
# Elastic Constant Matrix: (Units=GPa)
#
#
# Indices 1 2 3 4 5 6 
#
# 1 42.4149 33.0628 53.5685 0.0000 0.0000 0.0000
# 2 33.0628 62.5388 58.3951 0.0000 0.0000 0.0000
# 3 53.5685 58.3951 134.1984 0.0000 0.0000 0.0000
# 4 0.0000 0.0000 0.0000 11.3587 0.0000 0.0000
# 5 0.0000 0.0000 0.0000 0.0000 22.8776 0.0000
# 6 0.0000 0.0000 0.0000 0.0000 0.0000 14.5869
#
#
#
# Elastic Compliance Matrix: (Units=1/GPa)
#
#
# Indices 1 2 3 4 5 6 
#
# 1 0.054142 -0.014222 -0.015424 0.000000 0.000000 0.000000
# 2 -0.014222 0.030669 -0.007668 0.000000 0.000000 0.000000
# 3 -0.015424 -0.007668 0.016945 0.000000 0.000000 0.000000
# 4 0.000000 0.000000 0.000000 0.088038 0.000000 0.000000
# 5 0.000000 0.000000 0.000000 0.000000 0.043711 0.000000
# 6 0.000000 0.000000 0.000000 0.000000 0.000000 0.068554
#
#
# Mechanical properties :
#
#
# Convention : Reuss Voigt Hill
#
# Bulk Modulus (GPa) = 36.86146 58.80056 47.83101
# Shear Modulus (GPa) = 12.96239 16.03970 14.50105
#
# Velocity S-wave (km/s) = 2.95769 3.29009 3.12831
# Velocity P-wave (km/s) = 6.04488 7.35633 6.73261
#
# Compressibility (1/GPa) = 0.02712860
#
# Stress axis : x y z
#
# Youngs Moduli (GPa) = 18.46981 32.60598 59.01404
#
# Poissons Ratio (x) = 0.46373 0.91021
# Poissons Ratio (y) = 0.26268 0.45254
# Poissons Ratio (z) = 0.28487 0.25003
#
# Static dielectric constant tensor:
#      x y z
#    x 1.498520 0.000000 0.000000 
#    y 0.000000 1.456530 0.000000 
#    z 0.000000 0.000000 1.532230 
# 
# From -- ./inp_files/26516.got.cif
#   From: 2010.05.17/outbox.cif.g08.bks.cpg/sg59_14_cif.got.tgz:26516.got - 2010.06.03 14:40:33.
