data_PCOD9446208
_publ_section_title
;
Structure prediction by ZEFSAII (Michael W. Deem and Ramdas Pophale) SiO2 
 PCOD9446208
Probable space group: P M M N
;
_chemical_formula_sum "Si O2"
_cell_formula_units_Z 56
_cell_length_a 7.712049
_cell_length_b 27.919334
_cell_length_c 14.847503
_cell_angle_alpha 90.000000
_cell_angle_beta 90.000000
_cell_angle_gamma 90.000000
_cell_volume 3196.894145
_symmetry_space_group_name_H-M "P M M N"
_symmetry_group_IT_number 59
_space_group.IT_coordinate_system_code '2'
_symmetry_cell_setting 'orthorhombic'
loop_
_space_group_symop_operation_xyz
x,y,z
1/2-x,1/2-y,z
1/2+x,-y,-z
-x,1/2+y,-z
-x,-y,-z
1/2+x,1/2+y,-z
1/2-x,y,z
x,1/2-y,z
loop_
_atom_site_type_symbol
_atom_site_label
_atom_site_fract_x
_atom_site_fract_y
_atom_site_fract_z
Si Si1 0.537573 0.195324 0.128171
Si Si2 0.045330 0.886758 0.738355
Si Si3 0.456258 0.537051 0.372343
Si Si4 0.536447 0.440293 0.826676
Si Si5 0.551139 0.124749 0.977757
Si Si6 0.543241 0.566755 0.562875
Si Si7 0.449676 0.043291 0.111100
O O1 0.750000 0.195482 0.125828
O O2 0.479782 0.250000 0.133251
O O3 0.487539 0.162184 0.213174
O O4 0.475020 0.167260 0.038582
O O5 0.250000 0.891557 0.754877
O O6 0.012529 0.892725 0.632917
O O7 0.956717 0.930465 0.791876
O O8 0.250000 0.531542 0.361644
O O9 0.521439 0.556285 0.276779
O O10 0.487371 0.569969 0.459343
O O11 0.527023 0.484353 0.398930
O O12 0.750000 0.439964 0.828402
O O13 0.483325 0.489718 0.875770
O O14 0.474943 0.394945 0.884650
O O15 0.750000 0.138323 0.959643
O O16 0.548224 0.078360 0.043580
O O17 0.750000 0.564561 0.563670
O O18 0.250000 0.041350 0.081481
#
# Coordination Sequence:
#
# PCOD9446208 Si02
#       7
#     8   8   8   8   8   8   8
#     4   8  15  28  45  66  88 108 137 179 221 260
#     4  10  18  28  45  65  85 114 148 178 216 266
#     4   9  17  29  42  58  85 120 151 178 209 249
#     4   9  16  27  41  59  85 116 148 179 210 248
#     4   9  17  28  43  62  83 112 146 176 212 258
#     4  10  18  29  43  62  87 115 146 183 217 249
#     4  10  17  27  40  58  87 117 143 177 214 247
#
# _framework density 17.517001
#
# number of rings (size 3 to 8) (size 9 to 14) (size 15 to 20)
#    0.000    2.714    1.429    2.571    0.000    0.571 
#    0.000    1.429    0.000   10.714    0.000    1.000 
#    0.000    5.714    0.000    0.000    0.000    0.000 
#
# Total GULP energy -312108.168331 kJ/mol
# GULP energy per Si atom -5573.360149 kJ/mol
# Density = 1.747713 g / cm^3
# Si number density = 17.517001 Si / 1000 Ang^3
#
#
#
# Elastic Constant Matrix: (Units=GPa)
#
#
# Indices 1 2 3 4 5 6 
#
# 1 30.7957 -4.5823 -6.2583 0.0000 0.0000 0.0000
# 2 -4.5823 90.6660 41.7945 0.0000 0.0000 0.0000
# 3 -6.2583 41.7945 95.9340 0.0000 0.0000 0.0000
# 4 0.0000 0.0000 0.0000 12.8527 0.0000 0.0000
# 5 0.0000 0.0000 0.0000 0.0000 13.4301 0.0000
# 6 0.0000 0.0000 0.0000 0.0000 0.0000 7.7514
#
#
#
# Elastic Compliance Matrix: (Units=1/GPa)
#
#
# Indices 1 2 3 4 5 6 
#
# 1 0.032960 0.000844 0.001782 0.000000 0.000000 0.000000
# 2 0.000844 0.013823 -0.005967 0.000000 0.000000 0.000000
# 3 0.001782 -0.005967 0.013140 0.000000 0.000000 0.000000
# 4 0.000000 0.000000 0.000000 0.077805 0.000000 0.000000
# 5 0.000000 0.000000 0.000000 0.000000 0.074460 0.000000
# 6 0.000000 0.000000 0.000000 0.000000 0.000000 0.129009
#
#
# Mechanical properties :
#
#
# Convention : Reuss Voigt Hill
#
# Bulk Modulus (GPa) = 18.78234 31.03373 24.90804
# Shear Modulus (GPa) = 13.67526 19.23629 16.45578
#
# Velocity S-wave (km/s) = 2.79711 3.31743 3.06832
# Velocity P-wave (km/s) = 4.60189 5.69461 5.17716
#
# Compressibility (1/GPa) = 0.05324150
#
# Stress axis : x y z
#
# Youngs Moduli (GPa) = 30.33994 72.34456 76.10553
#
# Poissons Ratio (x) = -0.06107 -0.13565
# Poissons Ratio (y) = -0.02561 0.45412
# Poissons Ratio (z) = -0.05408 0.43167
#
# Static dielectric constant tensor:
#      x y z
#    x 1.653190 0.000000 0.000000 
#    y 0.000000 1.577670 0.000000 
#    z 0.000000 0.000000 1.641020 
# 
# From -- ./inp_files/21710.got.cif
#   From: 2010.05.17/outbox.cif.g08.bks.cpg/sg59_11_cif.got.tgz:21710.got - 2010.06.03 14:40:33.
