data_PCOD9446892
_publ_section_title
;
Structure prediction by ZEFSAII (Michael W. Deem and Ramdas Pophale) SiO2 
 PCOD9446892
Probable space group: P M M N
;
_chemical_formula_sum "Si O2"
_cell_formula_units_Z 64
_cell_length_a 29.663218
_cell_length_b 8.574027
_cell_length_c 12.633059
_cell_angle_alpha 90.000000
_cell_angle_beta 90.000000
_cell_angle_gamma 90.000000
_cell_volume 3213.006726
_symmetry_space_group_name_H-M "P M M N"
_symmetry_group_IT_number 59
_space_group.IT_coordinate_system_code '2'
_symmetry_cell_setting 'orthorhombic'
loop_
_space_group_symop_operation_xyz
x,y,z
1/2-x,1/2-y,z
1/2+x,-y,-z
-x,1/2+y,-z
-x,-y,-z
1/2+x,1/2+y,-z
1/2-x,y,z
x,1/2-y,z
loop_
_atom_site_type_symbol
_atom_site_label
_atom_site_fract_x
_atom_site_fract_y
_atom_site_fract_z
Si Si1 0.799862 0.434867 0.914005
Si Si2 0.832215 0.067062 0.148619
Si Si3 0.426830 0.433806 0.918626
Si Si4 0.440231 0.568356 0.357093
Si Si5 0.031949 0.568290 0.719599
Si Si6 0.799249 0.937835 0.368314
Si Si7 0.104588 0.435818 0.148635
Si Si8 0.896455 0.565698 0.435293
O O1 0.750000 0.486607 0.879488
O O2 0.804607 0.250000 0.890599
O O3 0.842748 0.524119 0.867449
O O4 0.803705 0.450394 0.041269
O O5 0.844401 0.250000 0.158730
O O6 0.877424 0.967965 0.130155
O O7 0.806837 0.010036 0.252438
O O8 0.436184 0.250000 0.915196
O O9 0.461352 0.521528 0.842062
O O10 0.421717 0.484053 0.040876
O O11 0.435366 0.750000 0.381579
O O12 0.492158 0.527165 0.335565
O O13 0.414523 0.523229 0.249795
O O14 0.420054 0.471651 0.454173
O O15 0.021613 0.750000 0.711580
O O16 0.077351 0.527533 0.655901
O O17 0.750000 0.985762 0.409862
O O18 0.799247 0.750000 0.358630
O O19 0.843677 0.979193 0.435155
O O20 0.098987 0.250000 0.160876
O O21 0.899936 0.750000 0.411791
#
# Coordination Sequence:
#
# PCOD9446892 Si02
#       8
#     8   8   8   8   8   8   8   8
#     4   9  18  33  54  83 119 159 202 247 298 355
#     4  10  18  30  52  84 122 160 196 241 293 352
#     4  10  20  36  59  89 125 161 195 240 296 357
#     4  12  26  44  65  87 116 157 206 253 305 363
#     4  12  24  40  65  95 124 155 198 247 304 364
#     4  10  21  36  57  86 121 160 198 240 295 356
#     4  10  22  40  61  87 121 159 203 251 302 359
#     4  11  23  42  65  89 124 160 201 252 300 353
#
# _framework density 19.919035999999998
#
# number of rings (size 3 to 8) (size 9 to 14) (size 15 to 20)
#    0.000    1.500    1.250    4.500    0.000    4.000 
#    0.000    0.625    0.000    2.250    0.000    0.000 
#    0.000    0.000    0.000    0.000    0.000    0.000 
#
# Total GULP energy -357685.980546 kJ/mol
# GULP energy per Si atom -5588.843446 kJ/mol
# Density = 1.987370 g / cm^3
# Si number density = 19.919036 Si / 1000 Ang^3
#
#
#
# Elastic Constant Matrix: (Units=GPa)
#
#
# Indices 1 2 3 4 5 6 
#
# 1 55.0465 -1.1028 0.5262 0.0000 0.0000 0.0000
# 2 -1.1028 21.7662 -5.2931 0.0000 0.0000 0.0000
# 3 0.5262 -5.2931 43.9760 0.0000 0.0000 0.0000
# 4 0.0000 0.0000 0.0000 29.5683 0.0000 0.0000
# 5 0.0000 0.0000 0.0000 0.0000 15.1828 0.0000
# 6 0.0000 0.0000 0.0000 0.0000 0.0000 10.6807
#
#
#
# Elastic Compliance Matrix: (Units=1/GPa)
#
#
# Indices 1 2 3 4 5 6 
#
# 1 0.018185 0.000895 -0.000110 0.000000 0.000000 0.000000
# 2 0.000895 0.047372 0.005691 0.000000 0.000000 0.000000
# 3 -0.000110 0.005691 0.023426 0.000000 0.000000 0.000000
# 4 0.000000 0.000000 0.000000 0.033820 0.000000 0.000000
# 5 0.000000 0.000000 0.000000 0.000000 0.065864 0.000000
# 6 0.000000 0.000000 0.000000 0.000000 0.000000 0.093627
#
#
# Mechanical properties :
#
#
# Convention : Reuss Voigt Hill
#
# Bulk Modulus (GPa) = 9.81016 12.11661 10.96339
# Shear Modulus (GPa) = 16.48420 19.53025 18.00722
#
# Velocity S-wave (km/s) = 2.87986 3.13466 3.00996
# Velocity P-wave (km/s) = 3.99922 4.38151 4.19472
#
# Compressibility (1/GPa) = 0.10193512
#
# Stress axis : x y z
#
# Youngs Moduli (GPa) = 54.98910 21.10948 42.68762
#
# Poissons Ratio (x) = -0.01889 0.00469
# Poissons Ratio (y) = -0.04919 -0.24294
# Poissons Ratio (z) = 0.00604 -0.12014
#
# Static dielectric constant tensor:
#      x y z
#    x 1.718470 0.000000 0.000000 
#    y 0.000000 1.668530 0.000000 
#    z 0.000000 0.000000 1.683360 
# 
# From -- ./inp_files/19201.got.cif
#   From: 2010.05.17/outbox.cif.g08.bks.cpg/sg59_10_cif.got.tgz:19201.got - 2010.06.03 14:40:33.
