data_PCOD9446789
_publ_section_title
;
Structure prediction by ZEFSAII (Michael W. Deem and Ramdas Pophale) SiO2 
 PCOD9446789
Probable space group: P M M N
;
_chemical_formula_sum "Si O2"
_cell_formula_units_Z 64
_cell_length_a 15.421435
_cell_length_b 15.334542
_cell_length_c 16.088333
_cell_angle_alpha 90.000000
_cell_angle_beta 90.000000
_cell_angle_gamma 90.000000
_cell_volume 3804.579328
_symmetry_space_group_name_H-M "P M M N"
_symmetry_group_IT_number 59
_space_group.IT_coordinate_system_code '2'
_symmetry_cell_setting 'orthorhombic'
loop_
_space_group_symop_operation_xyz
x,y,z
1/2-x,1/2-y,z
1/2+x,-y,-z
-x,1/2+y,-z
-x,-y,-z
1/2+x,1/2+y,-z
1/2-x,y,z
x,1/2-y,z
loop_
_atom_site_type_symbol
_atom_site_label
_atom_site_fract_x
_atom_site_fract_y
_atom_site_fract_z
Si Si1 0.945637 0.847242 0.786735
Si Si2 0.850465 0.851731 0.459454
Si Si3 0.408583 0.518696 0.837238
Si Si4 0.155727 0.385358 0.065026
Si Si5 0.654949 0.083390 0.987179
Si Si6 0.976761 0.654567 0.078018
Si Si7 0.150973 0.521780 0.649169
Si Si8 0.507334 0.852070 0.601752
O O1 0.982289 0.750000 0.799053
O O2 0.859969 0.855295 0.841323
O O3 0.940561 0.861220 0.688625
O O4 0.009558 0.918711 0.823907
O O5 0.750000 0.859550 0.490562
O O6 0.860573 0.750000 0.433124
O O7 0.924669 0.870065 0.528020
O O8 0.860290 0.924724 0.388423
O O9 0.357443 0.558375 0.915760
O O10 0.442096 0.423379 0.864293
O O11 0.360444 0.518579 0.748997
O O12 0.250000 0.358298 0.034001
O O13 0.151393 0.489921 0.058916
O O14 0.082018 0.349665 0.004735
O O15 0.750000 0.122790 0.974703
O O16 0.574491 0.137173 0.952472
O O17 0.969076 0.750000 0.116633
O O18 0.250000 0.550215 0.629953
O O19 0.076766 0.585487 0.611058
O O20 0.480413 0.750000 0.594876
#
# Coordination Sequence:
#
# PCOD9446789 Si02
#       8
#     8   8   8   8   8   8   8   8
#     4  10  18  30  49  71  97 127 163 206 252 301
#     4   9  18  34  54  77 106 138 172 211 253 301
#     4  10  19  35  49  72 102 132 166 211 257 301
#     4  10  19  32  49  69  96 127 162 209 258 301
#     4  10  19  33  52  70  95 133 173 211 255 301
#     4  11  21  34  51  71 101 134 170 214 255 304
#     4  10  20  33  54  79 106 138 172 210 254 309
#     4   9  19  33  52  77 106 137 169 210 257 305
#
# _framework density 16.821833999999999
#
# number of rings (size 3 to 8) (size 9 to 14) (size 15 to 20)
#    0.000    2.125    2.500    1.875    0.000    3.000 
#    0.000    1.250    0.000    2.250    0.000    0.000 
#    0.000    2.000    0.000    0.000    0.000    0.000 
#
# Total GULP energy -356520.643656 kJ/mol
# GULP energy per Si atom -5570.635057 kJ/mol
# Density = 1.678355 g / cm^3
# Si number density = 16.821834 Si / 1000 Ang^3
#
#
#
# Elastic Constant Matrix: (Units=GPa)
#
#
# Indices 1 2 3 4 5 6 
#
# 1 80.6720 11.0676 11.0226 0.0000 0.0000 0.0000
# 2 11.0676 56.4769 13.1035 0.0000 0.0000 0.0000
# 3 11.0226 13.1035 46.3047 0.0000 0.0000 0.0000
# 4 0.0000 0.0000 0.0000 19.2147 0.0000 0.0000
# 5 0.0000 0.0000 0.0000 0.0000 19.3743 0.0000
# 6 0.0000 0.0000 0.0000 0.0000 0.0000 11.9829
#
#
#
# Elastic Compliance Matrix: (Units=1/GPa)
#
#
# Indices 1 2 3 4 5 6 
#
# 1 0.013012 -0.001960 -0.002543 0.000000 0.000000 0.000000
# 2 -0.001960 0.019246 -0.004980 0.000000 0.000000 0.000000
# 3 -0.002543 -0.004980 0.023611 0.000000 0.000000 0.000000
# 4 0.000000 0.000000 0.000000 0.052044 0.000000 0.000000
# 5 0.000000 0.000000 0.000000 0.000000 0.051615 0.000000
# 6 0.000000 0.000000 0.000000 0.000000 0.000000 0.083452
#
#
# Mechanical properties :
#
#
# Convention : Reuss Voigt Hill
#
# Bulk Modulus (GPa) = 27.09769 28.20457 27.65113
# Shear Modulus (GPa) = 18.23186 19.99838 19.11512
#
# Velocity S-wave (km/s) = 3.29572 3.45169 3.37460
# Velocity P-wave (km/s) = 5.53407 5.71739 5.62648
#
# Compressibility (1/GPa) = 0.03690351
#
# Stress axis : x y z
#
# Youngs Moduli (GPa) = 76.85090 51.95936 42.35391
#
# Poissons Ratio (x) = 0.10184 0.10770
# Poissons Ratio (y) = 0.15063 0.21091
# Poissons Ratio (z) = 0.19542 0.25874
#
# Static dielectric constant tensor:
#      x y z
#    x 1.585690 0.000000 0.000000 
#    y 0.000000 1.580660 0.000000 
#    z 0.000000 0.000000 1.556760 
# 
# From -- ./inp_files/27741.got.cif
#   From: 2010.05.17/outbox.cif.g08.bks.cpg/sg59_14_cif.got.tgz:27741.got - 2010.06.03 14:40:33.
