data_PCOD9446902
_publ_section_title
;
Structure prediction by ZEFSAII (Michael W. Deem and Ramdas Pophale) SiO2 
 PCOD9446902
Probable space group: P M M N
;
_chemical_formula_sum "Si O2"
_cell_formula_units_Z 48
_cell_length_a 8.731604
_cell_length_b 21.788076
_cell_length_c 15.797561
_cell_angle_alpha 90.000000
_cell_angle_beta 90.000000
_cell_angle_gamma 90.000000
_cell_volume 3005.404647
_symmetry_space_group_name_H-M "P M M N"
_symmetry_group_IT_number 59
_space_group.IT_coordinate_system_code '2'
_symmetry_cell_setting 'orthorhombic'
loop_
_space_group_symop_operation_xyz
x,y,z
1/2-x,1/2-y,z
1/2+x,-y,-z
-x,1/2+y,-z
-x,-y,-z
1/2+x,1/2+y,-z
1/2-x,y,z
x,1/2-y,z
loop_
_atom_site_type_symbol
_atom_site_label
_atom_site_fract_x
_atom_site_fract_y
_atom_site_fract_z
Si Si1 0.564220 0.541337 0.301395
Si Si2 0.065809 0.431922 0.517094
Si Si3 0.933151 0.821156 0.803593
Si Si4 0.065915 0.450245 0.886127
Si Si5 0.066352 0.598743 0.653476
Si Si6 0.431981 0.590048 0.942314
O O1 0.750000 0.540652 0.298645
O O2 0.521146 0.579812 0.385009
O O3 0.512597 0.563518 0.209352
O O4 0.518295 0.470115 0.316294
O O5 0.250000 0.432893 0.511599
O O6 0.000000 0.500000 0.500000
O O7 0.998550 0.391822 0.441036
O O8 0.750000 0.824667 0.797403
O O9 0.978575 0.750000 0.809301
O O10 0.005455 0.853198 0.721300
O O11 0.987960 0.859151 0.885128
O O12 0.250000 0.442627 0.891624
O O13 0.033244 0.522322 0.904084
O O14 0.988371 0.412274 0.961036
O O15 0.250000 0.599586 0.651099
O O16 0.250000 0.598291 0.938205
#
# Coordination Sequence:
#
# PCOD9446902 Si02
#       6
#     8   8   8   8   8   8
#     4   8  14  26  44  67  95 126 156 187 227 279
#     4   9  16  26  42  66  95 127 159 191 230 275
#     4  11  23  36  50  69  93 125 165 205 244 290
#     4   9  16  29  47  68  97 129 158 193 237 287
#     4  10  18  31  47  66  94 126 160 197 238 286
#     4  10  19  31  47  69  95 125 160 199 241 288
#
# _framework density 15.971228
#
# number of rings (size 3 to 8) (size 9 to 14) (size 15 to 20)
#    0.000    2.500    1.667    3.000    0.000    2.000 
#    0.000    1.667    0.000    0.000    0.000    1.167 
#    0.000    9.333    0.000    0.000    0.000    0.000 
#
# Total GULP energy -267412.936712 kJ/mol
# GULP energy per Si atom -5571.102848 kJ/mol
# Density = 1.593488 g / cm^3
# Si number density = 15.971228 Si / 1000 Ang^3
#
#
#
# Elastic Constant Matrix: (Units=GPa)
#
#
# Indices 1 2 3 4 5 6 
#
# 1 39.8580 30.1196 43.3500 0.0000 0.0000 0.0000
# 2 30.1196 58.1837 49.4486 0.0000 0.0000 0.0000
# 3 43.3500 49.4486 178.4573 0.0000 0.0000 0.0000
# 4 0.0000 0.0000 0.0000 12.5260 0.0000 0.0000
# 5 0.0000 0.0000 0.0000 0.0000 26.6900 0.0000
# 6 0.0000 0.0000 0.0000 0.0000 0.0000 16.7327
#
#
#
# Elastic Compliance Matrix: (Units=1/GPa)
#
#
# Indices 1 2 3 4 5 6 
#
# 1 0.045545 -0.018541 -0.005926 0.000000 0.000000 0.000000
# 2 -0.018541 0.030029 -0.003817 0.000000 0.000000 0.000000
# 3 -0.005926 -0.003817 0.008101 0.000000 0.000000 0.000000
# 4 0.000000 0.000000 0.000000 0.079834 0.000000 0.000000
# 5 0.000000 0.000000 0.000000 0.000000 0.037467 0.000000
# 6 0.000000 0.000000 0.000000 0.000000 0.000000 0.059763
#
#
# Mechanical properties :
#
#
# Convention : Reuss Voigt Hill
#
# Bulk Modulus (GPa) = 36.89054 58.03725 47.46390
# Shear Modulus (GPa) = 15.32136 21.42845 18.37490
#
# Velocity S-wave (km/s) = 3.10063 3.66688 3.39558
# Velocity P-wave (km/s) = 5.99724 7.37194 6.71984
#
# Compressibility (1/GPa) = 0.02710722
#
# Stress axis : x y z
#
# Youngs Moduli (GPa) = 21.95626 33.30165 123.44552
#
# Poissons Ratio (x) = 0.61743 0.73156
# Poissons Ratio (y) = 0.40708 0.47117
# Poissons Ratio (z) = 0.13012 0.12711
#
# Static dielectric constant tensor:
#      x y z
#    x 1.532790 0.000000 0.000000 
#    y 0.000000 1.500720 0.000000 
#    z 0.000000 0.000000 1.578140 
# 
# From -- ./inp_files/20428.got.cif
#   From: 2010.05.17/outbox.cif.g08.bks.cpg/sg59_11_cif.got.tgz:20428.got - 2010.06.03 14:40:33.
