data_PCOD9446931
_publ_section_title
;
Structure prediction by ZEFSAII (Michael W. Deem and Ramdas Pophale) SiO2 
 PCOD9446931
Probable space group: P M M N
;
_chemical_formula_sum "Si O2"
_cell_formula_units_Z 48
_cell_length_a 11.493667
_cell_length_b 26.322791
_cell_length_c 7.905369
_cell_angle_alpha 90.000000
_cell_angle_beta 90.000000
_cell_angle_gamma 90.000000
_cell_volume 2391.732981
_symmetry_space_group_name_H-M "P M M N"
_symmetry_group_IT_number 59
_space_group.IT_coordinate_system_code '2'
_symmetry_cell_setting 'orthorhombic'
loop_
_space_group_symop_operation_xyz
x,y,z
1/2-x,1/2-y,z
1/2+x,-y,-z
-x,1/2+y,-z
-x,-y,-z
1/2+x,1/2+y,-z
1/2-x,y,z
x,1/2-y,z
loop_
_atom_site_type_symbol
_atom_site_label
_atom_site_fract_x
_atom_site_fract_y
_atom_site_fract_z
Si Si1 0.379101 0.809292 0.898960
Si Si2 0.876125 0.606647 0.407877
Si Si3 0.876046 0.532595 0.887816
Si Si4 0.884896 0.643995 0.023059
Si Si5 0.123729 0.886243 0.585206
Si Si6 0.408108 0.502517 0.731939
O O1 0.250000 0.817933 0.984116
O O2 0.381793 0.750000 0.852516
O O3 0.378156 0.845755 0.736740
O O4 0.501738 0.821495 0.991629
O O5 0.750000 0.621029 0.487783
O O6 0.878960 0.631206 0.221420
O O7 0.873824 0.546178 0.373674
O O8 0.999020 0.619275 0.493736
O O9 0.750000 0.535629 0.814462
O O10 0.953943 0.503704 0.755108
O O11 0.912526 0.590362 0.928696
O O12 0.873015 0.504961 0.070539
O O13 0.750000 0.659362 0.975133
O O14 0.250000 0.879170 0.493897
O O15 0.125915 0.943461 0.659174
#
# Coordination Sequence:
#
# PCOD9446931 Si02
#       6
#     8   8   8   8   8   8
#     4  10  22  40  61  85 110 138 180 236 287 330
#     4  10  22  37  54  81 119 152 182 225 272 326
#     4   9  17  29  49  79 112 145 183 228 272 318
#     4   9  18  37  59  82 110 143 183 229 277 325
#     4  11  22  36  55  81 114 153 190 225 270 331
#     4  10  18  31  50  78 113 152 185 221 266 325
#
# _framework density 20.069129
#
# number of rings (size 3 to 8) (size 9 to 14) (size 15 to 20)
#    0.000    2.167    1.667    3.000    0.000    3.000 
#    0.000    0.833    0.000    3.000    0.000    0.000 
#    0.000    0.000    0.000    0.000    0.000    0.000 
#
# Total GULP energy -267234.098594 kJ/mol
# GULP energy per Si atom -5567.377054 kJ/mol
# Density = 2.002345 g / cm^3
# Si number density = 20.069129 Si / 1000 Ang^3
#
#
#
# Elastic Constant Matrix: (Units=GPa)
#
#
# Indices 1 2 3 4 5 6 
#
# 1 192.0766 43.1596 44.2066 0.0000 0.0000 0.0000
# 2 43.1596 62.3293 9.0757 0.0000 0.0000 0.0000
# 3 44.2066 9.0757 29.0731 0.0000 0.0000 0.0000
# 4 0.0000 0.0000 0.0000 10.0422 0.0000 0.0000
# 5 0.0000 0.0000 0.0000 0.0000 56.2267 0.0000
# 6 0.0000 0.0000 0.0000 0.0000 0.0000 21.8847
#
#
#
# Elastic Compliance Matrix: (Units=1/GPa)
#
#
# Indices 1 2 3 4 5 6 
#
# 1 0.009060 -0.004471 -0.012381 0.000000 0.000000 0.000000
# 2 -0.004471 0.019014 0.000863 0.000000 0.000000 0.000000
# 3 -0.012381 0.000863 0.052952 0.000000 0.000000 0.000000
# 4 0.000000 0.000000 0.000000 0.099580 0.000000 0.000000
# 5 0.000000 0.000000 0.000000 0.000000 0.017785 0.000000
# 6 0.000000 0.000000 0.000000 0.000000 0.000000 0.045694
#
#
# Mechanical properties :
#
#
# Convention : Reuss Voigt Hill
#
# Bulk Modulus (GPa) = 20.38797 52.92919 36.65858
# Shear Modulus (GPa) = 17.09908 30.09985 23.59947
#
# Velocity S-wave (km/s) = 2.92209 3.87694 3.43287
# Velocity P-wave (km/s) = 4.64389 6.81700 5.83255
#
# Compressibility (1/GPa) = 0.04904853
#
# Stress axis : x y z
#
# Youngs Moduli (GPa) = 110.37071 52.59242 18.88493
#
# Poissons Ratio (x) = 0.23514 0.23381
# Poissons Ratio (y) = 0.49347 -0.01629
# Poissons Ratio (z) = 1.36649 -0.04538
#
# Static dielectric constant tensor:
#      x y z
#    x 1.840670 0.000000 0.000000 
#    y 0.000000 1.676440 0.000000 
#    z 0.000000 0.000000 1.712340 
# 
# From -- ./inp_files/7676.got.cif
#   From: 2010.05.17/outbox.cif.g08.bks.cpg/sg59_4_cif.got.tgz:7676.got - 2010.06.03 14:40:33.
