data_PCOD9446886
_publ_section_title
;
Structure prediction by ZEFSAII (Michael W. Deem and Ramdas Pophale) SiO2 
 PCOD9446886
Probable space group: P M M N
;
_chemical_formula_sum "Si O2"
_cell_formula_units_Z 56
_cell_length_a 8.614479
_cell_length_b 14.948406
_cell_length_c 24.253320
_cell_angle_alpha 90.000000
_cell_angle_beta 90.000000
_cell_angle_gamma 90.000000
_cell_volume 3123.166218
_symmetry_space_group_name_H-M "P M M N"
_symmetry_group_IT_number 59
_space_group.IT_coordinate_system_code '2'
_symmetry_cell_setting 'orthorhombic'
loop_
_space_group_symop_operation_xyz
x,y,z
1/2-x,1/2-y,z
1/2+x,-y,-z
-x,1/2+y,-z
-x,-y,-z
1/2+x,1/2+y,-z
1/2-x,y,z
x,1/2-y,z
loop_
_atom_site_type_symbol
_atom_site_label
_atom_site_fract_x
_atom_site_fract_y
_atom_site_fract_z
Si Si1 0.439157 0.850053 0.095947
Si Si2 0.573703 0.750000 0.581538
Si Si3 0.568469 0.250000 0.533930
Si Si4 0.065266 0.038641 0.132984
Si Si5 0.431781 0.428194 0.346367
Si Si6 0.065154 0.852969 0.764149
Si Si7 0.560614 0.051801 0.554318
Si Si8 0.064734 0.854421 0.967990
O O1 0.250000 0.848891 0.096828
O O2 0.491194 0.750000 0.112225
O O3 0.490345 0.935320 0.131260
O O4 0.482393 0.865516 0.031817
O O5 0.750000 0.750000 0.558440
O O6 0.454744 0.750000 0.531751
O O7 0.556164 0.836731 0.618919
O O8 0.750000 0.250000 0.548125
O O9 0.505391 0.154581 0.553730
O O10 0.250000 0.038495 0.139880
O O11 0.993256 0.098355 0.181013
O O12 0.022710 0.082607 0.074408
O O13 0.250000 0.445053 0.334784
O O14 0.515358 0.410205 0.289000
O O15 0.488219 0.503381 0.389131
O O16 0.250000 0.848303 0.765943
O O17 0.005182 0.750000 0.760040
O O18 0.750000 0.049020 0.551879
O O19 0.500000 0.000000 0.500000
O O20 0.250000 0.870826 0.964169
O O21 0.038766 0.750000 0.953537
#
# Coordination Sequence:
#
# PCOD9446886 Si02
#       8
#     8   4   4   8   8   8   8   8
#     4   8  16  32  53  76 102 135 174 211 250 301
#     4  10  18  30  52  80 108 136 168 211 256 297
#     4  10  20  32  50  80 114 142 170 205 246 301
#     4  11  21  32  52  79 105 134 170 214 258 300
#     4  10  20  35  54  76 103 135 173 215 257 300
#     4  11  24  39  55  75 101 135 172 210 257 312
#     4  10  20  33  52  79 110 141 172 208 252 301
#     4   9  17  31  51  75 107 142 170 202 250 306
#
# _framework density 17.930523000000001
#
# number of rings (size 3 to 8) (size 9 to 14) (size 15 to 20)
#    0.000    2.143    2.143    2.571    0.000    4.000 
#    0.000    0.714    1.571    3.429    0.000    0.000 
#    0.000    0.000    0.000    0.000    0.000    0.000 
#
# Total GULP energy -312339.651036 kJ/mol
# GULP energy per Si atom -5577.493769 kJ/mol
# Density = 1.788971 g / cm^3
# Si number density = 17.930523 Si / 1000 Ang^3
#
#
#
# Elastic Constant Matrix: (Units=GPa)
#
#
# Indices 1 2 3 4 5 6 
#
# 1 16.5251 21.8321 15.7567 0.0000 0.0000 0.0000
# 2 21.8321 120.6128 53.6500 0.0000 0.0000 0.0000
# 3 15.7567 53.6500 61.9961 0.0000 0.0000 0.0000
# 4 0.0000 0.0000 0.0000 17.3146 0.0000 0.0000
# 5 0.0000 0.0000 0.0000 0.0000 25.6612 0.0000
# 6 0.0000 0.0000 0.0000 0.0000 0.0000 -3.0399
#
#
#
# Elastic Compliance Matrix: (Units=1/GPa)
#
#
# Indices 1 2 3 4 5 6 
#
# 1 0.086097 -0.009513 -0.013650 0.000000 0.000000 0.000000
# 2 -0.009513 0.014531 -0.010157 0.000000 0.000000 0.000000
# 3 -0.013650 -0.010157 0.028389 0.000000 0.000000 0.000000
# 4 0.000000 0.000000 0.000000 0.057755 0.000000 0.000000
# 5 0.000000 0.000000 0.000000 0.000000 0.038969 0.000000
# 6 0.000000 0.000000 0.000000 0.000000 0.000000 -0.328963
#
#
# Mechanical properties :
#
#
# Convention : Reuss Voigt Hill
#
# Bulk Modulus (GPa) = 16.03145 42.40127 29.21636
# Shear Modulus (GPa) = -316.64424 15.18019 -150.73203
#
# Velocity S-wave (km/s) = -13.30333 2.91282 -9.17862
# Velocity P-wave (km/s) = 15.06688 5.91705 9.79795
#
# Compressibility (1/GPa) = 0.06237739
#
# Stress axis : x y z
#
# Youngs Moduli (GPa) = 11.61482 68.81937 35.22513
#
# Poissons Ratio (x) = 0.65466 0.48082
# Poissons Ratio (y) = 0.11049 0.35778
# Poissons Ratio (z) = 0.15854 0.69899
#
# Static dielectric constant tensor:
#      x y z
#    x 1.620260 0.000000 0.000000 
#    y 0.000000 1.648470 0.000000 
#    z 0.000000 0.000000 1.580610 
# 
# From -- ./inp_files/29189.got.cif
#   From: 2010.05.17/outbox.cif.g08.bks.cpg/sg59_15_cif.got.tgz:29189.got - 2010.06.03 14:40:33.
