data_PCOD9446353
_publ_section_title
;
Structure prediction by ZEFSAII (Michael W. Deem and Ramdas Pophale) SiO2 
 PCOD9446353
Probable space group: P M M N
;
_chemical_formula_sum "Si O2"
_cell_formula_units_Z 64
_cell_length_a 25.706641
_cell_length_b 9.077377
_cell_length_c 19.047447
_cell_angle_alpha 90.000000
_cell_angle_beta 90.000000
_cell_angle_gamma 90.000000
_cell_volume 4444.700267
_symmetry_space_group_name_H-M "P M M N"
_symmetry_group_IT_number 59
_space_group.IT_coordinate_system_code '2'
_symmetry_cell_setting 'orthorhombic'
loop_
_space_group_symop_operation_xyz
x,y,z
1/2-x,1/2-y,z
1/2+x,-y,-z
-x,1/2+y,-z
-x,-y,-z
1/2+x,1/2+y,-z
1/2-x,y,z
x,1/2-y,z
loop_
_atom_site_type_symbol
_atom_site_label
_atom_site_fract_x
_atom_site_fract_y
_atom_site_fract_z
Si Si1 0.423439 0.579886 0.032561
Si Si2 0.996675 0.426907 0.390929
Si Si3 0.081133 0.572907 0.486520
Si Si4 0.808812 0.072683 0.566483
Si Si5 0.459711 0.080362 0.901272
Si Si6 0.501790 0.573532 0.770521
Si Si7 0.311327 0.079462 0.282713
Si Si8 0.609421 0.072712 0.818928
O O1 0.412913 0.750000 0.015028
O O2 0.481893 0.574230 0.065438
O O3 0.388189 0.532941 0.098359
O O4 0.423467 0.484676 0.962327
O O5 0.002984 0.250000 0.395171
O O6 0.048143 0.501485 0.423228
O O7 0.987811 0.464391 0.309689
O O8 0.948916 0.469539 0.442061
O O9 0.077600 0.750000 0.480131
O O10 0.141943 0.532891 0.481914
O O11 0.750000 0.034297 0.542199
O O12 0.809899 0.250000 0.576306
O O13 0.817800 0.994355 0.641063
O O14 0.447960 0.250000 0.886490
O O15 0.462850 0.987909 0.829777
O O16 0.505749 0.750000 0.776925
O O17 0.557338 0.499714 0.787364
O O18 0.250000 0.076248 0.266922
O O19 0.328650 0.250000 0.284459
O O20 0.343202 0.988916 0.225657
O O21 0.605378 0.250000 0.814702
#
# Coordination Sequence:
#
# PCOD9446353 Si02
#       8
#     8   8   8   8   8   8   8   8
#     4   8  15  26  38  54  76 102 130 158 192 229
#     4   9  18  29  40  57  80 108 138 165 200 245
#     4   9  17  29  43  58  79 105 134 169 204 241
#     4   9  17  29  45  62  79 103 135 170 207 243
#     4   9  16  25  38  56  78 103 131 162 192 226
#     4  10  18  27  40  57  80 108 136 166 200 241
#     4  10  20  31  42  58  81 107 134 166 202 238
#     4  10  19  29  42  59  79 105 137 169 199 236
#
# _framework density 14.399171000000001
#
# number of rings (size 3 to 8) (size 9 to 14) (size 15 to 20)
#    0.000    2.750    0.000    3.000    0.000    7.750 
#    0.000    0.000    0.000    0.000    0.000    0.000 
#    0.000    1.000    0.000    7.500    0.000    2.125 
#
# Total GULP energy -356404.769208 kJ/mol
# GULP energy per Si atom -5568.824519 kJ/mol
# Density = 1.436640 g / cm^3
# Si number density = 14.399171 Si / 1000 Ang^3
#
#
#
# Elastic Constant Matrix: (Units=GPa)
#
#
# Indices 1 2 3 4 5 6 
#
# 1 64.8054 23.6505 40.3086 0.0000 0.0000 0.0000
# 2 23.6505 45.3805 41.6977 0.0000 0.0000 0.0000
# 3 40.3086 41.6977 100.2170 0.0000 0.0000 0.0000
# 4 0.0000 0.0000 0.0000 20.9403 0.0000 0.0000
# 5 0.0000 0.0000 0.0000 0.0000 21.9220 0.0000
# 6 0.0000 0.0000 0.0000 0.0000 0.0000 15.5394
#
#
#
# Elastic Compliance Matrix: (Units=1/GPa)
#
#
# Indices 1 2 3 4 5 6 
#
# 1 0.021320 -0.005232 -0.006398 0.000000 0.000000 0.000000
# 2 -0.005232 0.036959 -0.013273 0.000000 0.000000 0.000000
# 3 -0.006398 -0.013273 0.018074 0.000000 0.000000 0.000000
# 4 0.000000 0.000000 0.000000 0.047755 0.000000 0.000000
# 5 0.000000 0.000000 0.000000 0.000000 0.045616 0.000000
# 6 0.000000 0.000000 0.000000 0.000000 0.000000 0.064353
#
#
# Mechanical properties :
#
#
# Convention : Reuss Voigt Hill
#
# Bulk Modulus (GPa) = 37.67035 46.85739 42.26387
# Shear Modulus (GPa) = 17.08047 18.66341 17.87194
#
# Velocity S-wave (km/s) = 3.44788 3.60411 3.52686
# Velocity P-wave (km/s) = 6.48604 7.06625 6.78235
#
# Compressibility (1/GPa) = 0.02654608
#
# Stress axis : x y z
#
# Youngs Moduli (GPa) = 46.90460 27.05731 55.32693
#
# Poissons Ratio (x) = 0.14157 0.35399
# Poissons Ratio (y) = 0.24541 0.73436
# Poissons Ratio (z) = 0.30011 0.35913
#
# Static dielectric constant tensor:
#      x y z
#    x 1.472710 0.000000 0.000000 
#    y 0.000000 1.482670 0.000000 
#    z 0.000000 0.000000 1.476730 
# 
# From -- ./inp_files/28528.got.cif
#   From: 2010.05.17/outbox.cif.g08.bks.cpg/sg59_15_cif.got.tgz:28528.got - 2010.06.03 14:40:33.
