data_PCOD9446593
_publ_section_title
;
Structure prediction by ZEFSAII (Michael W. Deem and Ramdas Pophale) SiO2 
 PCOD9446593
Probable space group: P M M N
;
_chemical_formula_sum "Si O2"
_cell_formula_units_Z 48
_cell_length_a 20.615743
_cell_length_b 9.080391
_cell_length_c 15.605826
_cell_angle_alpha 90.000000
_cell_angle_beta 90.000000
_cell_angle_gamma 90.000000
_cell_volume 2921.395134
_symmetry_space_group_name_H-M "P M M N"
_symmetry_group_IT_number 59
_space_group.IT_coordinate_system_code '2'
_symmetry_cell_setting 'orthorhombic'
loop_
_space_group_symop_operation_xyz
x,y,z
1/2-x,1/2-y,z
1/2+x,-y,-z
-x,1/2+y,-z
-x,-y,-z
1/2+x,1/2+y,-z
1/2-x,y,z
x,1/2-y,z
loop_
_atom_site_type_symbol
_atom_site_label
_atom_site_fract_x
_atom_site_fract_y
_atom_site_fract_z
Si Si1 0.433055 0.580275 0.602920
Si Si2 0.911164 0.919297 0.567789
Si Si3 0.545702 0.923904 0.223295
Si Si4 0.676851 0.429170 0.914081
Si Si5 0.436980 0.572436 0.956383
Si Si6 0.108002 0.575534 0.258978
O O1 0.414033 0.750000 0.614064
O O2 0.510803 0.577993 0.584445
O O3 0.400397 0.508609 0.519573
O O4 0.423973 0.488187 0.689595
O O5 0.891763 0.750000 0.558030
O O6 0.880861 0.992014 0.652183
O O7 0.558233 0.750000 0.214767
O O8 0.467537 0.942658 0.232197
O O9 0.567935 0.011655 0.139708
O O10 0.750000 0.479542 0.930267
O O11 0.677058 0.250000 0.912236
O O12 0.651181 0.476246 0.820700
O O13 0.625269 0.470410 0.986648
O O14 0.443178 0.750000 0.956924
O O15 0.500000 0.500000 0.000000
O O16 0.118339 0.750000 0.272326
#
# Coordination Sequence:
#
# PCOD9446593 Si02
#       6
#     8   8   8   8   8   8
#     4   9  16  26  40  63  93 126 158 194 235 282
#     4   9  16  25  39  62  92 126 156 190 234 282
#     4  10  18  29  45  69  97 127 161 201 246 294
#     4   9  18  33  51  71  96 128 168 209 247 291
#     4  11  20  32  50  73  97 128 166 208 253 299
#     4   9  16  28  45  66  91 124 161 197 238 286
#
# _framework density 16.430506000000001
#
# number of rings (size 3 to 8) (size 9 to 14) (size 15 to 20)
#    0.000    2.500    1.667    2.000    0.000    4.667 
#    0.000    0.000    0.000    4.500    0.000    1.167 
#    0.000    9.333    0.000    0.000    0.000    0.000 
#
# Total GULP energy -267559.522799 kJ/mol
# GULP energy per Si atom -5574.156725 kJ/mol
# Density = 1.639311 g / cm^3
# Si number density = 16.430506 Si / 1000 Ang^3
#
#
#
# Elastic Constant Matrix: (Units=GPa)
#
#
# Indices 1 2 3 4 5 6 
#
# 1 60.0145 35.0089 52.9486 0.0000 0.0000 0.0000
# 2 35.0089 80.9996 63.8013 0.0000 0.0000 0.0000
# 3 52.9486 63.8013 156.2962 0.0000 0.0000 0.0000
# 4 0.0000 0.0000 0.0000 34.6645 0.0000 0.0000
# 5 0.0000 0.0000 0.0000 0.0000 13.4845 0.0000
# 6 0.0000 0.0000 0.0000 0.0000 0.0000 9.9628
#
#
#
# Elastic Compliance Matrix: (Units=1/GPa)
#
#
# Indices 1 2 3 4 5 6 
#
# 1 0.025765 -0.006280 -0.006165 0.000000 0.000000 0.000000
# 2 -0.006280 0.019727 -0.005925 0.000000 0.000000 0.000000
# 3 -0.006165 -0.005925 0.010905 0.000000 0.000000 0.000000
# 4 0.000000 0.000000 0.000000 0.028848 0.000000 0.000000
# 5 0.000000 0.000000 0.000000 0.000000 0.074159 0.000000
# 6 0.000000 0.000000 0.000000 0.000000 0.000000 0.100373
#
#
# Mechanical properties :
#
#
# Convention : Reuss Voigt Hill
#
# Bulk Modulus (GPa) = 50.87188 66.75864 58.81526
# Shear Modulus (GPa) = 16.49779 21.32581 18.91180
#
# Velocity S-wave (km/s) = 3.17218 3.60660 3.39635
# Velocity P-wave (km/s) = 6.66679 7.61988 7.15921
#
# Compressibility (1/GPa) = 0.01965723
#
# Stress axis : x y z
#
# Youngs Moduli (GPa) = 38.81216 50.69133 91.69799
#
# Poissons Ratio (x) = 0.31834 0.56531
# Poissons Ratio (y) = 0.24374 0.54334
# Poissons Ratio (z) = 0.23927 0.30036
#
# Static dielectric constant tensor:
#      x y z
#    x 1.534970 0.000000 0.000000 
#    y 0.000000 1.549650 0.000000 
#    z 0.000000 0.000000 1.549010 
# 
# From -- ./inp_files/20761.got.cif
#   From: 2010.05.17/outbox.cif.g08.bks.cpg/sg59_11_cif.got.tgz:20761.got - 2010.06.03 14:40:33.
