data_PCOD9446449
_publ_section_title
;
Structure prediction by ZEFSAII (Michael W. Deem and Ramdas Pophale) SiO2 
 PCOD9446449
Probable space group: P M M N
;
_chemical_formula_sum "Si O2"
_cell_formula_units_Z 64
_cell_length_a 9.176718
_cell_length_b 30.363347
_cell_length_c 14.386679
_cell_angle_alpha 90.000000
_cell_angle_beta 90.000000
_cell_angle_gamma 90.000000
_cell_volume 4008.644862
_symmetry_space_group_name_H-M "P M M N"
_symmetry_group_IT_number 59
_space_group.IT_coordinate_system_code '2'
_symmetry_cell_setting 'orthorhombic'
loop_
_space_group_symop_operation_xyz
x,y,z
1/2-x,1/2-y,z
1/2+x,-y,-z
-x,1/2+y,-z
-x,-y,-z
1/2+x,1/2+y,-z
1/2-x,y,z
x,1/2-y,z
loop_
_atom_site_type_symbol
_atom_site_label
_atom_site_fract_x
_atom_site_fract_y
_atom_site_fract_z
Si Si1 0.919616 0.419778 0.218437
Si Si2 0.574977 0.700116 0.486074
Si Si3 0.581237 0.984623 0.311832
Si Si4 0.917103 0.062054 0.533705
Si Si5 0.575170 0.084860 0.820149
Si Si6 0.575065 0.452797 0.017383
Si Si7 0.084235 0.648249 0.331927
Si Si8 0.575714 0.619379 0.616729
O O1 0.750000 0.406040 0.215284
O O2 0.926029 0.466384 0.272407
O O3 0.971208 0.430335 0.114020
O O4 0.012356 0.386363 0.280333
O O5 0.750000 0.699615 0.481793
O O6 0.526088 0.750000 0.504168
O O7 0.513296 0.682158 0.388561
O O8 0.532788 0.665134 0.566098
O O9 0.750000 0.972349 0.325882
O O10 0.494292 0.975952 0.406869
O O11 0.509746 0.953373 0.234075
O O12 0.750000 0.051332 0.508108
O O13 0.913913 0.103643 0.605406
O O14 0.006951 0.080990 0.447499
O O15 0.750000 0.079150 0.805584
O O16 0.535925 0.130643 0.769117
O O17 0.546513 0.078383 0.928808
O O18 0.750000 0.460076 0.023820
O O19 0.500000 0.500000 0.000000
O O20 0.250000 0.664693 0.326427
O O21 0.750000 0.615751 0.616725
#
# Coordination Sequence:
#
# PCOD9446449 Si02
#       8
#     8   8   8   8   8   8   8   8
#     4  10  21  33  44  63  93 126 160 201 239 271
#     4   9  18  33  52  74  97 118 143 181 231 285
#     4  10  18  28  43  64  89 121 162 199 232 272
#     4   9  17  30  46  63  89 123 156 192 232 273
#     4   9  17  29  46  66  93 125 158 198 239 273
#     4  10  19  32  48  67  91 125 167 207 243 271
#     4   8  15  27  44  70  96 119 148 182 224 276
#     4  10  20  33  49  68  90 120 155 191 232 283
#
# _framework density 15.965495000000001
#
# number of rings (size 3 to 8) (size 9 to 14) (size 15 to 20)
#    0.000    2.625    1.250    1.875    0.000    5.750 
#    0.000    0.000    0.000    0.000    0.000    0.875 
#    0.000    5.000    0.000    0.000    0.000    0.000 
#
# Total GULP energy -356733.328895 kJ/mol
# GULP energy per Si atom -5573.958264 kJ/mol
# Density = 1.592916 g / cm^3
# Si number density = 15.965495 Si / 1000 Ang^3
#
#
#
# Elastic Constant Matrix: (Units=GPa)
#
#
# Indices 1 2 3 4 5 6 
#
# 1 46.9968 29.8196 40.5623 0.0000 0.0000 0.0000
# 2 29.8196 65.8933 50.0485 0.0000 0.0000 0.0000
# 3 40.5623 50.0485 136.6508 0.0000 0.0000 0.0000
# 4 0.0000 0.0000 0.0000 15.5511 0.0000 0.0000
# 5 0.0000 0.0000 0.0000 0.0000 22.2601 0.0000
# 6 0.0000 0.0000 0.0000 0.0000 0.0000 16.8629
#
#
#
# Elastic Compliance Matrix: (Units=1/GPa)
#
#
# Indices 1 2 3 4 5 6 
#
# 1 0.033059 -0.010401 -0.006004 0.000000 0.000000 0.000000
# 2 -0.010401 0.024297 -0.005812 0.000000 0.000000 0.000000
# 3 -0.006004 -0.005812 0.011228 0.000000 0.000000 0.000000
# 4 0.000000 0.000000 0.000000 0.064304 0.000000 0.000000
# 5 0.000000 0.000000 0.000000 0.000000 0.044923 0.000000
# 6 0.000000 0.000000 0.000000 0.000000 0.000000 0.059302
#
#
# Mechanical properties :
#
#
# Convention : Reuss Voigt Hill
#
# Bulk Modulus (GPa) = 41.40331 54.48906 47.94618
# Shear Modulus (GPa) = 17.26542 19.54219 18.40380
#
# Velocity S-wave (km/s) = 3.29206 3.50240 3.39886
# Velocity P-wave (km/s) = 6.35921 7.11049 6.74532
#
# Compressibility (1/GPa) = 0.02415266
#
# Stress axis : x y z
#
# Youngs Moduli (GPa) = 30.24901 41.15762 89.05917
#
# Poissons Ratio (x) = 0.42806 0.53469
# Poissons Ratio (y) = 0.31461 0.51757
# Poissons Ratio (z) = 0.18161 0.23919
#
# Static dielectric constant tensor:
#      x y z
#    x 1.544860 0.000000 0.000000 
#    y 0.000000 1.527700 0.000000 
#    z 0.000000 0.000000 1.562460 
# 
# From -- ./inp_files/21834.got.cif
#   From: 2010.05.17/outbox.cif.g08.bks.cpg/sg59_11_cif.got.tgz:21834.got - 2010.06.03 14:40:33.
