data_PCOD9446379
_publ_section_title
;
Structure prediction by ZEFSAII (Michael W. Deem and Ramdas Pophale) SiO2 
 PCOD9446379
Probable space group: P M M N
;
_chemical_formula_sum "Si O2"
_cell_formula_units_Z 64
_cell_length_a 24.736006
_cell_length_b 9.210858
_cell_length_c 18.943810
_cell_angle_alpha 90.000000
_cell_angle_beta 90.000000
_cell_angle_gamma 90.000000
_cell_volume 4316.154616
_symmetry_space_group_name_H-M "P M M N"
_symmetry_group_IT_number 59
_space_group.IT_coordinate_system_code '2'
_symmetry_cell_setting 'orthorhombic'
loop_
_space_group_symop_operation_xyz
x,y,z
1/2-x,1/2-y,z
1/2+x,-y,-z
-x,1/2+y,-z
-x,-y,-z
1/2+x,1/2+y,-z
1/2-x,y,z
x,1/2-y,z
loop_
_atom_site_type_symbol
_atom_site_label
_atom_site_fract_x
_atom_site_fract_y
_atom_site_fract_z
Si Si1 0.312934 0.076853 0.437114
Si Si2 0.500382 0.577150 0.609597
Si Si3 0.420394 0.917269 0.038146
Si Si4 0.314162 0.918430 0.288055
Si Si5 0.991815 0.419464 0.228604
Si Si6 0.044605 0.416774 0.904719
Si Si7 0.615157 0.580514 0.827078
Si Si8 0.413778 0.921922 0.487649
O O1 0.250000 0.047807 0.455143
O O2 0.320560 0.250000 0.434329
O O3 0.323299 0.006938 0.360167
O O4 0.356536 0.002617 0.487832
O O5 0.513508 0.750000 0.609407
O O6 0.488533 0.534044 0.689986
O O7 0.549850 0.489839 0.575118
O O8 0.448998 0.555495 0.558480
O O9 0.402926 0.750000 0.035355
O O10 0.482621 0.918139 0.066229
O O11 0.387555 0.008985 0.095687
O O12 0.421878 0.990928 0.961519
O O13 0.250000 0.922441 0.274154
O O14 0.330321 0.750000 0.297031
O O15 0.346099 0.992660 0.224715
O O16 0.976000 0.250000 0.223591
O O17 0.054592 0.428516 0.205180
O O18 0.958213 0.512293 0.172430
O O19 0.062309 0.250000 0.902733
O O20 0.629937 0.750000 0.830542
O O21 0.406728 0.750000 0.477185
#
# Coordination Sequence:
#
# PCOD9446379 Si02
#       8
#     8   8   8   8   8   8   8   8
#     4  10  20  33  48  64  84 113 147 183 224 267
#     4   9  18  31  45  63  89 120 150 179 216 265
#     4   9  16  26  39  55  79 110 140 169 202 239
#     4  10  20  32  45  62  84 109 140 179 218 255
#     4   9  17  28  41  58  82 112 143 172 206 251
#     4   9  16  25  38  57  80 105 136 172 205 239
#     4  10  18  27  42  62  84 112 144 176 209 248
#     4  10  19  30  46  66  88 115 147 184 222 261
#
# _framework density 14.828014
#
# number of rings (size 3 to 8) (size 9 to 14) (size 15 to 20)
#    0.000    2.500    0.000    3.000    0.000    7.000 
#    0.000    0.000    0.000    0.000    0.000    0.000 
#    0.000    1.000    0.000    5.250    0.000    5.000 
#
# Total GULP energy -356819.896551 kJ/mol
# GULP energy per Si atom -5575.310884 kJ/mol
# Density = 1.479426 g / cm^3
# Si number density = 14.828014 Si / 1000 Ang^3
#
#
#
# Elastic Constant Matrix: (Units=GPa)
#
#
# Indices 1 2 3 4 5 6 
#
# 1 46.0286 40.2150 25.1820 0.0000 0.0000 0.0000
# 2 40.2150 100.5487 51.7685 0.0000 0.0000 0.0000
# 3 25.1820 51.7685 98.9212 0.0000 0.0000 0.0000
# 4 0.0000 0.0000 0.0000 25.6256 0.0000 0.0000
# 5 0.0000 0.0000 0.0000 0.0000 19.9568 0.0000
# 6 0.0000 0.0000 0.0000 0.0000 0.0000 21.5498
#
#
#
# Elastic Compliance Matrix: (Units=1/GPa)
#
#
# Indices 1 2 3 4 5 6 
#
# 1 0.033707 -0.012406 -0.002088 0.000000 0.000000 0.000000
# 2 -0.012406 0.018180 -0.006356 0.000000 0.000000 0.000000
# 3 -0.002088 -0.006356 0.013967 0.000000 0.000000 0.000000
# 4 0.000000 0.000000 0.000000 0.039024 0.000000 0.000000
# 5 0.000000 0.000000 0.000000 0.000000 0.050108 0.000000
# 6 0.000000 0.000000 0.000000 0.000000 0.000000 0.046404
#
#
# Mechanical properties :
#
#
# Convention : Reuss Voigt Hill
#
# Bulk Modulus (GPa) = 41.40204 53.31437 47.35821
# Shear Modulus (GPa) = 19.90910 21.98197 20.94553
#
# Velocity S-wave (km/s) = 3.66822 3.85445 3.76249
# Velocity P-wave (km/s) = 6.77667 7.47277 7.13321
#
# Compressibility (1/GPa) = 0.02415340
#
# Stress axis : x y z
#
# Youngs Moduli (GPa) = 29.66709 55.00627 71.59831
#
# Poissons Ratio (x) = 0.68243 0.14951
# Poissons Ratio (y) = 0.36806 0.45506
# Poissons Ratio (z) = 0.06195 0.34961
#
# Static dielectric constant tensor:
#      x y z
#    x 1.475420 0.000000 0.000000 
#    y 0.000000 1.497760 0.000000 
#    z 0.000000 0.000000 1.480320 
# 
# From -- ./inp_files/26549.got.cif
#   From: 2010.05.17/outbox.cif.g08.bks.cpg/sg59_14_cif.got.tgz:26549.got - 2010.06.03 14:40:33.
