data_PCOD9446137
_publ_section_title
;
Structure prediction by ZEFSAII (Michael W. Deem and Ramdas Pophale) SiO2 
 PCOD9446137
Probable space group: P M M N
;
_chemical_formula_sum "Si O2"
_cell_formula_units_Z 56
_cell_length_a 13.573822
_cell_length_b 28.863628
_cell_length_c 9.795898
_cell_angle_alpha 90.000000
_cell_angle_beta 90.000000
_cell_angle_gamma 90.000000
_cell_volume 3837.932416
_symmetry_space_group_name_H-M "P M M N"
_symmetry_group_IT_number 59
_space_group.IT_coordinate_system_code '2'
_symmetry_cell_setting 'orthorhombic'
loop_
_space_group_symop_operation_xyz
x,y,z
1/2-x,1/2-y,z
1/2+x,-y,-z
-x,1/2+y,-z
-x,-y,-z
1/2+x,1/2+y,-z
1/2-x,y,z
x,1/2-y,z
loop_
_atom_site_type_symbol
_atom_site_label
_atom_site_fract_x
_atom_site_fract_y
_atom_site_fract_z
Si Si1 0.559767 0.593964 0.309606
Si Si2 0.363776 0.989557 0.654408
Si Si3 0.131441 0.112401 0.990582
Si Si4 0.362722 0.955609 0.341497
Si Si5 0.631656 0.869990 0.584157
Si Si6 0.869297 0.802201 0.819064
Si Si7 0.943303 0.951998 0.779910
O O1 0.611195 0.544093 0.339430
O O2 0.443821 0.582826 0.308711
O O3 0.587795 0.627274 0.433826
O O4 0.598552 0.611350 0.165145
O O5 0.250000 0.982201 0.692281
O O6 0.377944 0.972225 0.498641
O O7 0.442765 0.963647 0.749543
O O8 0.250000 0.107170 0.001664
O O9 0.103034 0.160401 0.065605
O O10 0.080910 0.070663 0.074845
O O11 0.250000 0.941018 0.325851
O O12 0.385588 0.000389 0.248456
O O13 0.750000 0.872591 0.577135
O O14 0.603712 0.825296 0.674095
O O15 0.593925 0.914424 0.669262
O O16 0.750000 0.800385 0.821605
O O17 0.906410 0.750000 0.837230
#
# Coordination Sequence:
#
# PCOD9446137 Si02
#       7
#     8   8   8   8   8   8   8
#     4  11  19  30  42  67  92 119 156 189 221 261
#     4  10  18  28  44  64  91 123 158 199 228 244
#     4  10  20  30  45  66  94 124 148 182 224 269
#     4  10  18  29  45  63  89 124 158 195 228 251
#     4  10  16  26  47  65  85 114 151 186 215 259
#     4   8  16  31  48  66  88 116 144 174 221 277
#     4  10  17  30  43  63  85 124 164 184 213 261
#
# _framework density 14.591189
#
# number of rings (size 3 to 8) (size 9 to 14) (size 15 to 20)
#    0.000    2.143    2.857    4.286    0.000    2.286 
#    0.000    2.857    0.000    3.429    0.000    0.000 
#    0.000   21.714    0.000    0.000    0.000    0.000 
#
# Total GULP energy -312206.223398 kJ/mol
# GULP energy per Si atom -5575.111132 kJ/mol
# Density = 1.455798 g / cm^3
# Si number density = 14.591189 Si / 1000 Ang^3
#
#
#
# Elastic Constant Matrix: (Units=GPa)
#
#
# Indices 1 2 3 4 5 6 
#
# 1 73.6401 20.5038 11.4863 0.0000 0.0000 0.0000
# 2 20.5038 53.2125 21.5091 0.0000 0.0000 0.0000
# 3 11.4863 21.5091 79.6933 0.0000 0.0000 0.0000
# 4 0.0000 0.0000 0.0000 9.4928 0.0000 0.0000
# 5 0.0000 0.0000 0.0000 0.0000 19.5093 0.0000
# 6 0.0000 0.0000 0.0000 0.0000 0.0000 12.6847
#
#
#
# Elastic Compliance Matrix: (Units=1/GPa)
#
#
# Indices 1 2 3 4 5 6 
#
# 1 0.015245 -0.005597 -0.000687 0.000000 0.000000 0.000000
# 2 -0.005597 0.023148 -0.005441 0.000000 0.000000 0.000000
# 3 -0.000687 -0.005441 0.014116 0.000000 0.000000 0.000000
# 4 0.000000 0.000000 0.000000 0.105343 0.000000 0.000000
# 5 0.000000 0.000000 0.000000 0.000000 0.051258 0.000000
# 6 0.000000 0.000000 0.000000 0.000000 0.000000 0.078835
#
#
# Mechanical properties :
#
#
# Convention : Reuss Voigt Hill
#
# Bulk Modulus (GPa) = 34.41141 34.83827 34.62484
# Shear Modulus (GPa) = 15.57242 18.54046 17.05644
#
# Velocity S-wave (km/s) = 3.27042 3.56850 3.42271
# Velocity P-wave (km/s) = 6.15595 6.39586 6.27705
#
# Compressibility (1/GPa) = 0.02906013
#
# Stress axis : x y z
#
# Youngs Moduli (GPa) = 65.59547 43.19954 70.84342
#
# Poissons Ratio (x) = 0.24177 0.04865
# Poissons Ratio (y) = 0.36711 0.38546
# Poissons Ratio (z) = 0.04505 0.23505
#
# Static dielectric constant tensor:
#      x y z
#    x 1.482490 0.000000 0.000000 
#    y 0.000000 1.467750 0.000000 
#    z 0.000000 0.000000 1.494090 
# 
# From -- ./inp_files/9704.got.cif
#   From: 2010.05.17/outbox.cif.g08.bks.cpg/sg59_5_cif.got.tgz:9704.got - 2010.06.03 14:40:33.
