data_PCOD9446337
_publ_section_title
;
Structure prediction by ZEFSAII (Michael W. Deem and Ramdas Pophale) SiO2 
 PCOD9446337
Probable space group: P M M N
;
_chemical_formula_sum "Si O2"
_cell_formula_units_Z 48
_cell_length_a 20.902003
_cell_length_b 9.151918
_cell_length_c 15.708993
_cell_angle_alpha 90.000000
_cell_angle_beta 90.000000
_cell_angle_gamma 90.000000
_cell_volume 3005.026956
_symmetry_space_group_name_H-M "P M M N"
_symmetry_group_IT_number 59
_space_group.IT_coordinate_system_code '2'
_symmetry_cell_setting 'orthorhombic'
loop_
_space_group_symop_operation_xyz
x,y,z
1/2-x,1/2-y,z
1/2+x,-y,-z
-x,1/2+y,-z
-x,-y,-z
1/2+x,1/2+y,-z
1/2-x,y,z
x,1/2-y,z
loop_
_atom_site_type_symbol
_atom_site_label
_atom_site_fract_x
_atom_site_fract_y
_atom_site_fract_z
Si Si1 0.101057 0.573346 0.750799
Si Si2 0.036374 0.924202 0.271053
Si Si3 0.178140 0.927509 0.584825
Si Si4 0.065090 0.418012 0.103553
Si Si5 0.936490 0.074415 0.537086
Si Si6 0.087850 0.918377 0.937349
O O1 0.091338 0.750000 0.749771
O O2 0.152215 0.535144 0.678808
O O3 0.118971 0.534109 0.847933
O O4 0.034070 0.496718 0.728373
O O5 0.030252 0.750000 0.260925
O O6 0.067937 0.955618 0.362319
O O7 0.072751 0.990816 0.189895
O O8 0.250000 0.981135 0.569987
O O9 0.179775 0.750000 0.581046
O O10 0.125413 0.974934 0.516056
O O11 0.082669 0.250000 0.116334
O O12 0.988590 0.422514 0.082959
O O13 0.098622 0.485731 0.020715
O O14 0.942770 0.250000 0.526660
O O15 0.000000 0.000000 0.500000
O O16 0.104589 0.750000 0.954896
#
# Coordination Sequence:
#
# PCOD9446337 Si02
#       6
#     8   8   8   8   8   8
#     4   9  16  27  44  64  87 118 151 182 222 271
#     4  10  18  26  40  64  91 118 148 186 230 271
#     4   9  17  30  48  69  93 121 155 193 231 278
#     4   9  16  25  38  58  85 117 147 179 220 266
#     4  10  19  30  47  69  92 121 156 193 235 278
#     4   8  14  23  36  57  85 114 142 176 217 262
#
# _framework density 15.973234
#
# number of rings (size 3 to 8) (size 9 to 14) (size 15 to 20)
#    0.000    2.833    1.667    2.000    0.000    4.667 
#    0.000    0.000    0.000    2.000    0.000    1.167 
#    0.000    9.333    0.000    0.000    0.000    0.000 
#
# Total GULP energy -267260.267982 kJ/mol
# GULP energy per Si atom -5567.922250 kJ/mol
# Density = 1.593688 g / cm^3
# Si number density = 15.973234 Si / 1000 Ang^3
#
#
#
# Elastic Constant Matrix: (Units=GPa)
#
#
# Indices 1 2 3 4 5 6 
#
# 1 71.0195 20.3088 60.5931 0.0000 0.0000 0.0000
# 2 20.3088 40.4440 55.1340 0.0000 0.0000 0.0000
# 3 60.5931 55.1340 159.1581 0.0000 0.0000 0.0000
# 4 0.0000 0.0000 0.0000 23.3160 0.0000 0.0000
# 5 0.0000 0.0000 0.0000 0.0000 12.8939 0.0000
# 6 0.0000 0.0000 0.0000 0.0000 0.0000 10.0156
#
#
#
# Elastic Compliance Matrix: (Units=1/GPa)
#
#
# Indices 1 2 3 4 5 6 
#
# 1 0.020864 0.000666 -0.008174 0.000000 0.000000 0.000000
# 2 0.000666 0.046871 -0.016490 0.000000 0.000000 0.000000
# 3 -0.008174 -0.016490 0.015107 0.000000 0.000000 0.000000
# 4 0.000000 0.000000 0.000000 0.042889 0.000000 0.000000
# 5 0.000000 0.000000 0.000000 0.000000 0.077556 0.000000
# 6 0.000000 0.000000 0.000000 0.000000 0.000000 0.099845
#
#
# Mechanical properties :
#
#
# Convention : Reuss Voigt Hill
#
# Bulk Modulus (GPa) = 28.69762 60.29926 44.49844
# Shear Modulus (GPa) = 13.78388 18.21747 16.00067
#
# Velocity S-wave (km/s) = 2.94076 3.38079 3.16843
# Velocity P-wave (km/s) = 5.43469 7.28504 6.42681
#
# Compressibility (1/GPa) = 0.03484609
#
# Stress axis : x y z
#
# Youngs Moduli (GPa) = 47.92928 21.33537 66.19355
#
# Poissons Ratio (x) = -0.01421 0.54106
# Poissons Ratio (y) = -0.03192 1.09153
# Poissons Ratio (z) = 0.39177 0.35182
#
# Static dielectric constant tensor:
#      x y z
#    x 1.507950 0.000000 0.000000 
#    y 0.000000 1.535200 0.000000 
#    z 0.000000 0.000000 1.564290 
# 
# From -- ./inp_files/20776.got.cif
#   From: 2010.05.17/outbox.cif.g08.bks.cpg/sg59_11_cif.got.tgz:20776.got - 2010.06.03 14:40:33.
