data_PCOD9446275
_publ_section_title
;
Structure prediction by ZEFSAII (Michael W. Deem and Ramdas Pophale) SiO2 
 PCOD9446275
Probable space group: P M M N
;
_chemical_formula_sum "Si O2"
_cell_formula_units_Z 64
_cell_length_a 20.641814
_cell_length_b 16.385340
_cell_length_c 11.140464
_cell_angle_alpha 90.000000
_cell_angle_beta 90.000000
_cell_angle_gamma 90.000000
_cell_volume 3767.962722
_symmetry_space_group_name_H-M "P M M N"
_symmetry_group_IT_number 59
_space_group.IT_coordinate_system_code '2'
_symmetry_cell_setting 'orthorhombic'
loop_
_space_group_symop_operation_xyz
x,y,z
1/2-x,1/2-y,z
1/2+x,-y,-z
-x,1/2+y,-z
-x,-y,-z
1/2+x,1/2+y,-z
1/2-x,y,z
x,1/2-y,z
loop_
_atom_site_type_symbol
_atom_site_label
_atom_site_fract_x
_atom_site_fract_y
_atom_site_fract_z
Si Si1 0.675776 0.075286 0.147577
Si Si2 0.504938 0.990641 0.297730
Si Si3 0.033828 0.921753 0.934759
Si Si4 0.673057 0.157819 0.404553
Si Si5 0.459467 0.339299 0.870733
Si Si6 0.177750 0.117972 0.816493
Si Si7 0.604334 0.005649 0.518841
Si Si8 0.673662 0.839709 0.462497
O O1 0.750000 0.091793 0.102814
O O2 0.612350 0.082330 0.062778
O O3 0.664440 0.130313 0.265544
O O4 0.675568 0.980461 0.188502
O O5 0.520414 0.908792 0.223629
O O6 0.554751 0.998627 0.407021
O O7 0.515026 0.064385 0.203924
O O8 0.435023 0.987031 0.358061
O O9 0.000983 0.849642 0.008587
O O10 0.000000 0.000000 0.000000
O O11 0.750000 0.159283 0.424205
O O12 0.647521 0.250000 0.423266
O O13 0.644248 0.087073 0.488335
O O14 0.469037 0.250000 0.818586
O O15 0.382934 0.352820 0.893887
O O16 0.250000 0.141709 0.857207
O O17 0.167945 0.150986 0.681931
O O18 0.642819 0.920507 0.518132
O O19 0.750000 0.840455 0.489103
O O20 0.647188 0.750000 0.496844
#
# Coordination Sequence:
#
# PCOD9446275 Si02
#       8
#     8   8   8   8   8   8   8   8
#     4  10  17  31  55  78 104 137 175 227 282 321
#     4  10  21  34  52  73 106 141 180 210 255 325
#     4  10  18  36  52  76 106 137 175 225 265 322
#     4  10  19  31  51  78 106 138 179 225 269 313
#     4  11  21  34  55  79 110 146 178 226 275 319
#     4  10  17  29  52  81 108 135 173 223 276 328
#     4  11  19  34  53  75 109 147 165 214 270 318
#     4  10  18  29  51  80 108 135 169 219 274 328
#
# _framework density 16.985305
#
# number of rings (size 3 to 8) (size 9 to 14) (size 15 to 20)
#    0.000    1.750    6.250    0.750    0.000    1.750 
#    0.000    2.500    0.000    7.500    0.000    0.000 
#    0.000    0.000    0.000    0.000    0.000    0.000 
#
# Total GULP energy -356374.013476 kJ/mol
# GULP energy per Si atom -5568.343961 kJ/mol
# Density = 1.694665 g / cm^3
# Si number density = 16.985305 Si / 1000 Ang^3
#
#
#
# Elastic Constant Matrix: (Units=GPa)
#
#
# Indices 1 2 3 4 5 6 
#
# 1 122.7285 43.7213 38.8208 0.0000 0.0000 0.0000
# 2 43.7213 106.2609 16.6050 0.0000 0.0000 0.0000
# 3 38.8208 16.6050 45.3336 0.0000 0.0000 0.0000
# 4 0.0000 0.0000 0.0000 3.3853 0.0000 0.0000
# 5 0.0000 0.0000 0.0000 0.0000 30.8463 0.0000
# 6 0.0000 0.0000 0.0000 0.0000 0.0000 9.4870
#
#
#
# Elastic Compliance Matrix: (Units=1/GPa)
#
#
# Indices 1 2 3 4 5 6 
#
# 1 0.012377 -0.003645 -0.009264 0.000000 0.000000 0.000000
# 2 -0.003645 0.011056 -0.000928 0.000000 0.000000 0.000000
# 3 -0.009264 -0.000928 0.030331 0.000000 0.000000 0.000000
# 4 0.000000 0.000000 0.000000 0.295395 0.000000 0.000000
# 5 0.000000 0.000000 0.000000 0.000000 0.032419 0.000000
# 6 0.000000 0.000000 0.000000 0.000000 0.000000 0.105407
#
#
# Mechanical properties :
#
#
# Convention : Reuss Voigt Hill
#
# Bulk Modulus (GPa) = 38.32840 52.51304 45.42072
# Shear Modulus (GPa) = 9.55375 20.42211 14.98793
#
# Velocity S-wave (km/s) = 2.37422 3.47124 2.97375
# Velocity P-wave (km/s) = 5.48913 6.85929 6.21210
#
# Compressibility (1/GPa) = 0.02609031
#
# Stress axis : x y z
#
# Youngs Moduli (GPa) = 80.79680 90.45245 32.96907
#
# Poissons Ratio (x) = 0.32968 0.30541
# Poissons Ratio (y) = 0.29449 0.03060
# Poissons Ratio (z) = 0.74847 0.08396
#
# Static dielectric constant tensor:
#      x y z
#    x 1.622470 0.000000 0.000000 
#    y 0.000000 1.615800 0.000000 
#    z 0.000000 0.000000 1.553650 
# 
# From -- ./inp_files/18455.got.cif
#   From: 2010.05.17/outbox.cif.g08.bks.cpg/sg59_10_cif.got.tgz:18455.got - 2010.06.03 14:40:33.
