data_PCOD9446100
_publ_section_title
;
Structure prediction by ZEFSAII (Michael W. Deem and Ramdas Pophale) SiO2 
 PCOD9446100
Probable space group: P N N M
;
_chemical_formula_sum "Si O2"
_cell_formula_units_Z 48
_cell_length_a 9.000000
_cell_length_b 9.000000
_cell_length_c 30.000000
_cell_angle_alpha 90.000000
_cell_angle_beta 90.000000
_cell_angle_gamma 90.000000
_cell_volume 2430.000000
_symmetry_space_group_name_H-M "P N N M"
_symmetry_group_IT_number 58
_symmetry_cell_setting 'orthorhombic'
loop_
_space_group_symop_operation_xyz
x,y,z
-x,-y,z
1/2+x,1/2-y,1/2-z
1/2-x,1/2+y,1/2-z
-x,-y,-z
x,y,-z
1/2-x,1/2+y,1/2+z
1/2+x,1/2-y,1/2+z
loop_
_atom_site_type_symbol
_atom_site_label
_atom_site_fract_x
_atom_site_fract_y
_atom_site_fract_z
Si Si1 0.322047 0.999336 0.360982
Si Si2 0.114211 0.731373 0.500000
Si Si3 0.717227 0.092742 0.000000
Si Si4 0.416651 0.343109 0.904834
Si Si5 0.340750 0.425741 0.306206
Si Si6 0.845837 0.406860 0.765932
Si Si7 0.720303 0.196306 0.899881
O O1 0.267626 0.033371 0.310998
O O2 0.281821 0.136786 0.393038
O O3 0.500000 0.000000 0.359808
O O4 0.234674 0.853280 0.376841
O O5 0.216355 0.585772 0.500000
O O6 0.130159 0.828194 0.543954
O O7 0.948077 0.663444 0.500000
O O8 0.768708 0.140233 0.050529
O O9 0.500000 0.500000 0.896628
O O10 0.539925 0.215525 0.897073
O O11 0.500000 0.500000 0.312200
O O12 0.243682 0.542363 0.277521
O O13 0.357151 0.269936 0.277552
O O14 0.274825 0.389848 0.355502
O O15 0.000000 0.500000 0.762946
#
# Coordination Sequence:
#
# PCOD9446100 Si02
#       7
#     8   4   4   8   8   8   8
#     4   9  19  36  59  87 126 156 198 254 308 363
#     4   9  17  32  54  84 114 151 206 254 295 345
#     4   9  18  38  55  79 122 155 202 256 294 359
#     4   9  17  33  60  87 113 155 202 251 296 359
#     4  11  23  42  65  90 125 160 205 260 320 379
#     4  10  22  41  61  92 122 163 204 253 310 379
#     4   9  20  39  60  86 117 160 202 248 307 366
#
# _framework density 19.753086
#
# number of rings (size 3 to 8) (size 9 to 14) (size 15 to 20)
#    0.000    2.500    0.000    1.250    0.000    6.667 
#   18.000    2.083    0.000    0.000    0.000    0.000 
#    0.000    0.000    0.000    0.000    0.000    0.000 
#
# Total GULP energy -267281.617324 kJ/mol
# GULP energy per Si atom -5568.367028 kJ/mol
# Density = 1.970813 g / cm^3
# Si number density = 19.753086 Si / 1000 Ang^3
#
#
#
# Elastic Constant Matrix: (Units=GPa)
#
#
# Indices 1 2 3 4 5 6 
#
# 1 78.3334 28.3572 59.4818 0.0000 0.0000 0.0000
# 2 28.3572 45.5659 38.1895 0.0000 0.0000 0.0000
# 3 59.4818 38.1895 132.7300 0.0000 0.0000 0.0000
# 4 0.0000 0.0000 0.0000 285.5479 0.0000 0.0000
# 5 0.0000 0.0000 0.0000 0.0000 14.9186 0.0000
# 6 0.0000 0.0000 0.0000 0.0000 0.0000 30.2033
#
#
#
# Elastic Compliance Matrix: (Units=1/GPa)
#
#
# Indices 1 2 3 4 5 6 
#
# 1 0.020824 -0.006771 -0.007384 0.000000 0.000000 0.000000
# 2 -0.006771 0.031122 -0.005920 0.000000 0.000000 0.000000
# 3 -0.007384 -0.005920 0.012547 0.000000 0.000000 0.000000
# 4 0.000000 0.000000 0.000000 0.003502 0.000000 0.000000
# 5 0.000000 0.000000 0.000000 0.000000 0.067031 0.000000
# 6 0.000000 0.000000 0.000000 0.000000 0.000000 0.033109
#
#
# Mechanical properties :
#
#
# Convention : Reuss Voigt Hill
#
# Bulk Modulus (GPa) = 41.08072 56.52071 48.80071
# Shear Modulus (GPa) = 23.10556 74.84066 48.97311
#
# Velocity S-wave (km/s) = 3.42383 6.16201 4.98462
# Velocity P-wave (km/s) = 6.03924 8.90521 7.60839
#
# Compressibility (1/GPa) = 0.02434232
#
# Stress axis : x y z
#
# Youngs Moduli (GPa) = 48.02145 32.13184 79.70336
#
# Poissons Ratio (x) = 0.21756 0.58853
# Poissons Ratio (y) = 0.32515 0.47186
# Poissons Ratio (z) = 0.35459 0.19023
#
# Static dielectric constant tensor:
#      x y z
#    x 1.758270 0.000000 0.000000 
#    y 0.000000 1.717910 0.000000 
#    z 0.000000 0.000000 1.700070 
# 
# From -- ./inp_files/34615.got.cif
#   From: 2010.05.17/outbox.ucp.g08.bks.cvg/sg58_18_cif.got.tgz:34615.got - 2010.06.11 16:41:41.
