data_PCOD9446576
_publ_section_title
;
Structure prediction by ZEFSAII (Michael W. Deem and Ramdas Pophale) SiO2 
 PCOD9446576
Probable space group: P M M N
;
_chemical_formula_sum "Si O2"
_cell_formula_units_Z 56
_cell_length_a 8.870462
_cell_length_b 20.809415
_cell_length_c 18.589215
_cell_angle_alpha 90.000000
_cell_angle_beta 90.000000
_cell_angle_gamma 90.000000
_cell_volume 3431.366931
_symmetry_space_group_name_H-M "P M M N"
_symmetry_group_IT_number 59
_space_group.IT_coordinate_system_code '2'
_symmetry_cell_setting 'orthorhombic'
loop_
_space_group_symop_operation_xyz
x,y,z
1/2-x,1/2-y,z
1/2+x,-y,-z
-x,1/2+y,-z
-x,-y,-z
1/2+x,1/2+y,-z
1/2-x,y,z
x,1/2-y,z
loop_
_atom_site_type_symbol
_atom_site_label
_atom_site_fract_x
_atom_site_fract_y
_atom_site_fract_z
Si Si1 0.068388 0.563162 0.462413
Si Si2 0.430658 0.460402 0.689941
Si Si3 0.933798 0.322161 0.431613
Si Si4 0.430367 0.889159 0.713005
Si Si5 0.574188 0.597095 0.860165
Si Si6 0.573101 0.058070 0.839027
Si Si7 0.068030 0.429207 0.985974
O O1 0.250000 0.558486 0.462408
O O2 0.022838 0.624908 0.509663
O O3 0.000000 0.500000 0.500000
O O4 0.006529 0.566776 0.381604
O O5 0.250000 0.455245 0.686254
O O6 0.469557 0.536709 0.694252
O O7 0.492381 0.429199 0.763326
O O8 0.750000 0.322083 0.430277
O O9 0.984375 0.250000 0.447617
O O10 0.984505 0.345033 0.352464
O O11 0.250000 0.885933 0.715256
O O12 0.490268 0.873187 0.792212
O O13 0.750000 0.612908 0.854662
O O14 0.559673 0.519474 0.850597
O O15 0.524443 0.610562 0.942260
O O16 0.750000 0.073102 0.836027
O O17 0.496251 0.090436 0.908516
O O18 0.250000 0.433184 0.983830
O O19 0.000000 0.500000 0.000000
#
# Coordination Sequence:
#
# PCOD9446576 Si02
#       7
#     8   8   8   8   8   8   8
#     4  11  20  32  50  71  93 121 157 198 243 288
#     4  10  18  29  44  66  91 118 154 193 234 281
#     4   9  18  33  50  68  92 122 158 198 239 284
#     4   9  16  27  43  63  84 113 153 189 227 271
#     4   8  15  24  35  54  81 114 148 182 222 264
#     4   9  16  25  37  57  84 116 150 186 231 275
#     4   9  15  23  34  51  79 116 153 186 224 272
#
# _framework density 16.320025000000001
#
# number of rings (size 3 to 8) (size 9 to 14) (size 15 to 20)
#    0.000    2.714    1.429    2.571    0.000    4.571 
#    0.000    0.000    0.000    3.857    0.000    0.000 
#    0.000    1.143    0.000   11.143    0.000    6.571 
#
# Total GULP energy -311799.127433 kJ/mol
# GULP energy per Si atom -5567.841561 kJ/mol
# Density = 1.628288 g / cm^3
# Si number density = 16.320025 Si / 1000 Ang^3
#
#
#
# Elastic Constant Matrix: (Units=GPa)
#
#
# Indices 1 2 3 4 5 6 
#
# 1 40.7250 21.3506 50.0949 0.0000 0.0000 0.0000
# 2 21.3506 55.8329 53.8921 0.0000 0.0000 0.0000
# 3 50.0949 53.8921 184.7079 0.0000 0.0000 0.0000
# 4 0.0000 0.0000 0.0000 10.9933 0.0000 0.0000
# 5 0.0000 0.0000 0.0000 0.0000 34.9521 0.0000
# 6 0.0000 0.0000 0.0000 0.0000 0.0000 8.1507
#
#
#
# Elastic Compliance Matrix: (Units=1/GPa)
#
#
# Indices 1 2 3 4 5 6 
#
# 1 0.038450 -0.006456 -0.008544 0.000000 0.000000 0.000000
# 2 -0.006456 0.026016 -0.005840 0.000000 0.000000 0.000000
# 3 -0.008544 -0.005840 0.009435 0.000000 0.000000 0.000000
# 4 0.000000 0.000000 0.000000 0.090964 0.000000 0.000000
# 5 0.000000 0.000000 0.000000 0.000000 0.028611 0.000000
# 6 0.000000 0.000000 0.000000 0.000000 0.000000 0.122689
#
#
# Mechanical properties :
#
#
# Convention : Reuss Voigt Hill
#
# Bulk Modulus (GPa) = 31.03573 59.10456 45.07015
# Shear Modulus (GPa) = 13.56536 21.21444 17.38990
#
# Velocity S-wave (km/s) = 2.88620 3.60933 3.26783
# Velocity P-wave (km/s) = 5.49228 7.32559 6.47415
#
# Compressibility (1/GPa) = 0.03222092
#
# Stress axis : x y z
#
# Youngs Moduli (GPa) = 26.00789 38.43771 105.98653
#
# Poissons Ratio (x) = 0.24815 0.90559
# Poissons Ratio (y) = 0.16791 0.61894
# Poissons Ratio (z) = 0.22222 0.22447
#
# Static dielectric constant tensor:
#      x y z
#    x 1.550000 0.000000 0.000000 
#    y 0.000000 1.527900 0.000000 
#    z 0.000000 0.000000 1.587810 
# 
# From -- ./inp_files/26011.got.cif
#   From: 2010.05.17/outbox.cif.g08.bks.cpg/sg59_14_cif.got.tgz:26011.got - 2010.06.03 14:40:33.
