data_PCOD9446374
_publ_section_title
;
Structure prediction by ZEFSAII (Michael W. Deem and Ramdas Pophale) SiO2 
 PCOD9446374
Probable space group: P M M N
;
_chemical_formula_sum "Si O2"
_cell_formula_units_Z 48
_cell_length_a 7.664424
_cell_length_b 21.958453
_cell_length_c 16.035072
_cell_angle_alpha 90.000000
_cell_angle_beta 90.000000
_cell_angle_gamma 90.000000
_cell_volume 2698.684886
_symmetry_space_group_name_H-M "P M M N"
_symmetry_group_IT_number 59
_space_group.IT_coordinate_system_code '2'
_symmetry_cell_setting 'orthorhombic'
loop_
_space_group_symop_operation_xyz
x,y,z
1/2-x,1/2-y,z
1/2+x,-y,-z
-x,1/2+y,-z
-x,-y,-z
1/2+x,1/2+y,-z
1/2-x,y,z
x,1/2-y,z
loop_
_atom_site_type_symbol
_atom_site_label
_atom_site_fract_x
_atom_site_fract_y
_atom_site_fract_z
Si Si1 0.955003 0.548677 0.698874
Si Si2 0.040503 0.587218 0.057352
Si Si3 0.040253 0.045211 0.118694
Si Si4 0.541309 0.590342 0.341899
Si Si5 0.040246 0.681199 0.193417
Si Si6 0.959352 0.929601 0.520682
O O1 0.750000 0.564143 0.700550
O O2 0.028497 0.563310 0.790209
O O3 0.029628 0.579202 0.614534
O O4 0.968492 0.475295 0.687113
O O5 0.250000 0.585990 0.064894
O O6 0.974302 0.522397 0.093488
O O7 0.974698 0.642203 0.114311
O O8 0.999086 0.588220 0.959506
O O9 0.250000 0.040772 0.125208
O O10 0.750000 0.583034 0.344545
O O11 0.497565 0.642180 0.275967
O O12 0.479225 0.604051 0.436707
O O13 0.250000 0.684531 0.186059
O O14 0.972326 0.750000 0.197012
O O15 0.750000 0.922014 0.525002
O O16 0.000000 0.000000 0.500000
#
# Coordination Sequence:
#
# PCOD9446374 Si02
#       6
#     8   8   8   8   8   8
#     4   9  15  27  44  62  88 119 148 170 203 260
#     4   9  17  29  42  61  85 110 143 181 218 259
#     4   9  16  26  43  64  86 114 142 173 216 262
#     4  10  18  27  41  64  91 114 142 180 220 252
#     4  10  20  34  49  62  81 116 155 183 214 261
#     4   8  15  25  39  60  86 115 140 168 204 247
#
# _framework density 17.786439999999999
#
# number of rings (size 3 to 8) (size 9 to 14) (size 15 to 20)
#    0.000    2.833    1.667    0.500    0.000    2.333 
#    0.000    0.000    0.000    0.000    0.000    1.167 
#    0.000    6.667    0.000    0.000    0.000    0.000 
#
# Total GULP energy -267231.250016 kJ/mol
# GULP energy per Si atom -5567.317709 kJ/mol
# Density = 1.774596 g / cm^3
# Si number density = 17.786440 Si / 1000 Ang^3
#
#
#
# Elastic Constant Matrix: (Units=GPa)
#
#
# Indices 1 2 3 4 5 6 
#
# 1 32.4520 -5.2398 0.0535 0.0000 0.0000 0.0000
# 2 -5.2398 52.3054 58.2995 0.0000 0.0000 0.0000
# 3 0.0535 58.2995 220.8045 0.0000 0.0000 0.0000
# 4 0.0000 0.0000 0.0000 12.5162 0.0000 0.0000
# 5 0.0000 0.0000 0.0000 0.0000 13.9356 0.0000
# 6 0.0000 0.0000 0.0000 0.0000 0.0000 9.1843
#
#
#
# Elastic Compliance Matrix: (Units=1/GPa)
#
#
# Indices 1 2 3 4 5 6 
#
# 1 0.031542 0.004489 -0.001193 0.000000 0.000000 0.000000
# 2 0.004489 0.027730 -0.007323 0.000000 0.000000 0.000000
# 3 -0.001193 -0.007323 0.006463 0.000000 0.000000 0.000000
# 4 0.000000 0.000000 0.000000 0.079897 0.000000 0.000000
# 5 0.000000 0.000000 0.000000 0.000000 0.071759 0.000000
# 6 0.000000 0.000000 0.000000 0.000000 0.000000 0.108881
#
#
# Mechanical properties :
#
#
# Convention : Reuss Voigt Hill
#
# Bulk Modulus (GPa) = 17.33647 45.75425 31.54536
# Shear Modulus (GPa) = 14.14224 23.95713 19.04968
#
# Velocity S-wave (km/s) = 2.82283 3.67404 3.27620
# Velocity P-wave (km/s) = 4.51583 6.61651 5.66440
#
# Compressibility (1/GPa) = 0.05768188
#
# Stress axis : x y z
#
# Youngs Moduli (GPa) = 31.70414 36.06180 154.73592
#
# Poissons Ratio (x) = -0.16190 0.18460
# Poissons Ratio (y) = -0.14234 1.13309
# Poissons Ratio (z) = 0.03782 0.26407
#
# Static dielectric constant tensor:
#      x y z
#    x 1.669280 0.000000 0.000000 
#    y 0.000000 1.561150 0.000000 
#    z 0.000000 0.000000 1.688810 
# 
# From -- ./inp_files/20740.got.cif
#   From: 2010.05.17/outbox.cif.g08.bks.cpg/sg59_11_cif.got.tgz:20740.got - 2010.06.03 14:40:33.
