data_PCOD9446889
_publ_section_title
;
Structure prediction by ZEFSAII (Michael W. Deem and Ramdas Pophale) SiO2 
 PCOD9446889
Probable space group: P M M N
;
_chemical_formula_sum "Si O2"
_cell_formula_units_Z 40
_cell_length_a 8.691138
_cell_length_b 15.858708
_cell_length_c 15.739119
_cell_angle_alpha 90.000000
_cell_angle_beta 90.000000
_cell_angle_gamma 90.000000
_cell_volume 2169.326230
_symmetry_space_group_name_H-M "P M M N"
_symmetry_group_IT_number 59
_space_group.IT_coordinate_system_code '2'
_symmetry_cell_setting 'orthorhombic'
loop_
_space_group_symop_operation_xyz
x,y,z
1/2-x,1/2-y,z
1/2+x,-y,-z
-x,1/2+y,-z
-x,-y,-z
1/2+x,1/2+y,-z
1/2-x,y,z
x,1/2-y,z
loop_
_atom_site_type_symbol
_atom_site_label
_atom_site_fract_x
_atom_site_fract_y
_atom_site_fract_z
Si Si1 0.921832 0.346192 0.338910
Si Si2 0.425893 0.999724 0.407377
Si Si3 0.562765 0.250000 0.034070
Si Si4 0.936263 0.750000 0.155293
Si Si5 0.572273 0.403426 0.147237
Si Si6 0.063987 0.428467 0.763639
O O1 0.750000 0.377466 0.364360
O O2 0.935762 0.250000 0.364419
O O3 0.926655 0.354730 0.237246
O O4 0.052320 0.404440 0.376273
O O5 0.250000 0.973778 0.412566
O O6 0.507036 0.947287 0.331802
O O7 0.500000 0.000000 0.500000
O O8 0.750000 0.250000 0.041527
O O9 0.505863 0.336356 0.080186
O O10 0.510749 0.250000 0.937353
O O11 0.750000 0.750000 0.147449
O O12 0.980283 0.836076 0.203853
O O13 0.750000 0.418483 0.121244
O O14 0.507402 0.495812 0.173119
O O15 0.250000 0.434227 0.762759
#
# Coordination Sequence:
#
# PCOD9446889 Si02
#       6
#     8   8   4   4   8   8
#     4   9  16  31  56  82 110 143 177 215 270 330
#     4  11  22  37  57  82 110 140 179 226 275 328
#     4  10  18  30  52  81 110 143 186 227 264 329
#     4  10  22  38  54  77 110 149 186 229 282 327
#     4   8  14  28  53  80 104 139 180 219 265 323
#     4   9  19  38  59  76 105 147 187 229 281 334
#
# _framework density 18.438904999999998
#
# number of rings (size 3 to 8) (size 9 to 14) (size 15 to 20)
#    0.000    2.600    1.000    3.000    0.000    2.000 
#    1.800    4.000    0.000    0.000    0.000    0.000 
#    0.000    0.000    0.000    0.000    0.000    0.000 
#
# Total GULP energy -222711.336812 kJ/mol
# GULP energy per Si atom -5567.783420 kJ/mol
# Density = 1.839694 g / cm^3
# Si number density = 18.438905 Si / 1000 Ang^3
#
#
#
# Elastic Constant Matrix: (Units=GPa)
#
#
# Indices 1 2 3 4 5 6 
#
# 1 25.1217 23.3215 27.4724 0.0000 0.0000 0.0000
# 2 23.3215 143.7347 75.3291 0.0000 0.0000 0.0000
# 3 27.4724 75.3291 117.3369 0.0000 0.0000 0.0000
# 4 0.0000 0.0000 0.0000 10.9383 0.0000 0.0000
# 5 0.0000 0.0000 0.0000 0.0000 27.5334 0.0000
# 6 0.0000 0.0000 0.0000 0.0000 0.0000 13.1666
#
#
#
# Elastic Compliance Matrix: (Units=1/GPa)
#
#
# Indices 1 2 3 4 5 6 
#
# 1 0.054494 -0.003248 -0.010674 0.000000 0.000000 0.000000
# 2 -0.003248 0.010679 -0.006095 0.000000 0.000000 0.000000
# 3 -0.010674 -0.006095 0.014935 0.000000 0.000000 0.000000
# 4 0.000000 0.000000 0.000000 0.091422 0.000000 0.000000
# 5 0.000000 0.000000 0.000000 0.000000 0.036320 0.000000
# 6 0.000000 0.000000 0.000000 0.000000 0.000000 0.075950
#
#
# Mechanical properties :
#
#
# Convention : Reuss Voigt Hill
#
# Bulk Modulus (GPa) = 24.95406 59.82659 42.39033
# Shear Modulus (GPa) = 14.82844 20.99901 17.91373
#
# Velocity S-wave (km/s) = 2.83891 3.37833 3.12030
# Velocity P-wave (km/s) = 4.93038 6.90897 6.00177
#
# Compressibility (1/GPa) = 0.04007363
#
# Stress axis : x y z
#
# Youngs Moduli (GPa) = 18.35067 93.64526 66.95894
#
# Poissons Ratio (x) = 0.30415 0.71470
# Poissons Ratio (y) = 0.05960 0.40812
# Poissons Ratio (z) = 0.19587 0.57078
#
# Static dielectric constant tensor:
#      x y z
#    x 1.630020 0.000000 0.000000 
#    y 0.000000 1.669690 0.000000 
#    z 0.000000 0.000000 1.617560 
# 
# From -- ./inp_files/19939.got.cif
#   From: 2010.05.17/outbox.cif.g08.bks.cpg/sg59_10_cif.got.tgz:19939.got - 2010.06.03 14:40:33.
