data_PCOD9446523
_publ_section_title
;
Structure prediction by ZEFSAII (Michael W. Deem and Ramdas Pophale) SiO2 
 PCOD9446523
Probable space group: P M M N
;
_chemical_formula_sum "Si O2"
_cell_formula_units_Z 64
_cell_length_a 8.122500
_cell_length_b 23.381027
_cell_length_c 17.178257
_cell_angle_alpha 90.000000
_cell_angle_beta 90.000000
_cell_angle_gamma 90.000000
_cell_volume 3262.363874
_symmetry_space_group_name_H-M "P M M N"
_symmetry_group_IT_number 59
_space_group.IT_coordinate_system_code '2'
_symmetry_cell_setting 'orthorhombic'
loop_
_space_group_symop_operation_xyz
x,y,z
1/2-x,1/2-y,z
1/2+x,-y,-z
-x,1/2+y,-z
-x,-y,-z
1/2+x,1/2+y,-z
1/2-x,y,z
x,1/2-y,z
loop_
_atom_site_type_symbol
_atom_site_label
_atom_site_fract_x
_atom_site_fract_y
_atom_site_fract_z
Si Si1 0.442224 0.684035 0.644331
Si Si2 0.053044 0.685364 0.391561
Si Si3 0.942580 0.930321 0.939963
Si Si4 0.554528 0.443161 0.896897
Si Si5 0.056792 0.610398 0.783369
Si Si6 0.051007 0.019124 0.347316
Si Si7 0.451618 0.598529 0.269867
Si Si8 0.935710 0.900569 0.523343
O O1 0.250000 0.668893 0.625852
O O2 0.464425 0.750000 0.627813
O O3 0.467630 0.667870 0.733907
O O4 0.560404 0.645626 0.593219
O O5 0.250000 0.690414 0.388423
O O6 0.988748 0.750000 0.407551
O O7 0.994102 0.657243 0.310473
O O8 0.018882 0.636004 0.455287
O O9 0.750000 0.937118 0.956073
O O10 0.967707 0.890977 0.865428
O O11 0.011286 0.992424 0.911839
O O12 0.023505 0.912258 0.021081
O O13 0.750000 0.449171 0.885292
O O14 0.490734 0.414141 0.818091
O O15 0.250000 0.602497 0.797438
O O16 0.998839 0.560167 0.724497
O O17 0.250000 0.019766 0.352199
O O18 0.988795 0.045022 0.429770
O O19 0.998717 0.955510 0.323749
O O20 0.250000 0.599124 0.269272
O O21 0.750000 0.914284 0.499218
#
# Coordination Sequence:
#
# PCOD9446523 Si02
#       8
#     8   8   8   8   8   8   8   8
#     4   9  18  32  49  69  95 129 167 204 242 285
#     4  10  21  36  54  73  94 127 171 211 244 283
#     4  10  18  29  47  72 102 132 160 193 239 294
#     4   9  17  30  49  71  95 127 163 198 239 288
#     4  10  18  28  46  72 101 130 161 200 240 286
#     4   9  17  32  50  71  99 131 160 193 246 301
#     4   9  17  33  54  72  96 129 163 202 246 292
#     4  10  20  32  50  74 100 127 160 202 248 297
#
# _framework density 19.617677
#
# number of rings (size 3 to 8) (size 9 to 14) (size 15 to 20)
#    0.000    2.500    1.250    1.500    0.000    4.000 
#    0.000    1.250    0.000    0.750    0.000    3.500 
#    0.000    0.000    0.000    0.000    0.000    0.000 
#
# Total GULP energy -356570.156861 kJ/mol
# GULP energy per Si atom -5571.408701 kJ/mol
# Density = 1.957303 g / cm^3
# Si number density = 19.617677 Si / 1000 Ang^3
#
#
#
# Elastic Constant Matrix: (Units=GPa)
#
#
# Indices 1 2 3 4 5 6 
#
# 1 10.1883 5.5365 6.7088 0.0000 0.0000 0.0000
# 2 5.5365 28.9898 40.5049 0.0000 0.0000 0.0000
# 3 6.7088 40.5049 127.9184 0.0000 0.0000 0.0000
# 4 0.0000 0.0000 0.0000 15.7979 0.0000 0.0000
# 5 0.0000 0.0000 0.0000 0.0000 20.5810 0.0000
# 6 0.0000 0.0000 0.0000 0.0000 0.0000 11.6939
#
#
#
# Elastic Compliance Matrix: (Units=1/GPa)
#
#
# Indices 1 2 3 4 5 6 
#
# 1 0.109696 -0.023157 0.001579 0.000000 0.000000 0.000000
# 2 -0.023157 0.066754 -0.019923 0.000000 0.000000 0.000000
# 3 0.001579 -0.019923 0.014043 0.000000 0.000000 0.000000
# 4 0.000000 0.000000 0.000000 0.063300 0.000000 0.000000
# 5 0.000000 0.000000 0.000000 0.000000 0.048589 0.000000
# 6 0.000000 0.000000 0.000000 0.000000 0.000000 0.085515
#
#
# Mechanical properties :
#
#
# Convention : Reuss Voigt Hill
#
# Bulk Modulus (GPa) = 9.30296 30.28857 19.79577
# Shear Modulus (GPa) = 9.86724 17.23764 13.55244
#
# Velocity S-wave (km/s) = 2.24515 2.96747 2.63121
# Velocity P-wave (km/s) = 3.38723 5.21671 4.39815
#
# Compressibility (1/GPa) = 0.10749261
#
# Stress axis : x y z
#
# Youngs Moduli (GPa) = 9.11610 14.98036 71.20889
#
# Poissons Ratio (x) = 0.34690 -0.11246
# Poissons Ratio (y) = 0.21110 1.41869
# Poissons Ratio (z) = -0.01440 0.29845
#
# Static dielectric constant tensor:
#      x y z
#    x 1.719270 0.000000 0.000000 
#    y 0.000000 1.705050 0.000000 
#    z 0.000000 0.000000 1.727920 
# 
# From -- ./inp_files/26460.got.cif
#   From: 2010.05.17/outbox.cif.g08.bks.cpg/sg59_14_cif.got.tgz:26460.got - 2010.06.03 14:40:33.
