data_PCOD9446802
_publ_section_title
;
Structure prediction by ZEFSAII (Michael W. Deem and Ramdas Pophale) SiO2 
 PCOD9446802
Probable space group: P M M N
;
_chemical_formula_sum "Si O2"
_cell_formula_units_Z 64
_cell_length_a 23.699695
_cell_length_b 12.804539
_cell_length_c 12.710969
_cell_angle_alpha 90.000000
_cell_angle_beta 90.000000
_cell_angle_gamma 90.000000
_cell_volume 3857.317288
_symmetry_space_group_name_H-M "P M M N"
_symmetry_group_IT_number 59
_space_group.IT_coordinate_system_code '2'
_symmetry_cell_setting 'orthorhombic'
loop_
_space_group_symop_operation_xyz
x,y,z
1/2-x,1/2-y,z
1/2+x,-y,-z
-x,1/2+y,-z
-x,-y,-z
1/2+x,1/2+y,-z
1/2-x,y,z
x,1/2-y,z
loop_
_atom_site_type_symbol
_atom_site_label
_atom_site_fract_x
_atom_site_fract_y
_atom_site_fract_z
Si Si1 0.146489 0.369009 0.918291
Si Si2 0.043418 0.871738 0.407489
Si Si3 0.685139 0.869135 0.844176
Si Si4 0.560898 0.452514 0.023319
Si Si5 0.480308 0.632402 0.775013
Si Si6 0.587538 0.020973 0.795192
Si Si7 0.686242 0.874077 0.317278
Si Si8 0.425530 0.486564 0.602383
O O1 0.123840 0.250000 0.914488
O O2 0.097934 0.454333 0.927977
O O3 0.179529 0.385783 0.809637
O O4 0.180167 0.377700 0.028210
O O5 0.049133 0.750000 0.433586
O O6 0.976938 0.902587 0.399170
O O7 0.073777 0.899937 0.297892
O O8 0.070195 0.948701 0.494380
O O9 0.750000 0.881716 0.813926
O O10 0.666969 0.750000 0.818553
O O11 0.645042 0.954981 0.792410
O O12 0.551455 0.368197 0.113108
O O13 0.500000 0.500000 0.000000
O O14 0.585204 0.424157 0.909474
O O15 0.491720 0.750000 0.739856
O O16 0.537938 0.566737 0.788835
O O17 0.442531 0.568666 0.692986
O O18 0.750000 0.906798 0.347184
O O19 0.680825 0.750000 0.339065
O O20 0.634647 0.934634 0.372328
#
# Coordination Sequence:
#
# PCOD9446802 Si02
#       8
#     8   8   8   8   8   8   8   8
#     4   9  16  28  47  73 107 139 170 206 251 310
#     4  10  21  37  57  76  99 134 177 216 254 305
#     4   9  16  28  48  74 104 138 173 207 250 304
#     4   9  17  28  42  72 106 137 169 202 252 301
#     4  10  18  30  49  73 102 134 166 205 256 308
#     4   9  19  32  48  73 103 132 169 212 255 298
#     4  10  19  32  54  83 111 136 164 206 264 320
#     4  10  20  36  55  79 104 132 169 214 260 304
#
# _framework density 16.591842
#
# number of rings (size 3 to 8) (size 9 to 14) (size 15 to 20)
#    0.000    2.500    1.250    1.500    0.000    5.000 
#    0.000    2.500    0.000    4.125    0.000    0.000 
#    0.000    0.000    0.000    0.000    0.000    0.000 
#
# Total GULP energy -356479.335311 kJ/mol
# GULP energy per Si atom -5569.989614 kJ/mol
# Density = 1.655408 g / cm^3
# Si number density = 16.591842 Si / 1000 Ang^3
#
#
#
# Elastic Constant Matrix: (Units=GPa)
#
#
# Indices 1 2 3 4 5 6 
#
# 1 83.1394 25.8199 19.3116 0.0000 0.0000 0.0000
# 2 25.8199 53.1939 16.1627 0.0000 0.0000 0.0000
# 3 19.3116 16.1627 57.2414 0.0000 0.0000 0.0000
# 4 0.0000 0.0000 0.0000 10.0765 0.0000 0.0000
# 5 0.0000 0.0000 0.0000 0.0000 15.0837 0.0000
# 6 0.0000 0.0000 0.0000 0.0000 0.0000 20.6746
#
#
#
# Elastic Compliance Matrix: (Units=1/GPa)
#
#
# Indices 1 2 3 4 5 6 
#
# 1 0.014686 -0.006151 -0.003218 0.000000 0.000000 0.000000
# 2 -0.006151 0.023139 -0.004459 0.000000 0.000000 0.000000
# 3 -0.003218 -0.004459 0.019814 0.000000 0.000000 0.000000
# 4 0.000000 0.000000 0.000000 0.099241 0.000000 0.000000
# 5 0.000000 0.000000 0.000000 0.000000 0.066297 0.000000
# 6 0.000000 0.000000 0.000000 0.000000 0.000000 0.048369
#
#
# Mechanical properties :
#
#
# Convention : Reuss Voigt Hill
#
# Bulk Modulus (GPa) = 33.34965 35.12925 34.23945
# Shear Modulus (GPa) = 16.17103 17.98564 17.07834
#
# Velocity S-wave (km/s) = 3.12531 3.29600 3.21178
# Velocity P-wave (km/s) = 5.75908 5.97523 5.86815
#
# Compressibility (1/GPa) = 0.02998532
#
# Stress axis : x y z
#
# Youngs Moduli (GPa) = 68.09410 43.21652 50.46834
#
# Poissons Ratio (x) = 0.26581 0.16240
# Poissons Ratio (y) = 0.41882 0.22502
# Poissons Ratio (z) = 0.21911 0.19269
#
# Static dielectric constant tensor:
#      x y z
#    x 1.540540 0.000000 0.000000 
#    y 0.000000 1.539560 0.000000 
#    z 0.000000 0.000000 1.598540 
# 
# From -- ./inp_files/18754.got.cif
#   From: 2010.05.17/outbox.cif.g08.bks.cpg/sg59_10_cif.got.tgz:18754.got - 2010.06.03 14:40:33.
