data_PCOD9446755
_publ_section_title
;
Structure prediction by ZEFSAII (Michael W. Deem and Ramdas Pophale) SiO2 
 PCOD9446755
Probable space group: P M M N
;
_chemical_formula_sum "Si O2"
_cell_formula_units_Z 64
_cell_length_a 30.945328
_cell_length_b 8.987803
_cell_length_c 14.760999
_cell_angle_alpha 90.000000
_cell_angle_beta 90.000000
_cell_angle_gamma 90.000000
_cell_volume 4105.484207
_symmetry_space_group_name_H-M "P M M N"
_symmetry_group_IT_number 59
_space_group.IT_coordinate_system_code '2'
_symmetry_cell_setting 'orthorhombic'
loop_
_space_group_symop_operation_xyz
x,y,z
1/2-x,1/2-y,z
1/2+x,-y,-z
-x,1/2+y,-z
-x,-y,-z
1/2+x,1/2+y,-z
1/2-x,y,z
x,1/2-y,z
loop_
_atom_site_type_symbol
_atom_site_label
_atom_site_fract_x
_atom_site_fract_y
_atom_site_fract_z
Si Si1 0.040572 0.928680 0.946169
Si Si2 0.380306 0.425384 0.423960
Si Si3 0.577258 0.081701 0.740368
Si Si4 0.525847 0.923880 0.243826
Si Si5 0.200474 0.572462 0.347268
Si Si6 0.958752 0.569936 0.448523
Si Si7 0.300019 0.073599 0.150142
Si Si8 0.878092 0.075991 0.935612
O O1 0.037027 0.750000 0.953799
O O2 0.039721 0.981049 0.842427
O O3 0.086013 0.974046 0.992270
O O4 0.000000 0.000000 0.000000
O O5 0.372785 0.250000 0.431543
O O6 0.404463 0.464516 0.330169
O O7 0.334792 0.508932 0.416187
O O8 0.414329 0.471809 0.501190
O O9 0.587237 0.250000 0.706984
O O10 0.526080 0.068871 0.749891
O O11 0.598195 0.065059 0.838435
O O12 0.537544 0.750000 0.229537
O O13 0.542173 0.972428 0.342767
O O14 0.250000 0.533256 0.370873
O O15 0.197023 0.750000 0.341564
O O16 0.191909 0.505635 0.247051
O O17 0.963340 0.750000 0.452704
O O18 0.000000 0.500000 0.500000
O O19 0.250000 0.043339 0.125792
O O20 0.305249 0.250000 0.162509
O O21 0.334012 0.014057 0.076953
O O22 0.868273 0.250000 0.951830
#
# Coordination Sequence:
#
# PCOD9446755 Si02
#       8
#     8   8   8   8   8   8   8   8
#     4  11  22  35  51  73  99 130 170 209 246 293
#     4  11  21  31  47  74 101 130 168 206 245 289
#     4  10  18  30  48  68  98 136 168 201 240 287
#     4  10  20  36  51  68  99 135 169 210 249 284
#     4  10  20  33  49  69  96 132 167 199 244 299
#     4  10  21  34  50  73 101 133 170 206 245 293
#     4  10  20  32  48  73 101 127 160 203 246 291
#     4  10  20  33  48  70  99 132 168 200 241 294
#
# _framework density 15.588903999999999
#
# number of rings (size 3 to 8) (size 9 to 14) (size 15 to 20)
#    0.000    1.750    3.750    1.500    0.000    4.000 
#    0.000    0.000    0.000    0.000    0.000    0.875 
#    0.000    1.000    0.000    0.000    0.000    0.000 
#
# Total GULP energy -357067.194137 kJ/mol
# GULP energy per Si atom -5579.174908 kJ/mol
# Density = 1.555342 g / cm^3
# Si number density = 15.588904 Si / 1000 Ang^3
#
#
#
# Elastic Constant Matrix: (Units=GPa)
#
#
# Indices 1 2 3 4 5 6 
#
# 1 121.3250 44.5903 58.5784 0.0000 0.0000 0.0000
# 2 44.5903 43.2779 33.5286 0.0000 0.0000 0.0000
# 3 58.5784 33.5286 85.9838 0.0000 0.0000 0.0000
# 4 0.0000 0.0000 0.0000 20.9897 0.0000 0.0000
# 5 0.0000 0.0000 0.0000 0.0000 22.3781 0.0000
# 6 0.0000 0.0000 0.0000 0.0000 0.0000 27.2033
#
#
#
# Elastic Compliance Matrix: (Units=1/GPa)
#
#
# Indices 1 2 3 4 5 6 
#
# 1 0.015207 -0.010950 -0.006090 0.000000 0.000000 0.000000
# 2 -0.010950 0.040993 -0.008525 0.000000 0.000000 0.000000
# 3 -0.006090 -0.008525 0.019104 0.000000 0.000000 0.000000
# 4 0.000000 0.000000 0.000000 0.047642 0.000000 0.000000
# 5 0.000000 0.000000 0.000000 0.000000 0.044686 0.000000
# 6 0.000000 0.000000 0.000000 0.000000 0.000000 0.036760
#
#
# Mechanical properties :
#
#
# Convention : Reuss Voigt Hill
#
# Bulk Modulus (GPa) = 41.36822 58.22015 49.79418
# Shear Modulus (GPa) = 18.96942 21.70686 20.33814
#
# Velocity S-wave (km/s) = 3.49213 3.73561 3.61592
# Velocity P-wave (km/s) = 6.54634 7.48563 7.03168
#
# Compressibility (1/GPa) = 0.02417314
#
# Stress axis : x y z
#
# Youngs Moduli (GPa) = 65.75734 24.39429 52.34611
#
# Poissons Ratio (x) = 0.26712 0.31881
# Poissons Ratio (y) = 0.72005 0.44625
# Poissons Ratio (z) = 0.40050 0.20796
#
# Static dielectric constant tensor:
#      x y z
#    x 1.532210 0.000000 0.000000 
#    y 0.000000 1.544260 0.000000 
#    z 0.000000 0.000000 1.501540 
# 
# From -- ./inp_files/25077.got.cif
#   From: 2010.05.17/outbox.cif.g08.bks.cpg/sg59_13_cif.got.tgz:25077.got - 2010.06.03 14:40:33.
