data_PCOD9446913
_publ_section_title
;
Structure prediction by ZEFSAII (Michael W. Deem and Ramdas Pophale) SiO2 
 PCOD9446913
Probable space group: P M M N
;
_chemical_formula_sum "Si O2"
_cell_formula_units_Z 56
_cell_length_a 7.574943
_cell_length_b 24.231718
_cell_length_c 13.037563
_cell_angle_alpha 90.000000
_cell_angle_beta 90.000000
_cell_angle_gamma 90.000000
_cell_volume 2393.095309
_symmetry_space_group_name_H-M "P M M N"
_symmetry_group_IT_number 59
_space_group.IT_coordinate_system_code '2'
_symmetry_cell_setting 'orthorhombic'
loop_
_space_group_symop_operation_xyz
x,y,z
1/2-x,1/2-y,z
1/2+x,-y,-z
-x,1/2+y,-z
-x,-y,-z
1/2+x,1/2+y,-z
1/2-x,y,z
x,1/2-y,z
loop_
_atom_site_type_symbol
_atom_site_label
_atom_site_fract_x
_atom_site_fract_y
_atom_site_fract_z
Si Si1 0.452038 0.750000 0.825031
Si Si2 0.047451 0.250000 0.941407
Si Si3 0.536805 0.839484 0.653459
Si Si4 0.962035 0.961710 0.695319
Si Si5 0.534140 0.809416 0.427923
Si Si6 0.960952 0.583532 0.306279
Si Si7 0.532972 0.630027 0.092559
Si Si8 0.539122 0.550133 0.924810
O O1 0.250000 0.750000 0.855568
O O2 0.550744 0.750000 0.933947
O O3 0.485912 0.803289 0.752394
O O4 0.250000 0.250000 0.904792
O O5 0.970440 0.307290 0.901623
O O6 0.750000 0.839667 0.654572
O O7 0.476079 0.903253 0.650817
O O8 0.480718 0.812356 0.546855
O O9 0.750000 0.958858 0.695019
O O10 0.031786 0.960709 0.812223
O O11 0.002826 0.022277 0.652141
O O12 0.750000 0.810575 0.425237
O O13 0.480042 0.750000 0.383635
O O14 0.472083 0.864538 0.371332
O O15 0.750000 0.588268 0.303664
O O16 0.024237 0.593182 0.189284
O O17 0.750000 0.629915 0.091725
O O18 0.474525 0.603800 0.985147
O O19 0.750000 0.555496 0.913920
O O20 0.500000 0.500000 0.000000
#
# Coordination Sequence:
#
# PCOD9446913 Si02
#       8
#     4   4   8   8   8   8   8   8
#     4  12  24  38  57  88 118 140 179 236 293 336
#     4  10  20  36  57  78 108 150 189 224 267 328
#     4  10  20  39  64  83 107 149 192 229 274 340
#     4  10  21  35  55  82 111 147 193 230 273 339
#     4   9  18  34  60  88 108 140 191 237 277 326
#     4  10  20  34  55  84 117 146 185 237 283 325
#     4   9  18  32  53  81 109 143 187 228 269 320
#     4  10  18  31  49  73 103 139 180 219 261 321
#
# _framework density 23.400656000000001
#
# number of rings (size 3 to 8) (size 9 to 14) (size 15 to 20)
#    0.000    2.143    2.143    1.500    1.000    3.429 
#    0.000    3.571    0.000    0.000    0.000    0.000 
#    0.000    0.000    0.000    0.000    0.000    0.000 
#
# Total GULP energy -312746.411940 kJ/mol
# GULP energy per Si atom -5584.757356 kJ/mol
# Density = 2.334739 g / cm^3
# Si number density = 23.400656 Si / 1000 Ang^3
#
#
#
# Elastic Constant Matrix: (Units=GPa)
#
#
# Indices 1 2 3 4 5 6 
#
# 1 54.1603 -1.9105 -3.7649 0.0000 0.0000 0.0000
# 2 -1.9105 198.1508 21.4606 0.0000 0.0000 0.0000
# 3 -3.7649 21.4606 29.2332 0.0000 0.0000 0.0000
# 4 0.0000 0.0000 0.0000 40.6935 0.0000 0.0000
# 5 0.0000 0.0000 0.0000 0.0000 0.2610 0.0000
# 6 0.0000 0.0000 0.0000 0.0000 0.0000 18.8202
#
#
#
# Elastic Compliance Matrix: (Units=1/GPa)
#
#
# Indices 1 2 3 4 5 6 
#
# 1 0.018632 -0.000087 0.002464 0.000000 0.000000 0.000000
# 2 -0.000087 0.005483 -0.004036 0.000000 0.000000 0.000000
# 3 0.002464 -0.004036 0.037488 0.000000 0.000000 0.000000
# 4 0.000000 0.000000 0.000000 0.024574 0.000000 0.000000
# 5 0.000000 0.000000 0.000000 0.000000 3.832005 0.000000
# 6 0.000000 0.000000 0.000000 0.000000 0.000000 0.053134
#
#
# Mechanical properties :
#
#
# Convention : Reuss Voigt Hill
#
# Bulk Modulus (GPa) = 17.15764 34.79051 25.97407
# Shear Modulus (GPa) = 1.25186 29.67222 15.46204
#
# Velocity S-wave (km/s) = 0.73221 3.56477 2.57330
# Velocity P-wave (km/s) = 2.83952 5.64297 4.46688
#
# Compressibility (1/GPa) = 0.05828308
#
# Stress axis : x y z
#
# Youngs Moduli (GPa) = 53.67140 182.38270 26.67512
#
# Poissons Ratio (x) = 0.01590 -0.06572
# Poissons Ratio (y) = 0.00468 0.10767
# Poissons Ratio (z) = -0.13222 0.73616
#
# Static dielectric constant tensor:
#      x y z
#    x 1.899080 0.000000 0.000000 
#    y 0.000000 1.911200 0.000000 
#    z 0.000000 0.000000 1.858940 
# 
# From -- ./inp_files/21221.got.cif
#   From: 2010.05.17/outbox.cif.g08.bks.cpg/sg59_11_cif.got.tgz:21221.got - 2010.06.03 14:40:33.
