data_PCOD9446096
_publ_section_title
;
Structure prediction by ZEFSAII (Michael W. Deem and Ramdas Pophale) SiO2 
 PCOD9446096
Probable space group: P N N M
;
_chemical_formula_sum "Si O2"
_cell_formula_units_Z 48
_cell_length_a 18.000000
_cell_length_b 15.000000
_cell_length_c 9.000000
_cell_angle_alpha 90.000000
_cell_angle_beta 90.000000
_cell_angle_gamma 90.000000
_cell_volume 2430.000000
_symmetry_space_group_name_H-M "P N N M"
_symmetry_group_IT_number 58
_symmetry_cell_setting 'orthorhombic'
loop_
_space_group_symop_operation_xyz
x,y,z
-x,-y,z
1/2+x,1/2-y,1/2-z
1/2-x,1/2+y,1/2-z
-x,-y,-z
x,y,-z
1/2-x,1/2+y,1/2+z
1/2+x,1/2-y,1/2+z
loop_
_atom_site_type_symbol
_atom_site_label
_atom_site_fract_x
_atom_site_fract_y
_atom_site_fract_z
Si Si1 0.295460 0.228729 0.826022
Si Si2 0.029522 0.399759 0.329532
Si Si3 0.282970 0.564141 0.823022
Si Si4 0.051535 0.757248 0.176540
Si Si5 0.555376 0.418700 0.321733
Si Si6 0.313752 0.891849 0.326368
O O1 0.270752 0.139562 0.743059
O O2 0.369959 0.269776 0.756828
O O3 0.228272 0.298397 0.811531
O O4 0.307797 0.210593 0.000000
O O5 0.023630 0.368311 0.500000
O O6 0.113998 0.396552 0.274518
O O7 0.000000 0.500000 0.322594
O O8 0.979957 0.337908 0.225000
O O9 0.364930 0.572351 0.754321
O O10 0.244982 0.469315 0.789962
O O11 0.287961 0.574044 0.000000
O O12 0.989220 0.829457 0.220037
O O13 0.062101 0.763302 0.000000
O O14 0.500000 0.500000 0.286050
O O15 0.566963 0.417837 0.500000
O O16 0.335710 0.902722 0.500000
#
# Coordination Sequence:
#
# PCOD9446096 Si02
#       6
#     8   8   8   8   8   8
#     4  11  23  40  61  86 118 154 194 240 290 345
#     4  11  24  40  60  87 117 153 196 241 290 344
#     4  11  23  39  61  89 119 153 195 241 290 345
#     4  11  23  39  61  88 118 154 194 238 290 344
#     4  10  22  40  61  87 120 156 194 238 289 345
#     4  10  23  41  60  85 118 155 193 238 291 344
#
# _framework density 19.753086
#
# number of rings (size 3 to 8) (size 9 to 14) (size 15 to 20)
#    0.000    1.333    0.000    5.000    0.000   12.333 
#    0.000    0.000    0.000    0.000    0.000    0.000 
#    0.000    0.000    0.000    0.000    0.000    0.000 
#
# Total GULP energy -268478.443095 kJ/mol
# GULP energy per Si atom -5593.300898 kJ/mol
# Density = 1.970813 g / cm^3
# Si number density = 19.753086 Si / 1000 Ang^3
#
#
#
# Elastic Constant Matrix: (Units=GPa)
#
#
# Indices 1 2 3 4 5 6 
#
# 1 66.1897 -31.3483 23.8023 0.0000 0.0000 0.0000
# 2 -31.3483 35.5981 4.3607 0.0000 0.0000 0.0000
# 3 23.8023 4.3607 33.1280 0.0000 0.0000 0.0000
# 4 0.0000 0.0000 0.0000 27.1800 0.0000 0.0000
# 5 0.0000 0.0000 0.0000 0.0000 4.8217 0.0000
# 6 0.0000 0.0000 0.0000 0.0000 0.0000 23.5707
#
#
#
# Elastic Compliance Matrix: (Units=1/GPa)
#
#
# Indices 1 2 3 4 5 6 
#
# 1 0.066048 0.065024 -0.056014 0.000000 0.000000 0.000000
# 2 0.065024 0.092569 -0.058905 0.000000 0.000000 0.000000
# 3 -0.056014 -0.058905 0.078186 0.000000 0.000000 0.000000
# 4 0.000000 0.000000 0.000000 0.036792 0.000000 0.000000
# 5 0.000000 0.000000 0.000000 0.000000 0.207396 0.000000
# 6 0.000000 0.000000 0.000000 0.000000 0.000000 0.042426
#
#
# Mechanical properties :
#
#
# Convention : Reuss Voigt Hill
#
# Bulk Modulus (GPa) = 7.29858 14.28280 10.79069
# Shear Modulus (GPa) = 7.47523 20.32122 13.89823
#
# Velocity S-wave (km/s) = 1.94745 3.21091 2.65542
# Velocity P-wave (km/s) = 2.95967 4.58181 3.85698
#
# Compressibility (1/GPa) = 0.13701303
#
# Stress axis : x y z
#
# Youngs Moduli (GPa) = 15.14058 10.80278 12.79008
#
# Poissons Ratio (x) = -0.70244 0.71643
# Poissons Ratio (y) = -0.98451 0.75340
# Poissons Ratio (z) = 0.84809 0.63633
#
# Static dielectric constant tensor:
#      x y z
#    x 1.639910 0.000000 0.000000 
#    y 0.000000 1.671790 0.000000 
#    z 0.000000 0.000000 1.665170 
# 
# From -- ./inp_files/5863.got.cif
#   From: 2010.05.17/outbox.ucp.g08.bks.cvg/sg58_3_cif.got.tgz:5863.got - 2010.06.11 16:41:41.
