data_PCOD9446093
_publ_section_title
;
Structure prediction by ZEFSAII (Michael W. Deem and Ramdas Pophale) SiO2 
 PCOD9446093
Probable space group: P N N M
;
_chemical_formula_sum "Si O2"
_cell_formula_units_Z 48
_cell_length_a 18.000000
_cell_length_b 15.000000
_cell_length_c 9.000000
_cell_angle_alpha 90.000000
_cell_angle_beta 90.000000
_cell_angle_gamma 90.000000
_cell_volume 2430.000000
_symmetry_space_group_name_H-M "P N N M"
_symmetry_group_IT_number 58
_symmetry_cell_setting 'orthorhombic'
loop_
_space_group_symop_operation_xyz
x,y,z
-x,-y,z
1/2+x,1/2-y,1/2-z
1/2-x,1/2+y,1/2-z
-x,-y,-z
x,y,-z
1/2-x,1/2+y,1/2+z
1/2+x,1/2-y,1/2+z
loop_
_atom_site_type_symbol
_atom_site_label
_atom_site_fract_x
_atom_site_fract_y
_atom_site_fract_z
Si Si1 0.500750 0.606577 0.671019
Si Si2 0.319783 0.139181 0.168496
Si Si3 0.347361 0.350611 0.168157
Si Si4 0.697871 0.131317 0.176016
Si Si5 0.159941 0.179996 0.179226
Si Si6 0.414159 0.005064 0.324710
O O1 0.500000 0.500000 0.672097
O O2 0.510868 0.636838 0.500000
O O3 0.571170 0.636736 0.765409
O O4 0.419664 0.640046 0.721510
O O5 0.330214 0.245172 0.164721
O O6 0.233744 0.121568 0.210123
O O7 0.378066 0.099065 0.282320
O O8 0.332713 0.105251 0.000000
O O9 0.280210 0.390996 0.263698
O O10 0.343989 0.385094 0.000000
O O11 0.673474 0.227084 0.239488
O O12 0.637418 0.063349 0.237556
O O13 0.699385 0.132775 0.000000
O O14 0.160363 0.193584 0.000000
O O15 0.409731 0.987510 0.500000
O O16 0.500000 0.000000 0.279768
#
# Coordination Sequence:
#
# PCOD9446093 Si02
#       6
#     8   8   8   8   8   8
#     4  10  22  38  61  92 125 162 201 242 296 356
#     4   9  20  39  62  87 119 159 199 245 299 354
#     4  10  22  41  63  90 123 158 200 249 301 353
#     4  11  23  40  64  89 117 158 205 247 302 361
#     4   9  20  40  62  88 124 159 197 248 301 353
#     4  11  25  41  60  89 123 158 198 247 303 356
#
# _framework density 19.753086
#
# number of rings (size 3 to 8) (size 9 to 14) (size 15 to 20)
#    0.000    2.000    0.000    3.500    4.667    5.667 
#    0.000    0.000    0.000    0.000    0.000    0.000 
#    0.000    0.000    0.000    0.000    0.000    0.000 
#
# Total GULP energy -267945.226691 kJ/mol
# GULP energy per Si atom -5582.192223 kJ/mol
# Density = 1.970813 g / cm^3
# Si number density = 19.753086 Si / 1000 Ang^3
#
#
#
# Elastic Constant Matrix: (Units=GPa)
#
#
# Indices 1 2 3 4 5 6 
#
# 1 188.3774 27.8421 70.1297 0.0000 0.0000 0.0000
# 2 27.8421 33.3591 20.7816 0.0000 0.0000 0.0000
# 3 70.1297 20.7816 56.8160 0.0000 0.0000 0.0000
# 4 0.0000 0.0000 0.0000 28.3318 0.0000 0.0000
# 5 0.0000 0.0000 0.0000 0.0000 37.4658 0.0000
# 6 0.0000 0.0000 0.0000 0.0000 0.0000 28.2921
#
#
#
# Elastic Compliance Matrix: (Units=1/GPa)
#
#
# Indices 1 2 3 4 5 6 
#
# 1 0.009840 -0.000837 -0.011840 0.000000 0.000000 0.000000
# 2 -0.000837 0.038894 -0.013193 0.000000 0.000000 0.000000
# 3 -0.011840 -0.013193 0.037040 0.000000 0.000000 0.000000
# 4 0.000000 0.000000 0.000000 0.035296 0.000000 0.000000
# 5 0.000000 0.000000 0.000000 0.000000 0.026691 0.000000
# 6 0.000000 0.000000 0.000000 0.000000 0.000000 0.035346
#
#
# Mechanical properties :
#
#
# Convention : Reuss Voigt Hill
#
# Bulk Modulus (GPa) = 29.38162 57.33993 43.36078
# Shear Modulus (GPa) = 20.30936 29.47119 24.89028
#
# Velocity S-wave (km/s) = 3.20997 3.86680 3.55360
# Velocity P-wave (km/s) = 5.35213 7.00197 6.23189
#
# Compressibility (1/GPa) = 0.03403488
#
# Stress axis : x y z
#
# Youngs Moduli (GPa) = 101.62778 25.71064 26.99760
#
# Poissons Ratio (x) = 0.02152 0.31964
# Poissons Ratio (y) = 0.08505 0.35619
# Poissons Ratio (z) = 1.20322 0.33921
#
# Static dielectric constant tensor:
#      x y z
#    x 1.689130 0.000000 0.000000 
#    y 0.000000 1.752330 0.000000 
#    z 0.000000 0.000000 1.687020 
# 
# From -- ./inp_files/7735.got.cif
#   From: 2010.05.17/outbox.ucp.g08.bks.cvg/sg58_4_cif.got.tgz:7735.got - 2010.06.11 16:41:41.
