data_PCOD9446299
_publ_section_title
;
Structure prediction by ZEFSAII (Michael W. Deem and Ramdas Pophale) SiO2 
 PCOD9446299
Probable space group: P M M N
;
_chemical_formula_sum "Si O2"
_cell_formula_units_Z 56
_cell_length_a 21.909085
_cell_length_b 7.921526
_cell_length_c 15.202573
_cell_angle_alpha 90.000000
_cell_angle_beta 90.000000
_cell_angle_gamma 90.000000
_cell_volume 2638.458027
_symmetry_space_group_name_H-M "P M M N"
_symmetry_group_IT_number 59
_space_group.IT_coordinate_system_code '2'
_symmetry_cell_setting 'orthorhombic'
loop_
_space_group_symop_operation_xyz
x,y,z
1/2-x,1/2-y,z
1/2+x,-y,-z
-x,1/2+y,-z
-x,-y,-z
1/2+x,1/2+y,-z
1/2-x,y,z
x,1/2-y,z
loop_
_atom_site_type_symbol
_atom_site_label
_atom_site_fract_x
_atom_site_fract_y
_atom_site_fract_z
Si Si1 0.679667 0.454827 0.244052
Si Si2 0.443730 0.445826 0.221346
Si Si3 0.179421 0.955311 0.555969
Si Si4 0.065162 0.447521 0.867594
Si Si5 0.250000 0.548211 0.067643
Si Si6 0.131167 0.950828 0.376553
Si Si7 0.383962 0.047629 0.045468
Si Si8 0.250000 0.543291 0.269911
O O1 0.750000 0.499837 0.224313
O O2 0.675637 0.250000 0.239872
O O3 0.666041 0.510207 0.344673
O O4 0.630086 0.530619 0.179484
O O5 0.428299 0.250000 0.228075
O O6 0.512742 0.465576 0.189072
O O7 0.427477 0.518812 0.316274
O O8 0.403172 0.521415 0.141181
O O9 0.250000 0.999377 0.535161
O O10 0.177317 0.750000 0.559112
O O11 0.136763 0.015919 0.476317
O O12 0.049516 0.250000 0.872299
O O13 0.073782 0.517308 0.966358
O O14 0.250000 0.750000 0.066861
O O15 0.186631 0.489169 0.026407
O O16 0.250000 0.486862 0.169066
O O17 0.138654 0.750000 0.383171
O O18 0.189483 0.013937 0.320732
O O19 0.391793 0.250000 0.047716
O O20 0.250000 0.750000 0.269175
#
# Coordination Sequence:
#
# PCOD9446299 Si02
#       8
#     8   8   8   8   4   8   8   4
#     4   9  19  37  60  87 115 142 181 232 282 328
#     4  11  23  39  57  80 112 149 186 230 280 329
#     4   8  14  28  55  86 114 146 181 223 275 329
#     4  11  24  41  60  79 105 147 194 234 277 328
#     4  11  21  33  55  88 117 146 184 227 269 323
#     4  10  17  31  56  85 116 148 185 222 268 330
#     4  10  23  40  57  80 114 150 184 228 282 331
#     4   9  16  27  49  82 115 144 178 223 263 313
#
# _framework density 21.224518
#
# number of rings (size 3 to 8) (size 9 to 14) (size 15 to 20)
#    0.000    2.143    2.143    2.357    1.000    2.000 
#    0.000    1.786    0.000    0.857    0.000    0.000 
#    0.000    0.000    0.000    0.000    0.000    0.000 
#
# Total GULP energy -312653.915048 kJ/mol
# GULP energy per Si atom -5583.105626 kJ/mol
# Density = 2.117621 g / cm^3
# Si number density = 21.224518 Si / 1000 Ang^3
#
#
#
# Elastic Constant Matrix: (Units=GPa)
#
#
# Indices 1 2 3 4 5 6 
#
# 1 59.1821 -8.1132 10.6017 0.0000 0.0000 0.0000
# 2 -8.1132 17.0331 2.0030 0.0000 0.0000 0.0000
# 3 10.6017 2.0030 64.3409 0.0000 0.0000 0.0000
# 4 0.0000 0.0000 0.0000 14.5619 0.0000 0.0000
# 5 0.0000 0.0000 0.0000 0.0000 18.1266 0.0000
# 6 0.0000 0.0000 0.0000 0.0000 0.0000 10.5215
#
#
#
# Elastic Compliance Matrix: (Units=1/GPa)
#
#
# Indices 1 2 3 4 5 6 
#
# 1 0.018785 0.009346 -0.003386 0.000000 0.000000 0.000000
# 2 0.009346 0.063575 -0.003519 0.000000 0.000000 0.000000
# 3 -0.003386 -0.003519 0.016210 0.000000 0.000000 0.000000
# 4 0.000000 0.000000 0.000000 0.068673 0.000000 0.000000
# 5 0.000000 0.000000 0.000000 0.000000 0.055168 0.000000
# 6 0.000000 0.000000 0.000000 0.000000 0.000000 0.095043
#
#
# Mechanical properties :
#
#
# Convention : Reuss Voigt Hill
#
# Bulk Modulus (GPa) = 9.66648 16.61544 13.14096
# Shear Modulus (GPa) = 14.40693 17.71295 16.05994
#
# Velocity S-wave (km/s) = 2.60818 2.89199 2.75375
# Velocity P-wave (km/s) = 3.69248 4.35855 4.03927
#
# Compressibility (1/GPa) = 0.10345029
#
# Stress axis : x y z
#
# Youngs Moduli (GPa) = 53.23458 15.72952 61.69138
#
# Poissons Ratio (x) = -0.14700 0.20890
# Poissons Ratio (y) = -0.49752 0.21709
# Poissons Ratio (z) = 0.18026 0.05535
#
# Static dielectric constant tensor:
#      x y z
#    x 1.744690 0.000000 0.000000 
#    y 0.000000 1.770620 0.000000 
#    z 0.000000 0.000000 1.800170 
# 
# From -- ./inp_files/24384.got.cif
#   From: 2010.05.17/outbox.cif.g08.bks.cpg/sg59_13_cif.got.tgz:24384.got - 2010.06.03 14:40:33.
