data_PCOD9446488
_publ_section_title
;
Structure prediction by ZEFSAII (Michael W. Deem and Ramdas Pophale) SiO2 
 PCOD9446488
Probable space group: P M M N
;
_chemical_formula_sum "Si O2"
_cell_formula_units_Z 64
_cell_length_a 7.754808
_cell_length_b 31.689912
_cell_length_c 15.028410
_cell_angle_alpha 90.000000
_cell_angle_beta 90.000000
_cell_angle_gamma 90.000000
_cell_volume 3693.219481
_symmetry_space_group_name_H-M "P M M N"
_symmetry_group_IT_number 59
_space_group.IT_coordinate_system_code '2'
_symmetry_cell_setting 'orthorhombic'
loop_
_space_group_symop_operation_xyz
x,y,z
1/2-x,1/2-y,z
1/2+x,-y,-z
-x,1/2+y,-z
-x,-y,-z
1/2+x,1/2+y,-z
1/2-x,y,z
x,1/2-y,z
loop_
_atom_site_type_symbol
_atom_site_label
_atom_site_fract_x
_atom_site_fract_y
_atom_site_fract_z
Si Si1 0.456891 0.202641 0.642847
Si Si2 0.456761 0.616825 0.430142
Si Si3 0.538990 0.701726 0.153747
Si Si4 0.949627 0.879800 0.063078
Si Si5 0.458691 0.456693 0.053093
Si Si6 0.543602 0.979405 0.752759
Si Si7 0.539869 0.423460 0.755295
Si Si8 0.454709 0.957175 0.554147
O O1 0.250000 0.204069 0.647895
O O2 0.518146 0.250000 0.620961
O O3 0.502163 0.166254 0.573273
O O4 0.517994 0.192493 0.744143
O O5 0.250000 0.613540 0.431313
O O6 0.516170 0.598886 0.335072
O O7 0.524768 0.584773 0.505018
O O8 0.750000 0.699860 0.154021
O O9 0.490707 0.750000 0.133545
O O10 0.475645 0.666545 0.084281
O O11 0.750000 0.873630 0.036726
O O12 0.959515 0.901995 0.159094
O O13 0.025994 0.914641 0.996245
O O14 0.250000 0.454259 0.052851
O O15 0.521029 0.459443 0.155046
O O16 0.500000 0.500000 0.000000
O O17 0.750000 0.980111 0.759930
O O18 0.503572 0.959543 0.657449
O O19 0.486309 0.027948 0.750852
O O20 0.750000 0.421340 0.762232
O O21 0.250000 0.954920 0.550522
O O22 0.500000 0.000000 0.500000
#
# Coordination Sequence:
#
# PCOD9446488 Si02
#       8
#     8   8   8   8   8   8   8   8
#     4   9  17  29  46  69  94 121 154 189 228 278
#     4  10  20  32  45  66  94 123 157 192 232 280
#     4   8  14  25  41  63  92 119 145 184 226 264
#     4  10  18  28  45  69  90 120 163 192 220 274
#     4  10  20  31  46  68  94 122 158 196 232 278
#     4  10  20  35  47  63  95 129 159 199 239 275
#     4  10  18  29  44  63  94 128 153 188 235 273
#     4  11  22  35  50  70  94 124 163 201 236 285
#
# _framework density 17.329053999999999
#
# number of rings (size 3 to 8) (size 9 to 14) (size 15 to 20)
#    0.000    2.250    3.750    1.125    0.000    2.250 
#    0.000    0.000    0.000    0.375    0.000    0.875 
#    0.000    3.000    0.000    0.000    0.000    0.000 
#
# Total GULP energy -356713.469367 kJ/mol
# GULP energy per Si atom -5573.647959 kJ/mol
# Density = 1.728961 g / cm^3
# Si number density = 17.329054 Si / 1000 Ang^3
#
#
#
# Elastic Constant Matrix: (Units=GPa)
#
#
# Indices 1 2 3 4 5 6 
#
# 1 19.1567 0.0634 1.4742 0.0000 0.0000 0.0000
# 2 0.0634 154.2310 72.1429 0.0000 0.0000 0.0000
# 3 1.4742 72.1429 111.8450 0.0000 0.0000 0.0000
# 4 0.0000 0.0000 0.0000 25.0757 0.0000 0.0000
# 5 0.0000 0.0000 0.0000 0.0000 11.8050 0.0000
# 6 0.0000 0.0000 0.0000 0.0000 0.0000 13.5633
#
#
#
# Elastic Compliance Matrix: (Units=1/GPa)
#
#
# Indices 1 2 3 4 5 6 
#
# 1 0.052274 0.000431 -0.000967 0.000000 0.000000 0.000000
# 2 0.000431 0.009289 -0.005997 0.000000 0.000000 0.000000
# 3 -0.000967 -0.005997 0.012822 0.000000 0.000000 0.000000
# 4 0.000000 0.000000 0.000000 0.039879 0.000000 0.000000
# 5 0.000000 0.000000 0.000000 0.000000 0.084710 0.000000
# 6 0.000000 0.000000 0.000000 0.000000 0.000000 0.073728
#
#
# Mechanical properties :
#
#
# Convention : Reuss Voigt Hill
#
# Bulk Modulus (GPa) = 16.30831 48.06596 32.18713
# Shear Modulus (GPa) = 16.32871 24.19226 20.26048
#
# Velocity S-wave (km/s) = 3.07298 3.74043 3.42301
# Velocity P-wave (km/s) = 4.69279 6.81556 5.85125
#
# Compressibility (1/GPa) = 0.06131843
#
# Stress axis : x y z
#
# Youngs Moduli (GPa) = 19.12991 107.65574 77.99056
#
# Poissons Ratio (x) = -0.04638 0.07541
# Poissons Ratio (y) = -0.00824 0.46773
# Poissons Ratio (z) = 0.01850 0.64564
#
# Static dielectric constant tensor:
#      x y z
#    x 1.653520 0.000000 0.000000 
#    y 0.000000 1.628520 0.000000 
#    z 0.000000 0.000000 1.562920 
# 
# From -- ./inp_files/21919.got.cif
#   From: 2010.05.17/outbox.cif.g08.bks.cpg/sg59_11_cif.got.tgz:21919.got - 2010.06.03 14:40:33.
