data_PCOD9446848
_publ_section_title
;
Structure prediction by ZEFSAII (Michael W. Deem and Ramdas Pophale) SiO2 
 PCOD9446848
Probable space group: P M M N
;
_chemical_formula_sum "Si O2"
_cell_formula_units_Z 48
_cell_length_a 14.514009
_cell_length_b 14.393400
_cell_length_c 12.210864
_cell_angle_alpha 90.000000
_cell_angle_beta 90.000000
_cell_angle_gamma 90.000000
_cell_volume 2550.921987
_symmetry_space_group_name_H-M "P M M N"
_symmetry_group_IT_number 59
_space_group.IT_coordinate_system_code '2'
_symmetry_cell_setting 'orthorhombic'
loop_
_space_group_symop_operation_xyz
x,y,z
1/2-x,1/2-y,z
1/2+x,-y,-z
-x,1/2+y,-z
-x,-y,-z
1/2+x,1/2+y,-z
1/2-x,y,z
x,1/2-y,z
loop_
_atom_site_type_symbol
_atom_site_label
_atom_site_fract_x
_atom_site_fract_y
_atom_site_fract_z
Si Si1 0.750000 0.857872 0.095705
Si Si2 0.012110 0.153744 0.385273
Si Si3 0.149855 0.909430 0.473167
Si Si4 0.057558 0.141234 0.802210
Si Si5 0.412534 0.999982 0.249452
Si Si6 0.146060 0.386727 0.570243
Si Si7 0.750000 0.862192 0.833545
O O1 0.750000 0.750000 0.131961
O O2 0.652226 0.894488 0.140809
O O3 0.750000 0.861154 0.965055
O O4 0.005747 0.250000 0.322510
O O5 0.932586 0.147536 0.475471
O O6 0.012190 0.066059 0.307140
O O7 0.105143 0.151023 0.456903
O O8 0.250000 0.865444 0.482567
O O9 0.132900 0.940956 0.348392
O O10 0.148857 0.003770 0.544998
O O11 0.040958 0.250000 0.831836
O O12 0.082034 0.137273 0.672619
O O13 0.969929 0.074028 0.822763
O O14 0.337923 0.074364 0.203677
O O15 0.250000 0.355529 0.592142
O O16 0.750000 0.750000 0.799518
#
# Coordination Sequence:
#
# PCOD9446848 Si02
#       7
#     4   8   8   8   8   8   4
#     4   9  22  40  61  92 113 134 187 244 296 348
#     4  11  21  32  49  80 117 155 193 228 271 327
#     4  10  19  33  50  73 114 155 186 232 264 325
#     4  11  20  34  59  87 116 149 186 237 289 335
#     4  11  21  38  56  84 116 149 196 230 279 345
#     4  10  18  30  50  76 111 148 185 231 276 323
#     4  11  24  44  64  82 111 144 184 248 301 342
#
# _framework density 18.816725000000002
#
# number of rings (size 3 to 8) (size 9 to 14) (size 15 to 20)
#    0.000    1.500    5.000    2.000    1.167    2.000 
#    0.000    0.417    0.000    0.000    0.000    2.333 
#    0.000    0.000    0.000    0.000    0.000    0.000 
#
# Total GULP energy -267350.169478 kJ/mol
# GULP energy per Si atom -5569.795197 kJ/mol
# Density = 1.877390 g / cm^3
# Si number density = 18.816725 Si / 1000 Ang^3
#
#
#
# Elastic Constant Matrix: (Units=GPa)
#
#
# Indices 1 2 3 4 5 6 
#
# 1 113.0658 49.6896 15.8252 0.0000 0.0000 0.0000
# 2 49.6896 100.1519 11.9852 0.0000 0.0000 0.0000
# 3 15.8252 11.9852 38.6284 0.0000 0.0000 0.0000
# 4 0.0000 0.0000 0.0000 16.5707 0.0000 0.0000
# 5 0.0000 0.0000 0.0000 0.0000 17.5472 0.0000
# 6 0.0000 0.0000 0.0000 0.0000 0.0000 9.8599
#
#
#
# Elastic Compliance Matrix: (Units=1/GPa)
#
#
# Indices 1 2 3 4 5 6 
#
# 1 0.011657 -0.005413 -0.003096 0.000000 0.000000 0.000000
# 2 -0.005413 0.012883 -0.001780 0.000000 0.000000 0.000000
# 3 -0.003096 -0.001780 0.027708 0.000000 0.000000 0.000000
# 4 0.000000 0.000000 0.000000 0.060348 0.000000 0.000000
# 5 0.000000 0.000000 0.000000 0.000000 0.056989 0.000000
# 6 0.000000 0.000000 0.000000 0.000000 0.000000 0.101421
#
#
# Mechanical properties :
#
#
# Convention : Reuss Voigt Hill
#
# Bulk Modulus (GPa) = 31.57468 45.20513 38.38990
# Shear Modulus (GPa) = 16.54864 20.41864 18.48364
#
# Velocity S-wave (km/s) = 2.96879 3.29771 3.13756
# Velocity P-wave (km/s) = 5.34492 6.21095 5.79414
#
# Compressibility (1/GPa) = 0.03167094
#
# Stress axis : x y z
#
# Youngs Moduli (GPa) = 85.78893 77.61966 36.09031
#
# Poissons Ratio (x) = 0.42014 0.11173
# Poissons Ratio (y) = 0.46436 0.06423
# Poissons Ratio (z) = 0.26560 0.13815
#
# Static dielectric constant tensor:
#      x y z
#    x 1.707990 0.000000 0.000000 
#    y 0.000000 1.720470 0.000000 
#    z 0.000000 0.000000 1.623430 
# 
# From -- ./inp_files/16869.got.cif
#   From: 2010.05.17/outbox.cif.g08.bks.cpg/sg59_9_cif.got.tgz:16869.got - 2010.06.03 14:40:33.
