data_PCOD9446602
_publ_section_title
;
Structure prediction by ZEFSAII (Michael W. Deem and Ramdas Pophale) SiO2 
 PCOD9446602
Probable space group: P M M N
;
_chemical_formula_sum "Si O2"
_cell_formula_units_Z 64
_cell_length_a 8.722002
_cell_length_b 22.281001
_cell_length_c 19.698721
_cell_angle_alpha 90.000000
_cell_angle_beta 90.000000
_cell_angle_gamma 90.000000
_cell_volume 3828.149671
_symmetry_space_group_name_H-M "P M M N"
_symmetry_group_IT_number 59
_space_group.IT_coordinate_system_code '2'
_symmetry_cell_setting 'orthorhombic'
loop_
_space_group_symop_operation_xyz
x,y,z
1/2-x,1/2-y,z
1/2+x,-y,-z
-x,1/2+y,-z
-x,-y,-z
1/2+x,1/2+y,-z
1/2-x,y,z
x,1/2-y,z
loop_
_atom_site_type_symbol
_atom_site_label
_atom_site_fract_x
_atom_site_fract_y
_atom_site_fract_z
Si Si1 0.434185 0.558265 0.961562
Si Si2 0.926715 0.680901 0.201591
Si Si3 0.433709 0.681850 0.475016
Si Si4 0.430883 0.608289 0.096166
Si Si5 0.566383 0.872131 0.342780
Si Si6 0.433894 0.993218 0.825475
Si Si7 0.431906 0.000034 0.324028
Si Si8 0.932472 0.559449 0.537718
O O1 0.250000 0.553679 0.959580
O O2 0.482554 0.555713 0.882992
O O3 0.500000 0.500000 0.000000
O O4 0.475125 0.608907 0.016624
O O5 0.750000 0.663704 0.187705
O O6 0.929143 0.750000 0.220680
O O7 0.982331 0.644481 0.266652
O O8 0.025567 0.667725 0.135826
O O9 0.250000 0.679264 0.478744
O O10 0.481368 0.750000 0.495940
O O11 0.488426 0.670106 0.397986
O O12 0.500013 0.623404 0.513933
O O13 0.250000 0.596085 0.100419
O O14 0.516221 0.555677 0.138555
O O15 0.750000 0.866116 0.347406
O O16 0.516024 0.940597 0.351701
O O17 0.250000 0.992940 0.817282
O O18 0.508192 0.986368 0.751632
O O19 0.250000 0.988195 0.320952
O O20 0.458444 0.049909 0.381685
O O21 0.750000 0.559829 0.524684
O O22 0.000000 0.500000 0.500000
#
# Coordination Sequence:
#
# PCOD9446602 Si02
#       8
#     8   8   8   8   8   8   8   8
#     4   8  16  28  43  66  93 122 158 196 237 288
#     4  10  21  34  46  65  96 134 176 215 250 299
#     4  11  24  40  58  81 109 140 179 226 270 319
#     4  10  18  29  46  67  94 128 165 208 252 294
#     4  11  21  34  54  75 101 141 181 217 258 311
#     4  10  18  30  48  70  98 131 164 200 248 307
#     4  11  22  34  51  78 108 137 172 217 265 313
#     4  11  23  38  58  80 108 142 179 223 271 325
#
# _framework density 16.718259
#
# number of rings (size 3 to 8) (size 9 to 14) (size 15 to 20)
#    0.000    1.750    2.500    2.625    0.000    4.750 
#    0.000    0.000    0.000    0.000    0.000    0.875 
#    0.000    1.000    0.000    0.000    0.000    0.000 
#
# Total GULP energy -356602.575630 kJ/mol
# GULP energy per Si atom -5571.915244 kJ/mol
# Density = 1.668021 g / cm^3
# Si number density = 16.718259 Si / 1000 Ang^3
#
#
#
# Elastic Constant Matrix: (Units=GPa)
#
#
# Indices 1 2 3 4 5 6 
#
# 1 39.6820 25.5156 26.7069 0.0000 0.0000 0.0000
# 2 25.5156 79.4627 38.1968 0.0000 0.0000 0.0000
# 3 26.7069 38.1968 92.8663 0.0000 0.0000 0.0000
# 4 0.0000 0.0000 0.0000 19.8049 0.0000 0.0000
# 5 0.0000 0.0000 0.0000 0.0000 23.0523 0.0000
# 6 0.0000 0.0000 0.0000 0.0000 0.0000 21.2923
#
#
#
# Elastic Compliance Matrix: (Units=1/GPa)
#
#
# Indices 1 2 3 4 5 6 
#
# 1 0.034856 -0.007945 -0.006756 0.000000 0.000000 0.000000
# 2 -0.007945 0.017497 -0.004912 0.000000 0.000000 0.000000
# 3 -0.006756 -0.004912 0.014731 0.000000 0.000000 0.000000
# 4 0.000000 0.000000 0.000000 0.050493 0.000000 0.000000
# 5 0.000000 0.000000 0.000000 0.000000 0.043380 0.000000
# 6 0.000000 0.000000 0.000000 0.000000 0.000000 0.046965
#
#
# Mechanical properties :
#
#
# Convention : Reuss Voigt Hill
#
# Bulk Modulus (GPa) = 35.89568 43.64999 39.77284
# Shear Modulus (GPa) = 19.49826 20.93600 20.21713
#
# Velocity S-wave (km/s) = 3.41880 3.54260 3.48125
# Velocity P-wave (km/s) = 6.09112 6.54975 6.32459
#
# Compressibility (1/GPa) = 0.02785850
#
# Stress axis : x y z
#
# Youngs Moduli (GPa) = 28.68956 57.15402 67.88200
#
# Poissons Ratio (x) = 0.45407 0.45863
# Poissons Ratio (y) = 0.22793 0.33342
# Poissons Ratio (z) = 0.19384 0.28073
#
# Static dielectric constant tensor:
#      x y z
#    x 1.576070 0.000000 0.000000 
#    y 0.000000 1.574620 0.000000 
#    z 0.000000 0.000000 1.604680 
# 
# From -- ./inp_files/29739.got.cif
#   From: 2010.05.17/outbox.cif.g08.bks.cpg/sg59_15_cif.got.tgz:29739.got - 2010.06.03 14:40:33.
