data_PCOD9446366
_publ_section_title
;
Structure prediction by ZEFSAII (Michael W. Deem and Ramdas Pophale) SiO2 
 PCOD9446366
Probable space group: P M M N
;
_chemical_formula_sum "Si O2"
_cell_formula_units_Z 64
_cell_length_a 26.985501
_cell_length_b 8.859054
_cell_length_c 19.069122
_cell_angle_alpha 90.000000
_cell_angle_beta 90.000000
_cell_angle_gamma 90.000000
_cell_volume 4558.778922
_symmetry_space_group_name_H-M "P M M N"
_symmetry_group_IT_number 59
_space_group.IT_coordinate_system_code '2'
_symmetry_cell_setting 'orthorhombic'
loop_
_space_group_symop_operation_xyz
x,y,z
1/2-x,1/2-y,z
1/2+x,-y,-z
-x,1/2+y,-z
-x,-y,-z
1/2+x,1/2+y,-z
1/2-x,y,z
x,1/2-y,z
loop_
_atom_site_type_symbol
_atom_site_label
_atom_site_fract_x
_atom_site_fract_y
_atom_site_fract_z
Si Si1 0.506469 0.931541 0.332354
Si Si2 0.394067 0.568770 0.912519
Si Si3 0.107439 0.068969 0.584090
Si Si4 0.487771 0.432549 0.829507
Si Si5 0.192184 0.430228 0.824906
Si Si6 0.046551 0.931221 0.041200
Si Si7 0.045482 0.430661 0.455941
Si Si8 0.192452 0.930050 0.673848
O O1 0.502133 0.750000 0.336651
O O2 0.559401 0.971526 0.368042
O O3 0.506315 0.977237 0.251219
O O4 0.462835 0.004122 0.378698
O O5 0.456038 0.750000 0.037578
O O6 0.439492 0.507094 0.864887
O O7 0.343952 0.499779 0.882429
O O8 0.406610 0.524743 0.993363
O O9 0.113449 0.250000 0.589100
O O10 0.093118 0.031144 0.503674
O O11 0.155349 0.988961 0.614860
O O12 0.481218 0.250000 0.831428
O O13 0.535397 0.471957 0.878157
O O14 0.250000 0.467541 0.837343
O O15 0.186860 0.250000 0.823476
O O16 0.178701 0.495313 0.748358
O O17 0.107373 0.750000 0.907474
O O18 0.000000 0.000000 0.000000
O O19 0.041150 0.250000 0.454817
O O20 0.000000 0.500000 0.500000
O O21 0.250000 0.969399 0.659496
O O22 0.188854 0.750000 0.680416
#
# Coordination Sequence:
#
# PCOD9446366 Si02
#       8
#     8   8   8   8   8   8   8   8
#     4   9  17  27  40  59  81 106 136 165 194 231
#     4  10  18  27  41  60  81 106 137 170 202 234
#     4   9  17  28  41  58  80 108 138 162 192 236
#     4   9  16  27  42  59  83 112 138 163 193 236
#     4  10  20  32  44  57  76 105 138 169 202 240
#     4   8  15  26  39  57  80 106 134 163 195 231
#     4   9  17  28  41  57  78 103 132 165 197 232
#     4  10  20  31  43  61  82 103 131 168 204 234
#
# _framework density 14.038845999999999
#
# number of rings (size 3 to 8) (size 9 to 14) (size 15 to 20)
#    0.000    2.750    0.000    3.000    0.000    6.000 
#    0.000    0.000    0.000    0.000    0.000    0.000 
#    0.000    1.000    0.000    5.000    0.000    3.500 
#
# Total GULP energy -356277.601840 kJ/mol
# GULP energy per Si atom -5566.837529 kJ/mol
# Density = 1.400689 g / cm^3
# Si number density = 14.038846 Si / 1000 Ang^3
#
#
#
# Elastic Constant Matrix: (Units=GPa)
#
#
# Indices 1 2 3 4 5 6 
#
# 1 57.5364 23.0505 37.3514 0.0000 0.0000 0.0000
# 2 23.0505 21.3898 23.9811 0.0000 0.0000 0.0000
# 3 37.3514 23.9811 91.8028 0.0000 0.0000 0.0000
# 4 0.0000 0.0000 0.0000 18.5946 0.0000 0.0000
# 5 0.0000 0.0000 0.0000 0.0000 28.1746 0.0000
# 6 0.0000 0.0000 0.0000 0.0000 0.0000 20.8347
#
#
#
# Elastic Compliance Matrix: (Units=1/GPa)
#
#
# Indices 1 2 3 4 5 6 
#
# 1 0.032620 -0.028669 -0.005783 0.000000 0.000000 0.000000
# 2 -0.028669 0.091312 -0.012188 0.000000 0.000000 0.000000
# 3 -0.005783 -0.012188 0.016430 0.000000 0.000000 0.000000
# 4 0.000000 0.000000 0.000000 0.053779 0.000000 0.000000
# 5 0.000000 0.000000 0.000000 0.000000 0.035493 0.000000
# 6 0.000000 0.000000 0.000000 0.000000 0.000000 0.047997
#
#
# Mechanical properties :
#
#
# Convention : Reuss Voigt Hill
#
# Bulk Modulus (GPa) = 21.24028 37.72166 29.48097
# Shear Modulus (GPa) = 12.93312 19.27719 16.10515
#
# Velocity S-wave (km/s) = 3.03848 3.70960 3.39069
# Velocity P-wave (km/s) = 5.24141 6.72874 6.03110
#
# Compressibility (1/GPa) = 0.04708035
#
# Stress axis : x y z
#
# Youngs Moduli (GPa) = 30.65596 10.95151 60.86572
#
# Poissons Ratio (x) = 0.31397 0.35198
# Poissons Ratio (y) = 0.87889 0.74185
# Poissons Ratio (z) = 0.17728 0.13348
#
# Static dielectric constant tensor:
#      x y z
#    x 1.450880 0.000000 0.000000 
#    y 0.000000 1.470100 0.000000 
#    z 0.000000 0.000000 1.487410 
# 
# From -- ./inp_files/28520.got.cif
#   From: 2010.05.17/outbox.cif.g08.bks.cpg/sg59_15_cif.got.tgz:28520.got - 2010.06.03 14:40:33.
