data_PCOD9446167
_publ_section_title
;
Structure prediction by ZEFSAII (Michael W. Deem and Ramdas Pophale) SiO2 
 PCOD9446167
Probable space group: P M M N
;
_chemical_formula_sum "Si O2"
_cell_formula_units_Z 56
_cell_length_a 29.815811
_cell_length_b 7.426788
_cell_length_c 13.876726
_cell_angle_alpha 90.000000
_cell_angle_beta 90.000000
_cell_angle_gamma 90.000000
_cell_volume 3072.802637
_symmetry_space_group_name_H-M "P M M N"
_symmetry_group_IT_number 59
_space_group.IT_coordinate_system_code '2'
_symmetry_cell_setting 'orthorhombic'
loop_
_space_group_symop_operation_xyz
x,y,z
1/2-x,1/2-y,z
1/2+x,-y,-z
-x,1/2+y,-z
-x,-y,-z
1/2+x,1/2+y,-z
1/2-x,y,z
x,1/2-y,z
loop_
_atom_site_type_symbol
_atom_site_label
_atom_site_fract_x
_atom_site_fract_y
_atom_site_fract_z
Si Si1 0.300470 0.032147 0.018128
Si Si2 0.032375 0.029360 0.796976
Si Si3 0.112725 0.044491 0.912493
Si Si4 0.106074 0.531187 0.297302
Si Si5 0.943856 0.033233 0.901899
Si Si6 0.799560 0.037157 0.755404
Si Si7 0.481982 0.964962 0.394057
O O1 0.250000 0.974153 0.991580
O O2 0.301571 0.250000 0.015761
O O3 0.307921 0.980811 0.129706
O O4 0.340614 0.963867 0.950473
O O5 0.033188 0.250000 0.797955
O O6 0.081335 0.964816 0.829028
O O7 0.994317 0.976113 0.874990
O O8 0.014322 0.970728 0.692556
O O9 0.122896 0.250000 0.884076
O O10 0.079781 0.046045 0.005078
O O11 0.108109 0.750000 0.302458
O O12 0.085388 0.488162 0.192593
O O13 0.156997 0.463872 0.299751
O O14 0.068647 0.468862 0.373256
O O15 0.943548 0.250000 0.912356
O O16 0.750000 0.960785 0.735661
O O17 0.797430 0.250000 0.735173
O O18 0.480216 0.750000 0.381982
O O19 0.500000 0.000000 0.500000
#
# Coordination Sequence:
#
# PCOD9446167 Si02
#       7
#     8   8   8   8   8   8   8
#     4   9  17  26  35  52  81 112 138 167 198 221
#     4   8  16  28  41  57  78 105 131 158 198 242
#     4  10  17  25  38  56  79 108 139 163 187 226
#     4   8  14  25  40  58  81 107 129 157 202 241
#     4   9  15  25  39  55  80 109 132 155 192 231
#     4   9  15  24  40  59  78 105 141 167 185 228
#     4   9  17  31  47  60  78 102 130 167 208 249
#
# _framework density 18.224404
#
# number of rings (size 3 to 8) (size 9 to 14) (size 15 to 20)
#    0.000    3.143    1.429    2.143    0.000    0.000 
#    0.000    4.286    0.000    0.000    0.000    1.000 
#    0.000    1.143    0.000    0.000    0.000    0.000 
#
# Total GULP energy -312034.519088 kJ/mol
# GULP energy per Si atom -5572.044984 kJ/mol
# Density = 1.818292 g / cm^3
# Si number density = 18.224404 Si / 1000 Ang^3
#
#
#
# Elastic Constant Matrix: (Units=GPa)
#
#
# Indices 1 2 3 4 5 6 
#
# 1 183.7129 2.9405 71.0899 0.0000 0.0000 0.0000
# 2 2.9405 57.3425 -0.9298 0.0000 0.0000 0.0000
# 3 71.0899 -0.9298 69.1367 0.0000 0.0000 0.0000
# 4 0.0000 0.0000 0.0000 16.3357 0.0000 0.0000
# 5 0.0000 0.0000 0.0000 0.0000 22.6563 0.0000
# 6 0.0000 0.0000 0.0000 0.0000 0.0000 4.1135
#
#
#
# Elastic Compliance Matrix: (Units=1/GPa)
#
#
# Indices 1 2 3 4 5 6 
#
# 1 0.009062 -0.000616 -0.009326 0.000000 0.000000 0.000000
# 2 -0.000616 0.017485 0.000868 0.000000 0.000000 0.000000
# 3 -0.009326 0.000868 0.024066 0.000000 0.000000 0.000000
# 4 0.000000 0.000000 0.000000 0.061216 0.000000 0.000000
# 5 0.000000 0.000000 0.000000 0.000000 0.044138 0.000000
# 6 0.000000 0.000000 0.000000 0.000000 0.000000 0.243101
#
#
# Mechanical properties :
#
#
# Convention : Reuss Voigt Hill
#
# Bulk Modulus (GPa) = 30.80261 50.71035 40.75648
# Shear Modulus (GPa) = 11.68125 24.42721 18.05423
#
# Velocity S-wave (km/s) = 2.53448 3.66506 3.15089
# Velocity P-wave (km/s) = 5.05008 6.76729 5.97074
#
# Compressibility (1/GPa) = 0.03246478
#
# Stress axis : x y z
#
# Youngs Moduli (GPa) = 110.34982 57.19275 41.55299
#
# Poissons Ratio (x) = 0.03523 0.38754
# Poissons Ratio (y) = 0.06797 -0.03609
# Poissons Ratio (z) = 1.02917 -0.04967
#
# Static dielectric constant tensor:
#      x y z
#    x 1.691260 0.000000 0.000000 
#    y 0.000000 1.698960 0.000000 
#    z 0.000000 0.000000 1.592630 
# 
# From -- ./inp_files/18965.got.cif
#   From: 2010.05.17/outbox.cif.g08.bks.cpg/sg59_10_cif.got.tgz:18965.got - 2010.06.03 14:40:33.
