data_PCOD9446659
_publ_section_title
;
Structure prediction by ZEFSAII (Michael W. Deem and Ramdas Pophale) SiO2 
 PCOD9446659
Probable space group: P M M N
;
_chemical_formula_sum "Si O2"
_cell_formula_units_Z 56
_cell_length_a 13.937519
_cell_length_b 14.291546
_cell_length_c 15.827558
_cell_angle_alpha 90.000000
_cell_angle_beta 90.000000
_cell_angle_gamma 90.000000
_cell_volume 3152.670606
_symmetry_space_group_name_H-M "P M M N"
_symmetry_group_IT_number 59
_space_group.IT_coordinate_system_code '2'
_symmetry_cell_setting 'orthorhombic'
loop_
_space_group_symop_operation_xyz
x,y,z
1/2-x,1/2-y,z
1/2+x,-y,-z
-x,1/2+y,-z
-x,-y,-z
1/2+x,1/2+y,-z
1/2-x,y,z
x,1/2-y,z
loop_
_atom_site_type_symbol
_atom_site_label
_atom_site_fract_x
_atom_site_fract_y
_atom_site_fract_z
Si Si1 0.863394 0.463921 0.177153
Si Si2 0.513984 0.359374 0.514056
Si Si3 0.636385 0.642823 0.745821
Si Si4 0.362152 0.856908 0.656860
Si Si5 0.863304 0.641591 0.081030
Si Si6 0.978980 0.638104 0.913998
Si Si7 0.135745 0.477974 0.422091
O O1 0.750000 0.446192 0.171197
O O2 0.893177 0.425958 0.268731
O O3 0.881252 0.572733 0.158984
O O4 0.919730 0.408701 0.104697
O O5 0.503275 0.250000 0.537199
O O6 0.573882 0.363321 0.426134
O O7 0.577632 0.424465 0.575357
O O8 0.414074 0.411991 0.493349
O O9 0.750000 0.645140 0.762077
O O10 0.606153 0.750000 0.724155
O O11 0.584769 0.613725 0.831877
O O12 0.621156 0.575770 0.666380
O O13 0.250000 0.874275 0.635786
O O14 0.368434 0.750000 0.689556
O O15 0.750000 0.634344 0.058914
O O16 0.883087 0.750000 0.100061
O O17 0.926341 0.611858 0.000521
O O18 0.988155 0.750000 0.914929
O O19 0.250000 0.489991 0.435613
#
# Coordination Sequence:
#
# PCOD9446659 Si02
#       7
#     8   8   8   8   8   8   8
#     4  10  19  29  44  68  96 123 151 188 232 275
#     4  10  20  34  52  73  98 129 163 198 239 287
#     4   9  17  30  50  75  99 122 151 192 241 284
#     4   9  17  30  49  72  95 119 152 194 236 279
#     4   9  18  32  48  66  89 119 156 193 227 269
#     4  10  18  29  48  71  94 120 151 189 233 279
#     4  10  20  32  49  75 102 127 158 199 244 287
#
# _framework density 17.762719000000001
#
# number of rings (size 3 to 8) (size 9 to 14) (size 15 to 20)
#    0.000    2.429    0.000    3.000    0.000    6.571 
#    0.000    0.000    0.000    8.571    0.000   10.000 
#    0.000    9.143    0.000    0.000    0.000    0.000 
#
# Total GULP energy -312325.514646 kJ/mol
# GULP energy per Si atom -5577.241333 kJ/mol
# Density = 1.772229 g / cm^3
# Si number density = 17.762719 Si / 1000 Ang^3
#
#
#
# Elastic Constant Matrix: (Units=GPa)
#
#
# Indices 1 2 3 4 5 6 
#
# 1 48.8779 12.7251 5.0784 0.0000 0.0000 0.0000
# 2 12.7251 65.1315 29.7762 0.0000 0.0000 0.0000
# 3 5.0784 29.7762 44.4922 0.0000 0.0000 0.0000
# 4 0.0000 0.0000 0.0000 22.1411 0.0000 0.0000
# 5 0.0000 0.0000 0.0000 0.0000 19.6360 0.0000
# 6 0.0000 0.0000 0.0000 0.0000 0.0000 17.6473
#
#
#
# Elastic Compliance Matrix: (Units=1/GPa)
#
#
# Indices 1 2 3 4 5 6 
#
# 1 0.021564 -0.004449 0.000516 0.000000 0.000000 0.000000
# 2 -0.004449 0.023040 -0.014912 0.000000 0.000000 0.000000
# 3 0.000516 -0.014912 0.032396 0.000000 0.000000 0.000000
# 4 0.000000 0.000000 0.000000 0.045165 0.000000 0.000000
# 5 0.000000 0.000000 0.000000 0.000000 0.050927 0.000000
# 6 0.000000 0.000000 0.000000 0.000000 0.000000 0.056666
#
#
# Mechanical properties :
#
#
# Convention : Reuss Voigt Hill
#
# Bulk Modulus (GPa) = 25.43795 28.18455 26.81125
# Shear Modulus (GPa) = 17.82211 19.27966 18.55088
#
# Velocity S-wave (km/s) = 3.17100 3.29812 3.23518
# Velocity P-wave (km/s) = 5.26868 5.51408 5.39278
#
# Compressibility (1/GPa) = 0.03931135
#
# Stress axis : x y z
#
# Youngs Moduli (GPa) = 46.37407 43.40295 30.86761
#
# Poissons Ratio (x) = 0.19310 -0.01593
# Poissons Ratio (y) = 0.20632 0.46028
# Poissons Ratio (z) = -0.02394 0.64720
#
# Static dielectric constant tensor:
#      x y z
#    x 1.636330 0.000000 0.000000 
#    y 0.000000 1.623960 0.000000 
#    z 0.000000 0.000000 1.586650 
# 
# From -- ./inp_files/27694.got.cif
#   From: 2010.05.17/outbox.cif.g08.bks.cpg/sg59_14_cif.got.tgz:27694.got - 2010.06.03 14:40:33.
