data_PCOD9446901
_publ_section_title
;
Structure prediction by ZEFSAII (Michael W. Deem and Ramdas Pophale) SiO2 
 PCOD9446901
Probable space group: P M M N
;
_chemical_formula_sum "Si O2"
_cell_formula_units_Z 56
_cell_length_a 8.830000
_cell_length_b 27.019699
_cell_length_c 14.863443
_cell_angle_alpha 90.000000
_cell_angle_beta 90.000000
_cell_angle_gamma 90.000000
_cell_volume 3546.178825
_symmetry_space_group_name_H-M "P M M N"
_symmetry_group_IT_number 59
_space_group.IT_coordinate_system_code '2'
_symmetry_cell_setting 'orthorhombic'
loop_
_space_group_symop_operation_xyz
x,y,z
1/2-x,1/2-y,z
1/2+x,-y,-z
-x,1/2+y,-z
-x,-y,-z
1/2+x,1/2+y,-z
1/2-x,y,z
x,1/2-y,z
loop_
_atom_site_type_symbol
_atom_site_label
_atom_site_fract_x
_atom_site_fract_y
_atom_site_fract_z
Si Si1 0.567130 0.932766 0.570112
Si Si2 0.931751 0.391018 0.975637
Si Si3 0.430422 0.435601 0.808815
Si Si4 0.569012 0.046296 0.618769
Si Si5 0.067855 0.693791 0.885738
Si Si6 0.926886 0.963280 0.882118
Si Si7 0.573699 0.626397 0.739729
O O1 0.750000 0.930618 0.561358
O O2 0.490437 0.929293 0.473091
O O3 0.518510 0.891534 0.642228
O O4 0.531197 0.987607 0.609047
O O5 0.750000 0.392728 0.970989
O O6 0.979375 0.342657 0.032880
O O7 0.992144 0.437768 0.033308
O O8 0.002497 0.395023 0.877067
O O9 0.250000 0.434832 0.810336
O O10 0.491841 0.432158 0.707526
O O11 0.491959 0.487822 0.847230
O O12 0.750000 0.050248 0.626115
O O13 0.250000 0.694201 0.886138
O O14 0.013088 0.750000 0.895434
O O15 0.013686 0.668772 0.793116
O O16 0.750000 0.973431 0.901872
O O17 0.932972 0.922278 0.803137
O O18 0.750000 0.640502 0.732329
#
# Coordination Sequence:
#
# PCOD9446901 Si02
#       7
#     8   8   8   8   8   8   8
#     4   9  17  31  46  67  96 127 161 198 234 273
#     4  10  20  33  48  67  92 124 158 195 241 289
#     4  12  22  31  44  65  94 130 166 200 234 276
#     4  10  19  31  46  66  94 130 166 200 231 271
#     4   9  19  35  53  74  97 120 153 198 244 291
#     4  10  18  31  46  65  94 127 162 198 232 276
#     4   9  17  30  49  71  97 127 159 195 237 284
#
# _framework density 15.791646
#
# number of rings (size 3 to 8) (size 9 to 14) (size 15 to 20)
#    0.000    2.143    1.429    3.000    0.000    2.571 
#    0.000    0.000    0.000    0.000    0.000    1.000 
#    0.000    5.714    0.000    0.000    0.000    0.000 
#
# Total GULP energy -312428.105430 kJ/mol
# GULP energy per Si atom -5579.073311 kJ/mol
# Density = 1.575570 g / cm^3
# Si number density = 15.791646 Si / 1000 Ang^3
#
#
#
# Elastic Constant Matrix: (Units=GPa)
#
#
# Indices 1 2 3 4 5 6 
#
# 1 62.6675 24.9987 50.2197 0.0000 0.0000 0.0000
# 2 24.9987 69.6112 49.4405 0.0000 0.0000 0.0000
# 3 50.2197 49.4405 142.9185 0.0000 0.0000 0.0000
# 4 0.0000 0.0000 0.0000 12.1954 0.0000 0.0000
# 5 0.0000 0.0000 0.0000 0.0000 29.0511 0.0000
# 6 0.0000 0.0000 0.0000 0.0000 0.0000 16.3286
#
#
#
# Elastic Compliance Matrix: (Units=1/GPa)
#
#
# Indices 1 2 3 4 5 6 
#
# 1 0.022772 -0.003307 -0.006858 0.000000 0.000000 0.000000
# 2 -0.003307 0.019525 -0.005592 0.000000 0.000000 0.000000
# 3 -0.006858 -0.005592 0.011341 0.000000 0.000000 0.000000
# 4 0.000000 0.000000 0.000000 0.081998 0.000000 0.000000
# 5 0.000000 0.000000 0.000000 0.000000 0.034422 0.000000
# 6 0.000000 0.000000 0.000000 0.000000 0.000000 0.061242
#
#
# Mechanical properties :
#
#
# Convention : Reuss Voigt Hill
#
# Bulk Modulus (GPa) = 45.19999 58.27944 51.73971
# Shear Modulus (GPa) = 18.50549 21.55091 20.02820
#
# Velocity S-wave (km/s) = 3.42695 3.69820 3.56515
# Velocity P-wave (km/s) = 6.65909 7.43108 7.05565
#
# Compressibility (1/GPa) = 0.02212390
#
# Stress axis : x y z
#
# Youngs Moduli (GPa) = 43.91341 51.21627 88.17361
#
# Poissons Ratio (x) = 0.16939 0.60467
# Poissons Ratio (y) = 0.14523 0.49309
# Poissons Ratio (z) = 0.30115 0.28641
#
# Static dielectric constant tensor:
#      x y z
#    x 1.528710 0.000000 0.000000 
#    y 0.000000 1.514510 0.000000 
#    z 0.000000 0.000000 1.542480 
# 
# From -- ./inp_files/21766.got.cif
#   From: 2010.05.17/outbox.cif.g08.bks.cpg/sg59_11_cif.got.tgz:21766.got - 2010.06.03 14:40:33.
