data_PCOD9446829
_publ_section_title
;
Structure prediction by ZEFSAII (Michael W. Deem and Ramdas Pophale) SiO2 
 PCOD9446829
Probable space group: P M M N
;
_chemical_formula_sum "Si O2"
_cell_formula_units_Z 56
_cell_length_a 7.570770
_cell_length_b 18.756139
_cell_length_c 19.765130
_cell_angle_alpha 90.000000
_cell_angle_beta 90.000000
_cell_angle_gamma 90.000000
_cell_volume 2806.617122
_symmetry_space_group_name_H-M "P M M N"
_symmetry_group_IT_number 59
_space_group.IT_coordinate_system_code '2'
_symmetry_cell_setting 'orthorhombic'
loop_
_space_group_symop_operation_xyz
x,y,z
1/2-x,1/2-y,z
1/2+x,-y,-z
-x,1/2+y,-z
-x,-y,-z
1/2+x,1/2+y,-z
1/2-x,y,z
x,1/2-y,z
loop_
_atom_site_type_symbol
_atom_site_label
_atom_site_fract_x
_atom_site_fract_y
_atom_site_fract_z
Si Si1 0.047998 0.384045 0.275362
Si Si2 0.463482 0.424594 0.417560
Si Si3 0.033786 0.330315 0.700609
Si Si4 0.033608 0.327890 0.135040
Si Si5 0.959891 0.976268 0.924412
Si Si6 0.038825 0.408576 0.567000
Si Si7 0.044900 0.034446 0.783906
O O1 0.250000 0.359131 0.282471
O O2 0.967950 0.385943 0.350210
O O3 0.971101 0.340905 0.212232
O O4 0.048601 0.466009 0.249052
O O5 0.250000 0.418688 0.416956
O O6 0.504093 0.508950 0.414146
O O7 0.529073 0.397825 0.490575
O O8 0.250000 0.329311 0.700670
O O9 0.974719 0.250000 0.714673
O O10 0.974474 0.357693 0.626686
O O11 0.979558 0.390825 0.754214
O O12 0.250000 0.329224 0.136086
O O13 0.979129 0.250000 0.110750
O O14 0.975816 0.395917 0.091596
O O15 0.750000 0.976292 0.915704
O O16 0.031795 0.026444 0.864638
O O17 0.000000 0.000000 0.000000
O O18 0.250000 0.399608 0.564201
O O19 0.250000 0.027254 0.764082
#
# Coordination Sequence:
#
# PCOD9446829 Si02
#       7
#     8   8   8   8   8   8   8
#     4   9  16  27  45  69  96 124 156 200 243 284
#     4   9  16  25  41  65  92 119 155 203 251 290
#     4   9  17  29  45  66  94 128 168 212 251 287
#     4   8  15  29  49  72  97 125 155 187 229 280
#     4  10  20  35  56  79 102 127 155 192 231 276
#     4   9  16  27  42  62  88 122 163 204 246 289
#     4  10  18  30  50  72  94 124 162 198 235 283
#
# _framework density 19.952846999999998
#
# number of rings (size 3 to 8) (size 9 to 14) (size 15 to 20)
#    0.000    2.857    1.429    1.714    0.000    0.000 
#    0.000    1.429    0.000   23.143    0.000    0.000 
#    0.000    5.714    0.000    0.000    0.000    0.000 
#
# Total GULP energy -312194.144579 kJ/mol
# GULP energy per Si atom -5574.895439 kJ/mol
# Density = 1.990743 g / cm^3
# Si number density = 19.952847 Si / 1000 Ang^3
#
#
#
# Elastic Constant Matrix: (Units=GPa)
#
#
# Indices 1 2 3 4 5 6 
#
# 1 49.3508 -1.4446 -5.9424 0.0000 0.0000 0.0000
# 2 -1.4446 114.2151 57.2125 0.0000 0.0000 0.0000
# 3 -5.9424 57.2125 134.5754 0.0000 0.0000 0.0000
# 4 0.0000 0.0000 0.0000 19.5476 0.0000 0.0000
# 5 0.0000 0.0000 0.0000 0.0000 11.1684 0.0000
# 6 0.0000 0.0000 0.0000 0.0000 0.0000 8.5545
#
#
#
# Elastic Compliance Matrix: (Units=1/GPa)
#
#
# Indices 1 2 3 4 5 6 
#
# 1 0.020377 -0.000245 0.001004 0.000000 0.000000 0.000000
# 2 -0.000245 0.011127 -0.004741 0.000000 0.000000 0.000000
# 3 0.001004 -0.004741 0.009491 0.000000 0.000000 0.000000
# 4 0.000000 0.000000 0.000000 0.051157 0.000000 0.000000
# 5 0.000000 0.000000 0.000000 0.000000 0.089539 0.000000
# 6 0.000000 0.000000 0.000000 0.000000 0.000000 0.116897
#
#
# Mechanical properties :
#
#
# Convention : Reuss Voigt Hill
#
# Bulk Modulus (GPa) = 30.27570 44.19914 37.23742
# Shear Modulus (GPa) = 15.74490 24.40849 20.07670
#
# Velocity S-wave (km/s) = 2.81215 3.50138 3.17552
# Velocity P-wave (km/s) = 5.07453 6.20855 5.66996
#
# Compressibility (1/GPa) = 0.03302979
#
# Stress axis : x y z
#
# Youngs Moduli (GPa) = 49.07537 89.86834 105.36446
#
# Poissons Ratio (x) = 0.02204 -0.10579
# Poissons Ratio (y) = 0.01203 0.49958
# Poissons Ratio (z) = -0.04927 0.42611
#
# Static dielectric constant tensor:
#      x y z
#    x 1.771480 0.000000 0.000000 
#    y 0.000000 1.682530 0.000000 
#    z 0.000000 0.000000 1.729210 
# 
# From -- ./inp_files/29315.got.cif
#   From: 2010.05.17/outbox.cif.g08.bks.cpg/sg59_15_cif.got.tgz:29315.got - 2010.06.03 14:40:33.
