data_PCOD9446949
_publ_section_title
;
Structure prediction by ZEFSAII (Michael W. Deem and Ramdas Pophale) SiO2 
 PCOD9446949
Probable space group: P M M N
;
_chemical_formula_sum "Si O2"
_cell_formula_units_Z 40
_cell_length_a 25.224010
_cell_length_b 9.098735
_cell_length_c 10.327221
_cell_angle_alpha 90.000000
_cell_angle_beta 90.000000
_cell_angle_gamma 90.000000
_cell_volume 2370.165200
_symmetry_space_group_name_H-M "P M M N"
_symmetry_group_IT_number 59
_space_group.IT_coordinate_system_code '2'
_symmetry_cell_setting 'orthorhombic'
loop_
_space_group_symop_operation_xyz
x,y,z
1/2-x,1/2-y,z
1/2+x,-y,-z
-x,1/2+y,-z
-x,-y,-z
1/2+x,1/2+y,-z
1/2-x,y,z
x,1/2-y,z
loop_
_atom_site_type_symbol
_atom_site_label
_atom_site_fract_x
_atom_site_fract_y
_atom_site_fract_z
Si Si1 0.465372 0.574068 0.887428
Si Si2 0.858606 0.925555 0.721393
Si Si3 0.750000 0.081505 0.715733
Si Si4 0.750000 0.420173 0.030572
Si Si5 0.640751 0.925432 0.030867
Si Si6 0.527613 0.573988 0.621768
O O1 0.463292 0.750000 0.906310
O O2 0.407319 0.503920 0.896602
O O3 0.493874 0.544232 0.751245
O O4 0.500000 0.500000 0.000000
O O5 0.853037 0.750000 0.706893
O O6 0.911762 0.974683 0.648133
O O7 0.804422 0.001959 0.676930
O O8 0.866073 0.952595 0.875803
O O9 0.750000 0.250000 0.673439
O O10 0.750000 0.078621 0.873173
O O11 0.750000 0.250000 0.071794
O O12 0.803096 0.505077 0.070425
O O13 0.640043 0.750000 0.049994
O O14 0.500000 0.500000 0.500000
O O15 0.528776 0.750000 0.604110
#
# Coordination Sequence:
#
# PCOD9446949 Si02
#       6
#     8   8   4   4   8   8
#     4  11  21  35  54  79 108 139 178 222 267 318
#     4   9  17  32  50  72 105 139 171 212 261 314
#     4   9  17  27  45  76 103 130 173 216 258 308
#     4   9  17  29  45  74 109 140 173 216 268 318
#     4  10  18  31  51  77 107 140 177 219 268 320
#     4  10  22  38  54  77 108 143 181 220 267 320
#
# _framework density 16.876460999999999
#
# number of rings (size 3 to 8) (size 9 to 14) (size 15 to 20)
#    0.000    2.200    2.000    1.800    0.000    5.600 
#    0.000    0.000    0.000    1.200    0.000    5.600 
#    0.000    0.000    0.000    0.000    0.000    0.000 
#
# Total GULP energy -223147.433437 kJ/mol
# GULP energy per Si atom -5578.685836 kJ/mol
# Density = 1.683805 g / cm^3
# Si number density = 16.876461 Si / 1000 Ang^3
#
#
#
# Elastic Constant Matrix: (Units=GPa)
#
#
# Indices 1 2 3 4 5 6 
#
# 1 208.1352 83.0871 61.9594 0.0000 0.0000 0.0000
# 2 83.0871 79.2333 51.0782 0.0000 0.0000 0.0000
# 3 61.9594 51.0782 65.4316 0.0000 0.0000 0.0000
# 4 0.0000 0.0000 0.0000 23.0981 0.0000 0.0000
# 5 0.0000 0.0000 0.0000 0.0000 18.2960 0.0000
# 6 0.0000 0.0000 0.0000 0.0000 0.0000 37.0007
#
#
#
# Elastic Compliance Matrix: (Units=1/GPa)
#
#
# Indices 1 2 3 4 5 6 
#
# 1 0.008415 -0.007423 -0.002174 0.000000 0.000000 0.000000
# 2 -0.007423 0.031954 -0.017916 0.000000 0.000000 0.000000
# 3 -0.002174 -0.017916 0.031327 0.000000 0.000000 0.000000
# 4 0.000000 0.000000 0.000000 0.043294 0.000000 0.000000
# 5 0.000000 0.000000 0.000000 0.000000 0.054657 0.000000
# 6 0.000000 0.000000 0.000000 0.000000 0.000000 0.027026
#
#
# Mechanical properties :
#
#
# Convention : Reuss Voigt Hill
#
# Bulk Modulus (GPa) = 59.98188 82.78327 71.38258
# Shear Modulus (GPa) = 19.43597 26.12399 22.77998
#
# Velocity S-wave (km/s) = 3.39730 3.93867 3.67796
# Velocity P-wave (km/s) = 7.14197 8.35722 7.77338
#
# Compressibility (1/GPa) = 0.01667170
#
# Stress axis : x y z
#
# Youngs Moduli (GPa) = 118.83760 31.29478 31.92107
#
# Poissons Ratio (x) = 0.23229 0.06939
# Poissons Ratio (y) = 0.88210 0.57189
# Poissons Ratio (z) = 0.25834 0.56067
#
# Static dielectric constant tensor:
#      x y z
#    x 1.576140 0.000000 0.000000 
#    y 0.000000 1.562350 0.000000 
#    z 0.000000 0.000000 1.540670 
# 
# From -- ./inp_files/12402.got.cif
#   From: 2010.05.17/outbox.cif.g08.bks.cpg/sg59_7_cif.got.tgz:12402.got - 2010.06.03 14:40:33.
