data_PCOD9446779
_publ_section_title
;
Structure prediction by ZEFSAII (Michael W. Deem and Ramdas Pophale) SiO2 
 PCOD9446779
Probable space group: P M M N
;
_chemical_formula_sum "Si O2"
_cell_formula_units_Z 56
_cell_length_a 7.446133
_cell_length_b 25.601908
_cell_length_c 14.016675
_cell_angle_alpha 90.000000
_cell_angle_beta 90.000000
_cell_angle_gamma 90.000000
_cell_volume 2672.071810
_symmetry_space_group_name_H-M "P M M N"
_symmetry_group_IT_number 59
_space_group.IT_coordinate_system_code '2'
_symmetry_cell_setting 'orthorhombic'
loop_
_space_group_symop_operation_xyz
x,y,z
1/2-x,1/2-y,z
1/2+x,-y,-z
-x,1/2+y,-z
-x,-y,-z
1/2+x,1/2+y,-z
1/2-x,y,z
x,1/2-y,z
loop_
_atom_site_type_symbol
_atom_site_label
_atom_site_fract_x
_atom_site_fract_y
_atom_site_fract_z
Si Si1 0.966589 0.090417 0.965003
Si Si2 0.535200 0.807641 0.509742
Si Si3 0.469382 0.308163 0.270697
Si Si4 0.963037 0.373995 0.670763
Si Si5 0.457945 0.085580 0.183107
Si Si6 0.530885 0.308913 0.851846
Si Si7 0.969806 0.473809 0.778776
O O1 0.750000 0.089270 0.968533
O O2 0.034979 0.078113 0.069561
O O3 0.022130 0.148309 0.930399
O O4 0.021911 0.050682 0.881360
O O5 0.750000 0.805115 0.513393
O O6 0.469342 0.750000 0.477763
O O7 0.476271 0.815833 0.618655
O O8 0.492010 0.852230 0.434284
O O9 0.250000 0.306929 0.267244
O O10 0.528560 0.250000 0.240084
O O11 0.534200 0.357967 0.211160
O O12 0.750000 0.376326 0.685245
O O13 0.029182 0.332446 0.749875
O O14 0.029349 0.431551 0.699975
O O15 0.250000 0.087574 0.213176
O O16 0.535543 0.033010 0.229623
O O17 0.750000 0.307820 0.851505
O O18 0.468596 0.250000 0.867197
O O19 0.750000 0.475580 0.778251
#
# Coordination Sequence:
#
# PCOD9446779 Si02
#       7
#     8   8   8   8   8   8   8
#     4   9  17  29  44  63  89 116 143 179 220 260
#     4   9  17  30  47  66  89 116 145 179 221 264
#     4   8  16  31  48  65  87 117 151 183 217 263
#     4   9  16  28  47  68  89 114 147 182 214 258
#     4  10  18  30  49  66  83 115 155 186 215 256
#     4   8  14  25  41  61  86 116 144 169 209 267
#     4   8  16  30  46  66  91 118 146 178 219 266
#
# _framework density 20.957519999999999
#
# number of rings (size 3 to 8) (size 9 to 14) (size 15 to 20)
#    0.000    3.286    0.000    3.429    0.000    1.429 
#    0.000    5.000    0.000    1.714    0.000    0.000 
#    0.000    0.000    0.000    0.000    0.000    0.000 
#
# Total GULP energy -312245.805239 kJ/mol
# GULP energy per Si atom -5575.817951 kJ/mol
# Density = 2.090982 g / cm^3
# Si number density = 20.957520 Si / 1000 Ang^3
#
#
#
# Elastic Constant Matrix: (Units=GPa)
#
#
# Indices 1 2 3 4 5 6 
#
# 1 59.0165 10.6119 -3.6833 0.0000 0.0000 0.0000
# 2 10.6119 179.5185 39.6699 0.0000 0.0000 0.0000
# 3 -3.6833 39.6699 37.0049 0.0000 0.0000 0.0000
# 4 0.0000 0.0000 0.0000 21.3381 0.0000 0.0000
# 5 0.0000 0.0000 0.0000 0.0000 15.1120 0.0000
# 6 0.0000 0.0000 0.0000 0.0000 0.0000 -0.1331
#
#
#
# Elastic Compliance Matrix: (Units=1/GPa)
#
#
# Indices 1 2 3 4 5 6 
#
# 1 0.017512 -0.001861 0.003738 0.000000 0.000000 0.000000
# 2 -0.001861 0.007498 -0.008223 0.000000 0.000000 0.000000
# 3 0.003738 -0.008223 0.036211 0.000000 0.000000 0.000000
# 4 0.000000 0.000000 0.000000 0.046864 0.000000 0.000000
# 5 0.000000 0.000000 0.000000 0.000000 0.066173 0.000000
# 6 0.000000 0.000000 0.000000 0.000000 0.000000 -7.511079
#
#
# Mechanical properties :
#
#
# Convention : Reuss Voigt Hill
#
# Bulk Modulus (GPa) = 20.60611 40.97075 30.78843
# Shear Modulus (GPa) = -0.68419 22.52615 10.92098
#
# Velocity S-wave (km/s) = -0.57199 3.28204 2.28524
# Velocity P-wave (km/s) = 3.06878 5.82703 4.65681
#
# Compressibility (1/GPa) = 0.04852930
#
# Stress axis : x y z
#
# Youngs Moduli (GPa) = 57.10225 133.37692 27.61626
#
# Poissons Ratio (x) = 0.24826 -0.10324
# Poissons Ratio (y) = 0.10629 0.22708
# Poissons Ratio (z) = -0.21348 1.09673
#
# Static dielectric constant tensor:
#      x y z
#    x 1.794530 0.000000 0.000000 
#    y 0.000000 1.785140 0.000000 
#    z 0.000000 0.000000 1.716810 
# 
# From -- ./inp_files/16179.got.cif
#   From: 2010.05.17/outbox.cif.g08.bks.cpg/sg59_9_cif.got.tgz:16179.got - 2010.06.03 14:40:33.
