data_PCOD9446557
_publ_section_title
;
Structure prediction by ZEFSAII (Michael W. Deem and Ramdas Pophale) SiO2 
 PCOD9446557
Probable space group: P M M N
;
_chemical_formula_sum "Si O2"
_cell_formula_units_Z 56
_cell_length_a 27.079407
_cell_length_b 9.221454
_cell_length_c 14.844787
_cell_angle_alpha 90.000000
_cell_angle_beta 90.000000
_cell_angle_gamma 90.000000
_cell_volume 3706.914118
_symmetry_space_group_name_H-M "P M M N"
_symmetry_group_IT_number 59
_space_group.IT_coordinate_system_code '2'
_symmetry_cell_setting 'orthorhombic'
loop_
_space_group_symop_operation_xyz
x,y,z
1/2-x,1/2-y,z
1/2+x,-y,-z
-x,1/2+y,-z
-x,-y,-z
1/2+x,1/2+y,-z
1/2-x,y,z
x,1/2-y,z
loop_
_atom_site_type_symbol
_atom_site_label
_atom_site_fract_x
_atom_site_fract_y
_atom_site_fract_z
Si Si1 0.891707 0.424141 0.482646
Si Si2 0.933632 0.424214 0.299130
Si Si3 0.371047 0.418176 0.239698
Si Si4 0.458310 0.077617 0.877981
Si Si5 0.806547 0.075257 0.619089
Si Si6 0.438360 0.423507 0.082593
Si Si7 0.460335 0.417685 0.382852
O O1 0.894666 0.250000 0.486820
O O2 0.895102 0.464295 0.377750
O O3 0.842880 0.470613 0.537332
O O4 0.938495 0.487834 0.536426
O O5 0.932519 0.250000 0.285047
O O6 0.929737 0.505486 0.204817
O O7 0.987344 0.461097 0.341435
O O8 0.355440 0.250000 0.235422
O O9 0.329788 0.511512 0.289567
O O10 0.391122 0.465592 0.142273
O O11 0.419442 0.425340 0.303878
O O12 0.462711 0.250000 0.865384
O O13 0.512767 0.006278 0.884018
O O14 0.434050 0.050785 0.975924
O O15 0.750000 0.029534 0.606236
O O16 0.807928 0.250000 0.622955
O O17 0.446019 0.250000 0.096588
O O18 0.464330 0.250000 0.412005
#
# Coordination Sequence:
#
# PCOD9446557 Si02
#       7
#     8   8   8   8   8   8   8
#     4   9  18  29  43  61  82 114 149 178 216 264
#     4  10  18  29  41  57  87 121 150 181 214 251
#     4   9  16  28  46  64  86 115 146 177 215 263
#     4  10  19  27  42  64  87 119 154 181 209 251
#     4   9  18  32  47  66  91 111 136 182 229 266
#     4   9  17  31  44  60  89 120 148 182 219 249
#     4   9  16  26  40  58  84 116 142 177 218 246
#
# _framework density 15.106906
#
# number of rings (size 3 to 8) (size 9 to 14) (size 15 to 20)
#    0.000    2.714    1.429    0.857    0.000    2.571 
#    0.000    0.000    0.000    0.000    0.000    1.000 
#    0.000    3.429    0.000    0.000    0.000    0.000 
#
# Total GULP energy -311957.495664 kJ/mol
# GULP energy per Si atom -5570.669565 kJ/mol
# Density = 1.507252 g / cm^3
# Si number density = 15.106906 Si / 1000 Ang^3
#
#
#
# Elastic Constant Matrix: (Units=GPa)
#
#
# Indices 1 2 3 4 5 6 
#
# 1 64.4978 21.5115 41.1299 0.0000 0.0000 0.0000
# 2 21.5115 21.6099 42.0504 0.0000 0.0000 0.0000
# 3 41.1299 42.0504 126.6082 0.0000 0.0000 0.0000
# 4 0.0000 0.0000 0.0000 26.6933 0.0000 0.0000
# 5 0.0000 0.0000 0.0000 0.0000 13.6248 0.0000
# 6 0.0000 0.0000 0.0000 0.0000 0.0000 14.7269
#
#
#
# Elastic Compliance Matrix: (Units=1/GPa)
#
#
# Indices 1 2 3 4 5 6 
#
# 1 0.023217 -0.023846 0.000378 0.000000 0.000000 0.000000
# 2 -0.023846 0.155320 -0.043840 0.000000 0.000000 0.000000
# 3 0.000378 -0.043840 0.022336 0.000000 0.000000 0.000000
# 4 0.000000 0.000000 0.000000 0.037463 0.000000 0.000000
# 5 0.000000 0.000000 0.000000 0.000000 0.073396 0.000000
# 6 0.000000 0.000000 0.000000 0.000000 0.000000 0.067903
#
#
# Mechanical properties :
#
#
# Convention : Reuss Voigt Hill
#
# Bulk Modulus (GPa) = 15.09289 46.89995 30.99642
# Shear Modulus (GPa) = 9.32251 18.21059 13.76655
#
# Velocity S-wave (km/s) = 2.48685 3.47572 3.02201
# Velocity P-wave (km/s) = 4.27297 6.87170 5.72183
#
# Compressibility (1/GPa) = 0.06625636
#
# Stress axis : x y z
#
# Youngs Moduli (GPa) = 43.07242 6.43833 44.77057
#
# Poissons Ratio (x) = 0.15353 -0.01692
# Poissons Ratio (y) = 1.02712 1.96273
# Poissons Ratio (z) = -0.01628 0.28225
#
# Static dielectric constant tensor:
#      x y z
#    x 1.484000 0.000000 0.000000 
#    y 0.000000 1.507860 0.000000 
#    z 0.000000 0.000000 1.528820 
# 
# From -- ./inp_files/21772.got.cif
#   From: 2010.05.17/outbox.cif.g08.bks.cpg/sg59_11_cif.got.tgz:21772.got - 2010.06.03 14:40:33.
