data_PCOD9446074
_publ_section_title
;
Structure prediction by ZEFSAII (Michael W. Deem and Ramdas Pophale) SiO2 
 PCOD9446074
Probable space group: P N N M
;
_chemical_formula_sum "Si O2"
_cell_formula_units_Z 48
_cell_length_a 24.000000
_cell_length_b 12.000000
_cell_length_c 9.000000
_cell_angle_alpha 90.000000
_cell_angle_beta 90.000000
_cell_angle_gamma 90.000000
_cell_volume 2592.000000
_symmetry_space_group_name_H-M "P N N M"
_symmetry_group_IT_number 58
_symmetry_cell_setting 'orthorhombic'
loop_
_space_group_symop_operation_xyz
x,y,z
-x,-y,z
1/2+x,1/2-y,1/2-z
1/2-x,1/2+y,1/2-z
-x,-y,-z
x,y,-z
1/2-x,1/2+y,1/2+z
1/2+x,1/2-y,1/2+z
loop_
_atom_site_type_symbol
_atom_site_label
_atom_site_fract_x
_atom_site_fract_y
_atom_site_fract_z
Si Si1 0.613311 0.527254 0.323837
Si Si2 0.326141 0.892320 0.823250
Si Si3 0.356128 0.126406 0.677904
Si Si4 0.580896 0.296828 0.825681
Si Si5 0.208787 0.830742 0.678158
Si Si6 0.466427 0.264350 0.674272
O O1 0.625645 0.527520 0.500000
O O2 0.595708 0.406549 0.267914
O O3 0.666297 0.573724 0.234398
O O4 0.563605 0.616450 0.300115
O O5 0.372678 0.797467 0.802387
O O6 0.269321 0.855569 0.743895
O O7 0.346505 0.007162 0.750472
O O8 0.316909 0.906673 0.000000
O O9 0.346807 0.123993 0.500000
O O10 0.315110 0.216442 0.752574
O O11 0.418623 0.172922 0.702822
O O12 0.520765 0.253829 0.773354
O O13 0.579665 0.325449 0.000000
O O14 0.209546 0.825699 0.500000
O O15 0.481829 0.258771 0.500000
#
# Coordination Sequence:
#
# PCOD9446074 Si02
#       6
#     8   8   8   8   8   8
#     4  10  21  39  63  90 122 160 202 250 304 360
#     4  11  25  42  59  86 123 162 204 249 301 359
#     4  10  22  42  65  89 119 157 202 249 302 364
#     4  11  24  38  58  90 125 160 203 253 300 356
#     4  11  23  40  64  90 119 157 200 249 306 362
#     4   9  20  39  62  88 120 159 199 248 306 363
#
# _framework density 18.518519000000001
#
# number of rings (size 3 to 8) (size 9 to 14) (size 15 to 20)
#    0.000    1.667    0.000    5.000    2.333    9.333 
#    0.000    3.333    0.000    0.000    0.000    0.000 
#    0.000    0.000    0.000    0.000    0.000    0.000 
#
# Total GULP energy -268351.315827 kJ/mol
# GULP energy per Si atom -5590.652413 kJ/mol
# Density = 1.847637 g / cm^3
# Si number density = 18.518519 Si / 1000 Ang^3
#
#
#
# Elastic Constant Matrix: (Units=GPa)
#
#
# Indices 1 2 3 4 5 6 
#
# 1 100.5612 -1.8214 57.5518 0.0000 0.0000 0.0000
# 2 -1.8214 -109.6425 -40.4664 0.0000 0.0000 0.0000
# 3 57.5518 -40.4664 82.0864 0.0000 0.0000 0.0000
# 4 0.0000 0.0000 0.0000 -146.1661 0.0000 0.0000
# 5 0.0000 0.0000 0.0000 0.0000 35.9173 0.0000
# 6 0.0000 0.0000 0.0000 0.0000 0.0000 2.2719
#
#
#
# Elastic Compliance Matrix: (Units=1/GPa)
#
#
# Indices 1 2 3 4 5 6 
#
# 1 0.015232 0.003121 -0.009141 0.000000 0.000000 0.000000
# 2 0.003121 -0.007077 -0.005677 0.000000 0.000000 0.000000
# 3 -0.009141 -0.005677 0.015793 0.000000 0.000000 0.000000
# 4 0.000000 0.000000 0.000000 -0.006842 0.000000 0.000000
# 5 0.000000 0.000000 0.000000 0.000000 0.027842 0.000000
# 6 0.000000 0.000000 0.000000 0.000000 0.000000 0.440153
#
#
# Mechanical properties :
#
#
# Convention : Reuss Voigt Hill
#
# Bulk Modulus (GPa) = 1807.43563 11.50369 909.46966
# Shear Modulus (GPa) = 9.82937 -17.74598 -3.95830
#
# Velocity S-wave (km/s) = 2.30638 -3.09897 -1.46360
# Velocity P-wave (km/s) = 31.38832 2.56503 22.12066
#
# Compressibility (1/GPa) = 0.00055327
#
# Stress axis : x y z
#
# Youngs Moduli (GPa) = 65.65043 -141.29864 63.32050
#
# Poissons Ratio (x) = 0.44095 0.57882
# Poissons Ratio (y) = -0.20488 0.35946
# Poissons Ratio (z) = 0.60011 -0.80213
#
# Static dielectric constant tensor:
#      x y z
#    x 1.617890 0.000000 0.000000 
#    y 0.000000 1.614100 0.000000 
#    z 0.000000 0.000000 1.614210 
# 
# From -- ./inp_files/9738.got.cif
#   From: 2010.05.17/outbox.ucp.g08.bks.cvg/sg58_5_cif.got.tgz:9738.got - 2010.06.11 16:41:41.
