data_PCOD9446696
_publ_section_title
;
Structure prediction by ZEFSAII (Michael W. Deem and Ramdas Pophale) SiO2 
 PCOD9446696
Probable space group: P M M N
;
_chemical_formula_sum "Si O2"
_cell_formula_units_Z 64
_cell_length_a 25.656236
_cell_length_b 15.559240
_cell_length_c 9.068458
_cell_angle_alpha 90.000000
_cell_angle_beta 90.000000
_cell_angle_gamma 90.000000
_cell_volume 3620.051655
_symmetry_space_group_name_H-M "P M M N"
_symmetry_group_IT_number 59
_space_group.IT_coordinate_system_code '2'
_symmetry_cell_setting 'orthorhombic'
loop_
_space_group_symop_operation_xyz
x,y,z
1/2-x,1/2-y,z
1/2+x,-y,-z
-x,1/2+y,-z
-x,-y,-z
1/2+x,1/2+y,-z
1/2-x,y,z
x,1/2-y,z
loop_
_atom_site_type_symbol
_atom_site_label
_atom_site_fract_x
_atom_site_fract_y
_atom_site_fract_z
Si Si1 0.866763 0.846824 0.668876
Si Si2 0.391589 0.847850 0.268641
Si Si3 0.188890 0.992863 0.191252
Si Si4 0.927887 0.344559 0.073194
Si Si5 0.539353 0.586881 0.861469
Si Si6 0.008999 0.938850 0.359710
Si Si7 0.122410 0.483084 0.906267
Si Si8 0.398364 0.349201 0.670547
O O1 0.849220 0.750000 0.702709
O O2 0.921878 0.863961 0.750768
O O3 0.876423 0.854625 0.494870
O O4 0.828126 0.919607 0.727427
O O5 0.377055 0.750000 0.304898
O O6 0.344467 0.915499 0.263456
O O7 0.438546 0.882591 0.369966
O O8 0.413688 0.848005 0.100369
O O9 0.250000 0.977781 0.198620
O O10 0.168899 0.003035 0.022427
O O11 0.913543 0.250000 0.129127
O O12 0.897410 0.423752 0.147186
O O13 0.989385 0.359356 0.091532
O O14 0.518809 0.502646 0.777051
O O15 0.574942 0.556137 0.996494
O O16 0.958466 0.880346 0.335140
O O17 0.000000 0.000000 0.500000
O O18 0.131302 0.415170 0.777439
O O19 0.395399 0.250000 0.720413
#
# Coordination Sequence:
#
# PCOD9446696 Si02
#       8
#     8   8   8   8   8   8   8   8
#     4  10  21  37  54  79 110 144 184 222 269 329
#     4  10  20  35  54  81 112 142 182 230 273 320
#     4  10  21  40  62  80 101 136 181 235 288 329
#     4  10  18  29  49  75 106 144 180 217 261 308
#     4  11  18  32  50  74 110 150 183 216 249 314
#     4  12  19  32  53  78 117 156 185 215 255 316
#     4  10  20  35  52  77 107 137 181 226 265 321
#     4  11  22  34  54  81 114 151 178 212 269 327
#
# _framework density 17.679304999999999
#
# number of rings (size 3 to 8) (size 9 to 14) (size 15 to 20)
#    0.000    1.500    6.250    1.875    0.000    4.000 
#    0.000    0.625    0.000    0.750    0.000    0.000 
#    0.000    2.250    0.000    0.000    0.000    0.000 
#
# Total GULP energy -357299.775715 kJ/mol
# GULP energy per Si atom -5582.808996 kJ/mol
# Density = 1.763907 g / cm^3
# Si number density = 17.679305 Si / 1000 Ang^3
#
#
#
# Elastic Constant Matrix: (Units=GPa)
#
#
# Indices 1 2 3 4 5 6 
#
# 1 84.8761 37.3328 9.3492 0.0000 0.0000 0.0000
# 2 37.3328 153.1001 31.3367 0.0000 0.0000 0.0000
# 3 9.3492 31.3367 36.4358 0.0000 0.0000 0.0000
# 4 0.0000 0.0000 0.0000 25.8796 0.0000 0.0000
# 5 0.0000 0.0000 0.0000 0.0000 10.9017 0.0000
# 6 0.0000 0.0000 0.0000 0.0000 0.0000 6.2908
#
#
#
# Elastic Compliance Matrix: (Units=1/GPa)
#
#
# Indices 1 2 3 4 5 6 
#
# 1 0.013214 -0.003068 -0.000752 0.000000 0.000000 0.000000
# 2 -0.003068 0.008640 -0.006643 0.000000 0.000000 0.000000
# 3 -0.000752 -0.006643 0.033352 0.000000 0.000000 0.000000
# 4 0.000000 0.000000 0.000000 0.038641 0.000000 0.000000
# 5 0.000000 0.000000 0.000000 0.000000 0.091729 0.000000
# 6 0.000000 0.000000 0.000000 0.000000 0.000000 0.158962
#
#
# Mechanical properties :
#
#
# Convention : Reuss Voigt Hill
#
# Bulk Modulus (GPa) = 29.17219 47.82771 38.49995
# Shear Modulus (GPa) = 13.26647 21.70730 17.48689
#
# Velocity S-wave (km/s) = 2.74231 3.50785 3.14843
# Velocity P-wave (km/s) = 5.15399 6.59684 5.91954
#
# Compressibility (1/GPa) = 0.03427923
#
# Stress axis : x y z
#
# Youngs Moduli (GPa) = 75.67551 115.74572 29.98325
#
# Poissons Ratio (x) = 0.35515 0.02254
# Poissons Ratio (y) = 0.23220 0.19918
# Poissons Ratio (z) = 0.05689 0.76892
#
# Static dielectric constant tensor:
#      x y z
#    x 1.574570 0.000000 0.000000 
#    y 0.000000 1.632370 0.000000 
#    z 0.000000 0.000000 1.619250 
# 
# From -- ./inp_files/12182.got.cif
#   From: 2010.05.17/outbox.cif.g08.bks.cpg/sg59_7_cif.got.tgz:12182.got - 2010.06.03 14:40:33.
