data_PCOD9446160
_publ_section_title
;
Structure prediction by ZEFSAII (Michael W. Deem and Ramdas Pophale) SiO2 
 PCOD9446160
Probable space group: P M M N
;
_chemical_formula_sum "Si O2"
_cell_formula_units_Z 64
_cell_length_a 27.376797
_cell_length_b 7.350578
_cell_length_c 18.121016
_cell_angle_alpha 90.000000
_cell_angle_beta 90.000000
_cell_angle_gamma 90.000000
_cell_volume 3646.587760
_symmetry_space_group_name_H-M "P M M N"
_symmetry_group_IT_number 59
_space_group.IT_coordinate_system_code '2'
_symmetry_cell_setting 'orthorhombic'
loop_
_space_group_symop_operation_xyz
x,y,z
1/2-x,1/2-y,z
1/2+x,-y,-z
-x,1/2+y,-z
-x,-y,-z
1/2+x,1/2+y,-z
1/2-x,y,z
x,1/2-y,z
loop_
_atom_site_type_symbol
_atom_site_label
_atom_site_fract_x
_atom_site_fract_y
_atom_site_fract_z
Si Si1 0.875784 0.971135 0.714583
Si Si2 0.890840 0.527559 0.477367
Si Si3 0.962772 0.530640 0.603650
Si Si4 0.933357 0.543216 0.332423
Si Si5 0.967525 0.970469 0.175449
Si Si6 0.694467 0.528087 0.587403
Si Si7 0.418856 0.464799 0.137808
Si Si8 0.556915 0.966744 0.018333
O O1 0.874360 0.750000 0.716871
O O2 0.923776 0.018409 0.667045
O O3 0.829905 0.028877 0.665121
O O4 0.884149 0.037661 0.797609
O O5 0.891289 0.750000 0.476367
O O6 0.937400 0.472513 0.527431
O O7 0.896992 0.463001 0.393590
O O8 0.842534 0.472634 0.522146
O O9 0.967126 0.750000 0.602738
O O10 0.014788 0.453284 0.625077
O O11 0.916932 0.750000 0.318606
O O12 0.945172 0.461706 0.252387
O O13 0.966697 0.750000 0.176852
O O14 0.938456 0.033445 0.102281
O O15 0.024745 0.018440 0.165243
O O16 0.750000 0.467846 0.578692
O O17 0.694395 0.750000 0.587162
O O18 0.409071 0.250000 0.132252
O O19 0.415740 0.539492 0.054359
O O20 0.565103 0.750000 0.020590
O O21 0.500000 0.000000 0.000000
#
# Coordination Sequence:
#
# PCOD9446160 Si02
#       8
#     8   8   8   8   8   8   8   8
#     4   8  13  20  32  50  66  83 109 140 170 198
#     4   8  15  24  33  47  65  87 112 138 170 201
#     4   9  15  24  35  46  66  91 114 138 162 194
#     4  10  17  23  32  47  70  93 112 137 166 194
#     4   9  16  23  30  44  67  92 116 139 160 186
#     4   8  13  22  35  49  67  87 106 136 178 212
#     4   9  14  22  35  47  63  87 114 140 164 193
#     4   8  14  22  31  43  60  86 116 139 158 183
#
# _framework density 17.550654000000002
#
# number of rings (size 3 to 8) (size 9 to 14) (size 15 to 20)
#    0.000    3.375    1.250    1.875    0.000    0.000 
#    0.000    0.000    0.000    0.000    0.000    0.000 
#    0.000   19.000    0.000   14.000    0.000    0.000 
#
# Total GULP energy -356385.167394 kJ/mol
# GULP energy per Si atom -5568.518241 kJ/mol
# Density = 1.751071 g / cm^3
# Si number density = 17.550654 Si / 1000 Ang^3
#
#
#
# Elastic Constant Matrix: (Units=GPa)
#
#
# Indices 1 2 3 4 5 6 
#
# 1 62.5600 -0.8838 57.8479 0.0000 0.0000 0.0000
# 2 -0.8838 65.9458 2.0671 0.0000 0.0000 0.0000
# 3 57.8479 2.0671 183.6623 0.0000 0.0000 0.0000
# 4 0.0000 0.0000 0.0000 -1.2229 0.0000 0.0000
# 5 0.0000 0.0000 0.0000 0.0000 13.1742 0.0000
# 6 0.0000 0.0000 0.0000 0.0000 0.0000 4.9740
#
#
#
# Elastic Compliance Matrix: (Units=1/GPa)
#
#
# Indices 1 2 3 4 5 6 
#
# 1 0.022571 0.000526 -0.007115 0.000000 0.000000 0.000000
# 2 0.000526 0.015182 -0.000336 0.000000 0.000000 0.000000
# 3 -0.007115 -0.000336 0.007690 0.000000 0.000000 0.000000
# 4 0.000000 0.000000 0.000000 -0.817699 0.000000 0.000000
# 5 0.000000 0.000000 0.000000 0.000000 0.075906 0.000000
# 6 0.000000 0.000000 0.000000 0.000000 0.000000 0.201043
#
#
# Mechanical properties :
#
#
# Convention : Reuss Voigt Hill
#
# Bulk Modulus (GPa) = 31.65516 47.80338 39.72927
# Shear Modulus (GPa) = -10.61740 20.26086 4.82173
#
# Velocity S-wave (km/s) = -2.46226 3.40136 1.65930
# Velocity P-wave (km/s) = 3.16101 6.53622 5.13392
#
# Compressibility (1/GPa) = 0.03159042
#
# Stress axis : x y z
#
# Youngs Moduli (GPa) = 44.30398 65.86942 130.04545
#
# Poissons Ratio (x) = -0.03462 0.92530
# Poissons Ratio (y) = -0.02328 0.04375
# Poissons Ratio (z) = 0.31523 0.02216
#
# Static dielectric constant tensor:
#      x y z
#    x 1.546510 0.000000 0.000000 
#    y 0.000000 1.610590 0.000000 
#    z 0.000000 0.000000 1.673830 
# 
# From -- ./inp_files/28529.got.cif
#   From: 2010.05.17/outbox.cif.g08.bks.cpg/sg59_15_cif.got.tgz:28529.got - 2010.06.03 14:40:33.
