data_PCOD9446722
_publ_section_title
;
Structure prediction by ZEFSAII (Michael W. Deem and Ramdas Pophale) SiO2 
 PCOD9446722
Probable space group: P M M N
;
_chemical_formula_sum "Si O2"
_cell_formula_units_Z 64
_cell_length_a 8.716091
_cell_length_b 22.153516
_cell_length_c 19.729033
_cell_angle_alpha 90.000000
_cell_angle_beta 90.000000
_cell_angle_gamma 90.000000
_cell_volume 3809.519652
_symmetry_space_group_name_H-M "P M M N"
_symmetry_group_IT_number 59
_space_group.IT_coordinate_system_code '2'
_symmetry_cell_setting 'orthorhombic'
loop_
_space_group_symop_operation_xyz
x,y,z
1/2-x,1/2-y,z
1/2+x,-y,-z
-x,1/2+y,-z
-x,-y,-z
1/2+x,1/2+y,-z
1/2-x,y,z
x,1/2-y,z
loop_
_atom_site_type_symbol
_atom_site_label
_atom_site_fract_x
_atom_site_fract_y
_atom_site_fract_z
Si Si1 0.066859 0.060343 0.535152
Si Si2 0.433017 0.011093 0.826778
Si Si3 0.069636 0.611966 0.588880
Si Si4 0.432777 0.941046 0.039878
Si Si5 0.933455 0.882169 0.837534
Si Si6 0.566045 0.681358 0.975102
Si Si7 0.436140 0.491873 0.671138
Si Si8 0.926955 0.819288 0.699651
O O1 0.250000 0.057644 0.532894
O O2 0.020300 0.057726 0.614184
O O3 0.008203 0.111382 0.484468
O O4 0.000000 0.000000 0.500000
O O5 0.250000 0.020493 0.829105
O O6 0.514915 0.052645 0.881982
O O7 0.488086 0.016981 0.748381
O O8 0.473683 0.943067 0.849551
O O9 0.250000 0.604460 0.579236
O O10 0.015362 0.555287 0.636298
O O11 0.028018 0.668748 0.634157
O O12 0.250000 0.943899 0.033857
O O13 0.492577 0.876618 0.012086
O O14 0.500000 0.000000 0.000000
O O15 0.750000 0.895382 0.837916
O O16 0.960427 0.832923 0.895574
O O17 0.977659 0.857827 0.764001
O O18 0.750000 0.679127 0.986450
O O19 0.514346 0.750000 0.991851
O O20 0.250000 0.493642 0.674580
O O21 0.750000 0.835273 0.683639
O O22 0.930452 0.750000 0.720149
#
# Coordination Sequence:
#
# PCOD9446722 Si02
#       8
#     8   8   8   8   8   8   8   8
#     4   9  16  28  45  68  94 124 158 197 243 294
#     4  11  20  33  53  77 106 141 174 214 264 318
#     4  10  18  30  45  66  95 130 169 209 252 297
#     4  12  24  38  55  79 109 142 181 225 270 320
#     4  10  19  32  51  75 104 138 176 217 260 312
#     4  10  21  38  59  81 106 139 178 221 270 324
#     4   8  16  29  46  69  98 126 159 201 249 302
#     4  10  20  32  46  68  99 137 178 217 257 305
#
# _framework density 16.800018000000001
#
# number of rings (size 3 to 8) (size 9 to 14) (size 15 to 20)
#    0.000    2.000    2.500    3.375    0.000    2.000 
#    0.000    1.875    0.000    2.250    0.000    0.875 
#    0.000    7.000    0.000    0.000    0.000    0.000 
#
# Total GULP energy -356588.654091 kJ/mol
# GULP energy per Si atom -5571.697720 kJ/mol
# Density = 1.676178 g / cm^3
# Si number density = 16.800018 Si / 1000 Ang^3
#
#
#
# Elastic Constant Matrix: (Units=GPa)
#
#
# Indices 1 2 3 4 5 6 
#
# 1 46.0433 29.4067 27.8046 0.0000 0.0000 0.0000
# 2 29.4067 73.7179 40.2968 0.0000 0.0000 0.0000
# 3 27.8046 40.2968 101.6908 0.0000 0.0000 0.0000
# 4 0.0000 0.0000 0.0000 20.1491 0.0000 0.0000
# 5 0.0000 0.0000 0.0000 0.0000 22.2222 0.0000
# 6 0.0000 0.0000 0.0000 0.0000 0.0000 20.8352
#
#
#
# Elastic Compliance Matrix: (Units=1/GPa)
#
#
# Indices 1 2 3 4 5 6 
#
# 1 0.030688 -0.009772 -0.004519 0.000000 0.000000 0.000000
# 2 -0.009772 0.020428 -0.005423 0.000000 0.000000 0.000000
# 3 -0.004519 -0.005423 0.013218 0.000000 0.000000 0.000000
# 4 0.000000 0.000000 0.000000 0.049630 0.000000 0.000000
# 5 0.000000 0.000000 0.000000 0.000000 0.045000 0.000000
# 6 0.000000 0.000000 0.000000 0.000000 0.000000 0.047996
#
#
# Mechanical properties :
#
#
# Convention : Reuss Voigt Hill
#
# Bulk Modulus (GPa) = 40.14876 46.27425 43.21150
# Shear Modulus (GPa) = 19.63173 20.90421 20.26797
#
# Velocity S-wave (km/s) = 3.42212 3.53129 3.47713
# Velocity P-wave (km/s) = 6.29003 6.65061 6.47283
#
# Compressibility (1/GPa) = 0.02490737
#
# Stress axis : x y z
#
# Youngs Moduli (GPa) = 32.58555 48.95318 75.65325
#
# Poissons Ratio (x) = 0.47836 0.34185
# Poissons Ratio (y) = 0.31842 0.41027
# Poissons Ratio (z) = 0.14724 0.26547
#
# Static dielectric constant tensor:
#      x y z
#    x 1.578120 0.000000 0.000000 
#    y 0.000000 1.586790 0.000000 
#    z 0.000000 0.000000 1.605540 
# 
# From -- ./inp_files/29658.got.cif
#   From: 2010.05.17/outbox.cif.g08.bks.cpg/sg59_15_cif.got.tgz:29658.got - 2010.06.03 14:40:33.
