data_PCOD9446319
_publ_section_title
;
Structure prediction by ZEFSAII (Michael W. Deem and Ramdas Pophale) SiO2 
 PCOD9446319
Probable space group: P M M N
;
_chemical_formula_sum "Si O2"
_cell_formula_units_Z 48
_cell_length_a 18.912419
_cell_length_b 14.216106
_cell_length_c 9.305357
_cell_angle_alpha 90.000000
_cell_angle_beta 90.000000
_cell_angle_gamma 90.000000
_cell_volume 2501.847153
_symmetry_space_group_name_H-M "P M M N"
_symmetry_group_IT_number 59
_space_group.IT_coordinate_system_code '2'
_symmetry_cell_setting 'orthorhombic'
loop_
_space_group_symop_operation_xyz
x,y,z
1/2-x,1/2-y,z
1/2+x,-y,-z
-x,1/2+y,-z
-x,-y,-z
1/2+x,1/2+y,-z
1/2-x,y,z
x,1/2-y,z
loop_
_atom_site_type_symbol
_atom_site_label
_atom_site_fract_x
_atom_site_fract_y
_atom_site_fract_z
Si Si1 0.250000 0.985569 0.992571
Si Si2 0.104443 0.138892 0.343288
Si Si3 0.250000 0.388118 0.747903
Si Si4 0.644864 0.355342 0.176998
Si Si5 0.250000 0.028731 0.323421
Si Si6 0.586856 0.852885 0.321617
Si Si7 0.750000 0.088731 0.407040
Si Si8 0.989950 0.472133 0.166003
O O1 0.250000 0.994323 0.160568
O O2 0.316138 0.928121 0.928562
O O3 0.250000 0.087410 0.916796
O O4 0.104476 0.250000 0.299443
O O5 0.182409 0.094541 0.349567
O O6 0.076718 0.135763 0.507362
O O7 0.059855 0.068803 0.241667
O O8 0.327937 0.350252 0.708853
O O9 0.250000 0.486164 0.664123
O O10 0.655017 0.250000 0.124520
O O11 0.682046 0.363333 0.333673
O O12 0.564823 0.386398 0.182356
O O13 0.250000 0.936918 0.426878
O O14 0.558967 0.750000 0.277094
O O15 0.547496 0.938555 0.243267
O O16 0.000000 0.500000 0.000000
#
# Coordination Sequence:
#
# PCOD9446319 Si02
#       8
#     4   8   4   8   4   8   4   8
#     4  10  20  35  60  88 124 160 195 244 312 355
#     4  11  24  40  63  91 122 161 204 252 310 369
#     4  10  17  39  61  91 118 163 195 240 302 361
#     4  10  20  40  63  84 119 167 211 243 296 371
#     4  12  21  39  61  93 124 156 194 258 318 360
#     4  11  22  40  65  93 123 160 205 253 302 365
#     4  10  18  35  66  88 116 155 202 244 302 356
#     4  12  24  41  60  89 125 166 205 255 310 363
#
# _framework density 19.185825000000001
#
# number of rings (size 3 to 8) (size 9 to 14) (size 15 to 20)
#    0.000    1.333    5.000    3.500    0.000    2.667 
#    0.000    2.500    0.000    1.000    0.000    0.000 
#    0.000    0.000    0.000    0.000    0.000    0.000 
#
# Total GULP energy -267613.524255 kJ/mol
# GULP energy per Si atom -5575.281755 kJ/mol
# Density = 1.914216 g / cm^3
# Si number density = 19.185825 Si / 1000 Ang^3
#
#
#
# Elastic Constant Matrix: (Units=GPa)
#
#
# Indices 1 2 3 4 5 6 
#
# 1 90.2550 21.5582 16.5639 0.0000 0.0000 0.0000
# 2 21.5582 95.6668 31.5122 0.0000 0.0000 0.0000
# 3 16.5639 31.5122 124.5758 0.0000 0.0000 0.0000
# 4 0.0000 0.0000 0.0000 15.2460 0.0000 0.0000
# 5 0.0000 0.0000 0.0000 0.0000 12.4936 0.0000
# 6 0.0000 0.0000 0.0000 0.0000 0.0000 -14.2688
#
#
#
# Elastic Compliance Matrix: (Units=1/GPa)
#
#
# Indices 1 2 3 4 5 6 
#
# 1 0.011819 -0.002341 -0.000979 0.000000 0.000000 0.000000
# 2 -0.002341 0.011867 -0.002691 0.000000 0.000000 0.000000
# 3 -0.000979 -0.002691 0.008838 0.000000 0.000000 0.000000
# 4 0.000000 0.000000 0.000000 0.065591 0.000000 0.000000
# 5 0.000000 0.000000 0.000000 0.000000 0.080041 0.000000
# 6 0.000000 0.000000 0.000000 0.000000 0.000000 -0.070083
#
#
# Mechanical properties :
#
#
# Convention : Reuss Voigt Hill
#
# Bulk Modulus (GPa) = 48.77532 49.97401 49.37467
# Shear Modulus (GPa) = 39.39269 18.75172 29.07220
#
# Velocity S-wave (km/s) = 4.53616 3.12969 3.89690
# Velocity P-wave (km/s) = 7.27416 6.25810 6.78518
#
# Compressibility (1/GPa) = 0.02050217
#
# Stress axis : x y z
#
# Youngs Moduli (GPa) = 84.61281 84.26973 113.14728
#
# Poissons Ratio (x) = 0.19725 0.11081
# Poissons Ratio (y) = 0.19805 0.30442
# Poissons Ratio (z) = 0.08286 0.22673
#
# Static dielectric constant tensor:
#      x y z
#    x 1.795510 0.000000 0.000000 
#    y 0.000000 1.676940 0.000000 
#    z 0.000000 0.000000 1.685780 
# 
# From -- ./inp_files/10302.got.cif
#   From: 2010.05.17/outbox.cif.g08.bks.cpg/sg59_6_cif.got.tgz:10302.got - 2010.06.03 14:40:33.
