data_PCOD9446152
_publ_section_title
;
Structure prediction by ZEFSAII (Michael W. Deem and Ramdas Pophale) SiO2 
 PCOD9446152
Probable space group: P M M N
;
_chemical_formula_sum "Si O2"
_cell_formula_units_Z 64
_cell_length_a 17.388453
_cell_length_b 17.147395
_cell_length_c 11.620601
_cell_angle_alpha 90.000000
_cell_angle_beta 90.000000
_cell_angle_gamma 90.000000
_cell_volume 3464.875927
_symmetry_space_group_name_H-M "P M M N"
_symmetry_group_IT_number 59
_space_group.IT_coordinate_system_code '2'
_symmetry_cell_setting 'orthorhombic'
loop_
_space_group_symop_operation_xyz
x,y,z
1/2-x,1/2-y,z
1/2+x,-y,-z
-x,1/2+y,-z
-x,-y,-z
1/2+x,1/2+y,-z
1/2-x,y,z
x,1/2-y,z
loop_
_atom_site_type_symbol
_atom_site_label
_atom_site_fract_x
_atom_site_fract_y
_atom_site_fract_z
Si Si1 0.941879 0.099403 0.620943
Si Si2 0.120786 0.903765 0.617916
Si Si3 0.096433 0.159205 0.504676
Si Si4 0.333883 0.424499 0.698471
Si Si5 0.946109 0.923117 0.702780
Si Si6 0.030583 0.337885 0.820530
Si Si7 0.510099 0.414106 0.053177
Si Si8 0.336559 0.840322 0.849917
O O1 0.881684 0.116434 0.517938
O O2 0.024539 0.110106 0.557418
O O3 0.957331 0.149928 0.735369
O O4 0.930044 0.012033 0.666646
O O5 0.160692 0.848576 0.710899
O O6 0.032402 0.904914 0.659401
O O7 0.152162 0.990484 0.643022
O O8 0.077246 0.250000 0.508662
O O9 0.162485 0.136434 0.593001
O O10 0.107851 0.131318 0.374580
O O11 0.250000 0.423545 0.754386
O O12 0.403227 0.399114 0.782319
O O13 0.952203 0.909385 0.838378
O O14 0.059246 0.250000 0.803990
O O15 0.008426 0.354701 0.950922
O O16 0.596260 0.394772 0.098573
O O17 0.500000 0.500000 0.000000
O O18 0.250000 0.861362 0.887718
O O19 0.351780 0.750000 0.879959
#
# Coordination Sequence:
#
# PCOD9446152 Si02
#       8
#     8   8   8   8   8   8   8   8
#     4  10  16  31  51  74 106 137 162 216 278 323
#     4  10  17  30  55  79 105 136 177 216 267 340
#     4  10  19  30  49  78 105 134 172 215 268 332
#     4  11  20  33  53  79 111 149 183 226 286 343
#     4  10  17  32  54  73 104 137 173 220 279 318
#     4  11  22  34  52  83 111 142 192 240 279 335
#     4  11  21  36  60  81 109 149 193 241 283 332
#     4  10  22  38  56  83 117 149 186 238 298 354
#
# _framework density 18.471080000000001
#
# number of rings (size 3 to 8) (size 9 to 14) (size 15 to 20)
#    0.000    1.625    5.000    3.750    0.000    6.500 
#    0.000    0.000    0.000    4.500    0.000    3.500 
#    0.000    0.000    0.000    0.000    0.000    0.000 
#
# Total GULP energy -356351.667440 kJ/mol
# GULP energy per Si atom -5567.994804 kJ/mol
# Density = 1.842904 g / cm^3
# Si number density = 18.471080 Si / 1000 Ang^3
#
#
#
# Elastic Constant Matrix: (Units=GPa)
#
#
# Indices 1 2 3 4 5 6 
#
# 1 54.0457 13.7012 16.9918 0.0000 0.0000 0.0000
# 2 13.7012 61.1946 19.1522 0.0000 0.0000 0.0000
# 3 16.9918 19.1522 125.6382 0.0000 0.0000 0.0000
# 4 0.0000 0.0000 0.0000 20.7177 0.0000 0.0000
# 5 0.0000 0.0000 0.0000 0.0000 11.1777 0.0000
# 6 0.0000 0.0000 0.0000 0.0000 0.0000 9.3657
#
#
#
# Elastic Compliance Matrix: (Units=1/GPa)
#
#
# Indices 1 2 3 4 5 6 
#
# 1 0.020149 -0.003842 -0.002139 0.000000 0.000000 0.000000
# 2 -0.003842 0.017892 -0.002208 0.000000 0.000000 0.000000
# 3 -0.002139 -0.002208 0.008585 0.000000 0.000000 0.000000
# 4 0.000000 0.000000 0.000000 0.048268 0.000000 0.000000
# 5 0.000000 0.000000 0.000000 0.000000 0.089464 0.000000
# 6 0.000000 0.000000 0.000000 0.000000 0.000000 0.106773
#
#
# Mechanical properties :
#
#
# Convention : Reuss Voigt Hill
#
# Bulk Modulus (GPa) = 33.05908 37.84097 35.45002
# Shear Modulus (GPa) = 15.74339 20.98776 18.36558
#
# Velocity S-wave (km/s) = 2.92263 3.37449 3.15665
# Velocity P-wave (km/s) = 5.41531 5.97612 5.70261
#
# Compressibility (1/GPa) = 0.03024888
#
# Stress axis : x y z
#
# Youngs Moduli (GPa) = 49.62919 55.88943 116.47838
#
# Poissons Ratio (x) = 0.21471 0.24920
# Poissons Ratio (y) = 0.19066 0.25718
# Poissons Ratio (z) = 0.10618 0.12340
#
# Static dielectric constant tensor:
#      x y z
#    x 1.665390 0.000000 0.000000 
#    y 0.000000 1.661860 0.000000 
#    z 0.000000 0.000000 1.700930 
# 
# From -- ./inp_files/17972.got.cif
#   From: 2010.05.17/outbox.cif.g08.bks.cpg/sg59_9_cif.got.tgz:17972.got - 2010.06.03 14:40:33.
