data_PCOD9446191
_publ_section_title
;
Structure prediction by ZEFSAII (Michael W. Deem and Ramdas Pophale) SiO2 
 PCOD9446191
Probable space group: P M M N
;
_chemical_formula_sum "Si O2"
_cell_formula_units_Z 64
_cell_length_a 9.028309
_cell_length_b 22.520545
_cell_length_c 20.973444
_cell_angle_alpha 90.000000
_cell_angle_beta 90.000000
_cell_angle_gamma 90.000000
_cell_volume 4264.371791
_symmetry_space_group_name_H-M "P M M N"
_symmetry_group_IT_number 59
_space_group.IT_coordinate_system_code '2'
_symmetry_cell_setting 'orthorhombic'
loop_
_space_group_symop_operation_xyz
x,y,z
1/2-x,1/2-y,z
1/2+x,-y,-z
-x,1/2+y,-z
-x,-y,-z
1/2+x,1/2+y,-z
1/2-x,y,z
x,1/2-y,z
loop_
_atom_site_type_symbol
_atom_site_label
_atom_site_fract_x
_atom_site_fract_y
_atom_site_fract_z
Si Si1 0.072436 0.027828 0.726123
Si Si2 0.426280 0.540841 0.407592
Si Si3 0.573218 0.389463 0.248235
Si Si4 0.923597 0.450626 0.856133
Si Si5 0.428980 0.064117 0.984444
Si Si6 0.926159 0.588898 0.531671
Si Si7 0.078104 0.093536 0.120179
Si Si8 0.928557 0.180509 0.373162
O O1 0.250000 0.033375 0.725969
O O2 0.002673 0.050205 0.660414
O O3 0.003024 0.058499 0.788534
O O4 0.035371 0.957313 0.732139
O O5 0.250000 0.549511 0.403661
O O6 0.453642 0.472549 0.429618
O O7 0.496432 0.580591 0.463364
O O8 0.750000 0.386306 0.244032
O O9 0.508943 0.377456 0.178282
O O10 0.523853 0.346010 0.304610
O O11 0.750000 0.435690 0.854066
O O12 0.933781 0.522032 0.868847
O O13 0.004765 0.419563 0.915766
O O14 0.250000 0.059223 0.981772
O O15 0.468284 0.103402 0.046682
O O16 0.500000 0.000000 0.000000
O O17 0.750000 0.595263 0.524135
O O18 0.994508 0.642249 0.572049
O O19 0.250000 0.109299 0.125846
O O20 0.750000 0.172865 0.377786
O O21 0.962048 0.250000 0.377664
#
# Coordination Sequence:
#
# PCOD9446191 Si02
#       8
#     8   8   8   8   8   8   8   8
#     4  10  17  26  41  60  83 110 142 178 214 256
#     4  10  19  30  46  65  87 113 141 179 222 265
#     4   9  17  27  40  58  78 104 140 177 213 257
#     4   9  16  24  34  51  76 105 137 170 207 248
#     4   9  15  23  33  48  70 100 136 170 205 243
#     4  10  20  32  47  66  86 110 142 181 221 266
#     4   8  15  24  35  50  71 100 133 172 209 242
#     4  10  20  34  49  64  86 115 146 183 225 268
#
# _framework density 15.008073
#
# number of rings (size 3 to 8) (size 9 to 14) (size 15 to 20)
#    0.000    2.625    1.250    2.625    0.000    5.750 
#    0.000    0.000    0.000    0.000    0.000    0.000 
#    0.000    0.000    0.000    1.125    0.000   19.375 
#
# Total GULP energy -356423.331404 kJ/mol
# GULP energy per Si atom -5569.114553 kJ/mol
# Density = 1.497391 g / cm^3
# Si number density = 15.008073 Si / 1000 Ang^3
#
#
#
# Elastic Constant Matrix: (Units=GPa)
#
#
# Indices 1 2 3 4 5 6 
#
# 1 51.8457 25.4308 69.5785 0.0000 0.0000 0.0000
# 2 25.4308 39.0164 41.6528 0.0000 0.0000 0.0000
# 3 69.5785 41.6528 182.4340 0.0000 0.0000 0.0000
# 4 0.0000 0.0000 0.0000 8.8278 0.0000 0.0000
# 5 0.0000 0.0000 0.0000 0.0000 33.8433 0.0000
# 6 0.0000 0.0000 0.0000 0.0000 0.0000 11.1894
#
#
#
# Elastic Compliance Matrix: (Units=1/GPa)
#
#
# Indices 1 2 3 4 5 6 
#
# 1 0.045001 -0.014557 -0.013839 0.000000 0.000000 0.000000
# 2 -0.014557 0.038600 -0.003261 0.000000 0.000000 0.000000
# 3 -0.013839 -0.003261 0.011504 0.000000 0.000000 0.000000
# 4 0.000000 0.000000 0.000000 0.113278 0.000000 0.000000
# 5 0.000000 0.000000 0.000000 0.000000 0.029548 0.000000
# 6 0.000000 0.000000 0.000000 0.000000 0.000000 0.089370
#
#
# Mechanical properties :
#
#
# Convention : Reuss Voigt Hill
#
# Bulk Modulus (GPa) = 31.45623 60.73559 46.09591
# Shear Modulus (GPa) = 12.46218 19.88104 16.17161
#
# Velocity S-wave (km/s) = 2.88473 3.64358 3.28613
# Velocity P-wave (km/s) = 5.66574 7.63265 6.72153
#
# Compressibility (1/GPa) = 0.03179020
#
# Stress axis : x y z
#
# Youngs Moduli (GPa) = 22.22158 25.90666 86.92489
#
# Poissons Ratio (x) = 0.37713 1.20298
# Poissons Ratio (y) = 0.32349 0.28347
# Poissons Ratio (z) = 0.30753 0.08448
#
# Static dielectric constant tensor:
#      x y z
#    x 1.499980 0.000000 0.000000 
#    y 0.000000 1.461140 0.000000 
#    z 0.000000 0.000000 1.523890 
# 
# From -- ./inp_files/29782.got.cif
#   From: 2010.05.17/outbox.cif.g08.bks.cpg/sg59_15_cif.got.tgz:29782.got - 2010.06.03 14:40:33.
