data_PCOD9446572
_publ_section_title
;
Structure prediction by ZEFSAII (Michael W. Deem and Ramdas Pophale) SiO2 
 PCOD9446572
Probable space group: P M M N
;
_chemical_formula_sum "Si O2"
_cell_formula_units_Z 64
_cell_length_a 8.078880
_cell_length_b 24.124983
_cell_length_c 19.789953
_cell_angle_alpha 90.000000
_cell_angle_beta 90.000000
_cell_angle_gamma 90.000000
_cell_volume 3857.118096
_symmetry_space_group_name_H-M "P M M N"
_symmetry_group_IT_number 59
_space_group.IT_coordinate_system_code '2'
_symmetry_cell_setting 'orthorhombic'
loop_
_space_group_symop_operation_xyz
x,y,z
1/2-x,1/2-y,z
1/2+x,-y,-z
-x,1/2+y,-z
-x,-y,-z
1/2+x,1/2+y,-z
1/2-x,y,z
x,1/2-y,z
loop_
_atom_site_type_symbol
_atom_site_label
_atom_site_fract_x
_atom_site_fract_y
_atom_site_fract_z
Si Si1 0.446165 0.516657 0.099896
Si Si2 0.446681 0.001414 0.752783
Si Si3 0.555652 0.409604 0.021267
Si Si4 0.547705 0.686791 0.613137
Si Si5 0.949772 0.913201 0.523539
Si Si6 0.451168 0.373174 0.247663
Si Si7 0.049810 0.022234 0.604920
Si Si8 0.447476 0.187657 0.111705
O O1 0.250000 0.510492 0.088692
O O2 0.478441 0.525417 0.178527
O O3 0.525997 0.459004 0.075254
O O4 0.507715 0.564899 0.049538
O O5 0.250000 0.008940 0.756191
O O6 0.484769 0.935795 0.750780
O O7 0.509236 0.026551 0.681902
O O8 0.750000 0.399992 0.014557
O O9 0.479227 0.353626 0.049839
O O10 0.750000 0.687547 0.612260
O O11 0.491079 0.750000 0.606338
O O12 0.491756 0.644812 0.554404
O O13 0.500153 0.660200 0.685118
O O14 0.750000 0.911431 0.521591
O O15 0.008512 0.931982 0.449263
O O16 0.998461 0.962865 0.574161
O O17 0.250000 0.375998 0.246223
O O18 0.509914 0.341506 0.180395
O O19 0.250000 0.023596 0.606073
O O20 0.250000 0.191643 0.119887
O O21 0.513229 0.250000 0.103279
#
# Coordination Sequence:
#
# PCOD9446572 Si02
#       8
#     8   8   8   8   8   8   8   8
#     4  10  20  33  49  68  92 120 153 191 234 283
#     4  11  20  29  44  67  94 123 153 187 232 277
#     4  10  20  33  49  70  93 119 152 194 237 274
#     4   9  16  26  43  66  89 117 156 192 219 258
#     4   9  16  28  45  64  86 117 152 185 226 270
#     4  10  18  29  44  64  92 124 157 187 217 259
#     4   9  18  29  42  63  92 117 145 188 231 271
#     4  10  20  32  47  68  96 130 161 188 222 268
#
# _framework density 16.592699
#
# number of rings (size 3 to 8) (size 9 to 14) (size 15 to 20)
#    0.000    2.250    2.500    1.500    0.000    3.750 
#    0.000    0.000    0.000    2.250    0.000    0.875 
#    0.000    3.000    0.000    0.000    0.000    0.000 
#
# Total GULP energy -356893.716616 kJ/mol
# GULP energy per Si atom -5576.464322 kJ/mol
# Density = 1.655493 g / cm^3
# Si number density = 16.592699 Si / 1000 Ang^3
#
#
#
# Elastic Constant Matrix: (Units=GPa)
#
#
# Indices 1 2 3 4 5 6 
#
# 1 6.2622 1.5258 -1.6931 0.0000 0.0000 0.0000
# 2 1.5258 85.5035 57.7732 0.0000 0.0000 0.0000
# 3 -1.6931 57.7732 132.2491 0.0000 0.0000 0.0000
# 4 0.0000 0.0000 0.0000 19.2073 0.0000 0.0000
# 5 0.0000 0.0000 0.0000 0.0000 15.0396 0.0000
# 6 0.0000 0.0000 0.0000 0.0000 0.0000 15.6260
#
#
#
# Elastic Compliance Matrix: (Units=1/GPa)
#
#
# Indices 1 2 3 4 5 6 
#
# 1 0.162460 -0.006107 0.004748 0.000000 0.000000 0.000000
# 2 -0.006107 0.016823 -0.007427 0.000000 0.000000 0.000000
# 3 0.004748 -0.007427 0.010867 0.000000 0.000000 0.000000
# 4 0.000000 0.000000 0.000000 0.052063 0.000000 0.000000
# 5 0.000000 0.000000 0.000000 0.000000 0.066491 0.000000
# 6 0.000000 0.000000 0.000000 0.000000 0.000000 0.063996
#
#
# Mechanical properties :
#
#
# Convention : Reuss Voigt Hill
#
# Bulk Modulus (GPa) = 5.79455 37.69186 21.74320
# Shear Modulus (GPa) = 11.16574 21.06851 16.11712
#
# Velocity S-wave (km/s) = 2.59691 3.56721 3.12001
# Velocity P-wave (km/s) = 3.53436 6.30333 5.10997
#
# Compressibility (1/GPa) = 0.17257608
#
# Stress axis : x y z
#
# Youngs Moduli (GPa) = 6.15538 59.44277 92.02258
#
# Poissons Ratio (x) = 0.36302 -0.43689
# Poissons Ratio (y) = 0.03759 0.68348
# Poissons Ratio (z) = -0.02922 0.44150
#
# Static dielectric constant tensor:
#      x y z
#    x 1.586840 0.000000 0.000000 
#    y 0.000000 1.539480 0.000000 
#    z 0.000000 0.000000 1.585640 
# 
# From -- ./inp_files/29741.got.cif
#   From: 2010.05.17/outbox.cif.g08.bks.cpg/sg59_15_cif.got.tgz:29741.got - 2010.06.03 14:40:33.
