data_PCOD9446608
_publ_section_title
;
Structure prediction by ZEFSAII (Michael W. Deem and Ramdas Pophale) SiO2 
 PCOD9446608
Probable space group: P M M N
;
_chemical_formula_sum "Si O2"
_cell_formula_units_Z 64
_cell_length_a 9.259637
_cell_length_b 30.153559
_cell_length_c 15.130195
_cell_angle_alpha 90.000000
_cell_angle_beta 90.000000
_cell_angle_gamma 90.000000
_cell_volume 4224.517036
_symmetry_space_group_name_H-M "P M M N"
_symmetry_group_IT_number 59
_space_group.IT_coordinate_system_code '2'
_symmetry_cell_setting 'orthorhombic'
loop_
_space_group_symop_operation_xyz
x,y,z
1/2-x,1/2-y,z
1/2+x,-y,-z
-x,1/2+y,-z
-x,-y,-z
1/2+x,1/2+y,-z
1/2-x,y,z
x,1/2-y,z
loop_
_atom_site_type_symbol
_atom_site_label
_atom_site_fract_x
_atom_site_fract_y
_atom_site_fract_z
Si Si1 0.922212 0.385215 0.305023
Si Si2 0.081245 0.800640 0.806255
Si Si3 0.422551 0.199403 0.007260
Si Si4 0.077027 0.556132 0.866812
Si Si5 0.576468 0.034112 0.826930
Si Si6 0.079648 0.433825 0.456268
Si Si7 0.923035 0.387110 0.959132
Si Si8 0.421202 0.532425 0.377914
O O1 0.750000 0.388357 0.320211
O O2 0.956052 0.336639 0.267155
O O3 0.958365 0.419044 0.224981
O O4 0.006184 0.398200 0.392722
O O5 0.250000 0.808775 0.831520
O O6 0.069654 0.750000 0.774946
O O7 0.984693 0.805376 0.893296
O O8 0.250000 0.194927 0.007227
O O9 0.458542 0.250000 0.978624
O O10 0.496056 0.159633 0.953669
O O11 0.250000 0.549561 0.870094
O O12 0.998342 0.509036 0.868558
O O13 0.038827 0.587909 0.948898
O O14 0.750000 0.027910 0.830682
O O15 0.541549 0.078345 0.881419
O O16 0.534578 0.037662 0.723900
O O17 0.250000 0.426792 0.463804
O O18 0.055965 0.481480 0.408102
O O19 0.007235 0.437962 0.552135
O O20 0.750000 0.379791 0.959735
O O21 0.250000 0.541511 0.384979
#
# Coordination Sequence:
#
# PCOD9446608 Si02
#       8
#     8   8   8   8   8   8   8   8
#     4  10  18  29  46  69  96 126 157 191 231 276
#     4   9  17  31  50  69  93 126 160 193 233 281
#     4  10  20  32  47  69  95 122 156 199 242 279
#     4  10  19  30  44  67  98 130 163 191 226 275
#     4  10  20  33  49  68  94 127 163 200 237 274
#     4  10  19  30  47  68  90 121 156 190 233 279
#     4  10  20  34  49  68  94 128 165 196 232 282
#     4   9  18  32  46  65  91 119 153 196 237 271
#
# _framework density 15.149661
#
# number of rings (size 3 to 8) (size 9 to 14) (size 15 to 20)
#    0.000    2.250    2.500    1.125    0.000    3.250 
#    0.000    0.000    0.000    0.000    0.000    0.875 
#    0.000    3.000    0.000    0.000    0.000    0.000 
#
# Total GULP energy -356919.344327 kJ/mol
# GULP energy per Si atom -5576.864755 kJ/mol
# Density = 1.511518 g / cm^3
# Si number density = 15.149661 Si / 1000 Ang^3
#
#
#
# Elastic Constant Matrix: (Units=GPa)
#
#
# Indices 1 2 3 4 5 6 
#
# 1 30.1219 47.6282 27.3119 0.0000 0.0000 0.0000
# 2 47.6282 113.4322 41.7705 0.0000 0.0000 0.0000
# 3 27.3119 41.7705 61.5794 0.0000 0.0000 0.0000
# 4 0.0000 0.0000 0.0000 21.9734 0.0000 0.0000
# 5 0.0000 0.0000 0.0000 0.0000 17.3830 0.0000
# 6 0.0000 0.0000 0.0000 0.0000 0.0000 24.6618
#
#
#
# Elastic Compliance Matrix: (Units=1/GPa)
#
#
# Indices 1 2 3 4 5 6 
#
# 1 0.124129 -0.042450 -0.026260 0.000000 0.000000 0.000000
# 2 -0.042450 0.026268 0.001009 0.000000 0.000000 0.000000
# 3 -0.026260 0.001009 0.027201 0.000000 0.000000 0.000000
# 4 0.000000 0.000000 0.000000 0.045509 0.000000 0.000000
# 5 0.000000 0.000000 0.000000 0.000000 0.057527 0.000000
# 6 0.000000 0.000000 0.000000 0.000000 0.000000 0.040549
#
#
# Mechanical properties :
#
#
# Convention : Reuss Voigt Hill
#
# Bulk Modulus (GPa) = 23.69761 48.72830 36.21295
# Shear Modulus (GPa) = 10.62358 18.69852 14.66105
#
# Velocity S-wave (km/s) = 2.65097 3.51701 3.11424
# Velocity P-wave (km/s) = 5.00465 6.98046 6.07344
#
# Compressibility (1/GPa) = 0.04219836
#
# Stress axis : x y z
#
# Youngs Moduli (GPa) = 8.05610 38.06896 36.76287
#
# Poissons Ratio (x) = 1.61602 0.96538
# Poissons Ratio (y) = 0.34198 -0.03711
# Poissons Ratio (z) = 0.21155 -0.03843
#
# Static dielectric constant tensor:
#      x y z
#    x 1.501720 0.000000 0.000000 
#    y 0.000000 1.500980 0.000000 
#    z 0.000000 0.000000 1.485880 
# 
# From -- ./inp_files/21843.got.cif
#   From: 2010.05.17/outbox.cif.g08.bks.cpg/sg59_11_cif.got.tgz:21843.got - 2010.06.03 14:40:33.
