data_PCOD9446599
_publ_section_title
;
Structure prediction by ZEFSAII (Michael W. Deem and Ramdas Pophale) SiO2 
 PCOD9446599
Probable space group: P M M N
;
_chemical_formula_sum "Si O2"
_cell_formula_units_Z 48
_cell_length_a 7.694505
_cell_length_b 21.581030
_cell_length_c 15.600149
_cell_angle_alpha 90.000000
_cell_angle_beta 90.000000
_cell_angle_gamma 90.000000
_cell_volume 2590.488097
_symmetry_space_group_name_H-M "P M M N"
_symmetry_group_IT_number 59
_space_group.IT_coordinate_system_code '2'
_symmetry_cell_setting 'orthorhombic'
loop_
_space_group_symop_operation_xyz
x,y,z
1/2-x,1/2-y,z
1/2+x,-y,-z
-x,1/2+y,-z
-x,-y,-z
1/2+x,1/2+y,-z
1/2-x,y,z
x,1/2-y,z
loop_
_atom_site_type_symbol
_atom_site_label
_atom_site_fract_x
_atom_site_fract_y
_atom_site_fract_z
Si Si1 0.544904 0.343725 0.695932
Si Si2 0.540852 0.317205 0.886285
Si Si3 0.540779 0.446153 0.431085
Si Si4 0.463016 0.683271 0.492458
Si Si5 0.539062 0.516923 0.268132
Si Si6 0.455077 0.043983 0.921031
O O1 0.750000 0.329059 0.697786
O O2 0.473843 0.322270 0.787862
O O3 0.476667 0.318577 0.606481
O O4 0.518536 0.417231 0.694002
O O5 0.750000 0.315519 0.883174
O O6 0.482457 0.250000 0.921720
O O7 0.500325 0.383059 0.930206
O O8 0.500000 0.500000 0.500000
O O9 0.750000 0.442566 0.427610
O O10 0.475885 0.379108 0.461463
O O11 0.478844 0.465994 0.336409
O O12 0.250000 0.680838 0.491155
O O13 0.512136 0.750000 0.530382
O O14 0.750000 0.515143 0.266626
O O15 0.473355 0.518044 0.169958
O O16 0.250000 0.042435 0.912336
O O17 0.500000 0.000000 0.000000
#
# Coordination Sequence:
#
# PCOD9446599 Si02
#       6
#     8   8   8   8   8   8
#     4   9  15  25  43  67  93 123 156 186 224 277
#     4   9  17  29  47  72 101 128 154 191 240 294
#     4  10  18  29  46  67  92 124 159 194 229 275
#     4   9  16  25  40  64  92 122 157 194 227 264
#     4   9  18  30  45  67  95 122 153 196 243 282
#     4  10  20  34  51  71  96 127 162 205 252 297
#
# _framework density 18.529326999999999
#
# number of rings (size 3 to 8) (size 9 to 14) (size 15 to 20)
#    0.000    2.667    1.667    1.000    0.000    3.000 
#    0.000    0.000    0.000    4.000    0.000    4.667 
#    0.000    0.000    0.000    0.000    0.000    0.000 
#
# Total GULP energy -267375.554371 kJ/mol
# GULP energy per Si atom -5570.324049 kJ/mol
# Density = 1.848715 g / cm^3
# Si number density = 18.529327 Si / 1000 Ang^3
#
#
#
# Elastic Constant Matrix: (Units=GPa)
#
#
# Indices 1 2 3 4 5 6 
#
# 1 32.6225 6.0273 6.6725 0.0000 0.0000 0.0000
# 2 6.0273 189.6119 87.9280 0.0000 0.0000 0.0000
# 3 6.6725 87.9280 92.5497 0.0000 0.0000 0.0000
# 4 0.0000 0.0000 0.0000 21.3866 0.0000 0.0000
# 5 0.0000 0.0000 0.0000 0.0000 9.6006 0.0000
# 6 0.0000 0.0000 0.0000 0.0000 0.0000 16.3852
#
#
#
# Elastic Compliance Matrix: (Units=1/GPa)
#
#
# Indices 1 2 3 4 5 6 
#
# 1 0.031113 0.000091 -0.002330 0.000000 0.000000 0.000000
# 2 0.000091 0.009428 -0.008963 0.000000 0.000000 0.000000
# 3 -0.002330 -0.008963 0.019489 0.000000 0.000000 0.000000
# 4 0.000000 0.000000 0.000000 0.046758 0.000000 0.000000
# 5 0.000000 0.000000 0.000000 0.000000 0.104160 0.000000
# 6 0.000000 0.000000 0.000000 0.000000 0.000000 0.061031
#
#
# Mechanical properties :
#
#
# Convention : Reuss Voigt Hill
#
# Bulk Modulus (GPa) = 26.57751 57.33775 41.95763
# Shear Modulus (GPa) = 16.29064 23.75156 20.02110
#
# Velocity S-wave (km/s) = 2.96832 3.58416 3.29068
# Velocity P-wave (km/s) = 5.11102 6.93828 6.09353
#
# Compressibility (1/GPa) = 0.03762580
#
# Stress axis : x y z
#
# Youngs Moduli (GPa) = 32.14051 106.07171 51.31161
#
# Poissons Ratio (x) = -0.00970 0.11956
# Poissons Ratio (y) = -0.00294 0.45993
# Poissons Ratio (z) = 0.07489 0.95076
#
# Static dielectric constant tensor:
#      x y z
#    x 1.691190 0.000000 0.000000 
#    y 0.000000 1.655590 0.000000 
#    z 0.000000 0.000000 1.747410 
# 
# From -- ./inp_files/20721.got.cif
#   From: 2010.05.17/outbox.cif.g08.bks.cpg/sg59_11_cif.got.tgz:20721.got - 2010.06.03 14:40:33.
