data_PCOD9446423
_publ_section_title
;
Structure prediction by ZEFSAII (Michael W. Deem and Ramdas Pophale) SiO2 
 PCOD9446423
Probable space group: P M M N
;
_chemical_formula_sum "Si O2"
_cell_formula_units_Z 64
_cell_length_a 15.136275
_cell_length_b 15.240749
_cell_length_c 15.440520
_cell_angle_alpha 90.000000
_cell_angle_beta 90.000000
_cell_angle_gamma 90.000000
_cell_volume 3561.945273
_symmetry_space_group_name_H-M "P M M N"
_symmetry_group_IT_number 59
_space_group.IT_coordinate_system_code '2'
_symmetry_cell_setting 'orthorhombic'
loop_
_space_group_symop_operation_xyz
x,y,z
1/2-x,1/2-y,z
1/2+x,-y,-z
-x,1/2+y,-z
-x,-y,-z
1/2+x,1/2+y,-z
1/2-x,y,z
x,1/2-y,z
loop_
_atom_site_type_symbol
_atom_site_label
_atom_site_fract_x
_atom_site_fract_y
_atom_site_fract_z
Si Si1 0.898304 0.095909 0.602126
Si Si2 0.851537 0.966780 0.152124
Si Si3 0.959946 0.154201 0.419245
Si Si4 0.352077 0.650515 0.934451
Si Si5 0.346018 0.090885 0.468452
Si Si6 0.991435 0.146304 0.909296
Si Si7 0.091645 0.031416 0.651816
Si Si8 0.156651 0.647942 0.215960
O O1 0.911985 0.146962 0.512680
O O2 0.850861 0.142492 0.681001
O O3 0.853379 0.003746 0.578043
O O4 0.995771 0.073897 0.637571
O O5 0.750000 0.943564 0.132816
O O6 0.862604 0.070253 0.131548
O O7 0.870551 0.950915 0.253693
O O8 0.920331 0.911085 0.094756
O O9 0.945303 0.250000 0.380937
O O10 0.923514 0.072472 0.364608
O O11 0.064781 0.140205 0.438768
O O12 0.250000 0.644846 0.968539
O O13 0.361243 0.750000 0.899302
O O14 0.426914 0.639603 0.007887
O O15 0.250000 0.130909 0.449604
O O16 0.353556 0.070166 0.571006
O O17 0.013072 0.250000 0.897677
O O18 0.929373 0.111853 0.830909
O O19 0.250000 0.606838 0.189073
O O20 0.158259 0.750000 0.189830
#
# Coordination Sequence:
#
# PCOD9446423 Si02
#       8
#     8   8   8   8   8   8   8   8
#     4   9  16  30  46  64  94 127 163 205 248 298
#     4  11  21  34  55  79 105 138 175 208 248 310
#     4   9  18  30  47  67  92 130 168 208 257 300
#     4   9  19  36  57  81 105 131 168 213 256 301
#     4   9  17  29  46  66  91 128 168 205 248 295
#     4  10  20  35  53  75 108 138 165 208 256 304
#     4   9  18  32  47  66  98 133 166 207 250 298
#     4  10  18  27  46  73  97 125 160 203 254 302
#
# _framework density 17.96771
#
# number of rings (size 3 to 8) (size 9 to 14) (size 15 to 20)
#    0.000    2.500    1.250    3.375    0.000    2.500 
#    0.000    0.000    0.000    8.625    0.000    0.000 
#    0.000    0.000    0.000    0.000    0.000    0.000 
#
# Total GULP energy -356443.534161 kJ/mol
# GULP energy per Si atom -5569.430221 kJ/mol
# Density = 1.792681 g / cm^3
# Si number density = 17.967710 Si / 1000 Ang^3
#
#
#
# Elastic Constant Matrix: (Units=GPa)
#
#
# Indices 1 2 3 4 5 6 
#
# 1 93.3250 15.0187 8.6560 0.0000 0.0000 0.0000
# 2 15.0187 48.7180 -5.2853 0.0000 0.0000 0.0000
# 3 8.6560 -5.2853 30.4644 0.0000 0.0000 0.0000
# 4 0.0000 0.0000 0.0000 16.5294 0.0000 0.0000
# 5 0.0000 0.0000 0.0000 0.0000 9.6663 0.0000
# 6 0.0000 0.0000 0.0000 0.0000 0.0000 15.0098
#
#
#
# Elastic Compliance Matrix: (Units=1/GPa)
#
#
# Indices 1 2 3 4 5 6 
#
# 1 0.011743 -0.004059 -0.004041 0.000000 0.000000 0.000000
# 2 -0.004059 0.022323 0.005026 0.000000 0.000000 0.000000
# 3 -0.004041 0.005026 0.034845 0.000000 0.000000 0.000000
# 4 0.000000 0.000000 0.000000 0.060498 0.000000 0.000000
# 5 0.000000 0.000000 0.000000 0.000000 0.103452 0.000000
# 6 0.000000 0.000000 0.000000 0.000000 0.000000 0.066623
#
#
# Mechanical properties :
#
#
# Convention : Reuss Voigt Hill
#
# Bulk Modulus (GPa) = 15.93257 23.25401 19.59329
# Shear Modulus (GPa) = 15.31144 18.51562 16.91353
#
# Velocity S-wave (km/s) = 2.92235 3.21361 3.07144
# Velocity P-wave (km/s) = 4.50260 5.17107 4.84837
#
# Compressibility (1/GPa) = 0.06276453
#
# Stress axis : x y z
#
# Youngs Moduli (GPa) = 85.15589 44.79741 28.69826
#
# Poissons Ratio (x) = 0.18181 0.11596
# Poissons Ratio (y) = 0.34561 -0.14424
# Poissons Ratio (z) = 0.34409 -0.22515
#
# Static dielectric constant tensor:
#      x y z
#    x 1.657800 0.000000 0.000000 
#    y 0.000000 1.610960 0.000000 
#    z 0.000000 0.000000 1.607790 
# 
# From -- ./inp_files/23495.got.cif
#   From: 2010.05.17/outbox.cif.g08.bks.cpg/sg59_12_cif.got.tgz:23495.got - 2010.06.03 14:40:33.
