data_PCOD9446249
_publ_section_title
;
Structure prediction by ZEFSAII (Michael W. Deem and Ramdas Pophale) SiO2 
 PCOD9446249
Probable space group: P M M N
;
_chemical_formula_sum "Si O2"
_cell_formula_units_Z 64
_cell_length_a 30.715217
_cell_length_b 8.662228
_cell_length_c 15.220793
_cell_angle_alpha 90.000000
_cell_angle_beta 90.000000
_cell_angle_gamma 90.000000
_cell_volume 4049.677865
_symmetry_space_group_name_H-M "P M M N"
_symmetry_group_IT_number 59
_space_group.IT_coordinate_system_code '2'
_symmetry_cell_setting 'orthorhombic'
loop_
_space_group_symop_operation_xyz
x,y,z
1/2-x,1/2-y,z
1/2+x,-y,-z
-x,1/2+y,-z
-x,-y,-z
1/2+x,1/2+y,-z
1/2-x,y,z
x,1/2-y,z
loop_
_atom_site_type_symbol
_atom_site_label
_atom_site_fract_x
_atom_site_fract_y
_atom_site_fract_z
Si Si1 0.437059 0.434156 0.955606
Si Si2 0.615364 0.063737 0.198410
Si Si3 0.963173 0.563609 0.676698
Si Si4 0.559760 0.436108 0.369871
Si Si5 0.470259 0.565560 0.128683
Si Si6 0.298009 0.937772 0.707066
Si Si7 0.109663 0.065134 0.460886
Si Si8 0.299139 0.563683 0.502146
O O1 0.437478 0.250000 0.963312
O O2 0.398775 0.490288 0.892787
O O3 0.481669 0.483310 0.905427
O O4 0.438287 0.507083 0.052158
O O5 0.615035 0.250000 0.190261
O O6 0.581519 0.023292 0.276355
O O7 0.662383 0.011084 0.232889
O O8 0.963757 0.750000 0.679592
O O9 0.961415 0.502486 0.775724
O O10 0.922339 0.513937 0.617732
O O11 0.009234 0.515087 0.632971
O O12 0.561910 0.250000 0.378397
O O13 0.587348 0.507082 0.449011
O O14 0.469344 0.750000 0.133057
O O15 0.250000 0.988278 0.735640
O O16 0.298615 0.750000 0.707475
O O17 0.303966 0.981832 0.605056
O O18 0.110774 0.250000 0.461994
O O19 0.158837 0.003059 0.453791
O O20 0.250000 0.517163 0.474127
O O21 0.300870 0.750000 0.498359
#
# Coordination Sequence:
#
# PCOD9446249 Si02
#       8
#     8   8   8   8   8   8   8   8
#     4  10  20  32  48  70  97 124 152 193 242 287
#     4  10  17  28  49  71  93 127 165 198 234 281
#     4  10  21  35  48  66  97 135 168 204 246 285
#     4  10  19  32  48  66  95 135 174 203 232 277
#     4  10  20  33  50  71  92 121 161 201 237 281
#     4   8  14  26  45  68  92 120 157 198 237 277
#     4  11  22  32  46  70 100 132 165 202 248 294
#     4   9  17  32  52  70  91 124 165 204 244 290
#
# _framework density 15.803725999999999
#
# number of rings (size 3 to 8) (size 9 to 14) (size 15 to 20)
#    0.000    2.250    2.500    2.250    0.000    3.250 
#    0.000    0.000    0.000    0.375    0.000    0.875 
#    0.000    5.000    0.000    0.000    0.000    0.000 
#
# Total GULP energy -356905.256275 kJ/mol
# GULP energy per Si atom -5576.644629 kJ/mol
# Density = 1.576776 g / cm^3
# Si number density = 15.803726 Si / 1000 Ang^3
#
#
#
# Elastic Constant Matrix: (Units=GPa)
#
#
# Indices 1 2 3 4 5 6 
#
# 1 133.6213 22.4947 45.8928 0.0000 0.0000 0.0000
# 2 22.4947 10.8429 14.8548 0.0000 0.0000 0.0000
# 3 45.8928 14.8548 67.5194 0.0000 0.0000 0.0000
# 4 0.0000 0.0000 0.0000 25.3851 0.0000 0.0000
# 5 0.0000 0.0000 0.0000 0.0000 23.4717 0.0000
# 6 0.0000 0.0000 0.0000 0.0000 0.0000 20.7833
#
#
#
# Elastic Compliance Matrix: (Units=1/GPa)
#
#
# Indices 1 2 3 4 5 6 
#
# 1 0.012175 -0.019928 -0.003891 0.000000 0.000000 0.000000
# 2 -0.019928 0.164635 -0.022676 0.000000 0.000000 0.000000
# 3 -0.003891 -0.022676 0.022444 0.000000 0.000000 0.000000
# 4 0.000000 0.000000 0.000000 0.039393 0.000000 0.000000
# 5 0.000000 0.000000 0.000000 0.000000 0.042604 0.000000
# 6 0.000000 0.000000 0.000000 0.000000 0.000000 0.048116
#
#
# Mechanical properties :
#
#
# Convention : Reuss Voigt Hill
#
# Bulk Modulus (GPa) = 9.41046 42.05201 25.73123
# Shear Modulus (GPa) = 10.92229 22.51077 16.71653
#
# Velocity S-wave (km/s) = 2.63177 3.77821 3.25585
# Velocity P-wave (km/s) = 3.89903 6.76017 5.51826
#
# Compressibility (1/GPa) = 0.10626470
#
# Stress axis : x y z
#
# Youngs Moduli (GPa) = 82.13552 6.07403 44.55474
#
# Poissons Ratio (x) = 0.12104 0.17337
# Poissons Ratio (y) = 1.63676 1.01034
# Poissons Ratio (z) = 0.31960 0.13774
#
# Static dielectric constant tensor:
#      x y z
#    x 1.546780 0.000000 0.000000 
#    y 0.000000 1.514540 0.000000 
#    z 0.000000 0.000000 1.500280 
# 
# From -- ./inp_files/25104.got.cif
#   From: 2010.05.17/outbox.cif.g08.bks.cpg/sg59_13_cif.got.tgz:25104.got - 2010.06.03 14:40:33.
