data_PCOD9446107
_publ_section_title
;
Structure prediction by ZEFSAII (Michael W. Deem and Ramdas Pophale) SiO2 
 PCOD9446107
Probable space group: P N N M
;
_chemical_formula_sum "Si O2"
_cell_formula_units_Z 64
_cell_length_a 21.000000
_cell_length_b 18.000000
_cell_length_c 9.000000
_cell_angle_alpha 90.000000
_cell_angle_beta 90.000000
_cell_angle_gamma 90.000000
_cell_volume 3402.000000
_symmetry_space_group_name_H-M "P N N M"
_symmetry_group_IT_number 58
_symmetry_cell_setting 'orthorhombic'
loop_
_space_group_symop_operation_xyz
x,y,z
-x,-y,z
1/2+x,1/2-y,1/2-z
1/2-x,1/2+y,1/2-z
-x,-y,-z
x,y,-z
1/2-x,1/2+y,1/2+z
1/2+x,1/2-y,1/2+z
loop_
_atom_site_type_symbol
_atom_site_label
_atom_site_fract_x
_atom_site_fract_y
_atom_site_fract_z
Si Si1 0.104513 0.645959 0.818600
Si Si2 0.466180 0.818637 0.179896
Si Si3 0.313416 0.282897 0.819137
Si Si4 0.292597 0.022084 0.321036
Si Si5 0.459693 0.658646 0.322399
Si Si6 0.824593 0.647357 0.819548
Si Si7 0.598246 0.588413 0.321568
Si Si8 0.649314 0.437913 0.179952
O O1 0.150489 0.710864 0.750599
O O2 0.145402 0.571451 0.783841
O O3 0.032281 0.645996 0.749724
O O4 0.099833 0.654774 0.000000
O O5 0.472681 0.733459 0.231809
O O6 0.394982 0.840358 0.244894
O O7 0.466487 0.827041 0.000000
O O8 0.237337 0.298822 0.784766
O O9 0.355549 0.349491 0.749451
O O10 0.318486 0.281785 0.000000
O O11 0.289081 0.021218 0.500000
O O12 0.301604 0.936108 0.276283
O O13 0.224211 0.056860 0.273642
O O14 0.453451 0.672609 0.500000
O O15 0.523352 0.608528 0.302502
O O16 0.394403 0.624078 0.258583
O O17 0.832999 0.650822 0.000000
O O18 0.609171 0.582258 0.500000
O O19 0.616755 0.513705 0.236253
O O20 0.646249 0.430859 0.000000
#
# Coordination Sequence:
#
# PCOD9446107 Si02
#       8
#     8   8   8   8   8   8   8   8
#     4  11  23  42  67  93 126 166 211 260 316 379
#     4  12  26  43  64  93 126 164 213 265 317 373
#     4  11  22  39  66  95 127 164 208 260 313 373
#     4   9  21  42  66  92 122 164 210 256 312 378
#     4  11  24  41  60  90 128 169 214 258 311 376
#     4  10  22  44  68  92 126 166 210 258 316 378
#     4  11  22  38  62  90 127 172 213 255 308 376
#     4  11  22  39  62  94 130 166 210 261 313 373
#
# _framework density 18.812463000000001
#
# number of rings (size 3 to 8) (size 9 to 14) (size 15 to 20)
#    0.000    1.250    2.500    3.375    1.750    4.500 
#    0.000    5.625    0.000    0.000    0.000    0.000 
#    0.000    0.000    0.000    0.000    0.000    0.000 
#
# Total GULP energy -357090.968966 kJ/mol
# GULP energy per Si atom -5579.546390 kJ/mol
# Density = 1.876965 g / cm^3
# Si number density = 18.812463 Si / 1000 Ang^3
#
#
#
# Elastic Constant Matrix: (Units=GPa)
#
#
# Indices 1 2 3 4 5 6 
#
# 1 178.6781 18.7846 49.6004 0.0000 0.0000 0.0000
# 2 18.7846 35.8518 6.2927 0.0000 0.0000 0.0000
# 3 49.6004 6.2927 105.3618 0.0000 0.0000 0.0000
# 4 0.0000 0.0000 0.0000 29.1620 0.0000 0.0000
# 5 0.0000 0.0000 0.0000 0.0000 44.9371 0.0000
# 6 0.0000 0.0000 0.0000 0.0000 0.0000 44.5677
#
#
#
# Elastic Compliance Matrix: (Units=1/GPa)
#
#
# Indices 1 2 3 4 5 6 
#
# 1 0.006744 -0.003008 -0.002995 0.000000 0.000000 0.000000
# 2 -0.003008 0.029530 -0.000348 0.000000 0.000000 0.000000
# 3 -0.002995 -0.000348 0.010922 0.000000 0.000000 0.000000
# 4 0.000000 0.000000 0.000000 0.034291 0.000000 0.000000
# 5 0.000000 0.000000 0.000000 0.000000 0.022253 0.000000
# 6 0.000000 0.000000 0.000000 0.000000 0.000000 0.022438
#
#
# Mechanical properties :
#
#
# Convention : Reuss Voigt Hill
#
# Bulk Modulus (GPa) = 28.99048 52.13859 40.56453
# Shear Modulus (GPa) = 33.24949 40.08096 36.66522
#
# Velocity S-wave (km/s) = 4.20863 4.62080 4.41952
# Velocity P-wave (km/s) = 6.24984 7.49961 6.90306
#
# Compressibility (1/GPa) = 0.03449409
#
# Stress axis : x y z
#
# Youngs Moduli (GPa) = 148.27143 33.86428 91.55860
#
# Poissons Ratio (x) = 0.10186 0.27425
# Poissons Ratio (y) = 0.44600 0.03183
# Poissons Ratio (z) = 0.44413 0.01177
#
# Static dielectric constant tensor:
#      x y z
#    x 1.657760 0.000000 0.000000 
#    y 0.000000 1.703970 0.000000 
#    z 0.000000 0.000000 1.633270 
# 
# From -- ./inp_files/9325.got.cif
#   From: 2010.05.17/outbox.ucp.g08.bks.cvg/sg58_5_cif.got.tgz:9325.got - 2010.06.11 16:41:41.
