data_PCOD9446040
_publ_section_title
;
Structure prediction by ZEFSAII (Michael W. Deem and Ramdas Pophale) SiO2 
 PCOD9446040
Probable space group: P N N M
;
_chemical_formula_sum "Si O2"
_cell_formula_units_Z 60
_cell_length_a 12.000000
_cell_length_b 12.000000
_cell_length_c 21.000000
_cell_angle_alpha 90.000000
_cell_angle_beta 90.000000
_cell_angle_gamma 90.000000
_cell_volume 3024.000000
_symmetry_space_group_name_H-M "P N N M"
_symmetry_group_IT_number 58
_symmetry_cell_setting 'orthorhombic'
loop_
_space_group_symop_operation_xyz
x,y,z
-x,-y,z
1/2+x,1/2-y,1/2-z
1/2-x,1/2+y,1/2-z
-x,-y,-z
x,y,-z
1/2-x,1/2+y,1/2+z
1/2+x,1/2-y,1/2+z
loop_
_atom_site_type_symbol
_atom_site_label
_atom_site_fract_x
_atom_site_fract_y
_atom_site_fract_z
Si Si1 0.000000 0.500000 0.172538
Si Si2 0.754809 0.532756 0.875073
Si Si3 0.134622 0.627140 0.349872
Si Si4 0.689118 0.261587 0.428046
Si Si5 0.626002 0.137371 0.846338
Si Si6 0.477214 0.242323 0.664383
Si Si7 0.735265 0.797454 0.574834
Si Si8 0.692821 0.677856 0.242684
O O1 0.886876 0.512085 0.133673
O O2 0.991446 0.376536 0.202308
O O3 0.753816 0.639423 0.921037
O O4 0.711968 0.414038 0.899341
O O5 0.705638 0.578091 0.808258
O O6 0.212211 0.653615 0.410513
O O7 0.138874 0.495529 0.338853
O O8 0.186442 0.706560 0.295848
O O9 0.004932 0.660824 0.353309
O O10 0.646888 0.276236 0.500000
O O11 0.589939 0.269379 0.374757
O O12 0.686829 0.194017 0.906303
O O13 0.697923 0.183958 0.787036
O O14 0.381575 0.222314 0.611320
O O15 0.418289 0.327034 0.713456
O O16 0.717629 0.807235 0.500000
#
# Coordination Sequence:
#
# PCOD9446040 Si02
#       8
#     4   8   8   8   8   8   8   8
#     4   8  16  28  57  84 120 152 197 236 304 346
#     4   9  19  34  57  94 121 161 200 254 309 369
#     4  10  24  41  62  89 119 162 210 256 307 362
#     4  10  20  38  62  91 126 163 206 255 311 368
#     4  10  24  41  62  89 119 162 210 256 307 362
#     4   9  19  34  57  94 121 161 200 254 309 369
#     4  10  20  38  62  91 126 163 206 255 311 368
#     4  10  22  36  61  89 124 160 204 254 316 381
#
# _framework density 19.841270000000002
#
# number of rings (size 3 to 8) (size 9 to 14) (size 15 to 20)
#    0.000    2.400    0.000    0.800   11.200    1.067 
#    0.000   12.000    0.000    8.000    0.000    0.000 
#    0.000    0.000    0.000    0.000    0.000    0.000 
#
# Total GULP energy -334282.541701 kJ/mol
# GULP energy per Si atom -5571.375695 kJ/mol
# Density = 1.979611 g / cm^3
# Si number density = 19.841270 Si / 1000 Ang^3
#
#
#
# Elastic Constant Matrix: (Units=GPa)
#
#
# Indices 1 2 3 4 5 6 
#
# 1 79.7058 21.3152 7.9081 0.0000 0.0000 0.0000
# 2 21.3152 35.7580 -2.9835 0.0000 0.0000 0.0000
# 3 7.9081 -2.9835 76.9172 0.0000 0.0000 0.0000
# 4 0.0000 0.0000 0.0000 16.5588 0.0000 0.0000
# 5 0.0000 0.0000 0.0000 0.0000 17.0444 0.0000
# 6 0.0000 0.0000 0.0000 0.0000 0.0000 29.7526
#
#
#
# Elastic Compliance Matrix: (Units=1/GPa)
#
#
# Indices 1 2 3 4 5 6 
#
# 1 0.015203 -0.009223 -0.001921 0.000000 0.000000 0.000000
# 2 -0.009223 0.033651 0.002254 0.000000 0.000000 0.000000
# 3 -0.001921 0.002254 0.013286 0.000000 0.000000 0.000000
# 4 0.000000 0.000000 0.000000 0.060391 0.000000 0.000000
# 5 0.000000 0.000000 0.000000 0.000000 0.058670 0.000000
# 6 0.000000 0.000000 0.000000 0.000000 0.000000 0.033610
#
#
# Mechanical properties :
#
#
# Convention : Reuss Voigt Hill
#
# Bulk Modulus (GPa) = 22.54267 27.20672 24.87470
# Shear Modulus (GPa) = 20.21190 23.74725 21.97958
#
# Velocity S-wave (km/s) = 3.19514 3.46332 3.33193
# Velocity P-wave (km/s) = 4.99981 5.45296 5.23129
#
# Compressibility (1/GPa) = 0.04436032
#
# Stress axis : x y z
#
# Youngs Moduli (GPa) = 65.77610 29.71636 75.26781
#
# Poissons Ratio (x) = 0.27407 0.14457
# Poissons Ratio (y) = 0.60664 -0.16962
# Poissons Ratio (z) = 0.12634 -0.06697
#
# Static dielectric constant tensor:
#      x y z
#    x 1.715230 0.000000 0.000000 
#    y 0.000000 1.734160 0.000000 
#    z 0.000000 0.000000 1.738780 
# 
# From -- ./inp_files/29646.got.cif
#   From: 2010.05.17/outbox.ucp.g08.bks.cvg/sg58_15_cif.got.tgz:29646.got - 2010.06.11 16:41:41.
