data_PCOD9446718
_publ_section_title
;
Structure prediction by ZEFSAII (Michael W. Deem and Ramdas Pophale) SiO2 
 PCOD9446718
Probable space group: P M M N
;
_chemical_formula_sum "Si O2"
_cell_formula_units_Z 64
_cell_length_a 9.287679
_cell_length_b 22.517865
_cell_length_c 20.744013
_cell_angle_alpha 90.000000
_cell_angle_beta 90.000000
_cell_angle_gamma 90.000000
_cell_volume 4338.375951
_symmetry_space_group_name_H-M "P M M N"
_symmetry_group_IT_number 59
_space_group.IT_coordinate_system_code '2'
_symmetry_cell_setting 'orthorhombic'
loop_
_space_group_symop_operation_xyz
x,y,z
1/2-x,1/2-y,z
1/2+x,-y,-z
-x,1/2+y,-z
-x,-y,-z
1/2+x,1/2+y,-z
1/2-x,y,z
x,1/2-y,z
loop_
_atom_site_type_symbol
_atom_site_label
_atom_site_fract_x
_atom_site_fract_y
_atom_site_fract_z
Si Si1 0.421457 0.440406 0.475359
Si Si2 0.580025 0.469823 0.205127
Si Si3 0.580523 0.604655 0.389002
Si Si4 0.420342 0.109345 0.827384
Si Si5 0.583895 0.083310 0.954717
Si Si6 0.578648 0.466249 0.352351
Si Si7 0.419604 0.820621 0.284440
Si Si8 0.415614 0.442165 0.079610
O O1 0.500000 0.500000 0.500000
O O2 0.250000 0.450115 0.470684
O O3 0.445176 0.394593 0.534010
O O4 0.490039 0.429789 0.405519
O O5 0.750000 0.458035 0.195599
O O6 0.561490 0.541041 0.196582
O O7 0.540726 0.453555 0.278279
O O8 0.488883 0.438518 0.149440
O O9 0.750000 0.616477 0.377024
O O10 0.553647 0.536756 0.365287
O O11 0.483738 0.648612 0.348072
O O12 0.250000 0.120720 0.831593
O O13 0.495514 0.113310 0.896987
O O14 0.495961 0.151528 0.775878
O O15 0.750000 0.102487 0.956363
O O16 0.583381 0.012589 0.938334
O O17 0.506432 0.089327 0.023488
O O18 0.750000 0.456933 0.361258
O O19 0.250000 0.833851 0.278514
O O20 0.438721 0.750000 0.286793
O O21 0.250000 0.422760 0.080010
#
# Coordination Sequence:
#
# PCOD9446718 Si02
#       8
#     8   8   8   8   8   8   8   8
#     4   9  17  27  40  59  80 102 132 167 203 245
#     4   9  16  26  39  56  81 109 136 169 203 238
#     4   9  17  31  45  58  77 104 137 172 208 250
#     4  10  18  30  45  58  75 103 137 173 210 248
#     4   9  16  26  39  55  76 102 133 168 204 239
#     4   9  16  27  41  60  83 107 137 169 204 246
#     4  11  23  34  44  61  82 104 137 180 220 256
#     4   9  16  24  35  55  78 104 137 167 196 235
#
# _framework density 14.752065
#
# number of rings (size 3 to 8) (size 9 to 14) (size 15 to 20)
#    0.000    2.625    1.250    2.625    0.000    7.500 
#    0.000    0.000    0.000    0.000    0.000    0.000 
#    0.000    0.000    0.000    1.125    0.000   18.750 
#
# Total GULP energy -356504.224020 kJ/mol
# GULP energy per Si atom -5570.378500 kJ/mol
# Density = 1.471849 g / cm^3
# Si number density = 14.752065 Si / 1000 Ang^3
#
#
#
# Elastic Constant Matrix: (Units=GPa)
#
#
# Indices 1 2 3 4 5 6 
#
# 1 111.7644 36.2142 92.6203 0.0000 0.0000 0.0000
# 2 36.2142 23.3842 28.5706 0.0000 0.0000 0.0000
# 3 92.6203 28.5706 161.0677 0.0000 0.0000 0.0000
# 4 0.0000 0.0000 0.0000 6.5838 0.0000 0.0000
# 5 0.0000 0.0000 0.0000 0.0000 33.0175 0.0000
# 6 0.0000 0.0000 0.0000 0.0000 0.0000 13.3997
#
#
#
# Elastic Compliance Matrix: (Units=1/GPa)
#
#
# Indices 1 2 3 4 5 6 
#
# 1 0.026930 -0.029090 -0.010326 0.000000 0.000000 0.000000
# 2 -0.029090 0.086018 0.001470 0.000000 0.000000 0.000000
# 3 -0.010326 0.001470 0.011886 0.000000 0.000000 0.000000
# 4 0.000000 0.000000 0.000000 0.151888 0.000000 0.000000
# 5 0.000000 0.000000 0.000000 0.000000 0.030287 0.000000
# 6 0.000000 0.000000 0.000000 0.000000 0.000000 0.074629
#
#
# Mechanical properties :
#
#
# Convention : Reuss Voigt Hill
#
# Bulk Modulus (GPa) = 20.43225 67.89185 44.16205
# Shear Modulus (GPa) = 10.55197 19.85427 15.20312
#
# Velocity S-wave (km/s) = 2.67739 3.67258 3.21374
# Velocity P-wave (km/s) = 4.84132 8.00660 6.61604
#
# Compressibility (1/GPa) = 0.04894225
#
# Stress axis : x y z
#
# Youngs Moduli (GPa) = 37.13278 11.62541 84.13425
#
# Poissons Ratio (x) = 0.33818 0.86877
# Poissons Ratio (y) = 1.08018 -0.12364
# Poissons Ratio (z) = 0.38343 -0.01708
#
# Static dielectric constant tensor:
#      x y z
#    x 1.491440 0.000000 0.000000 
#    y 0.000000 1.445200 0.000000 
#    z 0.000000 0.000000 1.512360 
# 
# From -- ./inp_files/29738.got.cif
#   From: 2010.05.17/outbox.cif.g08.bks.cpg/sg59_15_cif.got.tgz:29738.got - 2010.06.03 14:40:33.
