data_PCOD9446491
_publ_section_title
;
Structure prediction by ZEFSAII (Michael W. Deem and Ramdas Pophale) SiO2 
 PCOD9446491
Probable space group: P M M N
;
_chemical_formula_sum "Si O2"
_cell_formula_units_Z 56
_cell_length_a 9.063606
_cell_length_b 19.711014
_cell_length_c 18.717613
_cell_angle_alpha 90.000000
_cell_angle_beta 90.000000
_cell_angle_gamma 90.000000
_cell_volume 3343.955184
_symmetry_space_group_name_H-M "P M M N"
_symmetry_group_IT_number 59
_space_group.IT_coordinate_system_code '2'
_symmetry_cell_setting 'orthorhombic'
loop_
_space_group_symop_operation_xyz
x,y,z
1/2-x,1/2-y,z
1/2+x,-y,-z
-x,1/2+y,-z
-x,-y,-z
1/2+x,1/2+y,-z
1/2-x,y,z
x,1/2-y,z
loop_
_atom_site_type_symbol
_atom_site_label
_atom_site_fract_x
_atom_site_fract_y
_atom_site_fract_z
Si Si1 0.571372 0.750000 0.952328
Si Si2 0.073213 0.608601 0.990733
Si Si3 0.922125 0.865448 0.681099
Si Si4 0.077913 0.979979 0.263625
Si Si5 0.419650 0.901904 0.542412
Si Si6 0.426501 0.014720 0.889240
Si Si7 0.579618 0.940747 0.403604
Si Si8 0.570667 0.750000 0.787326
O O1 0.750000 0.750000 0.957459
O O2 0.524427 0.750000 0.868982
O O3 0.504763 0.818807 0.984767
O O4 0.250000 0.615589 0.997737
O O5 0.006345 0.566560 0.056906
O O6 0.043645 0.560783 0.921220
O O7 0.750000 0.850515 0.667111
O O8 0.977387 0.815157 0.742240
O O9 0.008837 0.860546 0.607100
O O10 0.930547 0.941757 0.710720
O O11 0.250000 0.962942 0.253373
O O12 0.007774 0.938128 0.329170
O O13 0.989801 0.975285 0.189824
O O14 0.250000 0.883907 0.531433
O O15 0.506901 0.899198 0.468171
O O16 0.424891 0.980591 0.569416
O O17 0.250000 0.024697 0.890886
O O18 0.750000 0.922642 0.393376
O O19 0.750000 0.750000 0.789165
#
# Coordination Sequence:
#
# PCOD9446491 Si02
#       8
#     4   8   8   8   8   8   8   4
#     4  11  21  35  55  77 102 133 170 209 251 301
#     4  10  21  36  53  74 101 133 169 209 254 303
#     4   9  17  29  44  63  90 126 163 196 234 281
#     4  10  18  28  45  69  97 126 157 198 247 293
#     4   9  16  26  40  60  87 117 150 188 229 271
#     4  10  20  34  52  74 101 133 169 209 254 305
#     4   9  16  26  41  62  88 118 151 186 227 277
#     4   9  18  31  47  67  92 125 164 199 231 277
#
# _framework density 16.746635000000001
#
# number of rings (size 3 to 8) (size 9 to 14) (size 15 to 20)
#    0.000    2.429    0.000    3.214    0.000    6.857 
#    0.000    1.786    0.000    0.000    0.000    1.000 
#    0.000    1.143    0.000    0.000    0.000    0.000 
#
# Total GULP energy -312243.425816 kJ/mol
# GULP energy per Si atom -5575.775461 kJ/mol
# Density = 1.670852 g / cm^3
# Si number density = 16.746635 Si / 1000 Ang^3
#
#
#
# Elastic Constant Matrix: (Units=GPa)
#
#
# Indices 1 2 3 4 5 6 
#
# 1 97.1663 34.4886 52.7670 0.0000 0.0000 0.0000
# 2 34.4886 59.5709 23.8384 0.0000 0.0000 0.0000
# 3 52.7670 23.8384 102.4287 0.0000 0.0000 0.0000
# 4 0.0000 0.0000 0.0000 1.2766 0.0000 0.0000
# 5 0.0000 0.0000 0.0000 0.0000 33.7142 0.0000
# 6 0.0000 0.0000 0.0000 0.0000 0.0000 14.8086
#
#
#
# Elastic Compliance Matrix: (Units=1/GPa)
#
#
# Indices 1 2 3 4 5 6 
#
# 1 0.016433 -0.006755 -0.006893 0.000000 0.000000 0.000000
# 2 -0.006755 0.021288 -0.001474 0.000000 0.000000 0.000000
# 3 -0.006893 -0.001474 0.013657 0.000000 0.000000 0.000000
# 4 0.000000 0.000000 0.000000 0.783333 0.000000 0.000000
# 5 0.000000 0.000000 0.000000 0.000000 0.029661 0.000000
# 6 0.000000 0.000000 0.000000 0.000000 0.000000 0.067528
#
#
# Mechanical properties :
#
#
# Convention : Reuss Voigt Hill
#
# Bulk Modulus (GPa) = 47.32193 53.48377 50.40285
# Shear Modulus (GPa) = 5.15895 19.83133 12.49514
#
# Velocity S-wave (km/s) = 1.75706 3.44495 2.73450
# Velocity P-wave (km/s) = 5.69520 6.91592 6.33503
#
# Compressibility (1/GPa) = 0.02113185
#
# Stress axis : x y z
#
# Youngs Moduli (GPa) = 60.85354 46.97552 73.22168
#
# Poissons Ratio (x) = 0.31734 0.50474
# Poissons Ratio (y) = 0.41109 0.10795
# Poissons Ratio (z) = 0.41949 0.06925
#
# Static dielectric constant tensor:
#      x y z
#    x 1.560490 0.000000 0.000000 
#    y 0.000000 1.555110 0.000000 
#    z 0.000000 0.000000 1.549120 
# 
# From -- ./inp_files/21193.got.cif
#   From: 2010.05.17/outbox.cif.g08.bks.cpg/sg59_11_cif.got.tgz:21193.got - 2010.06.03 14:40:33.
