data_PCOD9446161
_publ_section_title
;
Structure prediction by ZEFSAII (Michael W. Deem and Ramdas Pophale) SiO2 
 PCOD9446161
Probable space group: P M M N
;
_chemical_formula_sum "Si O2"
_cell_formula_units_Z 56
_cell_length_a 27.139423
_cell_length_b 7.330754
_cell_length_c 15.281621
_cell_angle_alpha 90.000000
_cell_angle_beta 90.000000
_cell_angle_gamma 90.000000
_cell_volume 3040.315689
_symmetry_space_group_name_H-M "P M M N"
_symmetry_group_IT_number 59
_space_group.IT_coordinate_system_code '2'
_symmetry_cell_setting 'orthorhombic'
loop_
_space_group_symop_operation_xyz
x,y,z
1/2-x,1/2-y,z
1/2+x,-y,-z
-x,1/2+y,-z
-x,-y,-z
1/2+x,1/2+y,-z
1/2-x,y,z
x,1/2-y,z
loop_
_atom_site_type_symbol
_atom_site_label
_atom_site_fract_x
_atom_site_fract_y
_atom_site_fract_z
Si Si1 0.109958 0.027030 0.981517
Si Si2 0.072100 0.457190 0.805671
Si Si3 0.034909 0.470003 0.126772
Si Si4 0.427581 0.037512 0.432728
Si Si5 0.120443 0.471939 0.262972
Si Si6 0.806087 0.527584 0.883345
Si Si7 0.460417 0.028074 0.619016
O O1 0.109532 0.250000 0.980237
O O2 0.106275 0.962223 0.881826
O O3 0.061561 0.972153 0.037195
O O4 0.157511 0.972037 0.037856
O O5 0.089218 0.250000 0.791081
O O6 0.063361 0.537789 0.709550
O O7 0.018101 0.453682 0.850301
O O8 0.030738 0.250000 0.125912
O O9 0.073480 0.520338 0.203016
O O10 0.415291 0.250000 0.443499
O O11 0.389876 0.961507 0.360968
O O12 0.433185 0.963187 0.530810
O O13 0.482403 0.026274 0.390897
O O14 0.121326 0.250000 0.265865
O O15 0.168102 0.528995 0.207769
O O16 0.750000 0.467006 0.892087
O O17 0.806094 0.750000 0.883772
O O18 0.460518 0.250000 0.619922
#
# Coordination Sequence:
#
# PCOD9446161 Si02
#       7
#     8   8   8   8   8   8   8
#     4   8  15  24  34  49  71  96 119 148 183 213
#     4  10  17  24  33  50  76 100 121 147 175 207
#     4   9  15  24  36  50  70  98 126 146 171 209
#     4   9  15  25  37  49  69  98 125 149 178 207
#     4   8  13  21  35  52  69  91 119 151 185 213
#     4   8  13  22  36  54  72  89 116 154 189 221
#     4   9  17  24  33  50  72  99 128 148 167 205
#
# _framework density 18.419138
#
# number of rings (size 3 to 8) (size 9 to 14) (size 15 to 20)
#    0.000    3.286    1.429    2.143    0.000    0.000 
#    0.000    0.000    0.000    0.000    0.000    1.000 
#    0.000   28.571    0.000    0.000    0.000   10.857 
#
# Total GULP energy -312086.602485 kJ/mol
# GULP energy per Si atom -5572.975044 kJ/mol
# Density = 1.837722 g / cm^3
# Si number density = 18.419138 Si / 1000 Ang^3
#
#
#
# Elastic Constant Matrix: (Units=GPa)
#
#
# Indices 1 2 3 4 5 6 
#
# 1 78.9549 -2.6519 60.1211 0.0000 0.0000 0.0000
# 2 -2.6519 70.6544 0.4879 0.0000 0.0000 0.0000
# 3 60.1211 0.4879 188.7509 0.0000 0.0000 0.0000
# 4 0.0000 0.0000 0.0000 -1.5960 0.0000 0.0000
# 5 0.0000 0.0000 0.0000 0.0000 14.0821 0.0000
# 6 0.0000 0.0000 0.0000 0.0000 0.0000 5.0675
#
#
#
# Elastic Compliance Matrix: (Units=1/GPa)
#
#
# Indices 1 2 3 4 5 6 
#
# 1 0.016752 0.000666 -0.005338 0.000000 0.000000 0.000000
# 2 0.000666 0.014180 -0.000249 0.000000 0.000000 0.000000
# 3 -0.005338 -0.000249 0.006999 0.000000 0.000000 0.000000
# 4 0.000000 0.000000 0.000000 -0.626560 0.000000 0.000000
# 5 0.000000 0.000000 0.000000 0.000000 0.071012 0.000000
# 6 0.000000 0.000000 0.000000 0.000000 0.000000 0.197336
#
#
# Mechanical properties :
#
#
# Convention : Reuss Voigt Hill
#
# Bulk Modulus (GPa) = 35.60021 50.47494 43.03757
# Shear Modulus (GPa) = -16.60705 22.20426 2.79860
#
# Velocity S-wave (km/s) = -3.00596 3.47580 1.23398
# Velocity P-wave (km/s) = 2.70594 6.60085 5.04447
#
# Compressibility (1/GPa) = 0.02808972
#
# Stress axis : x y z
#
# Youngs Moduli (GPa) = 59.69355 70.52133 142.88201
#
# Poissons Ratio (x) = -0.04694 0.76265
# Poissons Ratio (y) = -0.03973 0.03553
# Poissons Ratio (z) = 0.31862 0.01754
#
# Static dielectric constant tensor:
#      x y z
#    x 1.587060 0.000000 0.000000 
#    y 0.000000 1.944760 0.000000 
#    z 0.000000 0.000000 1.688110 
# 
# From -- ./inp_files/21744.got.cif
#   From: 2010.05.17/outbox.cif.g08.bks.cpg/sg59_11_cif.got.tgz:21744.got - 2010.06.03 14:40:33.
