data_PCOD9446783
_publ_section_title
;
Structure prediction by ZEFSAII (Michael W. Deem and Ramdas Pophale) SiO2 
 PCOD9446783
Probable space group: P M M N
;
_chemical_formula_sum "Si O2"
_cell_formula_units_Z 40
_cell_length_a 7.937464
_cell_length_b 13.631926
_cell_length_c 15.548499
_cell_angle_alpha 90.000000
_cell_angle_beta 90.000000
_cell_angle_gamma 90.000000
_cell_volume 1682.393023
_symmetry_space_group_name_H-M "P M M N"
_symmetry_group_IT_number 59
_space_group.IT_coordinate_system_code '2'
_symmetry_cell_setting 'orthorhombic'
loop_
_space_group_symop_operation_xyz
x,y,z
1/2-x,1/2-y,z
1/2+x,-y,-z
-x,1/2+y,-z
-x,-y,-z
1/2+x,1/2+y,-z
1/2-x,y,z
x,1/2-y,z
loop_
_atom_site_type_symbol
_atom_site_label
_atom_site_fract_x
_atom_site_fract_y
_atom_site_fract_z
Si Si1 0.447450 0.921095 0.306734
Si Si2 0.444163 0.854661 0.673114
Si Si3 0.044644 0.569253 0.119988
Si Si4 0.450457 0.356291 0.064506
Si Si5 0.445075 0.388107 0.509123
O O1 0.250000 0.900644 0.313253
O O2 0.469423 0.040593 0.308537
O O3 0.509753 0.890766 0.212539
O O4 0.528096 0.870153 0.389909
O O5 0.250000 0.862803 0.700235
O O6 0.515403 0.750000 0.706776
O O7 0.451080 0.845288 0.569444
O O8 0.250000 0.569826 0.117972
O O9 0.981217 0.626800 0.036995
O O10 0.985568 0.455742 0.109164
O O11 0.250000 0.354318 0.079872
O O12 0.521916 0.250000 0.089363
O O13 0.500000 0.500000 0.500000
O O14 0.250000 0.372340 0.488695
#
# Coordination Sequence:
#
# PCOD9446783 Si02
#       5
#     8   8   8   8   8
#     4  10  19  32  51  73  99 131 166 204 248 299
#     4  10  20  33  49  71 100 131 165 207 252 297
#     4   9  19  34  53  78 105 135 171 210 255 308
#     4   9  18  34  55  77 103 135 170 210 256 306
#     4  10  18  30  49  69  93 126 162 198 238 287
#
# _framework density 23.775658
#
# number of rings (size 3 to 8) (size 9 to 14) (size 15 to 20)
#    0.000    2.400    0.000    5.400    0.000    4.400 
#    0.000    3.000    0.000    1.200    0.000    0.000 
#    0.000    0.000    0.000    0.000    0.000    0.000 
#
# Total GULP energy -223126.030215 kJ/mol
# GULP energy per Si atom -5578.150755 kJ/mol
# Density = 2.372154 g / cm^3
# Si number density = 23.775658 Si / 1000 Ang^3
#
#
#
# Elastic Constant Matrix: (Units=GPa)
#
#
# Indices 1 2 3 4 5 6 
#
# 1 50.3596 -11.6083 -7.3369 0.0000 0.0000 0.0000
# 2 -11.6083 76.2575 -12.3249 0.0000 0.0000 0.0000
# 3 -7.3369 -12.3249 125.4855 0.0000 0.0000 0.0000
# 4 0.0000 0.0000 0.0000 -11.4844 0.0000 0.0000
# 5 0.0000 0.0000 0.0000 0.0000 21.7317 0.0000
# 6 0.0000 0.0000 0.0000 0.0000 0.0000 -9.2233
#
#
#
# Elastic Compliance Matrix: (Units=1/GPa)
#
#
# Indices 1 2 3 4 5 6 
#
# 1 0.020875 0.003429 0.001557 0.000000 0.000000 0.000000
# 2 0.003429 0.013888 0.001565 0.000000 0.000000 0.000000
# 3 0.001557 0.001565 0.008214 0.000000 0.000000 0.000000
# 4 0.000000 0.000000 0.000000 -0.087075 0.000000 0.000000
# 5 0.000000 0.000000 0.000000 0.000000 0.046016 0.000000
# 6 0.000000 0.000000 0.000000 0.000000 0.000000 -0.108421
#
#
# Mechanical properties :
#
#
# Convention : Reuss Voigt Hill
#
# Bulk Modulus (GPa) = 17.83194 21.06249 19.44721
# Shear Modulus (GPa) = -49.54758 19.09634 -15.22562
#
# Velocity S-wave (km/s) = -4.57000 2.83713 -2.53333
# Velocity P-wave (km/s) = 4.50889 4.42838 0.59984
#
# Compressibility (1/GPa) = 0.05607915
#
# Stress axis : x y z
#
# Youngs Moduli (GPa) = 47.90524 72.00272 121.74676
#
# Poissons Ratio (x) = -0.24692 -0.18960
# Poissons Ratio (y) = -0.16428 -0.19048
# Poissons Ratio (z) = -0.07460 -0.11266
#
# Static dielectric constant tensor:
#      x y z
#    x 1.822500 0.000000 0.000000 
#    y 0.000000 1.950270 0.000000 
#    z 0.000000 0.000000 1.932660 
# 
# From -- ./inp_files/25318.got.cif
#   From: 2010.05.17/outbox.cif.g08.bks.cpg/sg59_13_cif.got.tgz:25318.got - 2010.06.03 14:40:33.
