data_PCOD9446474
_publ_section_title
;
Structure prediction by ZEFSAII (Michael W. Deem and Ramdas Pophale) SiO2 
 PCOD9446474
Probable space group: P M M N
;
_chemical_formula_sum "Si O2"
_cell_formula_units_Z 64
_cell_length_a 20.418202
_cell_length_b 7.454233
_cell_length_c 18.321876
_cell_angle_alpha 90.000000
_cell_angle_beta 90.000000
_cell_angle_gamma 90.000000
_cell_volume 2788.626815
_symmetry_space_group_name_H-M "P M M N"
_symmetry_group_IT_number 59
_space_group.IT_coordinate_system_code '2'
_symmetry_cell_setting 'orthorhombic'
loop_
_space_group_symop_operation_xyz
x,y,z
1/2-x,1/2-y,z
1/2+x,-y,-z
-x,1/2+y,-z
-x,-y,-z
1/2+x,1/2+y,-z
1/2-x,y,z
x,1/2-y,z
loop_
_atom_site_type_symbol
_atom_site_label
_atom_site_fract_x
_atom_site_fract_y
_atom_site_fract_z
Si Si1 0.320774 0.540602 0.252484
Si Si2 0.995098 0.039764 0.382177
Si Si3 0.039465 0.035898 0.926990
Si Si4 0.857527 0.546281 0.429194
Si Si5 0.827995 0.952201 0.274764
Si Si6 0.358010 0.031766 0.413965
Si Si7 0.824023 0.969719 0.114886
Si Si8 0.967496 0.467236 0.780159
O O1 0.250000 0.464116 0.228295
O O2 0.320722 0.750000 0.232029
O O3 0.322954 0.527927 0.340596
O O4 0.391615 0.467345 0.226689
O O5 0.990686 0.250000 0.398345
O O6 0.066622 0.973657 0.404845
O O7 0.993917 0.017360 0.294069
O O8 0.936294 0.948123 0.425056
O O9 0.042851 0.250000 0.917504
O O10 0.114830 0.973691 0.933829
O O11 0.002536 0.969335 0.854048
O O12 0.000000 0.000000 0.000000
O O13 0.831056 0.750000 0.425551
O O14 0.841402 0.456942 0.351921
O O15 0.835010 0.470004 0.506374
O O16 0.750000 0.934966 0.270452
O O17 0.857629 0.750000 0.277244
O O18 0.844777 0.030634 0.196464
O O19 0.356270 0.250000 0.414672
O O20 0.750000 0.029582 0.097601
O O21 0.821031 0.750000 0.117009
O O22 0.965333 0.250000 0.780615
#
# Coordination Sequence:
#
# PCOD9446474 Si02
#       8
#     8   8   8   8   8   8   8   8
#     4   9  18  33  52  71  92 125 170 215 258 304
#     4  10  19  30  45  67  94 124 162 206 250 293
#     4  10  20  34  54  80 107 133 161 198 247 299
#     4  10  18  28  44  66  93 126 163 203 250 301
#     4   8  14  25  43  67  90 114 152 197 231 267
#     4   9  19  31  43  64  94 128 165 207 254 301
#     4   8  14  27  48  72  98 129 164 198 232 280
#     4   9  18  34  54  73  95 127 166 204 245 300
#
# _framework density 22.950364
#
# number of rings (size 3 to 8) (size 9 to 14) (size 15 to 20)
#    0.000    2.875    0.000    2.250    0.000    4.250 
#    0.000    1.875    0.000    1.500    0.000    1.750 
#    0.000    0.000    0.000    0.000    0.000    0.000 
#
# Total GULP energy -357015.507751 kJ/mol
# GULP energy per Si atom -5578.367309 kJ/mol
# Density = 2.289813 g / cm^3
# Si number density = 22.950364 Si / 1000 Ang^3
#
#
#
# Elastic Constant Matrix: (Units=GPa)
#
#
# Indices 1 2 3 4 5 6 
#
# 1 130.8957 2.5763 54.0350 0.0000 0.0000 0.0000
# 2 2.5763 73.4618 -5.5159 0.0000 0.0000 0.0000
# 3 54.0350 -5.5159 103.7739 0.0000 0.0000 0.0000
# 4 0.0000 0.0000 0.0000 8.7518 0.0000 0.0000
# 5 0.0000 0.0000 0.0000 0.0000 7.5762 0.0000
# 6 0.0000 0.0000 0.0000 0.0000 0.0000 -1.5089
#
#
#
# Elastic Compliance Matrix: (Units=1/GPa)
#
#
# Indices 1 2 3 4 5 6 
#
# 1 0.009770 -0.000728 -0.005126 0.000000 0.000000 0.000000
# 2 -0.000728 0.013721 0.001108 0.000000 0.000000 0.000000
# 3 -0.005126 0.001108 0.012364 0.000000 0.000000 0.000000
# 4 0.000000 0.000000 0.000000 0.114262 0.000000 0.000000
# 5 0.000000 0.000000 0.000000 0.000000 0.131992 0.000000
# 6 0.000000 0.000000 0.000000 0.000000 0.000000 -0.662745
#
#
# Mechanical properties :
#
#
# Convention : Reuss Voigt Hill
#
# Bulk Modulus (GPa) = 37.92910 45.59136 41.76023
# Shear Modulus (GPa) = -13.79856 20.09956 3.15050
#
# Velocity S-wave (km/s) = -2.45467 2.96258 1.17291
# Velocity P-wave (km/s) = 2.92038 5.62235 4.47992
#
# Compressibility (1/GPa) = 0.02636498
#
# Stress axis : x y z
#
# Youngs Moduli (GPa) = 102.35395 72.87972 80.87803
#
# Poissons Ratio (x) = 0.05302 0.41457
# Poissons Ratio (y) = 0.07446 -0.08962
# Poissons Ratio (z) = 0.52466 -0.08076
#
# Static dielectric constant tensor:
#      x y z
#    x 1.904640 0.000000 0.000000 
#    y 0.000000 1.530550 0.000000 
#    z 0.000000 0.000000 1.851720 
# 
# From -- ./inp_files/28419.got.cif
#   From: 2010.05.17/outbox.cif.g08.bks.cpg/sg59_15_cif.got.tgz:28419.got - 2010.06.03 14:40:33.
