data_PCOD9446370
_publ_section_title
;
Structure prediction by ZEFSAII (Michael W. Deem and Ramdas Pophale) SiO2 
 PCOD9446370
Probable space group: P M M N
;
_chemical_formula_sum "Si O2"
_cell_formula_units_Z 64
_cell_length_a 15.027334
_cell_length_b 28.125355
_cell_length_c 10.035705
_cell_angle_alpha 90.000000
_cell_angle_beta 90.000000
_cell_angle_gamma 90.000000
_cell_volume 4241.581721
_symmetry_space_group_name_H-M "P M M N"
_symmetry_group_IT_number 59
_space_group.IT_coordinate_system_code '2'
_symmetry_cell_setting 'orthorhombic'
loop_
_space_group_symop_operation_xyz
x,y,z
1/2-x,1/2-y,z
1/2+x,-y,-z
-x,1/2+y,-z
-x,-y,-z
1/2+x,1/2+y,-z
1/2-x,y,z
x,1/2-y,z
loop_
_atom_site_type_symbol
_atom_site_label
_atom_site_fract_x
_atom_site_fract_y
_atom_site_fract_z
Si Si1 0.904759 0.004653 0.168976
Si Si2 0.857933 0.804040 0.595788
Si Si3 0.147438 0.123484 0.172907
Si Si4 0.643723 0.632774 0.347767
Si Si5 0.399830 0.479991 0.259222
Si Si6 0.352241 0.026616 0.544420
Si Si7 0.847474 0.065685 0.923223
Si Si8 0.455177 0.102283 0.908532
O O1 0.864629 0.000762 0.316592
O O2 0.914526 0.951170 0.111096
O O3 0.004468 0.023235 0.189319
O O4 0.855904 0.037836 0.063894
O O5 0.750000 0.803729 0.597674
O O6 0.889274 0.750000 0.611061
O O7 0.883751 0.838910 0.716136
O O8 0.881850 0.827042 0.453877
O O9 0.250000 0.134134 0.135006
O O10 0.145933 0.070633 0.236057
O O11 0.084294 0.122595 0.044841
O O12 0.750000 0.636204 0.316434
O O13 0.630753 0.581751 0.419886
O O14 0.584195 0.631489 0.215891
O O15 0.408657 0.488817 0.416844
O O16 0.353175 0.524337 0.188448
O O17 0.250000 0.022062 0.501339
O O18 0.750000 0.089056 0.915083
O O19 0.937755 0.096510 0.908168
#
# Coordination Sequence:
#
# PCOD9446370 Si02
#       8
#     8   8   8   8   8   8   8   8
#     4  10  19  30  41  61  90 124 159 195 226 253
#     4   9  18  32  49  71  96 119 143 176 227 282
#     4  11  18  28  48  68  92 122 151 185 222 269
#     4   9  17  29  46  66  90 121 149 179 216 265
#     4  11  18  29  42  63  88 124 163 193 222 260
#     4  10  18  27  41  62  86 119 160 188 216 258
#     4  11  20  31  44  61  92 128 159 195 233 258
#     4  10  19  31  43  66  90 121 163 190 218 262
#
# _framework density 15.088711999999999
#
# number of rings (size 3 to 8) (size 9 to 14) (size 15 to 20)
#    0.000    1.875    3.750    3.000    0.000    1.000 
#    0.000    0.625    0.000    3.000    0.000    0.000 
#    0.000    3.000    0.000    0.000    0.000    0.000 
#
# Total GULP energy -356768.676343 kJ/mol
# GULP energy per Si atom -5574.510568 kJ/mol
# Density = 1.505437 g / cm^3
# Si number density = 15.088712 Si / 1000 Ang^3
#
#
#
# Elastic Constant Matrix: (Units=GPa)
#
#
# Indices 1 2 3 4 5 6 
#
# 1 71.6286 22.1396 42.2743 0.0000 0.0000 0.0000
# 2 22.1396 55.8824 42.6634 0.0000 0.0000 0.0000
# 3 42.2743 42.6634 125.8168 0.0000 0.0000 0.0000
# 4 0.0000 0.0000 0.0000 14.5451 0.0000 0.0000
# 5 0.0000 0.0000 0.0000 0.0000 16.8469 0.0000
# 6 0.0000 0.0000 0.0000 0.0000 0.0000 10.8796
#
#
#
# Elastic Compliance Matrix: (Units=1/GPa)
#
#
# Indices 1 2 3 4 5 6 
#
# 1 0.017872 -0.003368 -0.004863 0.000000 0.000000 0.000000
# 2 -0.003368 0.024780 -0.007271 0.000000 0.000000 0.000000
# 3 -0.004863 -0.007271 0.012048 0.000000 0.000000 0.000000
# 4 0.000000 0.000000 0.000000 0.068752 0.000000 0.000000
# 5 0.000000 0.000000 0.000000 0.000000 0.059358 0.000000
# 6 0.000000 0.000000 0.000000 0.000000 0.000000 0.091915
#
#
# Mechanical properties :
#
#
# Convention : Reuss Voigt Hill
#
# Bulk Modulus (GPa) = 42.20169 51.94247 47.07208
# Shear Modulus (GPa) = 15.94251 18.20436 17.07344
#
# Velocity S-wave (km/s) = 3.25404 3.47722 3.36748
# Velocity P-wave (km/s) = 6.49216 7.11484 6.81062
#
# Compressibility (1/GPa) = 0.02369573
#
# Stress axis : x y z
#
# Youngs Moduli (GPa) = 55.95365 40.35486 83.00427
#
# Poissons Ratio (x) = 0.13591 0.40364
# Poissons Ratio (y) = 0.18845 0.60353
# Poissons Ratio (z) = 0.27210 0.29342
#
# Static dielectric constant tensor:
#      x y z
#    x 1.522020 0.000000 0.000000 
#    y 0.000000 1.478440 0.000000 
#    z 0.000000 0.000000 1.525120 
# 
# From -- ./inp_files/9751.got.cif
#   From: 2010.05.17/outbox.cif.g08.bks.cpg/sg59_5_cif.got.tgz:9751.got - 2010.06.03 14:40:33.
