data_PCOD9446109
_publ_section_title
;
Structure prediction by ZEFSAII (Michael W. Deem and Ramdas Pophale) SiO2 
 PCOD9446109
Probable space group: P N N M
;
_chemical_formula_sum "Si O2"
_cell_formula_units_Z 40
_cell_length_a 9.000000
_cell_length_b 9.000000
_cell_length_c 24.000000
_cell_angle_alpha 90.000000
_cell_angle_beta 90.000000
_cell_angle_gamma 90.000000
_cell_volume 1944.000000
_symmetry_space_group_name_H-M "P N N M"
_symmetry_group_IT_number 58
_symmetry_cell_setting 'orthorhombic'
loop_
_space_group_symop_operation_xyz
x,y,z
-x,-y,z
1/2+x,1/2-y,1/2-z
1/2-x,1/2+y,1/2-z
-x,-y,-z
x,y,-z
1/2-x,1/2+y,1/2+z
1/2+x,1/2-y,1/2+z
loop_
_atom_site_type_symbol
_atom_site_label
_atom_site_fract_x
_atom_site_fract_y
_atom_site_fract_z
Si Si1 0.393256 0.137811 0.648087
Si Si2 0.332181 0.169207 0.935711
Si Si3 0.320628 0.700968 0.679099
Si Si4 0.672924 0.526414 0.767262
Si Si5 0.677863 0.190088 0.064086
O O1 0.508239 0.248690 0.678608
O O2 0.296082 0.225723 0.602489
O O3 0.500000 0.000000 0.628160
O O4 0.276391 0.067853 0.690965
O O5 0.234347 0.222822 0.884102
O O6 0.502613 0.218310 0.924187
O O7 0.315033 0.989788 0.933331
O O8 0.295791 0.212896 0.000000
O O9 0.301674 0.537363 0.704988
O O10 0.227227 0.808520 0.719476
O O11 0.500000 0.500000 0.780270
O O12 0.705410 0.233089 0.000000
#
# Coordination Sequence:
#
# PCOD9446109 Si02
#       5
#     8   8   8   8   8
#     4  10  23  40  59  90 130 162 210 258 312 375
#     4   9  20  39  65  93 121 162 210 254 310 374
#     4  11  24  40  64  95 124 164 204 261 309 365
#     4  11  24  42  61  89 127 168 208 249 311 371
#     4   9  19  38  63  91 124 165 208 254 308 375
#
# _framework density 20.576132000000001
#
# number of rings (size 3 to 8) (size 9 to 14) (size 15 to 20)
#    0.000    2.000    0.000    3.600    5.600    1.200 
#    7.200    5.000    0.000   10.800    0.000    0.000 
#    0.000    0.000    0.000    0.000    0.000    0.000 
#
# Total GULP energy -223303.243725 kJ/mol
# GULP energy per Si atom -5582.581093 kJ/mol
# Density = 2.052930 g / cm^3
# Si number density = 20.576132 Si / 1000 Ang^3
#
#
#
# Elastic Constant Matrix: (Units=GPa)
#
#
# Indices 1 2 3 4 5 6 
#
# 1 128.8278 33.2839 67.9969 0.0000 0.0000 0.0000
# 2 33.2839 62.0453 41.5182 0.0000 0.0000 0.0000
# 3 67.9969 41.5182 98.2639 0.0000 0.0000 0.0000
# 4 0.0000 0.0000 0.0000 36.0316 0.0000 0.0000
# 5 0.0000 0.0000 0.0000 0.0000 33.4444 0.0000
# 6 0.0000 0.0000 0.0000 0.0000 0.0000 40.5906
#
#
#
# Elastic Compliance Matrix: (Units=1/GPa)
#
#
# Indices 1 2 3 4 5 6 
#
# 1 0.012299 -0.001259 -0.007979 0.000000 0.000000 0.000000
# 2 -0.001259 0.022599 -0.008678 0.000000 0.000000 0.000000
# 3 -0.007979 -0.008678 0.019364 0.000000 0.000000 0.000000
# 4 0.000000 0.000000 0.000000 0.027753 0.000000 0.000000
# 5 0.000000 0.000000 0.000000 0.000000 0.029900 0.000000
# 6 0.000000 0.000000 0.000000 0.000000 0.000000 0.024636
#
#
# Mechanical properties :
#
#
# Convention : Reuss Voigt Hill
#
# Bulk Modulus (GPa) = 54.25261 63.85945 59.05603
# Shear Modulus (GPa) = 28.00708 31.76918 29.88813
#
# Velocity S-wave (km/s) = 3.69337 3.93362 3.81539
# Velocity P-wave (km/s) = 6.67922 7.19265 6.94068
#
# Compressibility (1/GPa) = 0.01843229
#
# Stress axis : x y z
#
# Youngs Moduli (GPa) = 81.30907 44.24947 51.64138
#
# Poissons Ratio (x) = 0.05569 0.41204
# Poissons Ratio (y) = 0.10233 0.44813
# Poissons Ratio (z) = 0.64875 0.38398
#
# Static dielectric constant tensor:
#      x y z
#    x 1.718970 0.000000 0.000000 
#    y 0.000000 1.780770 0.000000 
#    z 0.000000 0.000000 1.720840 
# 
# From -- ./inp_files/31274.got.cif
#   From: 2010.05.17/outbox.ucp.g08.bks.cvg/sg58_16_cif.got.tgz:31274.got - 2010.06.11 16:41:41.
