data_PCOD9446542
_publ_section_title
;
Structure prediction by ZEFSAII (Michael W. Deem and Ramdas Pophale) SiO2 
 PCOD9446542
Probable space group: P M M N
;
_chemical_formula_sum "Si O2"
_cell_formula_units_Z 40
_cell_length_a 25.687281
_cell_length_b 8.656806
_cell_length_c 10.559270
_cell_angle_alpha 90.000000
_cell_angle_beta 90.000000
_cell_angle_gamma 90.000000
_cell_volume 2348.062846
_symmetry_space_group_name_H-M "P M M N"
_symmetry_group_IT_number 59
_space_group.IT_coordinate_system_code '2'
_symmetry_cell_setting 'orthorhombic'
loop_
_space_group_symop_operation_xyz
x,y,z
1/2-x,1/2-y,z
1/2+x,-y,-z
-x,1/2+y,-z
-x,-y,-z
1/2+x,1/2+y,-z
1/2-x,y,z
x,1/2-y,z
loop_
_atom_site_type_symbol
_atom_site_label
_atom_site_fract_x
_atom_site_fract_y
_atom_site_fract_z
Si Si1 0.250000 0.071950 0.018371
Si Si2 0.137003 0.062259 0.725919
Si Si3 0.859562 0.434645 0.989734
Si Si4 0.750000 0.570909 0.289906
Si Si5 0.026050 0.063409 0.626051
Si Si6 0.032003 0.936281 0.118805
O O1 0.250000 0.250000 0.056550
O O2 0.196426 0.992072 0.057815
O O3 0.250000 0.067579 0.863997
O O4 0.138988 0.250000 0.730510
O O5 0.193309 0.005117 0.674981
O O6 0.086251 0.016061 0.646978
O O7 0.131085 0.004667 0.870274
O O8 0.858620 0.250000 0.001240
O O9 0.907833 0.480654 0.901226
O O10 0.750000 0.750000 0.330842
O O11 0.025019 0.250000 0.622498
O O12 0.993751 0.011985 0.750032
O O13 0.000000 0.000000 0.500000
O O14 0.029005 0.750000 0.115526
O O15 0.000000 0.000000 0.000000
#
# Coordination Sequence:
#
# PCOD9446542 Si02
#       6
#     4   8   8   4   8   8
#     4   9  17  29  45  68 101 136 164 202 254 304
#     4   9  16  29  48  70  99 131 164 203 253 309
#     4  10  18  28  47  75 102 129 166 211 255 300
#     4   7  12  23  43  68  89 118 156 194 240 290
#     4  10  21  35  50  71 102 138 174 212 257 308
#     4  10  20  33  51  75 103 134 169 211 256 305
#
# _framework density 17.035321
#
# number of rings (size 3 to 8) (size 9 to 14) (size 15 to 20)
#    0.000    2.600    2.000    2.100    0.000    2.400 
#    0.000    0.000    0.000    1.200    0.000    2.800 
#    0.000    0.000    0.000    0.000    0.000    0.000 
#
# Total GULP energy -222826.630263 kJ/mol
# GULP energy per Si atom -5570.665757 kJ/mol
# Density = 1.699655 g / cm^3
# Si number density = 17.035321 Si / 1000 Ang^3
#
#
#
# Elastic Constant Matrix: (Units=GPa)
#
#
# Indices 1 2 3 4 5 6 
#
# 1 209.4091 31.7790 73.4760 0.0000 0.0000 0.0000
# 2 31.7790 13.1992 12.1532 0.0000 0.0000 0.0000
# 3 73.4760 12.1532 86.3350 0.0000 0.0000 0.0000
# 4 0.0000 0.0000 0.0000 19.9582 0.0000 0.0000
# 5 0.0000 0.0000 0.0000 0.0000 19.6922 0.0000
# 6 0.0000 0.0000 0.0000 0.0000 0.0000 23.1450
#
#
#
# Elastic Compliance Matrix: (Units=1/GPa)
#
#
# Indices 1 2 3 4 5 6 
#
# 1 0.009356 -0.017458 -0.005505 0.000000 0.000000 0.000000
# 2 -0.017458 0.119618 -0.001981 0.000000 0.000000 0.000000
# 3 -0.005505 -0.001981 0.016547 0.000000 0.000000 0.000000
# 4 0.000000 0.000000 0.000000 0.050105 0.000000 0.000000
# 5 0.000000 0.000000 0.000000 0.000000 0.050782 0.000000
# 6 0.000000 0.000000 0.000000 0.000000 0.000000 0.043206
#
#
# Mechanical properties :
#
#
# Convention : Reuss Voigt Hill
#
# Bulk Modulus (GPa) = 10.45660 60.41777 35.43719
# Shear Modulus (GPa) = 13.46335 25.32806 19.39571
#
# Velocity S-wave (km/s) = 2.81431 3.86008 3.37791
# Velocity P-wave (km/s) = 4.08803 7.44380 6.00509
#
# Compressibility (1/GPa) = 0.09563334
#
# Stress axis : x y z
#
# Youngs Moduli (GPa) = 106.88004 8.35997 60.43421
#
# Poissons Ratio (x) = 0.14595 0.33271
# Poissons Ratio (y) = 1.86587 0.11971
# Poissons Ratio (z) = 0.58840 0.01656
#
# Static dielectric constant tensor:
#      x y z
#    x 1.632830 0.000000 0.000000 
#    y 0.000000 1.579340 0.000000 
#    z 0.000000 0.000000 1.529560 
# 
# From -- ./inp_files/5877.got.cif
#   From: 2010.05.17/outbox.cif.g08.bks.cpg/sg59_3_cif.got.tgz:5877.got - 2010.06.03 14:40:33.
