data_PCOD9446328
_publ_section_title
;
Structure prediction by ZEFSAII (Michael W. Deem and Ramdas Pophale) SiO2 
 PCOD9446328
Probable space group: P M M N
;
_chemical_formula_sum "Si O2"
_cell_formula_units_Z 64
_cell_length_a 27.481812
_cell_length_b 7.580199
_cell_length_c 18.062632
_cell_angle_alpha 90.000000
_cell_angle_beta 90.000000
_cell_angle_gamma 90.000000
_cell_volume 3762.764217
_symmetry_space_group_name_H-M "P M M N"
_symmetry_group_IT_number 59
_space_group.IT_coordinate_system_code '2'
_symmetry_cell_setting 'orthorhombic'
loop_
_space_group_symop_operation_xyz
x,y,z
1/2-x,1/2-y,z
1/2+x,-y,-z
-x,1/2+y,-z
-x,-y,-z
1/2+x,1/2+y,-z
1/2-x,y,z
x,1/2-y,z
loop_
_atom_site_type_symbol
_atom_site_label
_atom_site_fract_x
_atom_site_fract_y
_atom_site_fract_z
Si Si1 0.438848 0.461366 0.164626
Si Si2 0.943071 0.961561 0.514226
Si Si3 0.195048 0.537893 0.912889
Si Si4 0.035666 0.546677 0.909770
Si Si5 0.574187 0.961593 0.355558
Si Si6 0.460292 0.462470 0.326764
Si Si7 0.112179 0.537799 0.023926
Si Si8 0.882356 0.539569 0.206248
O O1 0.444822 0.250000 0.169947
O O2 0.486654 0.535112 0.122511
O O3 0.439013 0.527911 0.248847
O O4 0.393995 0.495561 0.109967
O O5 0.936169 0.750000 0.515903
O O6 0.917818 0.030265 0.439241
O O7 0.934865 0.029198 0.597635
O O8 0.000000 0.000000 0.500000
O O9 0.250000 0.469937 0.916420
O O10 0.197036 0.750000 0.919091
O O11 0.167901 0.497775 0.835688
O O12 0.159474 0.473976 0.979022
O O13 0.024972 0.750000 0.928552
O O14 0.075382 0.542758 0.844329
O O15 0.064622 0.467507 0.979390
O O16 0.578842 0.750000 0.359447
O O17 0.609494 0.024013 0.290076
O O18 0.518149 0.998348 0.331928
O O19 0.456092 0.250000 0.327811
O O20 0.111735 0.750000 0.016552
O O21 0.889889 0.750000 0.205080
#
# Coordination Sequence:
#
# PCOD9446328 Si02
#       8
#     8   8   8   8   8   8   8   8
#     4  10  18  26  38  57  82 110 140 172 201 231
#     4   8  14  24  36  51  74 106 141 170 194 223
#     4   9  19  36  52  62  77 102 131 165 206 253
#     4   9  17  29  40  53  79 112 143 169 195 233
#     4   9  16  25  37  56  82 108 136 169 201 232
#     4   9  16  25  38  54  76 111 147 172 195 225
#     4   9  18  29  42  59  76 100 132 165 204 247
#     4  10  18  26  41  65  86 106 134 169 207 242
#
# _framework density 17.008773000000001
#
# number of rings (size 3 to 8) (size 9 to 14) (size 15 to 20)
#    0.000    2.875    1.250    1.500    0.000    3.750 
#    0.000    0.000    0.000    0.000    0.000    0.000 
#    0.000    1.000    0.000   10.250    0.000    0.750 
#
# Total GULP energy -356354.474768 kJ/mol
# GULP energy per Si atom -5568.038668 kJ/mol
# Density = 1.697006 g / cm^3
# Si number density = 17.008773 Si / 1000 Ang^3
#
#
#
# Elastic Constant Matrix: (Units=GPa)
#
#
# Indices 1 2 3 4 5 6 
#
# 1 60.3674 3.4283 65.6913 0.0000 0.0000 0.0000
# 2 3.4283 42.5993 3.9243 0.0000 0.0000 0.0000
# 3 65.6913 3.9243 188.4851 0.0000 0.0000 0.0000
# 4 0.0000 0.0000 0.0000 5.6192 0.0000 0.0000
# 5 0.0000 0.0000 0.0000 0.0000 11.6756 0.0000
# 6 0.0000 0.0000 0.0000 0.0000 0.0000 7.7977
#
#
#
# Elastic Compliance Matrix: (Units=1/GPa)
#
#
# Indices 1 2 3 4 5 6 
#
# 1 0.026757 -0.001297 -0.009299 0.000000 0.000000 0.000000
# 2 -0.001297 0.023583 -0.000039 0.000000 0.000000 0.000000
# 3 -0.009299 -0.000039 0.008547 0.000000 0.000000 0.000000
# 4 0.000000 0.000000 0.000000 0.177960 0.000000 0.000000
# 5 0.000000 0.000000 0.000000 0.000000 0.085649 0.000000
# 6 0.000000 0.000000 0.000000 0.000000 0.000000 0.128243
#
#
# Mechanical properties :
#
#
# Convention : Reuss Voigt Hill
#
# Bulk Modulus (GPa) = 26.58285 48.61552 37.59918
# Shear Modulus (GPa) = 10.31889 19.57902 14.94896
#
# Velocity S-wave (km/s) = 2.46576 3.39649 2.96784
# Velocity P-wave (km/s) = 4.87539 6.63522 5.82218
#
# Compressibility (1/GPa) = 0.03761824
#
# Stress axis : x y z
#
# Youngs Moduli (GPa) = 37.37271 42.40427 116.99965
#
# Poissons Ratio (x) = 0.05499 1.08793
# Poissons Ratio (y) = 0.04846 0.00457
# Poissons Ratio (z) = 0.34751 0.00166
#
# Static dielectric constant tensor:
#      x y z
#    x 1.543030 0.000000 0.000000 
#    y 0.000000 1.552940 0.000000 
#    z 0.000000 0.000000 1.657170 
# 
# From -- ./inp_files/26612.got.cif
#   From: 2010.05.17/outbox.cif.g08.bks.cpg/sg59_14_cif.got.tgz:26612.got - 2010.06.03 14:40:33.
