data_PCOD9446241
_publ_section_title
;
Structure prediction by ZEFSAII (Michael W. Deem and Ramdas Pophale) SiO2 
 PCOD9446241
Probable space group: P M M N
;
_chemical_formula_sum "Si O2"
_cell_formula_units_Z 64
_cell_length_a 29.534423
_cell_length_b 8.647505
_cell_length_c 16.115019
_cell_angle_alpha 90.000000
_cell_angle_beta 90.000000
_cell_angle_gamma 90.000000
_cell_volume 4115.760875
_symmetry_space_group_name_H-M "P M M N"
_symmetry_group_IT_number 59
_space_group.IT_coordinate_system_code '2'
_symmetry_cell_setting 'orthorhombic'
loop_
_space_group_symop_operation_xyz
x,y,z
1/2-x,1/2-y,z
1/2+x,-y,-z
-x,1/2+y,-z
-x,-y,-z
1/2+x,1/2+y,-z
1/2-x,y,z
x,1/2-y,z
loop_
_atom_site_type_symbol
_atom_site_label
_atom_site_fract_x
_atom_site_fract_y
_atom_site_fract_z
Si Si1 0.804941 0.428451 0.004856
Si Si2 0.197589 0.939024 0.177537
Si Si3 0.948608 0.436778 0.410547
Si Si4 0.359307 0.563068 0.336902
Si Si5 0.949355 0.934910 0.596157
Si Si6 0.644917 0.063433 0.335685
Si Si7 0.302142 0.561444 0.498275
Si Si8 0.302226 0.066020 0.820211
O O1 0.750000 0.429636 0.001706
O O2 0.819359 0.250000 0.013050
O O3 0.818015 0.517898 0.087740
O O4 0.818656 0.489413 0.914024
O O5 0.250000 0.986209 0.190659
O O6 0.197846 0.750000 0.175594
O O7 0.166142 0.987998 0.253421
O O8 0.947306 0.250000 0.418350
O O9 0.941612 0.504959 0.502379
O O10 0.906999 0.483845 0.352366
O O11 0.999042 0.480891 0.381563
O O12 0.359851 0.750000 0.337406
O O13 0.410150 0.503424 0.346862
O O14 0.330670 0.512186 0.417880
O O15 0.946709 0.750000 0.596744
O O16 0.646412 0.250000 0.333137
O O17 0.673935 0.013024 0.416289
O O18 0.666864 0.000990 0.252169
O O19 0.250000 0.510911 0.494252
O O20 0.302165 0.750000 0.497736
O O21 0.250000 0.009535 0.809889
O O22 0.301701 0.250000 0.814444
#
# Coordination Sequence:
#
# PCOD9446241 Si02
#       8
#     8   8   8   8   8   8   8   8
#     4   8  14  27  46  66  87 114 151 190 223 256
#     4   8  14  25  45  71  93 116 152 194 224 250
#     4   9  18  33  49  65  84 112 151 193 230 264
#     4  10  17  28  45  66  93 121 151 183 218 262
#     4  10  19  30  46  66  90 116 146 186 230 269
#     4  10  18  30  47  65  85 114 155 191 219 256
#     4   9  16  25  40  62  87 117 152 183 209 245
#     4  10  20  31  43  64  94 123 148 178 222 271
#
# _framework density 15.549981000000001
#
# number of rings (size 3 to 8) (size 9 to 14) (size 15 to 20)
#    0.000    2.750    1.250    2.250    0.000    3.750 
#    0.000    0.625    0.000    2.250    0.000    0.875 
#    0.000    0.000    0.000    0.000    0.000    0.000 
#
# Total GULP energy -356580.546443 kJ/mol
# GULP energy per Si atom -5571.571038 kJ/mol
# Density = 1.551459 g / cm^3
# Si number density = 15.549981 Si / 1000 Ang^3
#
#
#
# Elastic Constant Matrix: (Units=GPa)
#
#
# Indices 1 2 3 4 5 6 
#
# 1 115.9450 22.3443 77.8584 0.0000 0.0000 0.0000
# 2 22.3443 7.4152 23.4374 0.0000 0.0000 0.0000
# 3 77.8584 23.4374 141.1099 0.0000 0.0000 0.0000
# 4 0.0000 0.0000 0.0000 8.3027 0.0000 0.0000
# 5 0.0000 0.0000 0.0000 0.0000 10.6094 0.0000
# 6 0.0000 0.0000 0.0000 0.0000 0.0000 18.6331
#
#
#
# Elastic Compliance Matrix: (Units=1/GPa)
#
#
# Indices 1 2 3 4 5 6 
#
# 1 0.020906 -0.055864 -0.002256 0.000000 0.000000 0.000000
# 2 -0.055864 0.433179 -0.041125 0.000000 0.000000 0.000000
# 3 -0.002256 -0.041125 0.015162 0.000000 0.000000 0.000000
# 4 0.000000 0.000000 0.000000 0.120442 0.000000 0.000000
# 5 0.000000 0.000000 0.000000 0.000000 0.094256 0.000000
# 6 0.000000 0.000000 0.000000 0.000000 0.000000 0.053668
#
#
# Mechanical properties :
#
#
# Convention : Reuss Voigt Hill
#
# Bulk Modulus (GPa) = 3.69335 56.86113 30.27724
# Shear Modulus (GPa) = 4.87161 16.89772 10.88467
#
# Velocity S-wave (km/s) = 1.77191 3.30005 2.64858
# Velocity P-wave (km/s) = 2.56252 7.15308 5.37276
#
# Compressibility (1/GPa) = 0.27075700
#
# Stress axis : x y z
#
# Youngs Moduli (GPa) = 47.83395 2.30851 65.95403
#
# Poissons Ratio (x) = 0.12896 0.14881
# Poissons Ratio (y) = 2.67220 2.71234
# Poissons Ratio (z) = 0.10792 0.09494
#
# Static dielectric constant tensor:
#      x y z
#    x 1.519290 0.000000 0.000000 
#    y 0.000000 1.528500 0.000000 
#    z 0.000000 0.000000 1.510000 
# 
# From -- ./inp_files/21936.got.cif
#   From: 2010.05.17/outbox.cif.g08.bks.cpg/sg59_11_cif.got.tgz:21936.got - 2010.06.03 14:40:33.
