data_PCOD9446981
_publ_section_title
;
Structure prediction by ZEFSAII (Michael W. Deem and Ramdas Pophale) SiO2 
 PCOD9446981
Probable space group: P M M N
;
_chemical_formula_sum "Si O2"
_cell_formula_units_Z 64
_cell_length_a 7.551938
_cell_length_b 15.191431
_cell_length_c 25.424429
_cell_angle_alpha 90.000000
_cell_angle_beta 90.000000
_cell_angle_gamma 90.000000
_cell_volume 2916.811135
_symmetry_space_group_name_H-M "P M M N"
_symmetry_group_IT_number 59
_space_group.IT_coordinate_system_code '2'
_symmetry_cell_setting 'orthorhombic'
loop_
_space_group_symop_operation_xyz
x,y,z
1/2-x,1/2-y,z
1/2+x,-y,-z
-x,1/2+y,-z
-x,-y,-z
1/2+x,1/2+y,-z
1/2-x,y,z
x,1/2-y,z
loop_
_atom_site_type_symbol
_atom_site_label
_atom_site_fract_x
_atom_site_fract_y
_atom_site_fract_z
Si Si1 0.534131 0.656206 0.909128
Si Si2 0.962569 0.848486 0.135147
Si Si3 0.463804 0.150499 0.467132
Si Si4 0.533449 0.848625 0.411190
Si Si5 0.038161 0.401579 0.980632
Si Si6 0.958991 0.150365 0.278684
Si Si7 0.540041 0.970142 0.820521
Si Si8 0.956369 0.029834 0.371053
O O1 0.750000 0.651767 0.910667
O O2 0.485623 0.750000 0.884536
O O3 0.469423 0.575823 0.873882
O O4 0.472865 0.652942 0.969196
O O5 0.750000 0.844372 0.131760
O O6 0.026357 0.750000 0.147963
O O7 0.031355 0.876884 0.076974
O O8 0.001578 0.926488 0.175941
O O9 0.250000 0.146862 0.465737
O O10 0.516960 0.250000 0.451183
O O11 0.518420 0.137787 0.527712
O O12 0.533879 0.078438 0.427124
O O13 0.750000 0.849390 0.410637
O O14 0.478494 0.750000 0.395184
O O15 0.469119 0.931493 0.377487
O O16 0.250000 0.389813 0.977609
O O17 0.000000 0.500000 0.000000
O O18 0.750000 0.160561 0.288712
O O19 0.030948 0.250000 0.271968
O O20 0.036163 0.095705 0.327907
O O21 0.976291 0.087717 0.228146
O O22 0.750000 0.960712 0.820729
O O23 0.750000 0.018012 0.356976
#
# Coordination Sequence:
#
# PCOD9446981 Si02
#       8
#     8   8   8   8   8   8   8   8
#     4   9  17  30  50  76 104 134 169 208 254 308
#     4  10  21  37  58  82 110 146 183 219 266 324
#     4   9  17  29  47  74 109 144 175 213 264 321
#     4   8  15  29  49  75 107 141 176 214 260 315
#     4  10  18  31  52  78 110 143 175 213 258 311
#     4  10  22  39  56  77 108 140 172 220 277 327
#     4  11  22  37  58  81 105 137 179 227 274 320
#     4  10  19  32  53  78 104 139 182 225 265 309
#
# _framework density 21.941770999999999
#
# number of rings (size 3 to 8) (size 9 to 14) (size 15 to 20)
#    0.000    2.375    1.250    2.625    0.000    3.750 
#    0.000    0.625    0.000    5.250    0.000    0.000 
#    0.000    0.000    0.000    0.000    0.000    0.000 
#
# Total GULP energy -357164.310711 kJ/mol
# GULP energy per Si atom -5580.692355 kJ/mol
# Density = 2.189183 g / cm^3
# Si number density = 21.941771 Si / 1000 Ang^3
#
#
#
# Elastic Constant Matrix: (Units=GPa)
#
#
# Indices 1 2 3 4 5 6 
#
# 1 50.4329 -1.7396 4.7596 0.0000 0.0000 0.0000
# 2 -1.7396 213.5536 82.5683 0.0000 0.0000 0.0000
# 3 4.7596 82.5683 74.2660 0.0000 0.0000 0.0000
# 4 0.0000 0.0000 0.0000 -14.1443 0.0000 0.0000
# 5 0.0000 0.0000 0.0000 0.0000 2.9284 0.0000
# 6 0.0000 0.0000 0.0000 0.0000 0.0000 11.2831
#
#
#
# Elastic Compliance Matrix: (Units=1/GPa)
#
#
# Indices 1 2 3 4 5 6 
#
# 1 0.020112 0.001161 -0.002580 0.000000 0.000000 0.000000
# 2 0.001161 0.008280 -0.009280 0.000000 0.000000 0.000000
# 3 -0.002580 -0.009280 0.023948 0.000000 0.000000 0.000000
# 4 0.000000 0.000000 0.000000 -0.070700 0.000000 0.000000
# 5 0.000000 0.000000 0.000000 0.000000 0.341487 0.000000
# 6 0.000000 0.000000 0.000000 0.000000 0.000000 0.088628
#
#
# Mechanical properties :
#
#
# Convention : Reuss Voigt Hill
#
# Bulk Modulus (GPa) = 32.31834 56.60322 44.46078
# Shear Modulus (GPa) = 11.27475 16.85770 14.06623
#
# Velocity S-wave (km/s) = 2.26928 2.77482 2.53468
# Velocity P-wave (km/s) = 4.65052 6.00992 5.37338
#
# Compressibility (1/GPa) = 0.03094219
#
# Stress axis : x y z
#
# Youngs Moduli (GPa) = 49.72177 120.76858 41.75653
#
# Poissons Ratio (x) = -0.14027 0.10774
# Poissons Ratio (y) = -0.05775 0.38752
# Poissons Ratio (z) = 0.12829 1.12078
#
# Static dielectric constant tensor:
#      x y z
#    x 1.819760 0.000000 0.000000 
#    y 0.000000 1.851680 0.000000 
#    z 0.000000 0.000000 1.784410 
# 
# From -- ./inp_files/31397.got.cif
#   From: 2010.05.17/outbox.cif.g08.bks.cpg/sg59_16_cif.got.tgz:31397.got - 2010.06.03 14:40:33.
