data_PCOD9446521
_publ_section_title
;
Structure prediction by ZEFSAII (Michael W. Deem and Ramdas Pophale) SiO2 
 PCOD9446521
Probable space group: P M M N
;
_chemical_formula_sum "Si O2"
_cell_formula_units_Z 64
_cell_length_a 14.311286
_cell_length_b 7.567189
_cell_length_c 28.558347
_cell_angle_alpha 90.000000
_cell_angle_beta 90.000000
_cell_angle_gamma 90.000000
_cell_volume 3092.760630
_symmetry_space_group_name_H-M "P M M N"
_symmetry_group_IT_number 59
_space_group.IT_coordinate_system_code '2'
_symmetry_cell_setting 'orthorhombic'
loop_
_space_group_symop_operation_xyz
x,y,z
1/2-x,1/2-y,z
1/2+x,-y,-z
-x,1/2+y,-z
-x,-y,-z
1/2+x,1/2+y,-z
1/2-x,y,z
x,1/2-y,z
loop_
_atom_site_type_symbol
_atom_site_label
_atom_site_fract_x
_atom_site_fract_y
_atom_site_fract_z
Si Si1 0.859483 0.962672 0.480234
Si Si2 0.144544 0.960041 0.138162
Si Si3 0.513355 0.546955 0.208263
Si Si4 0.488969 0.459168 0.054432
Si Si5 0.644423 0.963266 0.585627
Si Si6 0.448139 0.040809 0.613975
Si Si7 0.855932 0.464847 0.124670
Si Si8 0.642903 0.967126 0.290408
O O1 0.750000 0.992812 0.470920
O O2 0.873327 0.750000 0.482454
O O3 0.878310 0.029496 0.532737
O O4 0.917118 0.034474 0.436423
O O5 0.250000 0.031062 0.139825
O O6 0.149120 0.750000 0.146003
O O7 0.074121 0.031296 0.178645
O O8 0.097572 0.980126 0.086797
O O9 0.488497 0.750000 0.219528
O O10 0.596599 0.541772 0.170568
O O11 0.562822 0.469938 0.254301
O O12 0.486347 0.250000 0.058329
O O13 0.581071 0.523736 0.081334
O O14 0.500000 0.500000 0.000000
O O15 0.750000 0.022010 0.597623
O O16 0.646816 0.750000 0.584176
O O17 0.559196 0.016018 0.618632
O O18 0.429277 0.250000 0.612052
O O19 0.388517 0.975021 0.657787
O O20 0.750000 0.519103 0.119707
O O21 0.859358 0.250000 0.127933
O O22 0.750000 0.020937 0.279643
O O23 0.642439 0.750000 0.288811
#
# Coordination Sequence:
#
# PCOD9446521 Si02
#       8
#     8   8   8   8   8   8   8   8
#     4   8  14  26  45  67  90 120 157 192 231 285
#     4   9  18  33  52  72  96 129 168 208 246 281
#     4   9  17  31  51  73  95 122 158 195 232 279
#     4  10  20  33  49  72 102 133 164 198 238 285
#     4   9  18  32  47  62  86 123 161 195 235 282
#     4  10  18  28  46  71  95 120 154 195 236 281
#     4   9  18  32  49  69  94 124 156 192 235 278
#     4   9  17  29  47  73 102 126 148 184 239 296
#
# _framework density 20.693487000000001
#
# number of rings (size 3 to 8) (size 9 to 14) (size 15 to 20)
#    0.000    2.875    0.000    2.250    0.000    3.750 
#    0.000    2.500    0.000    5.250    0.000    0.000 
#    0.000    0.000    0.000    0.000    0.000    0.000 
#
# Total GULP energy -356732.632719 kJ/mol
# GULP energy per Si atom -5573.947386 kJ/mol
# Density = 2.064639 g / cm^3
# Si number density = 20.693487 Si / 1000 Ang^3
#
#
#
# Elastic Constant Matrix: (Units=GPa)
#
#
# Indices 1 2 3 4 5 6 
#
# 1 139.6207 1.6083 50.0022 0.0000 0.0000 0.0000
# 2 1.6083 46.7265 0.2963 0.0000 0.0000 0.0000
# 3 50.0022 0.2963 49.3479 0.0000 0.0000 0.0000
# 4 0.0000 0.0000 0.0000 -3.3624 0.0000 0.0000
# 5 0.0000 0.0000 0.0000 0.0000 10.8720 0.0000
# 6 0.0000 0.0000 0.0000 0.0000 0.0000 15.4926
#
#
#
# Elastic Compliance Matrix: (Units=1/GPa)
#
#
# Indices 1 2 3 4 5 6 
#
# 1 0.011246 -0.000315 -0.011393 0.000000 0.000000 0.000000
# 2 -0.000315 0.021411 0.000190 0.000000 0.000000 0.000000
# 3 -0.011393 0.000190 0.031808 0.000000 0.000000 0.000000
# 4 0.000000 0.000000 0.000000 -0.297404 0.000000 0.000000
# 5 0.000000 0.000000 0.000000 0.000000 0.091979 0.000000
# 6 0.000000 0.000000 0.000000 0.000000 0.000000 0.064547
#
#
# Mechanical properties :
#
#
# Convention : Reuss Voigt Hill
#
# Bulk Modulus (GPa) = 24.13769 37.72318 30.93044
# Shear Modulus (GPa) = -126.36239 16.85301 -54.75469
#
# Velocity S-wave (km/s) = -7.82281 2.85689 -5.14950
# Velocity P-wave (km/s) = 8.36095 5.39921 4.51409
#
# Compressibility (1/GPa) = 0.04142898
#
# Stress axis : x y z
#
# Youngs Moduli (GPa) = 88.91892 46.70550 31.43904
#
# Poissons Ratio (x) = 0.01471 0.35820
# Poissons Ratio (y) = 0.02800 -0.00599
# Poissons Ratio (z) = 1.01309 -0.00890
#
# Static dielectric constant tensor:
#      x y z
#    x 1.741680 0.000000 0.000000 
#    y 0.000000 1.831290 0.000000 
#    z 0.000000 0.000000 1.064050 
# 
# From -- ./inp_files/32201.got.cif
#   From: 2010.05.17/outbox.cif.g08.bks.cpg/sg59_17_cif.got.tgz:32201.got - 2010.06.03 14:40:33.
