data_PCOD9446809
_publ_section_title
;
Structure prediction by ZEFSAII (Michael W. Deem and Ramdas Pophale) SiO2 
 PCOD9446809
Probable space group: P M M N
;
_chemical_formula_sum "Si O2"
_cell_formula_units_Z 64
_cell_length_a 20.580179
_cell_length_b 8.202588
_cell_length_c 20.498059
_cell_angle_alpha 90.000000
_cell_angle_beta 90.000000
_cell_angle_gamma 90.000000
_cell_volume 3460.292289
_symmetry_space_group_name_H-M "P M M N"
_symmetry_group_IT_number 59
_space_group.IT_coordinate_system_code '2'
_symmetry_cell_setting 'orthorhombic'
loop_
_space_group_symop_operation_xyz
x,y,z
1/2-x,1/2-y,z
1/2+x,-y,-z
-x,1/2+y,-z
-x,-y,-z
1/2+x,1/2+y,-z
1/2-x,y,z
x,1/2-y,z
loop_
_atom_site_type_symbol
_atom_site_label
_atom_site_fract_x
_atom_site_fract_y
_atom_site_fract_z
Si Si1 0.419378 0.559328 0.649216
Si Si2 0.677086 0.941863 0.242801
Si Si3 0.942686 0.947965 0.699018
Si Si4 0.177186 0.054359 0.538544
Si Si5 0.676581 0.551040 0.610608
Si Si6 0.886383 0.443904 0.116442
Si Si7 0.072587 0.946163 0.019515
Si Si8 0.968985 0.054109 0.844598
O O1 0.426730 0.750000 0.637379
O O2 0.376105 0.531061 0.713573
O O3 0.491225 0.492137 0.663765
O O4 0.378462 0.490604 0.589101
O O5 0.750000 0.998309 0.257785
O O6 0.672934 0.750000 0.257984
O O7 0.660845 0.969954 0.167200
O O8 0.943774 0.750000 0.698739
O O9 0.879295 0.003763 0.659658
O O10 0.944477 0.003137 0.773879
O O11 0.250000 0.995990 0.557985
O O12 0.180254 0.250000 0.536990
O O13 0.164320 0.999122 0.464298
O O14 0.750000 0.500990 0.628365
O O15 0.675716 0.750000 0.610734
O O16 0.874785 0.250000 0.118934
O O17 0.959998 0.478138 0.141358
O O18 0.883334 0.502662 0.041097
O O19 0.075647 0.750000 0.017949
O O20 0.077995 0.996453 0.095070
O O21 0.000000 0.000000 0.000000
O O22 0.976573 0.250000 0.846626
#
# Coordination Sequence:
#
# PCOD9446809 Si02
#       8
#     8   8   8   8   8   8   8   8
#     4  11  22  33  48  74 107 136 167 212 259 305
#     4  11  23  36  50  70 100 140 182 218 254 305
#     4  10  20  33  51  77 106 134 168 214 259 304
#     4   9  18  34  55  75  97 131 175 216 251 299
#     4   8  16  34  58  78  97 128 170 212 257 309
#     4  10  18  31  50  72  99 130 169 216 258 300
#     4   8  16  28  45  70  97 126 162 202 245 294
#     4  10  18  30  49  74 104 136 167 203 252 305
#
# _framework density 18.495546999999998
#
# number of rings (size 3 to 8) (size 9 to 14) (size 15 to 20)
#    0.000    2.375    1.250    2.625    0.000    4.750 
#    0.000    0.625    0.000    1.875    0.000    3.500 
#    0.000    0.000    0.000    0.000    0.000    0.000 
#
# Total GULP energy -356781.038632 kJ/mol
# GULP energy per Si atom -5574.703729 kJ/mol
# Density = 1.845345 g / cm^3
# Si number density = 18.495547 Si / 1000 Ang^3
#
#
#
# Elastic Constant Matrix: (Units=GPa)
#
#
# Indices 1 2 3 4 5 6 
#
# 1 92.9042 0.8696 71.2530 0.0000 0.0000 0.0000
# 2 0.8696 8.9428 3.1479 0.0000 0.0000 0.0000
# 3 71.2530 3.1479 133.1955 0.0000 0.0000 0.0000
# 4 0.0000 0.0000 0.0000 21.0935 0.0000 0.0000
# 5 0.0000 0.0000 0.0000 0.0000 15.5345 0.0000
# 6 0.0000 0.0000 0.0000 0.0000 0.0000 14.6201
#
#
#
# Elastic Compliance Matrix: (Units=1/GPa)
#
#
# Indices 1 2 3 4 5 6 
#
# 1 0.018277 0.001678 -0.009817 0.000000 0.000000 0.000000
# 2 0.001678 0.112914 -0.003566 0.000000 0.000000 0.000000
# 3 -0.009817 -0.003566 0.012844 0.000000 0.000000 0.000000
# 4 0.000000 0.000000 0.000000 0.047408 0.000000 0.000000
# 5 0.000000 0.000000 0.000000 0.000000 0.064373 0.000000
# 6 0.000000 0.000000 0.000000 0.000000 0.000000 0.068399
#
#
# Mechanical properties :
#
#
# Convention : Reuss Voigt Hill
#
# Bulk Modulus (GPa) = 8.29020 42.84260 25.56640
# Shear Modulus (GPa) = 12.89215 20.90109 16.89662
#
# Velocity S-wave (km/s) = 2.64302 3.36528 3.02578
# Velocity P-wave (km/s) = 3.71565 6.18985 5.10491
#
# Compressibility (1/GPa) = 0.12062438
#
# Stress axis : x y z
#
# Youngs Moduli (GPa) = 54.71259 8.85633 77.85901
#
# Poissons Ratio (x) = -0.01487 0.76435
# Poissons Ratio (y) = -0.09183 0.27768
# Poissons Ratio (z) = 0.53712 0.03159
#
# Static dielectric constant tensor:
#      x y z
#    x 1.628850 0.000000 0.000000 
#    y 0.000000 1.661900 0.000000 
#    z 0.000000 0.000000 1.663650 
# 
# From -- ./inp_files/28268.got.cif
#   From: 2010.05.17/outbox.cif.g08.bks.cpg/sg59_15_cif.got.tgz:28268.got - 2010.06.03 14:40:33.
