data_PCOD9446243
_publ_section_title
;
Structure prediction by ZEFSAII (Michael W. Deem and Ramdas Pophale) SiO2 
 PCOD9446243
Probable space group: P M M N
;
_chemical_formula_sum "Si O2"
_cell_formula_units_Z 64
_cell_length_a 18.657033
_cell_length_b 14.484107
_cell_length_c 15.788066
_cell_angle_alpha 90.000000
_cell_angle_beta 90.000000
_cell_angle_gamma 90.000000
_cell_volume 4266.416374
_symmetry_space_group_name_H-M "P M M N"
_symmetry_group_IT_number 59
_space_group.IT_coordinate_system_code '2'
_symmetry_cell_setting 'orthorhombic'
loop_
_space_group_symop_operation_xyz
x,y,z
1/2-x,1/2-y,z
1/2+x,-y,-z
-x,1/2+y,-z
-x,-y,-z
1/2+x,1/2+y,-z
1/2-x,y,z
x,1/2-y,z
loop_
_atom_site_type_symbol
_atom_site_label
_atom_site_fract_x
_atom_site_fract_y
_atom_site_fract_z
Si Si1 0.335925 0.031752 0.301102
Si Si2 0.334967 0.139744 0.126717
Si Si3 0.598190 0.355495 0.775920
Si Si4 0.664662 0.355222 0.962950
Si Si5 0.167511 0.137713 0.653678
Si Si6 0.837288 0.643592 0.534009
Si Si7 0.429398 0.141163 0.811776
Si Si8 0.917683 0.972962 0.017845
O O1 0.250000 0.019472 0.305121
O O2 0.350031 0.096064 0.219001
O O3 0.359992 0.081721 0.387088
O O4 0.372465 0.933596 0.285640
O O5 0.250000 0.123228 0.108550
O O6 0.346350 0.250000 0.127036
O O7 0.383574 0.088976 0.057166
O O8 0.611971 0.250000 0.748126
O O9 0.636949 0.368398 0.866746
O O10 0.513513 0.366602 0.790730
O O11 0.750000 0.365592 0.964158
O O12 0.646217 0.250000 0.987408
O O13 0.626928 0.432262 0.018917
O O14 0.250000 0.108188 0.666393
O O15 0.167887 0.250000 0.651249
O O16 0.141886 0.109411 0.559788
O O17 0.117355 0.110301 0.731238
O O18 0.750000 0.645060 0.533596
O O19 0.860543 0.750000 0.545341
O O20 0.414400 0.250000 0.827493
O O21 0.412976 0.082946 0.895117
O O22 0.000000 0.000000 0.000000
#
# Coordination Sequence:
#
# PCOD9446243 Si02
#       8
#     8   8   8   8   8   8   8   8
#     4  10  17  28  46  69  94 122 156 192 234 285
#     4  10  20  31  44  67  98 124 148 186 239 294
#     4  10  19  32  47  65  92 126 163 200 237 275
#     4  10  20  34  50  66  88 123 166 206 236 270
#     4   8  15  29  48  70  94 121 154 191 231 281
#     4   8  14  26  46  70  95 122 151 185 231 288
#     4  10  20  33  49  69  96 127 159 196 242 291
#     4  12  21  32  48  68  94 127 160 196 239 288
#
# _framework density 15.00088
#
# number of rings (size 3 to 8) (size 9 to 14) (size 15 to 20)
#    0.000    2.250    2.500    2.250    0.000    3.750 
#    0.000    1.875    0.000    0.000    0.000    0.875 
#    0.000    1.000    0.000    0.000    0.000    0.000 
#
# Total GULP energy -356758.501238 kJ/mol
# GULP energy per Si atom -5574.351582 kJ/mol
# Density = 1.496674 g / cm^3
# Si number density = 15.000880 Si / 1000 Ang^3
#
#
#
# Elastic Constant Matrix: (Units=GPa)
#
#
# Indices 1 2 3 4 5 6 
#
# 1 57.2150 45.9191 52.7777 0.0000 0.0000 0.0000
# 2 45.9191 100.2352 72.6715 0.0000 0.0000 0.0000
# 3 52.7777 72.6715 138.4903 0.0000 0.0000 0.0000
# 4 0.0000 0.0000 0.0000 17.0833 0.0000 0.0000
# 5 0.0000 0.0000 0.0000 0.0000 13.3946 0.0000
# 6 0.0000 0.0000 0.0000 0.0000 0.0000 23.7908
#
#
#
# Elastic Compliance Matrix: (Units=1/GPa)
#
#
# Indices 1 2 3 4 5 6 
#
# 1 0.031493 -0.009242 -0.007152 0.000000 0.000000 0.000000
# 2 -0.009242 0.018815 -0.006351 0.000000 0.000000 0.000000
# 3 -0.007152 -0.006351 0.013279 0.000000 0.000000 0.000000
# 4 0.000000 0.000000 0.000000 0.058537 0.000000 0.000000
# 5 0.000000 0.000000 0.000000 0.000000 0.074657 0.000000
# 6 0.000000 0.000000 0.000000 0.000000 0.000000 0.042033
#
#
# Mechanical properties :
#
#
# Convention : Reuss Voigt Hill
#
# Bulk Modulus (GPa) = 55.25870 70.96412 63.11141
# Shear Modulus (GPa) = 17.22150 19.15856 18.19003
#
# Velocity S-wave (km/s) = 3.39194 3.57762 3.48601
# Velocity P-wave (km/s) = 7.22892 8.02964 7.63978
#
# Compressibility (1/GPa) = 0.01809670
#
# Stress axis : x y z
#
# Youngs Moduli (GPa) = 31.75351 53.14963 75.30761
#
# Poissons Ratio (x) = 0.49120 0.53860
# Poissons Ratio (y) = 0.29346 0.47827
# Poissons Ratio (z) = 0.22710 0.33755
#
# Static dielectric constant tensor:
#      x y z
#    x 1.489920 0.000000 0.000000 
#    y 0.000000 1.499880 0.000000 
#    z 0.000000 0.000000 1.489270 
# 
# From -- ./inp_files/24026.got.cif
#   From: 2010.05.17/outbox.cif.g08.bks.cpg/sg59_13_cif.got.tgz:24026.got - 2010.06.03 14:40:33.
