data_PCOD9446904
_publ_section_title
;
Structure prediction by ZEFSAII (Michael W. Deem and Ramdas Pophale) SiO2 
 PCOD9446904
Probable space group: P M M N
;
_chemical_formula_sum "Si O2"
_cell_formula_units_Z 64
_cell_length_a 23.945644
_cell_length_b 8.838539
_cell_length_c 19.490101
_cell_angle_alpha 90.000000
_cell_angle_beta 90.000000
_cell_angle_gamma 90.000000
_cell_volume 4124.972844
_symmetry_space_group_name_H-M "P M M N"
_symmetry_group_IT_number 59
_space_group.IT_coordinate_system_code '2'
_symmetry_cell_setting 'orthorhombic'
loop_
_space_group_symop_operation_xyz
x,y,z
1/2-x,1/2-y,z
1/2+x,-y,-z
-x,1/2+y,-z
-x,-y,-z
1/2+x,1/2+y,-z
1/2-x,y,z
x,1/2-y,z
loop_
_atom_site_type_symbol
_atom_site_label
_atom_site_fract_x
_atom_site_fract_y
_atom_site_fract_z
Si Si1 0.913923 0.068315 0.017125
Si Si2 0.686499 0.065684 0.111445
Si Si3 0.501991 0.929934 0.250549
Si Si4 0.373953 0.567501 0.747343
Si Si5 0.814669 0.432111 0.396465
Si Si6 0.476244 0.429993 0.107327
Si Si7 0.085101 0.430360 0.526851
Si Si8 0.518713 0.930335 0.608067
O O1 0.913148 0.250000 0.007257
O O2 0.930458 0.989188 0.946388
O O3 0.856064 0.018868 0.051663
O O4 0.963830 0.035964 0.071317
O O5 0.750000 0.012909 0.103672
O O6 0.687231 0.250000 0.110835
O O7 0.660460 0.022679 0.184933
O O8 0.502452 0.750000 0.251275
O O9 0.565519 0.991920 0.252655
O O10 0.474823 0.990877 0.180707
O O11 0.472617 0.993228 0.318757
O O12 0.381714 0.750000 0.749370
O O13 0.339881 0.530332 0.678514
O O14 0.750000 0.477087 0.401154
O O15 0.817762 0.250000 0.403454
O O16 0.854672 0.508473 0.452154
O O17 0.472559 0.250000 0.115545
O O18 0.082041 0.250000 0.536711
O O19 0.039255 0.508436 0.576034
O O20 0.065588 0.463981 0.449194
O O21 0.514326 0.750000 0.616244
#
# Coordination Sequence:
#
# PCOD9446904 Si02
#       8
#     8   8   8   8   8   8   8   8
#     4   9  17  30  47  71  96 123 162 203 241 284
#     4   9  16  28  48  71  96 129 168 203 235 278
#     4  12  22  31  48  74 100 128 163 202 248 293
#     4  10  18  31  47  68  99 135 172 202 233 279
#     4  10  20  32  49  72 100 138 176 205 237 284
#     4  10  19  32  49  68  94 129 162 198 246 292
#     4  10  20  33  50  73  97 127 164 207 251 289
#     4  10  20  34  51  70  97 129 163 201 248 303
#
# _framework density 15.515254000000001
#
# number of rings (size 3 to 8) (size 9 to 14) (size 15 to 20)
#    0.000    2.000    2.500    2.625    0.000    3.750 
#    0.000    0.000    0.000    2.250    0.000    0.875 
#    0.000    5.000    0.000    0.000    0.000    0.000 
#
# Total GULP energy -357162.788381 kJ/mol
# GULP energy per Si atom -5580.668568 kJ/mol
# Density = 1.547994 g / cm^3
# Si number density = 15.515254 Si / 1000 Ang^3
#
#
#
# Elastic Constant Matrix: (Units=GPa)
#
#
# Indices 1 2 3 4 5 6 
#
# 1 93.2089 32.9299 66.4258 0.0000 0.0000 0.0000
# 2 32.9299 43.3318 56.3963 0.0000 0.0000 0.0000
# 3 66.4258 56.3963 141.1695 0.0000 0.0000 0.0000
# 4 0.0000 0.0000 0.0000 23.1660 0.0000 0.0000
# 5 0.0000 0.0000 0.0000 0.0000 19.7438 0.0000
# 6 0.0000 0.0000 0.0000 0.0000 0.0000 18.7347
#
#
#
# Elastic Compliance Matrix: (Units=1/GPa)
#
#
# Indices 1 2 3 4 5 6 
#
# 1 0.016670 -0.005123 -0.005797 0.000000 0.000000 0.000000
# 2 -0.005123 0.049647 -0.017423 0.000000 0.000000 0.000000
# 3 -0.005797 -0.017423 0.016772 0.000000 0.000000 0.000000
# 4 0.000000 0.000000 0.000000 0.043167 0.000000 0.000000
# 5 0.000000 0.000000 0.000000 0.000000 0.050649 0.000000
# 6 0.000000 0.000000 0.000000 0.000000 0.000000 0.053377
#
#
# Mechanical properties :
#
#
# Convention : Reuss Voigt Hill
#
# Bulk Modulus (GPa) = 37.87584 65.46825 51.67204
# Shear Modulus (GPa) = 16.90508 20.45943 18.68225
#
# Velocity S-wave (km/s) = 3.30446 3.63528 3.47381
# Velocity P-wave (km/s) = 6.24694 7.74003 7.03322
#
# Compressibility (1/GPa) = 0.02640206
#
# Stress axis : x y z
#
# Youngs Moduli (GPa) = 59.98806 20.14217 59.62378
#
# Poissons Ratio (x) = 0.10319 0.34565
# Poissons Ratio (y) = 0.30734 1.03882
# Poissons Ratio (z) = 0.34776 0.35094
#
# Static dielectric constant tensor:
#      x y z
#    x 1.499220 0.000000 0.000000 
#    y 0.000000 1.519230 0.000000 
#    z 0.000000 0.000000 1.514560 
# 
# From -- ./inp_files/28464.got.cif
#   From: 2010.05.17/outbox.cif.g08.bks.cpg/sg59_15_cif.got.tgz:28464.got - 2010.06.03 14:40:33.
