data_PCOD9446519
_publ_section_title
;
Structure prediction by ZEFSAII (Michael W. Deem and Ramdas Pophale) SiO2 
 PCOD9446519
Probable space group: P M M N
;
_chemical_formula_sum "Si O2"
_cell_formula_units_Z 64
_cell_length_a 7.515204
_cell_length_b 20.911134
_cell_length_c 20.493559
_cell_angle_alpha 90.000000
_cell_angle_beta 90.000000
_cell_angle_gamma 90.000000
_cell_volume 3220.592264
_symmetry_space_group_name_H-M "P M M N"
_symmetry_group_IT_number 59
_space_group.IT_coordinate_system_code '2'
_symmetry_cell_setting 'orthorhombic'
loop_
_space_group_symop_operation_xyz
x,y,z
1/2-x,1/2-y,z
1/2+x,-y,-z
-x,1/2+y,-z
-x,-y,-z
1/2+x,1/2+y,-z
1/2-x,y,z
x,1/2-y,z
loop_
_atom_site_type_symbol
_atom_site_label
_atom_site_fract_x
_atom_site_fract_y
_atom_site_fract_z
Si Si1 0.467128 0.178302 0.109733
Si Si2 0.460084 0.893396 0.382816
Si Si3 0.968209 0.964840 0.657867
Si Si4 0.959770 0.926986 0.521809
Si Si5 0.032146 0.058002 0.193954
Si Si6 0.535904 0.678592 0.040556
Si Si7 0.460567 0.919661 0.153171
Si Si8 0.531991 0.179528 0.739376
O O1 0.250000 0.177615 0.109969
O O2 0.521596 0.250000 0.129827
O O3 0.528036 0.121042 0.155858
O O4 0.521838 0.168876 0.034304
O O5 0.250000 0.897282 0.372147
O O6 0.482857 0.885137 0.460101
O O7 0.524990 0.839360 0.333637
O O8 0.528763 0.962780 0.358968
O O9 0.750000 0.965107 0.657865
O O10 0.028094 0.922005 0.595989
O O11 0.022952 0.944880 0.730182
O O12 0.750000 0.919700 0.525506
O O13 0.000000 0.000000 0.500000
O O14 0.250000 0.059394 0.193351
O O15 0.972660 0.992187 0.158811
O O16 0.750000 0.680565 0.040536
O O17 0.473767 0.750000 0.062072
O O18 0.484363 0.620573 0.087299
O O19 0.250000 0.925073 0.164537
O O20 0.531240 0.874853 0.211190
O O21 0.750000 0.180352 0.741838
O O22 0.471399 0.250000 0.758237
#
# Coordination Sequence:
#
# PCOD9446519 Si02
#       8
#     8   8   8   8   8   8   8   8
#     4   8  15  28  45  64  86 117 154 183 216 274
#     4   9  15  26  42  60  84 112 145 183 220 259
#     4   8  13  23  39  60  84 108 136 176 224 262
#     4   9  16  25  41  63  86 113 144 177 216 262
#     4   9  15  25  44  67  90 114 144 189 233 264
#     4   9  18  32  46  61  89 125 153 181 220 267
#     4  10  18  28  46  71  92 113 149 194 233 267
#     4   9  16  26  42  63  87 117 153 188 221 266
#
# _framework density 19.872122000000001
#
# number of rings (size 3 to 8) (size 9 to 14) (size 15 to 20)
#    0.000    3.125    1.250    2.250    0.000    1.250 
#    0.000    0.625    0.000    1.875    0.000    1.750 
#    0.000    0.000    0.000    0.000    0.000    0.000 
#
# Total GULP energy -356575.523813 kJ/mol
# GULP energy per Si atom -5571.492560 kJ/mol
# Density = 1.982689 g / cm^3
# Si number density = 19.872122 Si / 1000 Ang^3
#
#
#
# Elastic Constant Matrix: (Units=GPa)
#
#
# Indices 1 2 3 4 5 6 
#
# 1 44.2901 5.0641 -3.2557 0.0000 0.0000 0.0000
# 2 5.0641 141.8290 96.7071 0.0000 0.0000 0.0000
# 3 -3.2557 96.7071 138.6807 0.0000 0.0000 0.0000
# 4 0.0000 0.0000 0.0000 16.8529 0.0000 0.0000
# 5 0.0000 0.0000 0.0000 0.0000 12.7634 0.0000
# 6 0.0000 0.0000 0.0000 0.0000 0.0000 5.0946
#
#
#
# Elastic Compliance Matrix: (Units=1/GPa)
#
#
# Indices 1 2 3 4 5 6 
#
# 1 0.022994 -0.002267 0.002121 0.000000 0.000000 0.000000
# 2 -0.002267 0.013666 -0.009583 0.000000 0.000000 0.000000
# 3 0.002121 -0.009583 0.013943 0.000000 0.000000 0.000000
# 4 0.000000 0.000000 0.000000 0.059337 0.000000 0.000000
# 5 0.000000 0.000000 0.000000 0.000000 0.078349 0.000000
# 6 0.000000 0.000000 0.000000 0.000000 0.000000 0.196285
#
#
# Mechanical properties :
#
#
# Convention : Reuss Voigt Hill
#
# Bulk Modulus (GPa) = 32.10892 57.98119 45.04506
# Shear Modulus (GPa) = 12.06524 22.02780 17.04652
#
# Velocity S-wave (km/s) = 2.46670 3.33299 2.93202
# Velocity P-wave (km/s) = 4.93008 6.63719 5.84628
#
# Compressibility (1/GPa) = 0.03114399
#
# Stress axis : x y z
#
# Youngs Moduli (GPa) = 43.49050 73.17501 71.72002
#
# Poissons Ratio (x) = 0.16589 -0.15209
# Poissons Ratio (y) = 0.09859 0.68729
# Poissons Ratio (z) = -0.09223 0.70123
#
# Static dielectric constant tensor:
#      x y z
#    x 1.759770 0.000000 0.000000 
#    y 0.000000 1.682270 0.000000 
#    z 0.000000 0.000000 1.722280 
# 
# From -- ./inp_files/29768.got.cif
#   From: 2010.05.17/outbox.cif.g08.bks.cpg/sg59_15_cif.got.tgz:29768.got - 2010.06.03 14:40:33.
