data_PCOD9446749
_publ_section_title
;
Structure prediction by ZEFSAII (Michael W. Deem and Ramdas Pophale) SiO2 
 PCOD9446749
Probable space group: P M M N
;
_chemical_formula_sum "Si O2"
_cell_formula_units_Z 64
_cell_length_a 29.506380
_cell_length_b 7.626291
_cell_length_c 16.238756
_cell_angle_alpha 90.000000
_cell_angle_beta 90.000000
_cell_angle_gamma 90.000000
_cell_volume 3654.113731
_symmetry_space_group_name_H-M "P M M N"
_symmetry_group_IT_number 59
_space_group.IT_coordinate_system_code '2'
_symmetry_cell_setting 'orthorhombic'
loop_
_space_group_symop_operation_xyz
x,y,z
1/2-x,1/2-y,z
1/2+x,-y,-z
-x,1/2+y,-z
-x,-y,-z
1/2+x,1/2+y,-z
1/2-x,y,z
x,1/2-y,z
loop_
_atom_site_type_symbol
_atom_site_label
_atom_site_fract_x
_atom_site_fract_y
_atom_site_fract_z
Si Si1 0.800357 0.538510 0.601184
Si Si2 0.049604 0.455712 0.814775
Si Si3 0.397087 0.957022 0.338083
Si Si4 0.945788 0.034386 0.825677
Si Si5 0.946712 0.459537 0.497218
Si Si6 0.608034 0.955678 0.334052
Si Si7 0.553609 0.041889 0.004886
Si Si8 0.300588 0.035632 0.589425
O O1 0.750000 0.479908 0.627467
O O2 0.800247 0.750000 0.601396
O O3 0.843416 0.479822 0.652869
O O4 0.807007 0.482304 0.506000
O O5 0.044357 0.250000 0.795839
O O6 0.081456 0.532682 0.743974
O O7 0.069141 0.470410 0.907091
O O8 0.998048 0.525459 0.814972
O O9 0.407215 0.750000 0.337711
O O10 0.417071 0.026169 0.252498
O O11 0.421748 0.028080 0.420246
O O12 0.945949 0.250000 0.827636
O O13 0.928425 0.978518 0.916217
O O14 0.941037 0.250000 0.494181
O O15 0.923158 0.531877 0.415209
O O16 0.000000 0.500000 0.500000
O O17 0.615588 0.750000 0.316228
O O18 0.657308 0.029616 0.357248
O O19 0.559418 0.250000 0.008699
O O20 0.500000 0.000000 0.000000
O O21 0.250000 0.982391 0.615486
O O22 0.301409 0.250000 0.589411
#
# Coordination Sequence:
#
# PCOD9446749 Si02
#       8
#     8   8   8   8   8   8   8   8
#     4   9  17  30  47  66  89 116 148 188 231 271
#     4   9  17  29  45  65  90 120 151 185 224 265
#     4  10  19  31  46  65  89 118 153 189 223 263
#     4   8  15  28  43  60  86 117 147 180 222 263
#     4  11  22  32  43  62  91 125 156 186 221 264
#     4  10  18  30  48  66  89 122 156 188 224 268
#     4   9  16  28  46  65  87 116 149 187 226 266
#     4   8  14  26  45  66  87 114 149 187 226 269
#
# _framework density 17.514506999999998
#
# number of rings (size 3 to 8) (size 9 to 14) (size 15 to 20)
#    0.000    2.750    1.250    3.000    0.000    3.250 
#    0.000    3.125    0.000    0.375    0.000    0.875 
#    0.000    3.000    0.000    0.000    0.000    0.000 
#
# Total GULP energy -356645.548438 kJ/mol
# GULP energy per Si atom -5572.586694 kJ/mol
# Density = 1.747464 g / cm^3
# Si number density = 17.514507 Si / 1000 Ang^3
#
#
#
# Elastic Constant Matrix: (Units=GPa)
#
#
# Indices 1 2 3 4 5 6 
#
# 1 114.7529 -8.3879 74.9360 0.0000 0.0000 0.0000
# 2 -8.3879 27.9844 -7.9199 0.0000 0.0000 0.0000
# 3 74.9360 -7.9199 146.8195 0.0000 0.0000 0.0000
# 4 0.0000 0.0000 0.0000 7.3726 0.0000 0.0000
# 5 0.0000 0.0000 0.0000 0.0000 10.7835 0.0000
# 6 0.0000 0.0000 0.0000 0.0000 0.0000 12.6680
#
#
#
# Elastic Compliance Matrix: (Units=1/GPa)
#
#
# Indices 1 2 3 4 5 6 
#
# 1 0.013189 0.002080 -0.006619 0.000000 0.000000 0.000000
# 2 0.002080 0.036616 0.000914 0.000000 0.000000 0.000000
# 3 -0.006619 0.000914 0.010239 0.000000 0.000000 0.000000
# 4 0.000000 0.000000 0.000000 0.135637 0.000000 0.000000
# 5 0.000000 0.000000 0.000000 0.000000 0.092734 0.000000
# 6 0.000000 0.000000 0.000000 0.000000 0.000000 0.078939
#
#
# Mechanical properties :
#
#
# Convention : Reuss Voigt Hill
#
# Bulk Modulus (GPa) = 18.94219 45.20147 32.07183
# Shear Modulus (GPa) = 12.74849 21.56007 17.15428
#
# Velocity S-wave (km/s) = 2.70086 3.51234 3.13298
# Velocity P-wave (km/s) = 4.53484 6.50483 5.60703
#
# Compressibility (1/GPa) = 0.05279221
#
# Stress axis : x y z
#
# Youngs Moduli (GPa) = 75.82065 27.31034 97.66681
#
# Poissons Ratio (x) = -0.05680 0.64650
# Poissons Ratio (y) = -0.15769 -0.08924
# Poissons Ratio (z) = 0.50189 -0.02495
#
# Static dielectric constant tensor:
#      x y z
#    x 1.588600 0.000000 0.000000 
#    y 0.000000 1.667360 0.000000 
#    z 0.000000 0.000000 1.616680 
# 
# From -- ./inp_files/25021.got.cif
#   From: 2010.05.17/outbox.cif.g08.bks.cpg/sg59_13_cif.got.tgz:25021.got - 2010.06.03 14:40:33.
