data_PCOD9446039
_publ_section_title
;
Structure prediction by ZEFSAII (Michael W. Deem and Ramdas Pophale) SiO2 
 PCOD9446039
Probable space group: P N N M
;
_chemical_formula_sum "Si O2"
_cell_formula_units_Z 64
_cell_length_a 24.000000
_cell_length_b 15.000000
_cell_length_c 9.000000
_cell_angle_alpha 90.000000
_cell_angle_beta 90.000000
_cell_angle_gamma 90.000000
_cell_volume 3240.000000
_symmetry_space_group_name_H-M "P N N M"
_symmetry_group_IT_number 58
_symmetry_cell_setting 'orthorhombic'
loop_
_space_group_symop_operation_xyz
x,y,z
-x,-y,z
1/2+x,1/2-y,1/2-z
1/2-x,1/2+y,1/2-z
-x,-y,-z
x,y,-z
1/2-x,1/2+y,1/2+z
1/2+x,1/2-y,1/2+z
loop_
_atom_site_type_symbol
_atom_site_label
_atom_site_fract_x
_atom_site_fract_y
_atom_site_fract_z
Si Si1 0.355869 0.344695 0.176697
Si Si2 0.001533 0.605938 0.666389
Si Si3 0.261649 0.114232 0.670947
Si Si4 0.647579 0.350086 0.333476
Si Si5 0.614601 0.833156 0.676299
Si Si6 0.564024 0.483833 0.825219
Si Si7 0.613832 0.145808 0.331286
Si Si8 0.734175 0.096577 0.671835
O O1 0.382624 0.269278 0.276990
O O2 0.395798 0.430240 0.188466
O O3 0.291501 0.359435 0.228052
O O4 0.354151 0.321133 0.000000
O O5 0.003196 0.645383 0.500000
O O6 0.943836 0.631471 0.746397
O O7 0.000000 0.500000 0.655624
O O8 0.058760 0.628865 0.750515
O O9 0.259910 0.146620 0.500000
O O10 0.208437 0.152025 0.757129
O O11 0.324488 0.130987 0.728668
O O12 0.253487 0.008100 0.670149
O O13 0.655316 0.385771 0.500000
O O14 0.600270 0.407585 0.252715
O O15 0.624911 0.250443 0.339867
O O16 0.611827 0.847672 0.500000
O O17 0.500000 0.500000 0.771526
O O18 0.559308 0.461820 0.000000
O O19 0.608152 0.108183 0.500000
O O20 0.672182 0.109280 0.262294
O O21 0.728353 0.127977 0.500000
#
# Coordination Sequence:
#
# PCOD9446039 Si02
#       8
#     8   8   8   8   8   8   8   8
#     4  10  20  38  62  88 122 160 201 250 300 356
#     4  11  25  44  64  89 121 157 200 248 299 354
#     4  10  20  38  62  88 119 161 205 243 293 362
#     4  11  23  38  60  92 125 158 198 254 306 350
#     4  11  24  39  62  92 124 159 199 248 300 361
#     4  10  22  40  63  88 119 165 209 245 298 364
#     4  10  22  39  61  89 120 158 201 244 302 361
#     4   9  17  35  62  86 115 158 202 243 292 355
#
# _framework density 19.753086
#
# number of rings (size 3 to 8) (size 9 to 14) (size 15 to 20)
#    0.000    1.750    1.250    2.625    1.750    5.750 
#    0.000    1.250    0.000    0.000    0.000    0.000 
#    0.000    0.000    0.000    0.000    0.000    0.000 
#
# Total GULP energy -356895.724541 kJ/mol
# GULP energy per Si atom -5576.495696 kJ/mol
# Density = 1.970813 g / cm^3
# Si number density = 19.753086 Si / 1000 Ang^3
#
#
#
# Elastic Constant Matrix: (Units=GPa)
#
#
# Indices 1 2 3 4 5 6 
#
# 1 206.2589 29.5194 68.8631 0.0000 0.0000 0.0000
# 2 29.5194 43.3840 21.7415 0.0000 0.0000 0.0000
# 3 68.8631 21.7415 58.7061 0.0000 0.0000 0.0000
# 4 0.0000 0.0000 0.0000 12.9865 0.0000 0.0000
# 5 0.0000 0.0000 0.0000 0.0000 27.0487 0.0000
# 6 0.0000 0.0000 0.0000 0.0000 0.0000 19.9933
#
#
#
# Elastic Compliance Matrix: (Units=1/GPa)
#
#
# Indices 1 2 3 4 5 6 
#
# 1 0.007998 -0.000909 -0.009046 0.000000 0.000000 0.000000
# 2 -0.000909 0.028406 -0.009454 0.000000 0.000000 0.000000
# 3 -0.009046 -0.009454 0.031146 0.000000 0.000000 0.000000
# 4 0.000000 0.000000 0.000000 0.077003 0.000000 0.000000
# 5 0.000000 0.000000 0.000000 0.000000 0.036970 0.000000
# 6 0.000000 0.000000 0.000000 0.000000 0.000000 0.050017
#
#
# Mechanical properties :
#
#
# Convention : Reuss Voigt Hill
#
# Bulk Modulus (GPa) = 34.80246 60.95522 47.87884
# Shear Modulus (GPa) = 17.86129 24.55403 21.20766
#
# Velocity S-wave (km/s) = 3.01030 3.52951 3.28020
# Velocity P-wave (km/s) = 5.45340 6.89460 6.21591
#
# Compressibility (1/GPa) = 0.02873360
#
# Stress axis : x y z
#
# Youngs Moduli (GPa) = 125.02493 35.20354 32.10721
#
# Poissons Ratio (x) = 0.03201 0.29043
# Poissons Ratio (y) = 0.11367 0.30353
# Poissons Ratio (z) = 1.13092 0.33280
#
# Static dielectric constant tensor:
#      x y z
#    x 1.690980 0.000000 0.000000 
#    y 0.000000 1.718690 0.000000 
#    z 0.000000 0.000000 1.724450 
# 
# From -- ./inp_files/10080.got.cif
#   From: 2010.05.17/outbox.ucp.g08.bks.cvg/sg58_6_cif.got.tgz:10080.got - 2010.06.11 16:41:41.
