data_PCOD9446940
_publ_section_title
;
Structure prediction by ZEFSAII (Michael W. Deem and Ramdas Pophale) SiO2 
 PCOD9446940
Probable space group: P M M N
;
_chemical_formula_sum "Si O2"
_cell_formula_units_Z 64
_cell_length_a 20.122901
_cell_length_b 7.986037
_cell_length_c 21.091334
_cell_angle_alpha 90.000000
_cell_angle_beta 90.000000
_cell_angle_gamma 90.000000
_cell_volume 3389.424448
_symmetry_space_group_name_H-M "P M M N"
_symmetry_group_IT_number 59
_space_group.IT_coordinate_system_code '2'
_symmetry_cell_setting 'orthorhombic'
loop_
_space_group_symop_operation_xyz
x,y,z
1/2-x,1/2-y,z
1/2+x,-y,-z
-x,1/2+y,-z
-x,-y,-z
1/2+x,1/2+y,-z
1/2-x,y,z
x,1/2-y,z
loop_
_atom_site_type_symbol
_atom_site_label
_atom_site_fract_x
_atom_site_fract_y
_atom_site_fract_z
Si Si1 0.538836 0.451127 0.436308
Si Si2 0.675966 0.452580 0.993856
Si Si3 0.675852 0.548535 0.140484
Si Si4 0.041006 0.548209 0.062323
Si Si5 0.176342 0.948997 0.515136
Si Si6 0.041440 0.947723 0.312062
Si Si7 0.964140 0.544277 0.188151
Si Si8 0.675683 0.948412 0.628896
O O1 0.500000 0.500000 0.500000
O O2 0.539637 0.250000 0.432370
O O3 0.614358 0.515300 0.444854
O O4 0.501182 0.517583 0.375023
O O5 0.750000 0.510776 0.976157
O O6 0.675982 0.250000 0.992942
O O7 0.663658 0.506210 0.066550
O O8 0.616239 0.512034 0.949375
O O9 0.750000 0.484673 0.157065
O O10 0.677622 0.750000 0.145631
O O11 0.612493 0.488864 0.180542
O O12 0.042527 0.750000 0.065857
O O13 0.004566 0.489255 0.125735
O O14 0.000000 0.500000 0.000000
O O15 0.250000 0.020037 0.527733
O O16 0.179207 0.750000 0.526339
O O17 0.162092 0.973344 0.440317
O O18 0.047792 0.750000 0.303807
O O19 0.001895 0.014292 0.251045
O O20 0.115678 0.013778 0.323958
O O21 0.963303 0.750000 0.188687
O O22 0.750000 0.003543 0.649054
O O23 0.677286 0.750000 0.619050
#
# Coordination Sequence:
#
# PCOD9446940 Si02
#       8
#     8   8   8   8   8   8   8   8
#     4  11  21  34  55  81 108 137 173 220 266 315
#     4   9  17  28  45  73 104 130 161 208 263 310
#     4   9  16  29  51  74  98 132 172 212 253 302
#     4  10  18  31  51  74 101 131 168 215 260 307
#     4   9  18  33  54  79 105 135 172 214 263 318
#     4  11  22  36  53  75 107 146 181 218 259 312
#     4   9  19  34  50  73 105 137 176 217 255 305
#     4  10  20  34  54  79 105 133 171 220 267 314
#
# _framework density 18.882262999999998
#
# number of rings (size 3 to 8) (size 9 to 14) (size 15 to 20)
#    0.000    2.250    2.500    1.125    0.000    1.250 
#    0.000    3.750    0.000    3.000    0.000    1.750 
#    0.000    0.000    0.000    0.000    0.000    0.000 
#
# Total GULP energy -356946.302054 kJ/mol
# GULP energy per Si atom -5577.285970 kJ/mol
# Density = 1.883929 g / cm^3
# Si number density = 18.882263 Si / 1000 Ang^3
#
#
#
# Elastic Constant Matrix: (Units=GPa)
#
#
# Indices 1 2 3 4 5 6 
#
# 1 183.7548 3.1467 71.3884 0.0000 0.0000 0.0000
# 2 3.1467 12.9284 -7.9281 0.0000 0.0000 0.0000
# 3 71.3884 -7.9281 97.0134 0.0000 0.0000 0.0000
# 4 0.0000 0.0000 0.0000 17.0533 0.0000 0.0000
# 5 0.0000 0.0000 0.0000 0.0000 27.0764 0.0000
# 6 0.0000 0.0000 0.0000 0.0000 0.0000 19.4973
#
#
#
# Elastic Compliance Matrix: (Units=1/GPa)
#
#
# Indices 1 2 3 4 5 6 
#
# 1 0.008022 -0.005867 -0.006383 0.000000 0.000000 0.000000
# 2 -0.005867 0.085720 0.011322 0.000000 0.000000 0.000000
# 3 -0.006383 0.011322 0.015930 0.000000 0.000000 0.000000
# 4 0.000000 0.000000 0.000000 0.058640 0.000000 0.000000
# 5 0.000000 0.000000 0.000000 0.000000 0.036933 0.000000
# 6 0.000000 0.000000 0.000000 0.000000 0.000000 0.051289
#
#
# Mechanical properties :
#
#
# Convention : Reuss Voigt Hill
#
# Bulk Modulus (GPa) = 9.27487 47.43451 28.35469
# Shear Modulus (GPa) = 16.98791 27.86471 22.42631
#
# Velocity S-wave (km/s) = 3.00271 3.84566 3.45003
# Velocity P-wave (km/s) = 4.11635 6.70034 5.56053
#
# Compressibility (1/GPa) = 0.10781825
#
# Stress axis : x y z
#
# Youngs Moduli (GPa) = 124.65536 11.66585 62.77538
#
# Poissons Ratio (x) = 0.06844 0.40067
# Poissons Ratio (y) = 0.73129 -0.71075
# Poissons Ratio (z) = 0.79562 -0.13208
#
# Static dielectric constant tensor:
#      x y z
#    x 1.708430 0.000000 0.000000 
#    y 0.000000 1.674020 0.000000 
#    z 0.000000 0.000000 1.610680 
# 
# From -- ./inp_files/30948.got.cif
#   From: 2010.05.17/outbox.cif.g08.bks.cpg/sg59_16_cif.got.tgz:30948.got - 2010.06.03 14:40:33.
