data_PCOD9446478
_publ_section_title
;
Structure prediction by ZEFSAII (Michael W. Deem and Ramdas Pophale) SiO2 
 PCOD9446478
Probable space group: P M M N
;
_chemical_formula_sum "Si O2"
_cell_formula_units_Z 48
_cell_length_a 8.621494
_cell_length_b 27.686036
_cell_length_c 11.824304
_cell_angle_alpha 90.000000
_cell_angle_beta 90.000000
_cell_angle_gamma 90.000000
_cell_volume 2822.402164
_symmetry_space_group_name_H-M "P M M N"
_symmetry_group_IT_number 59
_space_group.IT_coordinate_system_code '2'
_symmetry_cell_setting 'orthorhombic'
loop_
_space_group_symop_operation_xyz
x,y,z
1/2-x,1/2-y,z
1/2+x,-y,-z
-x,1/2+y,-z
-x,-y,-z
1/2+x,1/2+y,-z
1/2-x,y,z
x,1/2-y,z
loop_
_atom_site_type_symbol
_atom_site_label
_atom_site_fract_x
_atom_site_fract_y
_atom_site_fract_z
Si Si1 0.065014 0.556873 0.378443
Si Si2 0.574770 0.450418 0.965551
Si Si3 0.937871 0.193869 0.988705
Si Si4 0.930467 0.623596 0.198489
Si Si5 0.574524 0.122008 0.175011
Si Si6 0.562184 0.047742 0.357924
O O1 0.250000 0.555449 0.370576
O O2 0.021440 0.557184 0.511119
O O3 0.004790 0.604626 0.314838
O O4 0.000142 0.505922 0.329392
O O5 0.750000 0.455003 0.918552
O O6 0.463378 0.422499 0.880962
O O7 0.500000 0.500000 0.000000
O O8 0.586195 0.418097 0.077253
O O9 0.750000 0.189439 0.990048
O O10 0.979817 0.250000 0.988312
O O11 0.994943 0.166789 0.875230
O O12 0.995804 0.166640 0.103256
O O13 0.750000 0.632972 0.213572
O O14 0.750000 0.136687 0.209855
O O15 0.503833 0.091915 0.279311
O O16 0.750000 0.046137 0.346809
#
# Coordination Sequence:
#
# PCOD9446478 Si02
#       6
#     8   8   8   8   8   8
#     4  10  19  30  46  69  99 134 170 204 236 277
#     4  10  18  28  44  68  98 127 156 192 237 289
#     4   9  18  34  55  75  94 117 150 199 257 309
#     4  11  21  32  47  67  95 130 166 202 239 285
#     4   8  15  28  46  68  92 119 150 187 237 293
#     4   9  17  30  48  70  99 132 164 199 239 287
#
# _framework density 17.006789000000001
#
# number of rings (size 3 to 8) (size 9 to 14) (size 15 to 20)
#    0.000    2.500    0.000    4.500    0.000    2.333 
#    0.000    3.333    0.000    1.000    0.000    4.667 
#    0.000    0.000    0.000    0.000    0.000    0.000 
#
# Total GULP energy -267226.539480 kJ/mol
# GULP energy per Si atom -5567.219572 kJ/mol
# Density = 1.696808 g / cm^3
# Si number density = 17.006789 Si / 1000 Ang^3
#
#
#
# Elastic Constant Matrix: (Units=GPa)
#
#
# Indices 1 2 3 4 5 6 
#
# 1 24.7262 23.1048 13.5641 0.0000 0.0000 0.0000
# 2 23.1048 127.8620 50.8028 0.0000 0.0000 0.0000
# 3 13.5641 50.8028 85.0681 0.0000 0.0000 0.0000
# 4 0.0000 0.0000 0.0000 25.4895 0.0000 0.0000
# 5 0.0000 0.0000 0.0000 0.0000 16.2034 0.0000
# 6 0.0000 0.0000 0.0000 0.0000 0.0000 18.1256
#
#
#
# Elastic Compliance Matrix: (Units=1/GPa)
#
#
# Indices 1 2 3 4 5 6 
#
# 1 0.049371 -0.007596 -0.003336 0.000000 0.000000 0.000000
# 2 -0.007596 0.011423 -0.005610 0.000000 0.000000 0.000000
# 3 -0.003336 -0.005610 0.015638 0.000000 0.000000 0.000000
# 4 0.000000 0.000000 0.000000 0.039232 0.000000 0.000000
# 5 0.000000 0.000000 0.000000 0.000000 0.061716 0.000000
# 6 0.000000 0.000000 0.000000 0.000000 0.000000 0.055171
#
#
# Mechanical properties :
#
#
# Convention : Reuss Voigt Hill
#
# Bulk Modulus (GPa) = 23.06983 45.84441 34.45712
# Shear Modulus (GPa) = 17.85189 21.97601 19.91395
#
# Velocity S-wave (km/s) = 3.24341 3.59860 3.42561
# Velocity P-wave (km/s) = 5.25555 6.65445 5.99593
#
# Compressibility (1/GPa) = 0.04334666
#
# Stress axis : x y z
#
# Youngs Moduli (GPa) = 20.25495 87.54489 63.94770
#
# Poissons Ratio (x) = 0.66498 0.21332
# Poissons Ratio (y) = 0.15385 0.35878
# Poissons Ratio (z) = 0.06757 0.49117
#
# Static dielectric constant tensor:
#      x y z
#    x 1.596900 0.000000 0.000000 
#    y 0.000000 1.544740 0.000000 
#    z 0.000000 0.000000 1.619420 
# 
# From -- ./inp_files/14497.got.cif
#   From: 2010.05.17/outbox.cif.g08.bks.cpg/sg59_8_cif.got.tgz:14497.got - 2010.06.03 14:40:33.
