data_PCOD9446952
_publ_section_title
;
Structure prediction by ZEFSAII (Michael W. Deem and Ramdas Pophale) SiO2 
 PCOD9446952
Probable space group: P M M N
;
_chemical_formula_sum "Si O2"
_cell_formula_units_Z 64
_cell_length_a 11.448395
_cell_length_b 25.350295
_cell_length_c 12.964960
_cell_angle_alpha 90.000000
_cell_angle_beta 90.000000
_cell_angle_gamma 90.000000
_cell_volume 3762.693161
_symmetry_space_group_name_H-M "P M M N"
_symmetry_group_IT_number 59
_space_group.IT_coordinate_system_code '2'
_symmetry_cell_setting 'orthorhombic'
loop_
_space_group_symop_operation_xyz
x,y,z
1/2-x,1/2-y,z
1/2+x,-y,-z
-x,1/2+y,-z
-x,-y,-z
1/2+x,1/2+y,-z
1/2-x,y,z
x,1/2-y,z
loop_
_atom_site_type_symbol
_atom_site_label
_atom_site_fract_x
_atom_site_fract_y
_atom_site_fract_z
Si Si1 0.953099 0.552251 0.280958
Si Si2 0.385442 0.917477 0.469535
Si Si3 0.004220 0.416716 0.087665
Si Si4 0.880019 0.668613 0.243190
Si Si5 0.380425 0.691999 0.361446
Si Si6 0.886224 0.689798 0.998579
Si Si7 0.881861 0.435967 0.298602
Si Si8 0.120176 0.973129 0.091804
O O1 0.883807 0.606257 0.267032
O O2 0.880145 0.499146 0.287373
O O3 0.034815 0.555904 0.382346
O O4 0.032022 0.546419 0.179006
O O5 0.250000 0.935992 0.463407
O O6 0.386821 0.855761 0.440890
O O7 0.427130 0.924886 0.586293
O O8 0.099211 0.464132 0.076312
O O9 0.960191 0.415296 0.205011
O O10 0.046590 0.359478 0.051566
O O11 0.904572 0.440522 0.012273
O O12 0.750000 0.687977 0.277329
O O13 0.888743 0.680874 0.121973
O O14 0.002054 0.688471 0.292855
O O15 0.250000 0.686335 0.309341
O O16 0.381018 0.750000 0.409412
O O17 0.750000 0.686886 0.967053
O O18 0.927674 0.750000 0.976802
O O19 0.750000 0.414888 0.290781
O O20 0.250000 0.963635 0.128524
#
# Coordination Sequence:
#
# PCOD9446952 Si02
#       8
#     8   8   8   8   8   8   8   8
#     4  10  18  31  51  78 106 136 168 212 266 321
#     4   9  18  32  50  73 102 136 174 215 262 318
#     4  10  20  34  49  75 102 137 175 217 262 312
#     4  10  19  32  52  80 110 138 172 215 268 329
#     4   9  18  33  52  74 101 135 176 220 265 313
#     4  10  20  35  54  75 103 138 176 218 264 320
#     4  10  20  33  50  73 104 140 177 217 261 313
#     4  10  19  31  51  76 104 136 172 217 267 318
#
# _framework density 17.009094000000001
#
# number of rings (size 3 to 8) (size 9 to 14) (size 15 to 20)
#    0.000    2.250    1.250    2.250    0.000    1.250 
#    0.000    0.625    0.000   13.500    0.000    0.000 
#    0.000    0.000    0.000    0.000    0.000    0.000 
#
# Total GULP energy -356337.088227 kJ/mol
# GULP energy per Si atom -5567.767004 kJ/mol
# Density = 1.697038 g / cm^3
# Si number density = 17.009094 Si / 1000 Ang^3
#
#
#
# Elastic Constant Matrix: (Units=GPa)
#
#
# Indices 1 2 3 4 5 6 
#
# 1 73.4788 28.9364 19.5852 0.0000 0.0000 0.0000
# 2 28.9364 97.1093 26.8307 0.0000 0.0000 0.0000
# 3 19.5852 26.8307 75.3577 0.0000 0.0000 0.0000
# 4 0.0000 0.0000 0.0000 4.4165 0.0000 0.0000
# 5 0.0000 0.0000 0.0000 0.0000 18.1944 0.0000
# 6 0.0000 0.0000 0.0000 0.0000 0.0000 -65.8426
#
#
#
# Elastic Compliance Matrix: (Units=1/GPa)
#
#
# Indices 1 2 3 4 5 6 
#
# 1 0.015903 -0.003989 -0.002713 0.000000 0.000000 0.000000
# 2 -0.003989 0.012422 -0.003386 0.000000 0.000000 0.000000
# 3 -0.002713 -0.003386 0.015181 0.000000 0.000000 0.000000
# 4 0.000000 0.000000 0.000000 0.226426 0.000000 0.000000
# 5 0.000000 0.000000 0.000000 0.000000 0.054962 0.000000
# 6 0.000000 0.000000 0.000000 0.000000 0.000000 -0.015188
#
#
# Mechanical properties :
#
#
# Convention : Reuss Voigt Hill
#
# Bulk Modulus (GPa) = 42.86370 44.07226 43.46798
# Shear Modulus (GPa) = 14.80783 2.72655 8.76719
#
# Velocity S-wave (km/s) = 2.95377 1.26747 2.27280
# Velocity P-wave (km/s) = 6.07356 5.30181 5.70076
#
# Compressibility (1/GPa) = 0.02332976
#
# Stress axis : x y z
#
# Youngs Moduli (GPa) = 62.87935 80.50292 65.87331
#
# Poissons Ratio (x) = 0.32115 0.17871
# Poissons Ratio (y) = 0.25085 0.22304
# Poissons Ratio (z) = 0.17058 0.27258
#
# Static dielectric constant tensor:
#      x y z
#    x 1.607700 0.000000 0.000000 
#    y 0.000000 1.583390 0.000000 
#    z 0.000000 0.000000 1.551640 
# 
# From -- ./inp_files/16258.got.cif
#   From: 2010.05.17/outbox.cif.g08.bks.cpg/sg59_9_cif.got.tgz:16258.got - 2010.06.03 14:40:33.
