data_PCOD9446545
_publ_section_title
;
Structure prediction by ZEFSAII (Michael W. Deem and Ramdas Pophale) SiO2 
 PCOD9446545
Probable space group: P M M N
;
_chemical_formula_sum "Si O2"
_cell_formula_units_Z 64
_cell_length_a 17.904049
_cell_length_b 14.067785
_cell_length_c 15.174997
_cell_angle_alpha 90.000000
_cell_angle_beta 90.000000
_cell_angle_gamma 90.000000
_cell_volume 3822.131228
_symmetry_space_group_name_H-M "P M M N"
_symmetry_group_IT_number 59
_space_group.IT_coordinate_system_code '2'
_symmetry_cell_setting 'orthorhombic'
loop_
_space_group_symop_operation_xyz
x,y,z
1/2-x,1/2-y,z
1/2+x,-y,-z
-x,1/2+y,-z
-x,-y,-z
1/2+x,1/2+y,-z
1/2-x,y,z
x,1/2-y,z
loop_
_atom_site_type_symbol
_atom_site_label
_atom_site_fract_x
_atom_site_fract_y
_atom_site_fract_z
Si Si1 0.096151 0.856452 0.904046
Si Si2 0.331205 0.856701 0.720653
Si Si3 0.839492 0.863144 0.211205
Si Si4 0.338959 0.138283 0.485635
Si Si5 0.662220 0.544208 0.024165
Si Si6 0.925373 0.858801 0.873076
Si Si7 0.455411 0.136159 0.331127
Si Si8 0.091823 0.489329 0.636121
O O1 0.121924 0.750000 0.925264
O O2 0.111030 0.869981 0.799626
O O3 0.007909 0.863154 0.915086
O O4 0.138213 0.937243 0.955515
O O5 0.250000 0.870057 0.762312
O O6 0.336617 0.750000 0.687647
O O7 0.344460 0.930710 0.644815
O O8 0.750000 0.884755 0.225996
O O9 0.848349 0.750000 0.222025
O O10 0.891266 0.921744 0.279089
O O11 0.858999 0.894706 0.111478
O O12 0.250000 0.113346 0.483679
O O13 0.342363 0.250000 0.512117
O O14 0.382242 0.129812 0.392703
O O15 0.388275 0.075194 0.552656
O O16 0.750000 0.552486 0.016884
O O17 0.625808 0.578263 0.934240
O O18 0.898822 0.750000 0.877301
O O19 0.933762 0.883107 0.770252
O O20 0.480723 0.250000 0.335819
O O21 0.516817 0.055539 0.360022
#
# Coordination Sequence:
#
# PCOD9446545 Si02
#       8
#     8   8   8   8   8   8   8   8
#     4  10  19  33  52  75 106 140 176 220 267 316
#     4  10  18  28  47  76 106 136 169 205 254 315
#     4  10  20  32  47  73 112 149 177 213 267 326
#     4  10  22  38  56  80 110 143 179 216 259 317
#     4  11  21  33  51  78 108 141 182 225 266 314
#     4  10  20  35  54  74 102 141 183 225 268 312
#     4  10  21  38  58  80 106 138 178 225 270 311
#     4  12  19  32  54  81 107 138 171 212 269 319
#
# _framework density 16.744586000000002
#
# number of rings (size 3 to 8) (size 9 to 14) (size 15 to 20)
#    0.000    1.625    2.500    3.375    0.000    3.000 
#    0.000    1.250    0.000    0.750    0.000    0.000 
#    0.000    0.000    0.000    0.000    0.000    0.000 
#
# Total GULP energy -356559.811423 kJ/mol
# GULP energy per Si atom -5571.247053 kJ/mol
# Density = 1.670647 g / cm^3
# Si number density = 16.744586 Si / 1000 Ang^3
#
#
#
# Elastic Constant Matrix: (Units=GPa)
#
#
# Indices 1 2 3 4 5 6 
#
# 1 58.1404 46.5605 49.4329 0.0000 0.0000 0.0000
# 2 46.5605 124.3938 71.5187 0.0000 0.0000 0.0000
# 3 49.4329 71.5187 106.6010 0.0000 0.0000 0.0000
# 4 0.0000 0.0000 0.0000 30.1491 0.0000 0.0000
# 5 0.0000 0.0000 0.0000 0.0000 20.9049 0.0000
# 6 0.0000 0.0000 0.0000 0.0000 0.0000 -5.2129
#
#
#
# Elastic Compliance Matrix: (Units=1/GPa)
#
#
# Indices 1 2 3 4 5 6 
#
# 1 0.030424 -0.005334 -0.010530 0.000000 0.000000 0.000000
# 2 -0.005334 0.014022 -0.006934 0.000000 0.000000 0.000000
# 3 -0.010530 -0.006934 0.018916 0.000000 0.000000 0.000000
# 4 0.000000 0.000000 0.000000 0.033168 0.000000 0.000000
# 5 0.000000 0.000000 0.000000 0.000000 0.047836 0.000000
# 6 0.000000 0.000000 0.000000 0.000000 0.000000 -0.191831
#
#
# Mechanical properties :
#
#
# Convention : Reuss Voigt Hill
#
# Bulk Modulus (GPa) = 56.28543 69.35104 62.81823
# Shear Modulus (GPa) = 1234.08943 17.27644 625.68294
#
# Velocity S-wave (km/s) = 27.17734 3.21559 19.35133
# Velocity P-wave (km/s) = 31.91391 7.43597 23.17101
#
# Compressibility (1/GPa) = 0.01776659
#
# Stress axis : x y z
#
# Youngs Moduli (GPa) = 32.86903 71.31630 52.86621
#
# Poissons Ratio (x) = 0.38038 0.55667
# Poissons Ratio (y) = 0.17531 0.36658
# Poissons Ratio (z) = 0.34610 0.49451
#
# Static dielectric constant tensor:
#      x y z
#    x 1.588470 0.000000 0.000000 
#    y 0.000000 1.590190 0.000000 
#    z 0.000000 0.000000 1.568130 
# 
# From -- ./inp_files/24015.got.cif
#   From: 2010.05.17/outbox.cif.g08.bks.cpg/sg59_13_cif.got.tgz:24015.got - 2010.06.03 14:40:33.
