data_PCOD9446954
_publ_section_title
;
Structure prediction by ZEFSAII (Michael W. Deem and Ramdas Pophale) SiO2 
 PCOD9446954
Probable space group: P M M N
;
_chemical_formula_sum "Si O2"
_cell_formula_units_Z 48
_cell_length_a 14.681669
_cell_length_b 7.973592
_cell_length_c 18.631610
_cell_angle_alpha 90.000000
_cell_angle_beta 90.000000
_cell_angle_gamma 90.000000
_cell_volume 2181.121321
_symmetry_space_group_name_H-M "P M M N"
_symmetry_group_IT_number 59
_space_group.IT_coordinate_system_code '2'
_symmetry_cell_setting 'orthorhombic'
loop_
_space_group_symop_operation_xyz
x,y,z
1/2-x,1/2-y,z
1/2+x,-y,-z
-x,1/2+y,-z
-x,-y,-z
1/2+x,1/2+y,-z
1/2-x,y,z
x,1/2-y,z
loop_
_atom_site_type_symbol
_atom_site_label
_atom_site_fract_x
_atom_site_fract_y
_atom_site_fract_z
Si Si1 0.151931 0.944089 0.133862
Si Si2 0.036968 0.549540 0.680141
Si Si3 0.853835 0.047238 0.619236
Si Si4 0.103551 0.445158 0.985479
Si Si5 0.643893 0.453722 0.457695
Si Si6 0.054025 0.552207 0.835369
O O1 0.250000 0.011909 0.160635
O O2 0.145797 0.750000 0.156077
O O3 0.055474 0.026828 0.154026
O O4 0.155105 0.954581 0.046966
O O5 0.050918 0.750000 0.680741
O O6 0.929708 0.515796 0.673224
O O7 0.074254 0.484630 0.755859
O O8 0.084442 0.481219 0.608261
O O9 0.750000 0.994196 0.633656
O O10 0.854675 0.250000 0.619683
O O11 0.879787 0.988917 0.538250
O O12 0.117555 0.250000 0.000790
O O13 0.111526 0.474920 0.900637
O O14 0.000000 0.500000 0.000000
O O15 0.750000 0.493332 0.445910
O O16 0.636492 0.250000 0.458971
O O17 0.071149 0.750000 0.838160
#
# Coordination Sequence:
#
# PCOD9446954 Si02
#       6
#     8   8   8   8   8   8
#     4  10  20  34  53  75  97 125 164 205 244 292
#     4  10  20  32  50  76 103 135 172 210 255 303
#     4   9  18  32  51  74 100 133 171 211 257 308
#     4  10  18  31  52  72  93 123 158 195 237 285
#     4   8  15  31  53  74  97 128 170 216 258 304
#     4  10  20  33  48  70 102 133 163 200 245 298
#
# _framework density 22.007028999999999
#
# number of rings (size 3 to 8) (size 9 to 14) (size 15 to 20)
#    0.000    2.500    0.000    6.000    0.000    3.667 
#    0.000    4.167    0.000    4.500    0.000    0.000 
#    0.000    0.000    0.000    0.000    0.000    0.000 
#
# Total GULP energy -267707.702862 kJ/mol
# GULP energy per Si atom -5577.243810 kJ/mol
# Density = 2.195694 g / cm^3
# Si number density = 22.007029 Si / 1000 Ang^3
#
#
#
# Elastic Constant Matrix: (Units=GPa)
#
#
# Indices 1 2 3 4 5 6 
#
# 1 17.5826 -13.8926 -3.3628 0.0000 0.0000 0.0000
# 2 -13.8926 31.5055 -6.1819 0.0000 0.0000 0.0000
# 3 -3.3628 -6.1819 84.9001 0.0000 0.0000 0.0000
# 4 0.0000 0.0000 0.0000 15.1950 0.0000 0.0000
# 5 0.0000 0.0000 0.0000 0.0000 8.1019 0.0000
# 6 0.0000 0.0000 0.0000 0.0000 0.0000 9.5507
#
#
#
# Elastic Compliance Matrix: (Units=1/GPa)
#
#
# Indices 1 2 3 4 5 6 
#
# 1 0.090797 0.041334 0.006606 0.000000 0.000000 0.000000
# 2 0.041334 0.051017 0.005352 0.000000 0.000000 0.000000
# 3 0.006606 0.005352 0.012430 0.000000 0.000000 0.000000
# 4 0.000000 0.000000 0.000000 0.065811 0.000000 0.000000
# 5 0.000000 0.000000 0.000000 0.000000 0.123428 0.000000
# 6 0.000000 0.000000 0.000000 0.000000 0.000000 0.104705
#
#
# Mechanical properties :
#
#
# Convention : Reuss Voigt Hill
#
# Bulk Modulus (GPa) = 3.83393 9.67929 6.75661
# Shear Modulus (GPa) = 11.66732 17.06454 14.36593
#
# Velocity S-wave (km/s) = 2.30503 2.78765 2.55774
# Velocity P-wave (km/s) = 2.97155 3.84306 3.43506
#
# Compressibility (1/GPa) = 0.26082892
#
# Stress axis : x y z
#
# Youngs Moduli (GPa) = 11.01352 19.60122 80.45119
#
# Poissons Ratio (x) = -0.81020 -0.53147
# Poissons Ratio (y) = -0.45523 -0.43057
# Poissons Ratio (z) = -0.07276 -0.10490
#
# Static dielectric constant tensor:
#      x y z
#    x 1.798890 0.000000 0.000000 
#    y 0.000000 1.779030 0.000000 
#    z 0.000000 0.000000 1.877530 
# 
# From -- ./inp_files/27397.got.cif
#   From: 2010.05.17/outbox.cif.g08.bks.cpg/sg59_14_cif.got.tgz:27397.got - 2010.06.03 14:40:33.
