data_PCOD9446196
_publ_section_title
;
Structure prediction by ZEFSAII (Michael W. Deem and Ramdas Pophale) SiO2 
 PCOD9446196
Probable space group: P M M N
;
_chemical_formula_sum "Si O2"
_cell_formula_units_Z 64
_cell_length_a 8.449574
_cell_length_b 27.171248
_cell_length_c 17.802274
_cell_angle_alpha 90.000000
_cell_angle_beta 90.000000
_cell_angle_gamma 90.000000
_cell_volume 4087.143455
_symmetry_space_group_name_H-M "P M M N"
_symmetry_group_IT_number 59
_space_group.IT_coordinate_system_code '2'
_symmetry_cell_setting 'orthorhombic'
loop_
_space_group_symop_operation_xyz
x,y,z
1/2-x,1/2-y,z
1/2+x,-y,-z
-x,1/2+y,-z
-x,-y,-z
1/2+x,1/2+y,-z
1/2-x,y,z
x,1/2-y,z
loop_
_atom_site_type_symbol
_atom_site_label
_atom_site_fract_x
_atom_site_fract_y
_atom_site_fract_z
Si Si1 0.559565 0.555104 0.984234
Si Si2 0.434985 0.462960 0.601024
Si Si3 0.436973 0.888322 0.518943
Si Si4 0.942224 0.533687 0.822975
Si Si5 0.559990 0.577517 0.145378
Si Si6 0.936525 0.564546 0.659224
Si Si7 0.939396 0.693020 0.407966
Si Si8 0.564052 0.119235 0.709273
O O1 0.750000 0.555307 0.985287
O O2 0.511516 0.564114 0.897965
O O3 0.500000 0.500000 0.000000
O O4 0.508960 0.584927 0.058312
O O5 0.250000 0.475102 0.595196
O O6 0.492875 0.434928 0.526766
O O7 0.530977 0.511341 0.622134
O O8 0.465714 0.423314 0.666730
O O9 0.250000 0.887989 0.508249
O O10 0.479948 0.896001 0.605690
O O11 0.508176 0.840413 0.478433
O O12 0.750000 0.529248 0.820938
O O13 0.992884 0.558685 0.745177
O O14 0.009385 0.478250 0.831306
O O15 0.750000 0.580893 0.150338
O O16 0.481710 0.614757 0.203941
O O17 0.750000 0.574583 0.659384
O O18 0.750000 0.689061 0.400269
O O19 0.982408 0.750000 0.417057
O O20 0.018595 0.668827 0.334382
O O21 0.750000 0.109299 0.699251
#
# Coordination Sequence:
#
# PCOD9446196 Si02
#       8
#     8   8   8   8   8   8   8   8
#     4   8  15  26  39  58  82 116 155 191 225 258
#     4  11  20  31  45  62  88 118 154 192 229 268
#     4  11  22  34  48  66  89 117 151 185 223 272
#     4   9  17  28  42  59  86 122 159 193 229 266
#     4  10  17  26  42  62  89 119 155 194 225 262
#     4  11  20  30  44  63  91 123 156 192 229 266
#     4  10  21  38  57  73  90 112 142 184 233 279
#     4  11  20  30  46  68  93 121 154 186 224 272
#
# _framework density 15.658859
#
# number of rings (size 3 to 8) (size 9 to 14) (size 15 to 20)
#    0.000    1.875    1.250    6.375    0.000    2.000 
#    0.000    0.000    0.000    0.000    0.000    0.000 
#    0.000    1.000    0.000   11.500    0.000    3.250 
#
# Total GULP energy -356863.220250 kJ/mol
# GULP energy per Si atom -5575.987816 kJ/mol
# Density = 1.562322 g / cm^3
# Si number density = 15.658859 Si / 1000 Ang^3
#
#
#
# Elastic Constant Matrix: (Units=GPa)
#
#
# Indices 1 2 3 4 5 6 
#
# 1 28.7687 -0.4869 14.8137 0.0000 0.0000 0.0000
# 2 -0.4869 46.8754 43.6863 0.0000 0.0000 0.0000
# 3 14.8137 43.6863 140.2339 0.0000 0.0000 0.0000
# 4 0.0000 0.0000 0.0000 9.5325 0.0000 0.0000
# 5 0.0000 0.0000 0.0000 0.0000 17.9694 0.0000
# 6 0.0000 0.0000 0.0000 0.0000 0.0000 16.2983
#
#
#
# Elastic Compliance Matrix: (Units=1/GPa)
#
#
# Indices 1 2 3 4 5 6 
#
# 1 0.037848 0.005804 -0.005806 0.000000 0.000000 0.000000
# 2 0.005804 0.030951 -0.010255 0.000000 0.000000 0.000000
# 3 -0.005806 -0.010255 0.010939 0.000000 0.000000 0.000000
# 4 0.000000 0.000000 0.000000 0.104904 0.000000 0.000000
# 5 0.000000 0.000000 0.000000 0.000000 0.055650 0.000000
# 6 0.000000 0.000000 0.000000 0.000000 0.000000 0.061356
#
#
# Mechanical properties :
#
#
# Convention : Reuss Voigt Hill
#
# Bulk Modulus (GPa) = 16.88507 36.87824 26.88165
# Shear Modulus (GPa) = 14.62402 19.28439 16.95421
#
# Velocity S-wave (km/s) = 3.05932 3.51313 3.29405
# Velocity P-wave (km/s) = 4.82553 6.32916 5.62779
#
# Compressibility (1/GPa) = 0.05922391
#
# Stress axis : x y z
#
# Youngs Moduli (GPa) = 26.42148 32.30933 91.41599
#
# Poissons Ratio (x) = -0.18754 0.53079
# Poissons Ratio (y) = -0.15336 0.93748
# Poissons Ratio (z) = 0.15341 0.33134
#
# Static dielectric constant tensor:
#      x y z
#    x 1.524310 0.000000 0.000000 
#    y 0.000000 1.484170 0.000000 
#    z 0.000000 0.000000 1.593500 
# 
# From -- ./inp_files/26665.got.cif
#   From: 2010.05.17/outbox.cif.g08.bks.cpg/sg59_14_cif.got.tgz:26665.got - 2010.06.03 14:40:33.
