data_PCOD9446738
_publ_section_title
;
Structure prediction by ZEFSAII (Michael W. Deem and Ramdas Pophale) SiO2 
 PCOD9446738
Probable space group: P M M N
;
_chemical_formula_sum "Si O2"
_cell_formula_units_Z 64
_cell_length_a 8.099497
_cell_length_b 22.885028
_cell_length_c 19.675236
_cell_angle_alpha 90.000000
_cell_angle_beta 90.000000
_cell_angle_gamma 90.000000
_cell_volume 3646.946962
_symmetry_space_group_name_H-M "P M M N"
_symmetry_group_IT_number 59
_space_group.IT_coordinate_system_code '2'
_symmetry_cell_setting 'orthorhombic'
loop_
_space_group_symop_operation_xyz
x,y,z
1/2-x,1/2-y,z
1/2+x,-y,-z
-x,1/2+y,-z
-x,-y,-z
1/2+x,1/2+y,-z
1/2-x,y,z
x,1/2-y,z
loop_
_atom_site_type_symbol
_atom_site_label
_atom_site_fract_x
_atom_site_fract_y
_atom_site_fract_z
Si Si1 0.451377 0.890854 0.408927
Si Si2 0.947773 0.622424 0.160307
Si Si3 0.948963 0.313639 0.707757
Si Si4 0.451908 0.316297 0.974334
Si Si5 0.052259 0.557901 0.542245
Si Si6 0.442951 0.439599 0.037202
Si Si7 0.053928 0.508354 0.829034
Si Si8 0.944863 0.994279 0.674768
O O1 0.250000 0.894287 0.409692
O O2 0.502787 0.835074 0.366147
O O3 0.502288 0.893600 0.487434
O O4 0.507260 0.946716 0.363453
O O5 0.750000 0.620112 0.156776
O O6 0.001681 0.668299 0.103247
O O7 0.008624 0.556451 0.150162
O O8 0.998440 0.641967 0.234637
O O9 0.750000 0.312235 0.707496
O O10 0.014546 0.250000 0.724614
O O11 0.250000 0.314992 0.978199
O O12 0.506833 0.250000 0.993065
O O13 0.508856 0.375615 0.013529
O O14 0.250000 0.558517 0.549433
O O15 0.000000 0.500000 0.500000
O O16 0.976904 0.554634 0.617122
O O17 0.250000 0.437205 0.021852
O O18 0.473990 0.447706 0.117432
O O19 0.500000 0.500000 0.000000
O O20 0.250000 0.510531 0.839859
O O21 0.020791 0.516218 0.748781
O O22 0.750000 0.001137 0.685125
#
# Coordination Sequence:
#
# PCOD9446738 Si02
#       8
#     8   8   8   8   8   8   8   8
#     4   8  15  27  42  62  90 124 158 195 240 281
#     4  10  19  32  49  69  96 131 170 207 243 291
#     4  10  19  30  44  65  95 131 169 204 241 291
#     4   9  18  34  54  74  98 131 172 212 251 299
#     4   9  16  27  43  64  91 122 157 196 237 288
#     4  11  21  35  54  77 104 135 169 210 258 307
#     4  11  21  33  50  75 101 133 170 205 252 307
#     4  10  18  30  47  68  95 125 157 199 250 299
#
# _framework density 17.548926000000002
#
# number of rings (size 3 to 8) (size 9 to 14) (size 15 to 20)
#    0.000    2.250    2.500    2.625    0.000    1.250 
#    0.000    0.625    0.000    2.250    0.000    0.875 
#    0.000    3.000    0.000    0.000    0.000    0.000 
#
# Total GULP energy -356323.861075 kJ/mol
# GULP energy per Si atom -5567.560329 kJ/mol
# Density = 1.750898 g / cm^3
# Si number density = 17.548926 Si / 1000 Ang^3
#
#
#
# Elastic Constant Matrix: (Units=GPa)
#
#
# Indices 1 2 3 4 5 6 
#
# 1 12.6698 6.7652 -1.7518 0.0000 0.0000 0.0000
# 2 6.7652 88.2005 44.3734 0.0000 0.0000 0.0000
# 3 -1.7518 44.3734 81.7249 0.0000 0.0000 0.0000
# 4 0.0000 0.0000 0.0000 19.3152 0.0000 0.0000
# 5 0.0000 0.0000 0.0000 0.0000 21.9470 0.0000
# 6 0.0000 0.0000 0.0000 0.0000 0.0000 9.6646
#
#
#
# Elastic Compliance Matrix: (Units=1/GPa)
#
#
# Indices 1 2 3 4 5 6 
#
# 1 0.085445 -0.010285 0.007416 0.000000 0.000000 0.000000
# 2 -0.010285 0.016837 -0.009362 0.000000 0.000000 0.000000
# 3 0.007416 -0.009362 0.017478 0.000000 0.000000 0.000000
# 4 0.000000 0.000000 0.000000 0.051773 0.000000 0.000000
# 5 0.000000 0.000000 0.000000 0.000000 0.045564 0.000000
# 6 0.000000 0.000000 0.000000 0.000000 0.000000 0.103470
#
#
# Mechanical properties :
#
#
# Convention : Reuss Voigt Hill
#
# Bulk Modulus (GPa) = 10.49339 31.26320 20.87829
# Shear Modulus (GPa) = 13.26980 19.06592 16.16786
#
# Velocity S-wave (km/s) = 2.75282 3.29970 3.03859
# Velocity P-wave (km/s) = 4.01205 5.68954 4.92278
#
# Compressibility (1/GPa) = 0.09529808
#
# Stress axis : x y z
#
# Youngs Moduli (GPa) = 11.70342 59.39388 57.21344
#
# Poissons Ratio (x) = 0.61085 -0.42428
# Poissons Ratio (y) = 0.12037 0.53564
# Poissons Ratio (z) = -0.08679 0.55605
#
# Static dielectric constant tensor:
#      x y z
#    x 1.619670 0.000000 0.000000 
#    y 0.000000 1.621300 0.000000 
#    z 0.000000 0.000000 1.614050 
# 
# From -- ./inp_files/26565.got.cif
#   From: 2010.05.17/outbox.cif.g08.bks.cpg/sg59_14_cif.got.tgz:26565.got - 2010.06.03 14:40:33.
