data_PCOD9446842
_publ_section_title
;
Structure prediction by ZEFSAII (Michael W. Deem and Ramdas Pophale) SiO2 
 PCOD9446842
Probable space group: P M M N
;
_chemical_formula_sum "Si O2"
_cell_formula_units_Z 48
_cell_length_a 19.651136
_cell_length_b 8.711254
_cell_length_c 16.524894
_cell_angle_alpha 90.000000
_cell_angle_beta 90.000000
_cell_angle_gamma 90.000000
_cell_volume 2828.831117
_symmetry_space_group_name_H-M "P M M N"
_symmetry_group_IT_number 59
_space_group.IT_coordinate_system_code '2'
_symmetry_cell_setting 'orthorhombic'
loop_
_space_group_symop_operation_xyz
x,y,z
1/2-x,1/2-y,z
1/2+x,-y,-z
-x,1/2+y,-z
-x,-y,-z
1/2+x,1/2+y,-z
1/2-x,y,z
x,1/2-y,z
loop_
_atom_site_type_symbol
_atom_site_label
_atom_site_fract_x
_atom_site_fract_y
_atom_site_fract_z
Si Si1 0.025068 0.933910 0.624459
Si Si2 0.571373 0.565549 0.032092
Si Si3 0.522793 0.934618 0.199133
Si Si4 0.892534 0.933930 0.525317
Si Si5 0.879315 0.934759 0.865052
Si Si6 0.750000 0.433949 0.772572
Si Si7 0.250000 0.566087 0.416545
O O1 0.029868 0.750000 0.623711
O O2 0.948531 0.975897 0.594238
O O3 0.076140 0.002858 0.558086
O O4 0.038819 0.997044 0.713569
O O5 0.567635 0.750000 0.031603
O O6 0.574637 0.519766 0.126257
O O7 0.500000 0.500000 0.000000
O O8 0.623667 0.522703 0.960939
O O9 0.520530 0.750000 0.204193
O O10 0.448909 0.996790 0.171548
O O11 0.888781 0.750000 0.522010
O O12 0.818886 0.001684 0.544259
O O13 0.881581 0.750000 0.858441
O O14 0.816139 0.999676 0.816352
O O15 0.750000 0.250000 0.777733
O O16 0.750000 0.477570 0.678206
O O17 0.250000 0.750000 0.422551
#
# Coordination Sequence:
#
# PCOD9446842 Si02
#       7
#     8   8   8   8   8   4   4
#     4  10  20  34  53  78 105 134 171 214 259 306
#     4   8  16  29  46  69  96 126 159 197 240 284
#     4  10  18  30  50  75 102 130 164 206 250 297
#     4  10  21  36  54  75 102 135 170 210 258 309
#     4  10  19  32  49  71 100 133 168 204 245 292
#     4  11  23  35  49  72 101 134 167 199 242 295
#     4  11  23  37  53  74 103 136 169 207 252 307
#
# _framework density 16.968139999999998
#
# number of rings (size 3 to 8) (size 9 to 14) (size 15 to 20)
#    0.000    2.167    0.000    3.500    0.000    7.333 
#    0.000    0.000    0.000    1.000    0.000    4.667 
#    0.000    0.000    0.000    0.000    0.000    0.000 
#
# Total GULP energy -267660.024597 kJ/mol
# GULP energy per Si atom -5576.250512 kJ/mol
# Density = 1.692952 g / cm^3
# Si number density = 16.968140 Si / 1000 Ang^3
#
#
#
# Elastic Constant Matrix: (Units=GPa)
#
#
# Indices 1 2 3 4 5 6 
#
# 1 94.3245 34.4582 58.0286 0.0000 0.0000 0.0000
# 2 34.4582 47.4946 45.2226 0.0000 0.0000 0.0000
# 3 58.0286 45.2226 155.7158 0.0000 0.0000 0.0000
# 4 0.0000 0.0000 0.0000 29.8693 0.0000 0.0000
# 5 0.0000 0.0000 0.0000 0.0000 16.5643 0.0000
# 6 0.0000 0.0000 0.0000 0.0000 0.0000 24.0183
#
#
#
# Elastic Compliance Matrix: (Units=1/GPa)
#
#
# Indices 1 2 3 4 5 6 
#
# 1 0.015704 -0.008046 -0.003515 0.000000 0.000000 0.000000
# 2 -0.008046 0.033225 -0.006651 0.000000 0.000000 0.000000
# 3 -0.003515 -0.006651 0.009663 0.000000 0.000000 0.000000
# 4 0.000000 0.000000 0.000000 0.033479 0.000000 0.000000
# 5 0.000000 0.000000 0.000000 0.000000 0.060371 0.000000
# 6 0.000000 0.000000 0.000000 0.000000 0.000000 0.041635
#
#
# Mechanical properties :
#
#
# Convention : Reuss Voigt Hill
#
# Bulk Modulus (GPa) = 45.11017 63.66153 54.38585
# Shear Modulus (GPa) = 21.01798 24.74539 22.88169
#
# Velocity S-wave (km/s) = 3.52330 3.82297 3.67619
# Velocity P-wave (km/s) = 6.57225 7.55556 7.08099
#
# Compressibility (1/GPa) = 0.02216795
#
# Stress axis : x y z
#
# Youngs Moduli (GPa) = 63.67901 30.09754 103.48240
#
# Poissons Ratio (x) = 0.24217 0.36378
# Poissons Ratio (y) = 0.51237 0.68824
# Poissons Ratio (z) = 0.22386 0.20017
#
# Static dielectric constant tensor:
#      x y z
#    x 1.541280 0.000000 0.000000 
#    y 0.000000 1.568760 0.000000 
#    z 0.000000 0.000000 1.600170 
# 
# From -- ./inp_files/23682.got.cif
#   From: 2010.05.17/outbox.cif.g08.bks.cpg/sg59_12_cif.got.tgz:23682.got - 2010.06.03 14:40:33.
