data_PCOD9446011
_publ_section_title
;
Structure prediction by ZEFSAII (Michael W. Deem and Ramdas Pophale) SiO2 
 PCOD9446011
Probable space group: P N N M
;
_chemical_formula_sum "Si O2"
_cell_formula_units_Z 56
_cell_length_a 21.000000
_cell_length_b 15.000000
_cell_length_c 9.000000
_cell_angle_alpha 90.000000
_cell_angle_beta 90.000000
_cell_angle_gamma 90.000000
_cell_volume 2835.000000
_symmetry_space_group_name_H-M "P N N M"
_symmetry_group_IT_number 58
_symmetry_cell_setting 'orthorhombic'
loop_
_space_group_symop_operation_xyz
x,y,z
-x,-y,z
1/2+x,1/2-y,1/2-z
1/2-x,1/2+y,1/2-z
-x,-y,-z
x,y,-z
1/2-x,1/2+y,1/2+z
1/2+x,1/2-y,1/2+z
loop_
_atom_site_type_symbol
_atom_site_label
_atom_site_fract_x
_atom_site_fract_y
_atom_site_fract_z
Si Si1 0.562186 0.825643 0.177744
Si Si2 0.423459 0.812900 0.674808
Si Si3 0.133805 0.843173 0.322221
Si Si4 0.774980 0.000949 0.319178
Si Si5 0.626454 0.345548 0.821816
Si Si6 0.005830 0.896169 0.165931
Si Si7 0.872249 0.488078 0.175125
O O1 0.494825 0.802396 0.256613
O O2 0.620905 0.759401 0.221373
O O3 0.585329 0.921314 0.230027
O O4 0.552800 0.819537 0.000000
O O5 0.422983 0.790068 0.500000
O O6 0.370010 0.754730 0.760293
O O7 0.403043 0.914980 0.687085
O O8 0.138327 0.844990 0.500000
O O9 0.066595 0.882469 0.269487
O O10 0.190115 0.907759 0.266271
O O11 0.774649 0.003834 0.500000
O O12 0.818961 0.915986 0.277369
O O13 0.701575 0.991097 0.274329
O O14 0.559609 0.370881 0.745894
O O15 0.621493 0.346959 0.000000
O O16 0.015074 0.856583 0.000000
O O17 0.000000 0.000000 0.145997
O O18 0.873653 0.461682 0.000000
#
# Coordination Sequence:
#
# PCOD9446011 Si02
#       7
#     8   8   8   8   8   8   8
#     4  11  23  38  62  92 118 150 197 252 300 347
#     4  11  23  39  62  89 118 153 196 250 304 350
#     4  10  20  36  59  86 116 154 194 236 292 354
#     4   9  20  39  61  85 117 159 201 233 285 364
#     4  11  21  35  60  89 118 155 196 240 294 353
#     4  11  21  32  52  86 123 154 190 240 296 346
#     4  10  23  43  62  81 114 161 203 243 295 353
#
# _framework density 19.753086
#
# number of rings (size 3 to 8) (size 9 to 14) (size 15 to 20)
#    0.000    1.571    2.857    2.143    0.000    5.143 
#    0.000    3.571    0.000    0.000    0.000    0.000 
#    0.000    0.000    0.000    0.000    0.000    0.000 
#
# Total GULP energy -312140.458377 kJ/mol
# GULP energy per Si atom -5573.936757 kJ/mol
# Density = 1.970813 g / cm^3
# Si number density = 19.753086 Si / 1000 Ang^3
#
#
#
# Elastic Constant Matrix: (Units=GPa)
#
#
# Indices 1 2 3 4 5 6 
#
# 1 77.8914 11.6749 10.2810 0.0000 0.0000 0.0000
# 2 11.6749 65.1914 13.5878 0.0000 0.0000 0.0000
# 3 10.2810 13.5878 28.3527 0.0000 0.0000 0.0000
# 4 0.0000 0.0000 0.0000 34.5662 0.0000 0.0000
# 5 0.0000 0.0000 0.0000 0.0000 17.6732 0.0000
# 6 0.0000 0.0000 0.0000 0.0000 0.0000 43.3235
#
#
#
# Elastic Compliance Matrix: (Units=1/GPa)
#
#
# Indices 1 2 3 4 5 6 
#
# 1 0.013626 -0.001567 -0.004190 0.000000 0.000000 0.000000
# 2 -0.001567 0.017222 -0.007685 0.000000 0.000000 0.000000
# 3 -0.004190 -0.007685 0.040473 0.000000 0.000000 0.000000
# 4 0.000000 0.000000 0.000000 0.028930 0.000000 0.000000
# 5 0.000000 0.000000 0.000000 0.000000 0.056583 0.000000
# 6 0.000000 0.000000 0.000000 0.000000 0.000000 0.023082
#
#
# Mechanical properties :
#
#
# Convention : Reuss Voigt Hill
#
# Bulk Modulus (GPa) = 22.50422 26.94698 24.72560
# Shear Modulus (GPa) = 22.56191 28.17203 25.36697
#
# Velocity S-wave (km/s) = 3.38331 3.78061 3.58747
# Velocity P-wave (km/s) = 5.16525 5.72092 5.45017
#
# Compressibility (1/GPa) = 0.04443611
#
# Stress axis : x y z
#
# Youngs Moduli (GPa) = 73.38742 58.06558 24.70813
#
# Poissons Ratio (x) = 0.09099 0.10353
# Poissons Ratio (y) = 0.11500 0.18989
# Poissons Ratio (z) = 0.30750 0.44625
#
# Static dielectric constant tensor:
#      x y z
#    x 1.648080 0.000000 0.000000 
#    y 0.000000 1.814060 0.000000 
#    z 0.000000 0.000000 1.680360 
# 
# From -- ./inp_files/6245.got.cif
#   From: 2010.05.17/outbox.ucp.g08.bks.cvg/sg58_4_cif.got.tgz:6245.got - 2010.06.11 16:41:41.
