data_PCOD9446531
_publ_section_title
;
Structure prediction by ZEFSAII (Michael W. Deem and Ramdas Pophale) SiO2 
 PCOD9446531
Probable space group: P M M N
;
_chemical_formula_sum "Si O2"
_cell_formula_units_Z 64
_cell_length_a 7.585619
_cell_length_b 15.123275
_cell_length_c 28.786896
_cell_angle_alpha 90.000000
_cell_angle_beta 90.000000
_cell_angle_gamma 90.000000
_cell_volume 3302.415500
_symmetry_space_group_name_H-M "P M M N"
_symmetry_group_IT_number 59
_space_group.IT_coordinate_system_code '2'
_symmetry_cell_setting 'orthorhombic'
loop_
_space_group_symop_operation_xyz
x,y,z
1/2-x,1/2-y,z
1/2+x,-y,-z
-x,1/2+y,-z
-x,-y,-z
1/2+x,1/2+y,-z
1/2-x,y,z
x,1/2-y,z
loop_
_atom_site_type_symbol
_atom_site_label
_atom_site_fract_x
_atom_site_fract_y
_atom_site_fract_z
Si Si1 0.041034 0.039158 0.607494
Si Si2 0.459091 0.101603 0.512803
Si Si3 0.454317 0.655508 0.586387
Si Si4 0.540178 0.849855 0.196925
Si Si5 0.963098 0.148119 0.963392
Si Si6 0.460457 0.849910 0.303086
Si Si7 0.954368 0.519974 0.119745
Si Si8 0.534330 0.350503 0.069640
O O1 0.250000 0.030828 0.597949
O O2 0.975733 0.104272 0.566091
O O3 0.017708 0.082710 0.657275
O O4 0.967941 0.938923 0.602923
O O5 0.250000 0.120140 0.511180
O O6 0.541118 0.152935 0.469816
O O7 0.500000 0.000000 0.500000
O O8 0.250000 0.655887 0.601262
O O9 0.533416 0.750000 0.601319
O O10 0.750000 0.844711 0.188260
O O11 0.468610 0.750000 0.189849
O O12 0.514658 0.873809 0.250748
O O13 0.466251 0.922433 0.161538
O O14 0.750000 0.142795 0.961432
O O15 0.012229 0.250000 0.952996
O O16 0.038362 0.081493 0.925871
O O17 0.017944 0.128743 0.016409
O O18 0.250000 0.846936 0.304040
O O19 0.528109 0.750000 0.312248
O O20 0.750000 0.503181 0.131938
O O21 0.030796 0.425594 0.104572
O O22 0.750000 0.351887 0.069693
O O23 0.480764 0.250000 0.080282
#
# Coordination Sequence:
#
# PCOD9446531 Si02
#       8
#     8   8   8   8   8   8   8   8
#     4   9  18  32  50  71  96 127 159 192 233 278
#     4   9  17  29  45  67  95 127 162 196 231 272
#     4   9  18  32  49  71 101 134 164 195 231 272
#     4   9  18  32  48  67  91 115 142 184 238 287
#     4   9  17  28  42  63  94 129 157 183 223 272
#     4  10  21  35  51  71  92 117 152 192 234 281
#     4  10  18  28  47  71  91 117 155 194 228 266
#     4   8  15  28  44  64  93 126 157 188 222 263
#
# _framework density 19.379753999999998
#
# number of rings (size 3 to 8) (size 9 to 14) (size 15 to 20)
#    0.000    2.875    0.000    3.000    0.000    5.250 
#    0.000    3.750    0.000    1.875    0.000    3.500 
#    0.000    0.000    0.000    0.000    0.000    0.000 
#
# Total GULP energy -356660.736030 kJ/mol
# GULP energy per Si atom -5572.824000 kJ/mol
# Density = 1.933564 g / cm^3
# Si number density = 19.379754 Si / 1000 Ang^3
#
#
#
# Elastic Constant Matrix: (Units=GPa)
#
#
# Indices 1 2 3 4 5 6 
#
# 1 43.1019 -5.7612 -8.9485 0.0000 0.0000 0.0000
# 2 -5.7612 115.5950 83.9800 0.0000 0.0000 0.0000
# 3 -8.9485 83.9800 111.8373 0.0000 0.0000 0.0000
# 4 0.0000 0.0000 0.0000 76.5027 0.0000 0.0000
# 5 0.0000 0.0000 0.0000 0.0000 12.9035 0.0000
# 6 0.0000 0.0000 0.0000 0.0000 0.0000 6.9638
#
#
#
# Elastic Compliance Matrix: (Units=1/GPa)
#
#
# Indices 1 2 3 4 5 6 
#
# 1 0.023602 -0.000431 0.002212 0.000000 0.000000 0.000000
# 2 -0.000431 0.019043 -0.014334 0.000000 0.000000 0.000000
# 3 0.002212 -0.014334 0.019882 0.000000 0.000000 0.000000
# 4 0.000000 0.000000 0.000000 0.013071 0.000000 0.000000
# 5 0.000000 0.000000 0.000000 0.000000 0.077498 0.000000
# 6 0.000000 0.000000 0.000000 0.000000 0.000000 0.143601
#
#
# Mechanical properties :
#
#
# Convention : Reuss Voigt Hill
#
# Bulk Modulus (GPa) = 26.72220 45.45276 36.08748
# Shear Modulus (GPa) = 14.95756 32.69157 23.82457
#
# Velocity S-wave (km/s) = 2.78117 4.11164 3.51002
# Velocity P-wave (km/s) = 4.91242 6.78568 5.92356
#
# Compressibility (1/GPa) = 0.03742206
#
# Stress axis : x y z
#
# Youngs Moduli (GPa) = 42.36843 52.51167 50.29571
#
# Poissons Ratio (x) = 0.02261 -0.11125
# Poissons Ratio (y) = 0.01824 0.72096
# Poissons Ratio (z) = -0.09371 0.75272
#
# Static dielectric constant tensor:
#      x y z
#    x 1.728600 0.000000 0.000000 
#    y 0.000000 1.717620 0.000000 
#    z 0.000000 0.000000 1.663610 
# 
# From -- ./inp_files/33225.got.cif
#   From: 2010.05.17/outbox.cif.g08.bks.cpg/sg59_17_cif.got.tgz:33225.got - 2010.06.03 14:40:33.
