data_PCOD9446450
_publ_section_title
;
Structure prediction by ZEFSAII (Michael W. Deem and Ramdas Pophale) SiO2 
 PCOD9446450
Probable space group: P M M N
;
_chemical_formula_sum "Si O2"
_cell_formula_units_Z 56
_cell_length_a 25.189792
_cell_length_b 8.760002
_cell_length_c 16.783595
_cell_angle_alpha 90.000000
_cell_angle_beta 90.000000
_cell_angle_gamma 90.000000
_cell_volume 3703.512185
_symmetry_space_group_name_H-M "P M M N"
_symmetry_group_IT_number 59
_space_group.IT_coordinate_system_code '2'
_symmetry_cell_setting 'orthorhombic'
loop_
_space_group_symop_operation_xyz
x,y,z
1/2-x,1/2-y,z
1/2+x,-y,-z
-x,1/2+y,-z
-x,-y,-z
1/2+x,1/2+y,-z
1/2-x,y,z
x,1/2-y,z
loop_
_atom_site_type_symbol
_atom_site_label
_atom_site_fract_x
_atom_site_fract_y
_atom_site_fract_z
Si Si1 0.510323 0.564709 0.804340
Si Si2 0.399408 0.931947 0.886121
Si Si3 0.585049 0.067436 0.484984
Si Si4 0.188117 0.067718 0.773368
Si Si5 0.810822 0.934251 0.411051
Si Si6 0.054970 0.433086 0.034748
Si Si7 0.014724 0.434558 0.376842
O O1 0.509661 0.750000 0.801367
O O2 0.452640 0.517568 0.838200
O O3 0.553378 0.522004 0.871986
O O4 0.518802 0.511491 0.714342
O O5 0.401778 0.750000 0.893558
O O6 0.349773 0.983009 0.834232
O O7 0.401297 0.003448 0.974375
O O8 0.587066 0.250000 0.488604
O O9 0.542344 0.024408 0.415784
O O10 0.642783 0.002783 0.464553
O O11 0.559677 0.002544 0.565928
O O12 0.250000 0.038802 0.790114
O O13 0.179267 0.250000 0.778971
O O14 0.178525 0.022328 0.681303
O O15 0.750000 0.980444 0.430534
O O16 0.812591 0.750000 0.415100
O O17 0.053856 0.250000 0.030208
O O18 0.000000 0.500000 0.000000
O O19 0.018518 0.250000 0.378574
#
# Coordination Sequence:
#
# PCOD9446450 Si02
#       7
#     8   8   8   8   8   8   8
#     4   8  15  27  43  62  84 113 147 179 210 248
#     4  10  18  28  43  64  90 118 146 176 214 258
#     4  10  19  29  43  66  92 117 147 182 221 263
#     4   9  18  31  45  63  87 114 146 181 214 251
#     4   9  18  32  48  65  87 117 150 182 219 264
#     4   9  16  27  42  62  87 113 144 178 212 251
#     4   9  17  30  45  61  87 121 151 181 218 261
#
# _framework density 15.120782999999999
#
# number of rings (size 3 to 8) (size 9 to 14) (size 15 to 20)
#    0.000    2.857    0.000    3.857    0.000    2.857 
#    0.000    5.714    0.000    0.000    0.000    1.000 
#    0.000    8.000    0.000    0.000    0.000    0.000 
#
# Total GULP energy -311887.511803 kJ/mol
# GULP energy per Si atom -5569.419854 kJ/mol
# Density = 1.508637 g / cm^3
# Si number density = 15.120783 Si / 1000 Ang^3
#
#
#
# Elastic Constant Matrix: (Units=GPa)
#
#
# Indices 1 2 3 4 5 6 
#
# 1 70.2493 28.4068 56.6971 0.0000 0.0000 0.0000
# 2 28.4068 27.5607 33.4001 0.0000 0.0000 0.0000
# 3 56.6971 33.4001 136.7881 0.0000 0.0000 0.0000
# 4 0.0000 0.0000 0.0000 18.7532 0.0000 0.0000
# 5 0.0000 0.0000 0.0000 0.0000 25.2758 0.0000
# 6 0.0000 0.0000 0.0000 0.0000 0.0000 22.8322
#
#
#
# Elastic Compliance Matrix: (Units=1/GPa)
#
#
# Indices 1 2 3 4 5 6 
#
# 1 0.027917 -0.020951 -0.006456 0.000000 0.000000 0.000000
# 2 -0.020951 0.067255 -0.007738 0.000000 0.000000 0.000000
# 3 -0.006456 -0.007738 0.011876 0.000000 0.000000 0.000000
# 4 0.000000 0.000000 0.000000 0.053324 0.000000 0.000000
# 5 0.000000 0.000000 0.000000 0.000000 0.039564 0.000000
# 6 0.000000 0.000000 0.000000 0.000000 0.000000 0.043798
#
#
# Mechanical properties :
#
#
# Convention : Reuss Voigt Hill
#
# Bulk Modulus (GPa) = 27.20418 52.40067 39.80242
# Shear Modulus (GPa) = 15.32444 21.11183 18.21813
#
# Velocity S-wave (km/s) = 3.18696 3.74065 3.47485
# Velocity P-wave (km/s) = 5.61895 7.30661 6.51763
#
# Compressibility (1/GPa) = 0.03675906
#
# Stress axis : x y z
#
# Youngs Moduli (GPa) = 35.82017 14.86874 84.20442
#
# Poissons Ratio (x) = 0.31151 0.54360
# Poissons Ratio (y) = 0.75046 0.65158
# Poissons Ratio (z) = 0.23125 0.11506
#
# Static dielectric constant tensor:
#      x y z
#    x 1.490400 0.000000 0.000000 
#    y 0.000000 1.506610 0.000000 
#    z 0.000000 0.000000 1.517130 
# 
# From -- ./inp_files/28086.got.cif
#   From: 2010.05.17/outbox.cif.g08.bks.cpg/sg59_15_cif.got.tgz:28086.got - 2010.06.03 14:40:33.
