data_PCOD9446133
_publ_section_title
;
Structure prediction by ZEFSAII (Michael W. Deem and Ramdas Pophale) SiO2 
 PCOD9446133
Probable space group: P M M N
;
_chemical_formula_sum "Si O2"
_cell_formula_units_Z 52
_cell_length_a 13.239896
_cell_length_b 20.142880
_cell_length_c 9.080665
_cell_angle_alpha 90.000000
_cell_angle_beta 90.000000
_cell_angle_gamma 90.000000
_cell_volume 2421.719247
_symmetry_space_group_name_H-M "P M M N"
_symmetry_group_IT_number 59
_space_group.IT_coordinate_system_code '2'
_symmetry_cell_setting 'orthorhombic'
loop_
_space_group_symop_operation_xyz
x,y,z
1/2-x,1/2-y,z
1/2+x,-y,-z
-x,1/2+y,-z
-x,-y,-z
1/2+x,1/2+y,-z
1/2-x,y,z
x,1/2-y,z
loop_
_atom_site_type_symbol
_atom_site_label
_atom_site_fract_x
_atom_site_fract_y
_atom_site_fract_z
Si Si1 0.871192 0.750000 0.417753
Si Si2 0.627974 0.526051 0.334594
Si Si3 0.128435 0.116352 0.405111
Si Si4 0.486903 0.884532 0.130228
Si Si5 0.631235 0.672911 0.893554
Si Si6 0.629884 0.103309 0.164132
Si Si7 0.870245 0.250000 0.141592
Si Si8 0.541431 0.250000 0.812960
O O1 0.750000 0.750000 0.395322
O O2 0.899516 0.683348 0.506707
O O3 0.932954 0.750000 0.267688
O O4 0.750000 0.540631 0.308547
O O5 0.604704 0.551785 0.498926
O O6 0.611608 0.449838 0.291826
O O7 0.550338 0.565797 0.230110
O O8 0.250000 0.119217 0.396696
O O9 0.096329 0.123826 0.236488
O O10 0.572469 0.844071 0.040067
O O11 0.420785 0.913249 0.994740
O O12 0.426508 0.827234 0.221150
O O13 0.750000 0.664387 0.918052
O O14 0.616473 0.750000 0.848931
O O15 0.750000 0.102167 0.137033
O O16 0.603421 0.179009 0.210000
O O17 0.750000 0.250000 0.122412
O O18 0.921860 0.250000 0.982465
#
# Coordination Sequence:
#
# PCOD9446133 Si02
#       8
#     4   8   8   8   8   8   4   4
#     4  10  16  25  42  67 100 136 164 184 216 277
#     4  10  19  31  49  74 102 131 161 197 241 290
#     4   9  17  29  45  66 100 139 165 184 220 285
#     4  11  19  30  47  75 101 127 161 204 241 280
#     4  10  19  30  45  70 104 135 160 189 232 288
#     4   9  19  34  51  70  95 126 163 207 253 291
#     4   8  16  32  49  66  90 118 156 208 256 292
#     4  10  18  25  43  73  98 120 160 198 238 271
#
# _framework density 21.472349000000001
#
# number of rings (size 3 to 8) (size 9 to 14) (size 15 to 20)
#    0.000    2.308    3.077    0.923    0.000    0.615 
#    0.000    0.769    0.000    0.000    0.000    2.154 
#    0.000    0.000    0.000    0.462    0.000    0.000 
#
# Total GULP energy -289536.505741 kJ/mol
# GULP energy per Si atom -5568.009726 kJ/mol
# Density = 2.142348 g / cm^3
# Si number density = 21.472349 Si / 1000 Ang^3
#
#
#
# Elastic Constant Matrix: (Units=GPa)
#
#
# Indices 1 2 3 4 5 6 
#
# 1 52.0025 1.2571 -1.6116 0.0000 0.0000 0.0000
# 2 1.2571 75.9868 4.8068 0.0000 0.0000 0.0000
# 3 -1.6116 4.8068 47.6415 0.0000 0.0000 0.0000
# 4 0.0000 0.0000 0.0000 15.0699 0.0000 0.0000
# 5 0.0000 0.0000 0.0000 0.0000 18.0066 0.0000
# 6 0.0000 0.0000 0.0000 0.0000 0.0000 27.9277
#
#
#
# Elastic Compliance Matrix: (Units=1/GPa)
#
#
# Indices 1 2 3 4 5 6 
#
# 1 0.019260 -0.000362 0.000688 0.000000 0.000000 0.000000
# 2 -0.000362 0.013252 -0.001349 0.000000 0.000000 0.000000
# 3 0.000688 -0.001349 0.021150 0.000000 0.000000 0.000000
# 4 0.000000 0.000000 0.000000 0.066357 0.000000 0.000000
# 5 0.000000 0.000000 0.000000 0.000000 0.055535 0.000000
# 6 0.000000 0.000000 0.000000 0.000000 0.000000 0.035807
#
#
# Mechanical properties :
#
#
# Convention : Reuss Voigt Hill
#
# Bulk Modulus (GPa) = 19.37450 20.50394 19.93922
# Shear Modulus (GPa) = 21.68145 23.61273 22.64709
#
# Velocity S-wave (km/s) = 3.18108 3.31974 3.25115
# Velocity P-wave (km/s) = 4.74710 4.92585 4.83730
#
# Compressibility (1/GPa) = 0.05161424
#
# Stress axis : x y z
#
# Youngs Moduli (GPa) = 51.92125 75.46303 47.28238
#
# Poissons Ratio (x) = 0.02733 -0.03253
# Poissons Ratio (y) = 0.01880 0.06380
# Poissons Ratio (z) = -0.03573 0.10182
#
# Static dielectric constant tensor:
#      x y z
#    x 1.830520 0.000000 0.000000 
#    y 0.000000 1.858170 0.000000 
#    z 0.000000 0.000000 1.765450 
# 
# From -- ./inp_files/9309.got.cif
#   From: 2010.05.17/outbox.cif.g08.bks.cpg/sg59_5_cif.got.tgz:9309.got - 2010.06.03 14:40:33.
