data_PCOD9446995
_publ_section_title
;
Structure prediction by ZEFSAII (Michael W. Deem and Ramdas Pophale) SiO2 
 PCOD9446995
Probable space group: P M M N
;
_chemical_formula_sum "Si O2"
_cell_formula_units_Z 48
_cell_length_a 8.585510
_cell_length_b 14.843963
_cell_length_c 18.365170
_cell_angle_alpha 90.000000
_cell_angle_beta 90.000000
_cell_angle_gamma 90.000000
_cell_volume 2340.512228
_symmetry_space_group_name_H-M "P M M N"
_symmetry_group_IT_number 59
_space_group.IT_coordinate_system_code '2'
_symmetry_cell_setting 'orthorhombic'
loop_
_space_group_symop_operation_xyz
x,y,z
1/2-x,1/2-y,z
1/2+x,-y,-z
-x,1/2+y,-z
-x,-y,-z
1/2+x,1/2+y,-z
1/2-x,y,z
x,1/2-y,z
loop_
_atom_site_type_symbol
_atom_site_label
_atom_site_fract_x
_atom_site_fract_y
_atom_site_fract_z
Si Si1 0.569531 0.144039 0.963440
Si Si2 0.063993 0.347515 0.374242
Si Si3 0.436112 0.043098 0.667588
Si Si4 0.433850 0.353384 0.120442
Si Si5 0.565709 0.965849 0.170105
Si Si6 0.435813 0.901788 0.478225
O O1 0.750000 0.126608 0.982335
O O2 0.553171 0.250000 0.945569
O O3 0.520025 0.084795 0.895150
O O4 0.467487 0.126785 0.035234
O O5 0.250000 0.357909 0.368054
O O6 0.020449 0.250000 0.340829
O O7 0.986292 0.438368 0.343780
O O8 0.015981 0.343729 0.459302
O O9 0.250000 0.047778 0.658951
O O10 0.479002 0.068762 0.749840
O O11 0.514202 0.104899 0.605721
O O12 0.250000 0.360153 0.134938
O O13 0.483490 0.250000 0.133643
O O14 0.523616 0.428706 0.165238
O O15 0.750000 0.954163 0.160900
O O16 0.250000 0.896508 0.484807
O O17 0.500000 0.000000 0.500000
#
# Coordination Sequence:
#
# PCOD9446995 Si02
#       6
#     8   8   8   8   8   8
#     4  10  21  38  60  83 108 141 184 234 281 328
#     4  10  20  34  54  79 106 137 174 217 264 315
#     4  10  21  36  53  75 106 142 177 215 264 319
#     4  10  21  37  58  83 112 147 186 229 275 326
#     4  11  23  37  56  82 113 150 186 225 277 333
#     4  10  18  31  53  75  98 130 168 209 251 300
#
# _framework density 20.508330999999998
#
# number of rings (size 3 to 8) (size 9 to 14) (size 15 to 20)
#    0.000    1.833    0.000    6.500    0.000    6.667 
#    0.000    4.167    0.000    1.000    0.000    0.000 
#    0.000    0.000    0.000    0.000    0.000    0.000 
#
# Total GULP energy -268038.784917 kJ/mol
# GULP energy per Si atom -5584.141352 kJ/mol
# Density = 2.046165 g / cm^3
# Si number density = 20.508331 Si / 1000 Ang^3
#
#
#
# Elastic Constant Matrix: (Units=GPa)
#
#
# Indices 1 2 3 4 5 6 
#
# 1 33.5636 -5.1801 -7.6980 0.0000 0.0000 0.0000
# 2 -5.1801 21.3679 -4.7166 0.0000 0.0000 0.0000
# 3 -7.6980 -4.7166 51.2090 0.0000 0.0000 0.0000
# 4 0.0000 0.0000 0.0000 10.2863 0.0000 0.0000
# 5 0.0000 0.0000 0.0000 0.0000 26.5412 0.0000
# 6 0.0000 0.0000 0.0000 0.0000 0.0000 19.6864
#
#
#
# Elastic Compliance Matrix: (Units=1/GPa)
#
#
# Indices 1 2 3 4 5 6 
#
# 1 0.032521 0.009149 0.005731 0.000000 0.000000 0.000000
# 2 0.009149 0.050344 0.006012 0.000000 0.000000 0.000000
# 3 0.005731 0.006012 0.020943 0.000000 0.000000 0.000000
# 4 0.000000 0.000000 0.000000 0.097217 0.000000 0.000000
# 5 0.000000 0.000000 0.000000 0.000000 0.037677 0.000000
# 6 0.000000 0.000000 0.000000 0.000000 0.000000 0.050797
#
#
# Mechanical properties :
#
#
# Convention : Reuss Voigt Hill
#
# Bulk Modulus (GPa) = 6.86847 7.88347 7.37597
# Shear Modulus (GPa) = 16.87795 19.55180 18.21487
#
# Velocity S-wave (km/s) = 2.87188 3.09100 2.98345
# Velocity P-wave (km/s) = 3.78857 4.07326 3.93349
#
# Compressibility (1/GPa) = 0.14559284
#
# Stress axis : x y z
#
# Youngs Moduli (GPa) = 30.74967 19.86330 47.74838
#
# Poissons Ratio (x) = -0.18173 -0.27366
# Poissons Ratio (y) = -0.28133 -0.28708
# Poissons Ratio (z) = -0.17624 -0.11942
#
# Static dielectric constant tensor:
#      x y z
#    x 1.681260 0.000000 0.000000 
#    y 0.000000 1.734960 0.000000 
#    z 0.000000 0.000000 1.762310 
# 
# From -- ./inp_files/25471.got.cif
#   From: 2010.05.17/outbox.cif.g08.bks.cpg/sg59_13_cif.got.tgz:25471.got - 2010.06.03 14:40:33.
