data_PCOD9446035
_publ_section_title
;
Structure prediction by ZEFSAII (Michael W. Deem and Ramdas Pophale) SiO2 
 PCOD9446035
Probable space group: P N N M
;
_chemical_formula_sum "Si O2"
_cell_formula_units_Z 64
_cell_length_a 30.000000
_cell_length_b 12.000000
_cell_length_c 9.000000
_cell_angle_alpha 90.000000
_cell_angle_beta 90.000000
_cell_angle_gamma 90.000000
_cell_volume 3240.000000
_symmetry_space_group_name_H-M "P N N M"
_symmetry_group_IT_number 58
_symmetry_cell_setting 'orthorhombic'
loop_
_space_group_symop_operation_xyz
x,y,z
-x,-y,z
1/2+x,1/2-y,1/2-z
1/2-x,1/2+y,1/2-z
-x,-y,-z
x,y,-z
1/2-x,1/2+y,1/2+z
1/2+x,1/2-y,1/2+z
loop_
_atom_site_type_symbol
_atom_site_label
_atom_site_fract_x
_atom_site_fract_y
_atom_site_fract_z
Si Si1 0.055951 0.803539 0.176654
Si Si2 0.283178 0.314752 0.176224
Si Si3 0.157528 0.031301 0.674807
Si Si4 0.564486 0.446792 0.324987
Si Si5 0.608233 0.068309 0.818949
Si Si6 0.190103 0.280148 0.675100
Si Si7 0.134880 0.678938 0.320423
Si Si8 0.028812 0.276605 0.677895
O O1 0.101753 0.770346 0.254260
O O2 0.018642 0.722813 0.243140
O O3 0.043109 0.932283 0.208893
O O4 0.059528 0.793382 0.000000
O O5 0.310140 0.428284 0.204159
O O6 0.235815 0.315126 0.251755
O O7 0.315153 0.212755 0.224367
O O8 0.276910 0.305110 0.000000
O O9 0.142774 0.024058 0.500000
O O10 0.115986 0.032211 0.785008
O O11 0.181840 0.149118 0.693949
O O12 0.557512 0.422876 0.500000
O O13 0.550341 0.340830 0.228305
O O14 0.647632 0.150517 0.768307
O O15 0.561430 0.123365 0.775231
O O16 0.618941 0.942990 0.771094
O O17 0.608103 0.068089 0.000000
O O18 0.192937 0.302590 0.500000
O O19 0.132636 0.683865 0.500000
O O20 0.023732 0.278649 0.500000
#
# Coordination Sequence:
#
# PCOD9446035 Si02
#       8
#     8   8   8   8   8   8   8   8
#     4  11  24  40  58  87 122 151 191 242 295 348
#     4  10  22  37  58  88 117 148 195 243 283 342
#     4  10  20  38  61  85 115 154 199 242 285 347
#     4  11  22  37  59  88 121 152 189 243 297 346
#     4   9  20  39  61  86 114 150 197 242 282 342
#     4  10  21  38  60  84 117 154 190 237 292 343
#     4  10  21  40  63  84 113 154 198 239 284 344
#     4  11  22  39  63  87 117 155 196 238 290 351
#
# _framework density 19.753086
#
# number of rings (size 3 to 8) (size 9 to 14) (size 15 to 20)
#    0.000    1.750    2.500    1.500    1.750    5.000 
#    0.000    4.375    0.000    0.000    0.000    0.000 
#    0.000    0.000    0.000    0.000    0.000    0.000 
#
# Total GULP energy -357363.348856 kJ/mol
# GULP energy per Si atom -5583.802326 kJ/mol
# Density = 1.970813 g / cm^3
# Si number density = 19.753086 Si / 1000 Ang^3
#
#
#
# Elastic Constant Matrix: (Units=GPa)
#
#
# Indices 1 2 3 4 5 6 
#
# 1 51.6498 -19.2129 -0.8598 0.0000 0.0000 0.0000
# 2 -19.2129 41.1768 4.7535 0.0000 0.0000 0.0000
# 3 -0.8598 4.7535 1.7725 0.0000 0.0000 0.0000
# 4 0.0000 0.0000 0.0000 8.4835 0.0000 0.0000
# 5 0.0000 0.0000 0.0000 0.0000 23.8032 0.0000
# 6 0.0000 0.0000 0.0000 0.0000 0.0000 6.0854
#
#
#
# Elastic Compliance Matrix: (Units=1/GPa)
#
#
# Indices 1 2 3 4 5 6 
#
# 1 0.024285 0.014443 -0.026953 0.000000 0.000000 0.000000
# 2 0.014443 0.043765 -0.110366 0.000000 0.000000 0.000000
# 3 -0.026953 -0.110366 0.847102 0.000000 0.000000 0.000000
# 4 0.000000 0.000000 0.000000 0.117876 0.000000 0.000000
# 5 0.000000 0.000000 0.000000 0.000000 0.042011 0.000000
# 6 0.000000 0.000000 0.000000 0.000000 0.000000 0.164327
#
#
# Mechanical properties :
#
#
# Convention : Reuss Voigt Hill
#
# Bulk Modulus (GPa) = 1.49388 7.10672 4.30030
# Shear Modulus (GPa) = 2.92697 15.00231 8.96464
#
# Velocity S-wave (km/s) = 1.21860 2.75888 2.13265
# Velocity P-wave (km/s) = 1.65466 3.70866 2.87159
#
# Compressibility (1/GPa) = 0.66939974
#
# Stress axis : x y z
#
# Youngs Moduli (GPa) = 41.17779 22.84915 1.18050
#
# Poissons Ratio (x) = -0.33000 0.03182
# Poissons Ratio (y) = -0.59472 0.13029
# Poissons Ratio (z) = 1.10985 2.52178
#
# Static dielectric constant tensor:
#      x y z
#    x 1.716010 0.000000 0.000000 
#    y 0.000000 1.695190 0.000000 
#    z 0.000000 0.000000 1.663410 
# 
# From -- ./inp_files/10947.got.cif
#   From: 2010.05.17/outbox.ucp.g08.bks.cvg/sg58_6_cif.got.tgz:10947.got - 2010.06.11 16:41:41.
