data_PCOD9446698
_publ_section_title
;
Structure prediction by ZEFSAII (Michael W. Deem and Ramdas Pophale) SiO2 
 PCOD9446698
Probable space group: P M M N
;
_chemical_formula_sum "Si O2"
_cell_formula_units_Z 64
_cell_length_a 25.109100
_cell_length_b 8.155015
_cell_length_c 16.764231
_cell_angle_alpha 90.000000
_cell_angle_beta 90.000000
_cell_angle_gamma 90.000000
_cell_volume 3432.729221
_symmetry_space_group_name_H-M "P M M N"
_symmetry_group_IT_number 59
_space_group.IT_coordinate_system_code '2'
_symmetry_cell_setting 'orthorhombic'
loop_
_space_group_symop_operation_xyz
x,y,z
1/2-x,1/2-y,z
1/2+x,-y,-z
-x,1/2+y,-z
-x,-y,-z
1/2+x,1/2+y,-z
1/2-x,y,z
x,1/2-y,z
loop_
_atom_site_type_symbol
_atom_site_label
_atom_site_fract_x
_atom_site_fract_y
_atom_site_fract_z
Si Si1 0.415887 0.444886 0.706040
Si Si2 0.688702 0.947941 0.757161
Si Si3 0.309040 0.947504 0.790726
Si Si4 0.395633 0.051033 0.366565
Si Si5 0.475388 0.055393 0.227246
Si Si6 0.441665 0.448373 0.528705
Si Si7 0.110296 0.940564 0.106925
Si Si8 0.310003 0.549586 0.975602
O O1 0.416208 0.250000 0.701101
O O2 0.358774 0.497883 0.738717
O O3 0.464553 0.494901 0.763598
O O4 0.427925 0.511506 0.616857
O O5 0.750000 0.991909 0.759626
O O6 0.683442 0.750000 0.768882
O O7 0.660402 0.989007 0.673794
O O8 0.655050 0.035964 0.825146
O O9 0.250000 0.003987 0.764182
O O10 0.308396 0.750000 0.790800
O O11 0.315836 0.998575 0.883278
O O12 0.399809 0.250000 0.367874
O O13 0.440981 0.991869 0.303817
O O14 0.403988 0.993585 0.456407
O O15 0.476136 0.250000 0.233522
O O16 0.442901 0.013224 0.146902
O O17 0.500000 0.500000 0.500000
O O18 0.439785 0.250000 0.531702
O O19 0.099467 0.750000 0.092539
O O20 0.140642 0.010261 0.029173
O O21 0.250000 0.498968 0.002767
O O22 0.310398 0.750000 0.979404
#
# Coordination Sequence:
#
# PCOD9446698 Si02
#       8
#     8   8   8   8   8   8   8   8
#     4  11  22  34  53  82 110 133 167 218 270 310
#     4   9  17  29  45  67  99 138 175 204 239 300
#     4   9  19  38  61  79  99 135 180 216 253 309
#     4   8  15  29  47  68  95 129 167 206 243 287
#     4  10  19  33  52  73 103 141 176 206 247 312
#     4  10  19  32  51  76 103 131 169 211 254 304
#     4  10  18  29  49  77 107 132 165 216 268 307
#     4   8  15  30  53  78 101 131 174 219 260 307
#
# _framework density 18.644055999999999
#
# number of rings (size 3 to 8) (size 9 to 14) (size 15 to 20)
#    0.000    2.625    1.250    3.000    0.000    1.500 
#    0.000    2.500    0.000    3.750    0.000    0.000 
#    0.000    0.000    0.000    0.000    0.000    0.000 
#
# Total GULP energy -356646.460570 kJ/mol
# GULP energy per Si atom -5572.600946 kJ/mol
# Density = 1.860162 g / cm^3
# Si number density = 18.644056 Si / 1000 Ang^3
#
#
#
# Elastic Constant Matrix: (Units=GPa)
#
#
# Indices 1 2 3 4 5 6 
#
# 1 125.2323 14.5983 58.7088 0.0000 0.0000 0.0000
# 2 14.5983 16.6627 10.0812 0.0000 0.0000 0.0000
# 3 58.7088 10.0812 85.4028 0.0000 0.0000 0.0000
# 4 0.0000 0.0000 0.0000 13.7632 0.0000 0.0000
# 5 0.0000 0.0000 0.0000 0.0000 26.5569 0.0000
# 6 0.0000 0.0000 0.0000 0.0000 0.0000 24.6382
#
#
#
# Elastic Compliance Matrix: (Units=1/GPa)
#
#
# Indices 1 2 3 4 5 6 
#
# 1 0.012334 -0.006113 -0.007758 0.000000 0.000000 0.000000
# 2 -0.006113 0.067659 -0.003784 0.000000 0.000000 0.000000
# 3 -0.007758 -0.003784 0.017489 0.000000 0.000000 0.000000
# 4 0.000000 0.000000 0.000000 0.072657 0.000000 0.000000
# 5 0.000000 0.000000 0.000000 0.000000 0.037655 0.000000
# 6 0.000000 0.000000 0.000000 0.000000 0.000000 0.040587
#
#
# Mechanical properties :
#
#
# Convention : Reuss Voigt Hill
#
# Bulk Modulus (GPa) = 16.08420 43.78604 29.93512
# Shear Modulus (GPa) = 16.42487 22.58565 19.50526
#
# Velocity S-wave (km/s) = 2.97134 3.48431 3.23800
# Velocity P-wave (km/s) = 4.51857 6.30266 5.48366
#
# Compressibility (1/GPa) = 0.06217282
#
# Stress axis : x y z
#
# Youngs Moduli (GPa) = 81.07364 14.77989 57.17961
#
# Poissons Ratio (x) = 0.09035 0.44357
# Poissons Ratio (y) = 0.49560 0.21640
# Poissons Ratio (z) = 0.62893 0.05593
#
# Static dielectric constant tensor:
#      x y z
#    x 1.648750 0.000000 0.000000 
#    y 0.000000 1.666160 0.000000 
#    z 0.000000 0.000000 1.667070 
# 
# From -- ./inp_files/24660.got.cif
#   From: 2010.05.17/outbox.cif.g08.bks.cpg/sg59_13_cif.got.tgz:24660.got - 2010.06.03 14:40:33.
