data_PCOD9446255
_publ_section_title
;
Structure prediction by ZEFSAII (Michael W. Deem and Ramdas Pophale) SiO2 
 PCOD9446255
Probable space group: P M M N
;
_chemical_formula_sum "Si O2"
_cell_formula_units_Z 64
_cell_length_a 7.533078
_cell_length_b 30.938840
_cell_length_c 15.266617
_cell_angle_alpha 90.000000
_cell_angle_beta 90.000000
_cell_angle_gamma 90.000000
_cell_volume 3558.109434
_symmetry_space_group_name_H-M "P M M N"
_symmetry_group_IT_number 59
_space_group.IT_coordinate_system_code '2'
_symmetry_cell_setting 'orthorhombic'
loop_
_space_group_symop_operation_xyz
x,y,z
1/2-x,1/2-y,z
1/2+x,-y,-z
-x,1/2+y,-z
-x,-y,-z
1/2+x,1/2+y,-z
1/2-x,y,z
x,1/2-y,z
loop_
_atom_site_type_symbol
_atom_site_label
_atom_site_fract_x
_atom_site_fract_y
_atom_site_fract_z
Si Si1 0.032817 0.616705 0.697225
Si Si2 0.467824 0.891601 0.042581
Si Si3 0.546442 0.467067 0.834401
Si Si4 0.955676 0.064200 0.136237
Si Si5 0.544557 0.524499 0.363145
Si Si6 0.964977 0.062479 0.460777
Si Si7 0.033975 0.702149 0.791660
Si Si8 0.533819 0.298344 0.004515
O O1 0.250000 0.616082 0.695293
O O2 0.972584 0.582758 0.772096
O O3 0.977295 0.601582 0.601133
O O4 0.974176 0.663416 0.730268
O O5 0.250000 0.890639 0.043556
O O6 0.526334 0.924195 0.119015
O O7 0.524896 0.841513 0.045806
O O8 0.528406 0.913272 0.950881
O O9 0.750000 0.470839 0.862589
O O10 0.463919 0.512526 0.863947
O O11 0.539321 0.464273 0.729385
O O12 0.750000 0.077233 0.136492
O O13 0.750000 0.515982 0.342651
O O14 0.473732 0.480816 0.409026
O O15 0.529505 0.559826 0.439813
O O16 0.750000 0.061120 0.464566
O O17 0.250000 0.701577 0.791019
O O18 0.976356 0.750000 0.764802
O O19 0.983467 0.695518 0.893224
O O20 0.750000 0.297661 0.002075
O O21 0.474965 0.250000 0.977183
#
# Coordination Sequence:
#
# PCOD9446255 Si02
#       8
#     8   8   8   8   8   8   8   8
#     4   9  14  23  40  61  87 117 143 169 210 256
#     4   9  17  27  40  60  88 121 151 180 218 257
#     4  11  21  30  41  61  90 121 151 185 218 252
#     4  10  17  29  44  60  87 123 155 178 205 251
#     4  10  19  32  47  63  82 110 144 182 220 257
#     4   9  17  29  45  64  84 110 140 174 216 257
#     4   8  12  18  33  59  88 115 141 170 206 254
#     4   8  12  20  36  58  85 115 145 177 214 256
#
# _framework density 17.987079999999999
#
# number of rings (size 3 to 8) (size 9 to 14) (size 15 to 20)
#    0.000    2.750    2.500    1.875    0.000    0.500 
#    0.000    0.625    0.000    0.000    0.000    0.875 
#    0.000   14.500    0.000    0.000    0.000    0.000 
#
# Total GULP energy -356729.012846 kJ/mol
# GULP energy per Si atom -5573.890826 kJ/mol
# Density = 1.794614 g / cm^3
# Si number density = 17.987080 Si / 1000 Ang^3
#
#
#
# Elastic Constant Matrix: (Units=GPa)
#
#
# Indices 1 2 3 4 5 6 
#
# 1 38.8713 -7.1767 -5.6035 0.0000 0.0000 0.0000
# 2 -7.1767 135.7302 47.8229 0.0000 0.0000 0.0000
# 3 -5.6035 47.8229 62.2746 0.0000 0.0000 0.0000
# 4 0.0000 0.0000 0.0000 25.9086 0.0000 0.0000
# 5 0.0000 0.0000 0.0000 0.0000 4.5447 0.0000
# 6 0.0000 0.0000 0.0000 0.0000 0.0000 7.3991
#
#
#
# Elastic Compliance Matrix: (Units=1/GPa)
#
#
# Indices 1 2 3 4 5 6 
#
# 1 0.026121 0.000758 0.001768 0.000000 0.000000 0.000000
# 2 0.000758 0.010122 -0.007705 0.000000 0.000000 0.000000
# 3 0.001768 -0.007705 0.022134 0.000000 0.000000 0.000000
# 4 0.000000 0.000000 0.000000 0.038597 0.000000 0.000000
# 5 0.000000 0.000000 0.000000 0.000000 0.220039 0.000000
# 6 0.000000 0.000000 0.000000 0.000000 0.000000 0.135151
#
#
# Mechanical properties :
#
#
# Convention : Reuss Voigt Hill
#
# Bulk Modulus (GPa) = 20.82483 34.10684 27.46583
# Shear Modulus (GPa) = 10.44869 21.02604 15.73736
#
# Velocity S-wave (km/s) = 2.41280 3.42270 2.96112
# Velocity P-wave (km/s) = 4.40056 5.88412 5.19557
#
# Compressibility (1/GPa) = 0.04801959
#
# Stress axis : x y z
#
# Youngs Moduli (GPa) = 38.28366 98.79007 45.17915
#
# Poissons Ratio (x) = -0.07490 -0.07988
# Poissons Ratio (y) = -0.02902 0.34811
# Poissons Ratio (z) = -0.06769 0.76120
#
# Static dielectric constant tensor:
#      x y z
#    x 1.712130 0.000000 0.000000 
#    y 0.000000 1.634410 0.000000 
#    z 0.000000 0.000000 1.602510 
# 
# From -- ./inp_files/21901.got.cif
#   From: 2010.05.17/outbox.cif.g08.bks.cpg/sg59_11_cif.got.tgz:21901.got - 2010.06.03 14:40:33.
