data_PCOD9446671
_publ_section_title
;
Structure prediction by ZEFSAII (Michael W. Deem and Ramdas Pophale) SiO2 
 PCOD9446671
Probable space group: P M M N
;
_chemical_formula_sum "Si O2"
_cell_formula_units_Z 64
_cell_length_a 8.716707
_cell_length_b 25.030011
_cell_length_c 15.586267
_cell_angle_alpha 90.000000
_cell_angle_beta 90.000000
_cell_angle_gamma 90.000000
_cell_volume 3400.600389
_symmetry_space_group_name_H-M "P M M N"
_symmetry_group_IT_number 59
_space_group.IT_coordinate_system_code '2'
_symmetry_cell_setting 'orthorhombic'
loop_
_space_group_symop_operation_xyz
x,y,z
1/2-x,1/2-y,z
1/2+x,-y,-z
-x,1/2+y,-z
-x,-y,-z
1/2+x,1/2+y,-z
1/2-x,y,z
x,1/2-y,z
loop_
_atom_site_type_symbol
_atom_site_label
_atom_site_fract_x
_atom_site_fract_y
_atom_site_fract_z
Si Si1 0.933411 0.812346 0.435984
Si Si2 0.922693 0.506620 0.247440
Si Si3 0.934512 0.311703 0.379789
Si Si4 0.066530 0.881352 0.281765
Si Si5 0.423020 0.453856 0.946864
Si Si6 0.570668 0.153848 0.906937
Si Si7 0.567039 0.691249 0.922583
Si Si8 0.564430 0.113928 0.219641
O O1 0.750000 0.815759 0.432623
O O2 0.978268 0.750000 0.424076
O O3 0.991585 0.828606 0.530242
O O4 0.004723 0.848136 0.361619
O O5 0.750000 0.503755 0.284950
O O6 0.909463 0.524559 0.149057
O O7 0.988603 0.446528 0.241507
O O8 0.011954 0.556925 0.287419
O O9 0.750000 0.313665 0.388617
O O10 0.978974 0.250000 0.363718
O O11 0.977089 0.348593 0.299984
O O12 0.250000 0.880963 0.279321
O O13 0.014833 0.852699 0.191838
O O14 0.250000 0.438888 0.976233
O O15 0.539532 0.404991 0.944268
O O16 0.500000 0.500000 0.000000
O O17 0.750000 0.167915 0.906338
O O18 0.482877 0.188459 0.977571
O O19 0.750000 0.688017 0.917630
O O20 0.517069 0.750000 0.888941
O O21 0.498127 0.643256 0.865430
O O22 0.750000 0.111262 0.211359
#
# Coordination Sequence:
#
# PCOD9446671 Si02
#       8
#     8   8   8   8   8   8   8   8
#     4  10  21  37  59  85 111 141 177 221 275 332
#     4   9  19  34  52  77 109 143 181 224 270 325
#     4   9  18  34  57  84 112 142 180 227 275 325
#     4  10  21  37  58  83 111 144 183 228 276 327
#     4  10  18  29  48  73 102 137 177 222 267 313
#     4  10  21  36  53  74 102 139 181 223 269 321
#     4  11  24  38  53  78 112 148 186 231 281 334
#     4  10  20  36  59  84 111 147 188 229 276 328
#
# _framework density 18.820207
#
# number of rings (size 3 to 8) (size 9 to 14) (size 15 to 20)
#    0.000    2.125    0.000    3.000    0.000    6.750 
#    0.000    4.375    0.000    0.000    0.000    0.000 
#    0.000    0.000    0.000    0.000    0.000    0.000 
#
# Total GULP energy -356830.376602 kJ/mol
# GULP energy per Si atom -5575.474634 kJ/mol
# Density = 1.877737 g / cm^3
# Si number density = 18.820207 Si / 1000 Ang^3
#
#
#
# Elastic Constant Matrix: (Units=GPa)
#
#
# Indices 1 2 3 4 5 6 
#
# 1 30.0155 18.8550 27.0002 0.0000 0.0000 0.0000
# 2 18.8550 97.7812 60.3476 0.0000 0.0000 0.0000
# 3 27.0002 60.3476 100.4550 0.0000 0.0000 0.0000
# 4 0.0000 0.0000 0.0000 34.1150 0.0000 0.0000
# 5 0.0000 0.0000 0.0000 0.0000 19.9229 0.0000
# 6 0.0000 0.0000 0.0000 0.0000 0.0000 19.2813
#
#
#
# Elastic Compliance Matrix: (Units=1/GPa)
#
#
# Indices 1 2 3 4 5 6 
#
# 1 0.044159 -0.001891 -0.010733 0.000000 0.000000 0.000000
# 2 -0.001891 0.016334 -0.009304 0.000000 0.000000 0.000000
# 3 -0.010733 -0.009304 0.018429 0.000000 0.000000 0.000000
# 4 0.000000 0.000000 0.000000 0.029313 0.000000 0.000000
# 5 0.000000 0.000000 0.000000 0.000000 0.050194 0.000000
# 6 0.000000 0.000000 0.000000 0.000000 0.000000 0.051864
#
#
# Mechanical properties :
#
#
# Convention : Reuss Voigt Hill
#
# Bulk Modulus (GPa) = 28.51825 48.96193 38.74009
# Shear Modulus (GPa) = 18.80859 22.80043 20.80451
#
# Velocity S-wave (km/s) = 3.16473 3.48442 3.32842
# Velocity P-wave (km/s) = 5.34228 6.50079 5.94980
#
# Compressibility (1/GPa) = 0.03506527
#
# Stress axis : x y z
#
# Youngs Moduli (GPa) = 22.64556 61.22279 54.26268
#
# Poissons Ratio (x) = 0.11577 0.58240
# Poissons Ratio (y) = 0.04282 0.50487
# Poissons Ratio (z) = 0.24305 0.56963
#
# Static dielectric constant tensor:
#      x y z
#    x 1.660430 0.000000 0.000000 
#    y 0.000000 1.650470 0.000000 
#    z 0.000000 0.000000 1.631080 
# 
# From -- ./inp_files/21418.got.cif
#   From: 2010.05.17/outbox.cif.g08.bks.cpg/sg59_11_cif.got.tgz:21418.got - 2010.06.03 14:40:33.
