data_PCOD9446540
_publ_section_title
;
Structure prediction by ZEFSAII (Michael W. Deem and Ramdas Pophale) SiO2 
 PCOD9446540
Probable space group: P M M N
;
_chemical_formula_sum "Si O2"
_cell_formula_units_Z 40
_cell_length_a 21.522119
_cell_length_b 8.951652
_cell_length_c 12.889775
_cell_angle_alpha 90.000000
_cell_angle_beta 90.000000
_cell_angle_gamma 90.000000
_cell_volume 2483.324969
_symmetry_space_group_name_H-M "P M M N"
_symmetry_group_IT_number 59
_space_group.IT_coordinate_system_code '2'
_symmetry_cell_setting 'orthorhombic'
loop_
_space_group_symop_operation_xyz
x,y,z
1/2-x,1/2-y,z
1/2+x,-y,-z
-x,1/2+y,-z
-x,-y,-z
1/2+x,1/2+y,-z
1/2-x,y,z
x,1/2-y,z
loop_
_atom_site_type_symbol
_atom_site_label
_atom_site_fract_x
_atom_site_fract_y
_atom_site_fract_z
Si Si1 0.949756 0.927723 0.644835
Si Si2 0.419110 0.071032 0.583327
Si Si3 0.821792 0.929862 0.241144
Si Si4 0.546428 0.072201 0.855098
Si Si5 0.915005 0.428219 0.083061
O O1 0.951004 0.750000 0.658865
O O2 0.912670 0.962572 0.538895
O O3 0.926673 0.005237 0.749460
O O4 0.019610 0.987083 0.623656
O O5 0.430181 0.250000 0.592358
O O6 0.360800 0.032493 0.655151
O O7 0.750000 0.974765 0.247691
O O8 0.824379 0.750000 0.229547
O O9 0.857633 0.004466 0.145492
O O10 0.539357 0.250000 0.845509
O O11 0.478409 0.000602 0.873127
O O12 0.584904 0.040046 0.959781
O O13 0.918032 0.250000 0.097143
#
# Coordination Sequence:
#
# PCOD9446540 Si02
#       5
#     8   8   8   8   8
#     4  10  18  28  47  73  99 128 161 200 244 293
#     4   9  18  31  46  69 100 130 161 199 243 289
#     4  10  20  34  52  72  98 132 165 199 242 292
#     4  10  19  31  48  71 101 130 157 201 253 297
#     4  10  20  32  48  72  98 128 166 203 244 292
#
# _framework density 16.107436
#
# number of rings (size 3 to 8) (size 9 to 14) (size 15 to 20)
#    0.000    2.200    2.000    1.800    0.000    3.600 
#    0.000    0.000    0.000    1.200    0.000    2.800 
#    0.000    0.000    0.000    0.000    0.000    0.000 
#
# Total GULP energy -223070.391065 kJ/mol
# GULP energy per Si atom -5576.759777 kJ/mol
# Density = 1.607078 g / cm^3
# Si number density = 16.107436 Si / 1000 Ang^3
#
#
#
# Elastic Constant Matrix: (Units=GPa)
#
#
# Indices 1 2 3 4 5 6 
#
# 1 93.0423 35.1600 65.8544 0.0000 0.0000 0.0000
# 2 35.1600 42.2551 60.1751 0.0000 0.0000 0.0000
# 3 65.8544 60.1751 167.9489 0.0000 0.0000 0.0000
# 4 0.0000 0.0000 0.0000 31.4497 0.0000 0.0000
# 5 0.0000 0.0000 0.0000 0.0000 19.0322 0.0000
# 6 0.0000 0.0000 0.0000 0.0000 0.0000 17.1845
#
#
#
# Elastic Compliance Matrix: (Units=1/GPa)
#
#
# Indices 1 2 3 4 5 6 
#
# 1 0.016459 -0.009198 -0.003158 0.000000 0.000000 0.000000
# 2 -0.009198 0.053461 -0.015548 0.000000 0.000000 0.000000
# 3 -0.003158 -0.015548 0.012763 0.000000 0.000000 0.000000
# 4 0.000000 0.000000 0.000000 0.031797 0.000000 0.000000
# 5 0.000000 0.000000 0.000000 0.000000 0.052543 0.000000
# 6 0.000000 0.000000 0.000000 0.000000 0.000000 0.058192
#
#
# Mechanical properties :
#
#
# Convention : Reuss Voigt Hill
#
# Bulk Modulus (GPa) = 37.20902 69.51393 53.36147
# Shear Modulus (GPa) = 17.24243 23.00372 20.12308
#
# Velocity S-wave (km/s) = 3.27534 3.78318 3.53838
# Velocity P-wave (km/s) = 6.12001 7.89515 7.06356
#
# Compressibility (1/GPa) = 0.02687520
#
# Stress axis : x y z
#
# Youngs Moduli (GPa) = 60.75752 18.70505 78.34847
#
# Poissons Ratio (x) = 0.17204 0.24744
# Poissons Ratio (y) = 0.55882 1.21820
# Poissons Ratio (z) = 0.19189 0.29083
#
# Static dielectric constant tensor:
#      x y z
#    x 1.496550 0.000000 0.000000 
#    y 0.000000 1.538850 0.000000 
#    z 0.000000 0.000000 1.577220 
# 
# From -- ./inp_files/18139.got.cif
#   From: 2010.05.17/outbox.cif.g08.bks.cpg/sg59_10_cif.got.tgz:18139.got - 2010.06.03 14:40:33.
