data_PCOD9446083
_publ_section_title
;
Structure prediction by ZEFSAII (Michael W. Deem and Ramdas Pophale) SiO2 
 PCOD9446083
Probable space group: P N N M
;
_chemical_formula_sum "Si O2"
_cell_formula_units_Z 56
_cell_length_a 15.000000
_cell_length_b 12.000000
_cell_length_c 15.000000
_cell_angle_alpha 90.000000
_cell_angle_beta 90.000000
_cell_angle_gamma 90.000000
_cell_volume 2700.000000
_symmetry_space_group_name_H-M "P N N M"
_symmetry_group_IT_number 58
_symmetry_cell_setting 'orthorhombic'
loop_
_space_group_symop_operation_xyz
x,y,z
-x,-y,z
1/2+x,1/2-y,1/2-z
1/2-x,1/2+y,1/2-z
-x,-y,-z
x,y,-z
1/2-x,1/2+y,1/2+z
1/2+x,1/2-y,1/2+z
loop_
_atom_site_type_symbol
_atom_site_label
_atom_site_fract_x
_atom_site_fract_y
_atom_site_fract_z
Si Si1 0.253325 0.841594 0.335476
Si Si2 0.801852 0.626898 0.352840
Si Si3 0.122004 0.771999 0.099037
Si Si4 0.399739 0.020586 0.393363
Si Si5 0.444386 0.388240 0.771930
Si Si6 0.493963 0.799583 0.100765
Si Si7 0.313545 0.107210 0.898108
O O1 0.295821 0.811115 0.240797
O O2 0.324390 0.928835 0.373946
O O3 0.154893 0.893113 0.316195
O O4 0.234280 0.725769 0.385536
O O5 0.721225 0.679478 0.406646
O O6 0.899743 0.639723 0.392147
O O7 0.782579 0.495674 0.338493
O O8 0.127238 0.645288 0.134002
O O9 0.070358 0.843738 0.171953
O O10 0.081102 0.773250 0.000000
O O11 0.407088 0.022688 0.500000
O O12 0.500000 0.000000 0.356463
O O13 0.500000 0.500000 0.772835
O O14 0.498922 0.298230 0.828529
O O15 0.581168 0.874393 0.117336
O O16 0.504205 0.755642 0.000000
O O17 0.300508 0.070285 0.000000
#
# Coordination Sequence:
#
# PCOD9446083 Si02
#       7
#     8   8   8   8   8   8   8
#     4  10  24  39  64  92 128 165 211 265 318 376
#     4  11  23  36  64  96 128 167 210 261 322 379
#     4  10  23  43  64  93 130 165 215 268 317 380
#     4  10  23  43  66  91 121 166 220 269 322 381
#     4  10  24  42  62  96 131 170 216 259 322 392
#     4  10  22  39  62  94 129 167 213 263 317 380
#     4  10  21  41  63  90 127 167 212 258 318 386
#
# _framework density 20.740741
#
# number of rings (size 3 to 8) (size 9 to 14) (size 15 to 20)
#    0.000    1.857    0.000    2.143   10.000    3.429 
#    0.000    0.000    0.000    0.000    0.000    0.000 
#    0.000    0.000    0.000    0.000    0.000    0.000 
#
# Total GULP energy -312431.145220 kJ/mol
# GULP energy per Si atom -5579.127593 kJ/mol
# Density = 2.069353 g / cm^3
# Si number density = 20.740741 Si / 1000 Ang^3
#
#
#
# Elastic Constant Matrix: (Units=GPa)
#
#
# Indices 1 2 3 4 5 6 
#
# 1 88.0839 77.0320 16.0562 0.0000 0.0000 0.0000
# 2 77.0320 107.0211 27.0538 0.0000 0.0000 0.0000
# 3 16.0562 27.0538 54.6306 0.0000 0.0000 0.0000
# 4 0.0000 0.0000 0.0000 17.3172 0.0000 0.0000
# 5 0.0000 0.0000 0.0000 0.0000 7.5500 0.0000
# 6 0.0000 0.0000 0.0000 0.0000 0.0000 25.7515
#
#
#
# Elastic Compliance Matrix: (Units=1/GPa)
#
#
# Indices 1 2 3 4 5 6 
#
# 1 0.030871 -0.022778 0.002207 0.000000 0.000000 0.000000
# 2 -0.022778 0.027488 -0.006918 0.000000 0.000000 0.000000
# 3 0.002207 -0.006918 0.021082 0.000000 0.000000 0.000000
# 4 0.000000 0.000000 0.000000 0.057746 0.000000 0.000000
# 5 0.000000 0.000000 0.000000 0.000000 0.132451 0.000000
# 6 0.000000 0.000000 0.000000 0.000000 0.000000 0.038833
#
#
# Mechanical properties :
#
#
# Convention : Reuss Voigt Hill
#
# Bulk Modulus (GPa) = 40.87859 54.44662 47.66261
# Shear Modulus (GPa) = 13.45526 18.76332 16.10929
#
# Velocity S-wave (km/s) = 2.54979 3.01102 2.78995
# Velocity P-wave (km/s) = 5.33111 6.19648 5.78001
#
# Compressibility (1/GPa) = 0.02446268
#
# Stress axis : x y z
#
# Youngs Moduli (GPa) = 32.39329 36.37954 47.43405
#
# Poissons Ratio (x) = 0.82866 -0.10469
# Poissons Ratio (y) = 0.73786 0.32814
# Poissons Ratio (z) = -0.07149 0.25167
#
# Static dielectric constant tensor:
#      x y z
#    x 1.734680 0.000000 0.000000 
#    y 0.000000 1.743050 0.000000 
#    z 0.000000 0.000000 1.791060 
# 
# From -- ./inp_files/22212.got.cif
#   From: 2010.05.17/outbox.ucp.g08.bks.cvg/sg58_12_cif.got.tgz:22212.got - 2010.06.11 16:41:41.
