data_PCOD9446597
_publ_section_title
;
Structure prediction by ZEFSAII (Michael W. Deem and Ramdas Pophale) SiO2 
 PCOD9446597
Probable space group: P M M N
;
_chemical_formula_sum "Si O2"
_cell_formula_units_Z 64
_cell_length_a 7.697552
_cell_length_b 29.474607
_cell_length_c 16.170800
_cell_angle_alpha 90.000000
_cell_angle_beta 90.000000
_cell_angle_gamma 90.000000
_cell_volume 3668.868621
_symmetry_space_group_name_H-M "P M M N"
_symmetry_group_IT_number 59
_space_group.IT_coordinate_system_code '2'
_symmetry_cell_setting 'orthorhombic'
loop_
_space_group_symop_operation_xyz
x,y,z
1/2-x,1/2-y,z
1/2+x,-y,-z
-x,1/2+y,-z
-x,-y,-z
1/2+x,1/2+y,-z
1/2-x,y,z
x,1/2-y,z
loop_
_atom_site_type_symbol
_atom_site_label
_atom_site_fract_x
_atom_site_fract_y
_atom_site_fract_z
Si Si1 0.536203 0.302497 0.328602
Si Si2 0.950787 0.347196 0.857386
Si Si3 0.451986 0.863543 0.820895
Si Si4 0.537292 0.197138 0.689523
Si Si5 0.952152 0.698308 0.972137
Si Si6 0.452182 0.805127 0.489918
Si Si7 0.038606 0.546269 0.900590
Si Si8 0.954973 0.945472 0.093680
O O1 0.750000 0.302397 0.329496
O O2 0.485512 0.250000 0.314220
O O3 0.474222 0.334957 0.255366
O O4 0.475353 0.317455 0.420128
O O5 0.750000 0.333048 0.860697
O O6 0.022073 0.330381 0.769540
O O7 0.961927 0.401245 0.866627
O O8 0.034682 0.323919 0.937396
O O9 0.250000 0.871191 0.800504
O O10 0.459435 0.833065 0.903588
O O11 0.526401 0.912825 0.843473
O O12 0.750000 0.195340 0.686314
O O13 0.490481 0.250000 0.700044
O O14 0.473727 0.180843 0.599141
O O15 0.750000 0.699662 0.949130
O O16 0.019579 0.750000 0.972959
O O17 0.250000 0.819247 0.490678
O O18 0.454299 0.750000 0.488566
O O19 0.250000 0.546332 0.900405
O O20 0.980896 0.495253 0.878938
O O21 0.983573 0.556088 0.994809
O O22 0.750000 0.942832 0.109734
#
# Coordination Sequence:
#
# PCOD9446597 Si02
#       8
#     8   8   8   8   8   8   8   8
#     4   8  13  21  37  63  91 114 136 168 212 258
#     4  11  20  30  45  65  86 112 149 185 220 259
#     4  10  18  29  46  67  88 112 145 180 215 257
#     4   8  14  24  39  60  86 114 142 175 215 257
#     4  11  23  34  42  58  88 123 152 175 207 254
#     4   7  10  19  35  57  86 113 135 167 214 258
#     4   9  18  31  46  64  84 111 146 185 222 260
#     4  10  19  31  46  62  84 112 145 184 227 266
#
# _framework density 17.444068999999999
#
# number of rings (size 3 to 8) (size 9 to 14) (size 15 to 20)
#    0.000    2.750    1.250    3.375    0.000    2.500 
#    0.000    0.000    0.000    0.000    0.000    2.625 
#    0.000    8.000    0.000    0.000    0.000    0.000 
#
# Total GULP energy -356627.570110 kJ/mol
# GULP energy per Si atom -5572.305783 kJ/mol
# Density = 1.740437 g / cm^3
# Si number density = 17.444069 Si / 1000 Ang^3
#
#
#
# Elastic Constant Matrix: (Units=GPa)
#
#
# Indices 1 2 3 4 5 6 
#
# 1 28.4490 -8.3648 -9.3116 0.0000 0.0000 0.0000
# 2 -8.3648 88.9588 46.9379 0.0000 0.0000 0.0000
# 3 -9.3116 46.9379 117.3347 0.0000 0.0000 0.0000
# 4 0.0000 0.0000 0.0000 9.0878 0.0000 0.0000
# 5 0.0000 0.0000 0.0000 0.0000 -0.9439 0.0000
# 6 0.0000 0.0000 0.0000 0.0000 0.0000 10.0065
#
#
#
# Elastic Compliance Matrix: (Units=1/GPa)
#
#
# Indices 1 2 3 4 5 6 
#
# 1 0.036492 0.002413 0.001931 0.000000 0.000000 0.000000
# 2 0.002413 0.014408 -0.005572 0.000000 0.000000 0.000000
# 3 0.001931 -0.005572 0.010905 0.000000 0.000000 0.000000
# 4 0.000000 0.000000 0.000000 0.110037 0.000000 0.000000
# 5 0.000000 0.000000 0.000000 0.000000 -1.059428 0.000000
# 6 0.000000 0.000000 0.000000 0.000000 0.000000 0.099935
#
#
# Mechanical properties :
#
#
# Convention : Reuss Voigt Hill
#
# Bulk Modulus (GPa) = 16.84994 32.58505 24.71750
# Shear Modulus (GPa) = -6.53244 17.32881 5.39818
#
# Velocity S-wave (km/s) = -1.93725 3.15523 1.76105
# Velocity P-wave (km/s) = 2.16252 5.65635 4.28198
#
# Compressibility (1/GPa) = 0.05934739
#
# Stress axis : x y z
#
# Youngs Moduli (GPa) = 27.40325 69.40510 91.70117
#
# Poissons Ratio (x) = -0.16744 -0.17707
# Poissons Ratio (y) = -0.06611 0.51099
# Poissons Ratio (z) = -0.05291 0.38675
#
# Static dielectric constant tensor:
#      x y z
#    x 1.647490 0.000000 0.000000 
#    y 0.000000 1.592260 0.000000 
#    z 0.000000 0.000000 1.608370 
# 
# From -- ./inp_files/21960.got.cif
#   From: 2010.05.17/outbox.cif.g08.bks.cpg/sg59_11_cif.got.tgz:21960.got - 2010.06.03 14:40:33.
