data_PCOD9446081
_publ_section_title
;
Structure prediction by ZEFSAII (Michael W. Deem and Ramdas Pophale) SiO2 
 PCOD9446081
Probable space group: P N N M
;
_chemical_formula_sum "Si O2"
_cell_formula_units_Z 48
_cell_length_a 15.000000
_cell_length_b 18.000000
_cell_length_c 9.000000
_cell_angle_alpha 90.000000
_cell_angle_beta 90.000000
_cell_angle_gamma 90.000000
_cell_volume 2430.000000
_symmetry_space_group_name_H-M "P N N M"
_symmetry_group_IT_number 58
_symmetry_cell_setting 'orthorhombic'
loop_
_space_group_symop_operation_xyz
x,y,z
-x,-y,z
1/2+x,1/2-y,1/2-z
1/2-x,1/2+y,1/2-z
-x,-y,-z
x,y,-z
1/2-x,1/2+y,1/2+z
1/2+x,1/2-y,1/2+z
loop_
_atom_site_type_symbol
_atom_site_label
_atom_site_fract_x
_atom_site_fract_y
_atom_site_fract_z
Si Si1 0.748073 0.594437 0.675199
Si Si2 0.929315 0.563049 0.821409
Si Si3 0.813238 0.241233 0.674093
Si Si4 0.999118 0.726912 0.823556
Si Si5 0.155024 0.151378 0.172939
Si Si6 0.894479 0.996839 0.672262
O O1 0.756965 0.596108 0.500000
O O2 0.833439 0.554412 0.746487
O O3 0.738960 0.676600 0.740960
O O4 0.658289 0.553509 0.724851
O O5 0.000000 0.500000 0.778874
O O6 0.967075 0.644400 0.781627
O O7 0.918096 0.560892 0.000000
O O8 0.816193 0.222190 0.500000
O O9 0.911993 0.250783 0.737095
O O10 0.753151 0.314523 0.690574
O O11 0.918840 0.784879 0.800412
O O12 0.019010 0.726572 0.000000
O O13 0.138347 0.084481 0.283403
O O14 0.145045 0.127267 0.000000
O O15 0.875886 0.013860 0.500000
O O16 0.000000 0.000000 0.696081
#
# Coordination Sequence:
#
# PCOD9446081 Si02
#       6
#     8   8   8   8   8   8
#     4  12  25  42  66  95 129 169 213 259 316 377
#     4  10  22  42  66  93 128 170 212 260 318 378
#     4  11  23  41  64  92 127 165 208 258 314 371
#     4  10  21  40  64  93 127 165 208 257 315 373
#     4  10  22  41  63  90 127 164 203 255 313 372
#     4  11  25  43  65  93 125 164 211 262 319 378
#
# _framework density 19.753086
#
# number of rings (size 3 to 8) (size 9 to 14) (size 15 to 20)
#    0.000    1.333    1.667    3.500    2.333    7.000 
#    0.000    0.000    0.000    0.000    0.000    0.000 
#    0.000    0.000    0.000    0.000    0.000    0.000 
#
# Total GULP energy -268395.086329 kJ/mol
# GULP energy per Si atom -5591.564299 kJ/mol
# Density = 1.970813 g / cm^3
# Si number density = 19.753086 Si / 1000 Ang^3
#
#
#
# Elastic Constant Matrix: (Units=GPa)
#
#
# Indices 1 2 3 4 5 6 
#
# 1 60.4182 -17.3770 29.2601 0.0000 0.0000 0.0000
# 2 -17.3770 32.1002 12.8075 0.0000 0.0000 0.0000
# 3 29.2601 12.8075 38.3364 0.0000 0.0000 0.0000
# 4 0.0000 0.0000 0.0000 35.8478 0.0000 0.0000
# 5 0.0000 0.0000 0.0000 0.0000 49.7711 0.0000
# 6 0.0000 0.0000 0.0000 0.0000 0.0000 22.5671
#
#
#
# Elastic Compliance Matrix: (Units=1/GPa)
#
#
# Indices 1 2 3 4 5 6 
#
# 1 0.086309 0.084234 -0.094016 0.000000 0.000000 0.000000
# 2 0.084234 0.118151 -0.103763 0.000000 0.000000 0.000000
# 3 -0.094016 -0.103763 0.132508 0.000000 0.000000 0.000000
# 4 0.000000 0.000000 0.000000 0.027896 0.000000 0.000000
# 5 0.000000 0.000000 0.000000 0.000000 0.020092 0.000000
# 6 0.000000 0.000000 0.000000 0.000000 0.000000 0.044312
#
#
# Mechanical properties :
#
#
# Convention : Reuss Voigt Hill
#
# Bulk Modulus (GPa) = 9.10113 20.02624 14.56368
# Shear Modulus (GPa) = 7.21515 28.71481 17.96498
#
# Velocity S-wave (km/s) = 1.91327 3.81686 3.01903
# Velocity P-wave (km/s) = 3.08192 5.43920 4.42058
#
# Compressibility (1/GPa) = 0.10987647
#
# Stress axis : x y z
#
# Youngs Moduli (GPa) = 11.58622 8.46373 7.54670
#
# Poissons Ratio (x) = -0.71293 0.70951
# Poissons Ratio (y) = -0.97595 0.78307
# Poissons Ratio (z) = 1.08930 0.87823
#
# Static dielectric constant tensor:
#      x y z
#    x 1.662920 0.000000 0.000000 
#    y 0.000000 1.707490 0.000000 
#    z 0.000000 0.000000 1.660310 
# 
# From -- ./inp_files/5898.got.cif
#   From: 2010.05.17/outbox.ucp.g08.bks.cvg/sg58_3_cif.got.tgz:5898.got - 2010.06.11 16:41:41.
