data_PCOD9446720
_publ_section_title
;
Structure prediction by ZEFSAII (Michael W. Deem and Ramdas Pophale) SiO2 
 PCOD9446720
Probable space group: P M M N
;
_chemical_formula_sum "Si O2"
_cell_formula_units_Z 56
_cell_length_a 8.420691
_cell_length_b 27.169777
_cell_length_c 15.085254
_cell_angle_alpha 90.000000
_cell_angle_beta 90.000000
_cell_angle_gamma 90.000000
_cell_volume 3451.329567
_symmetry_space_group_name_H-M "P M M N"
_symmetry_group_IT_number 59
_space_group.IT_coordinate_system_code '2'
_symmetry_cell_setting 'orthorhombic'
loop_
_space_group_symop_operation_xyz
x,y,z
1/2-x,1/2-y,z
1/2+x,-y,-z
-x,1/2+y,-z
-x,-y,-z
1/2+x,1/2+y,-z
1/2-x,y,z
x,1/2-y,z
loop_
_atom_site_type_symbol
_atom_site_label
_atom_site_fract_x
_atom_site_fract_y
_atom_site_fract_z
Si Si1 0.557596 0.933102 0.575088
Si Si2 0.936714 0.391248 0.984320
Si Si3 0.436517 0.432416 0.812304
Si Si4 0.442228 0.042309 0.618884
Si Si5 0.942817 0.693592 0.890504
Si Si6 0.934251 0.965131 0.874498
Si Si7 0.562614 0.625105 0.736970
O O1 0.750000 0.932512 0.577779
O O2 0.508559 0.930823 0.472206
O O3 0.496887 0.890814 0.641485
O O4 0.503591 0.986404 0.610864
O O5 0.750000 0.394015 0.998422
O O6 0.001236 0.342017 0.030770
O O7 0.015133 0.437311 0.036252
O O8 0.977865 0.396712 0.881320
O O9 0.250000 0.421215 0.813083
O O10 0.495572 0.433325 0.710777
O O11 0.464239 0.487806 0.848285
O O12 0.250000 0.040397 0.620898
O O13 0.750000 0.691920 0.889501
O O14 0.992766 0.750000 0.899907
O O15 0.001653 0.669055 0.798073
O O16 0.750000 0.980278 0.880494
O O17 0.948858 0.923521 0.798532
O O18 0.750000 0.635580 0.724477
#
# Coordination Sequence:
#
# PCOD9446720 Si02
#       7
#     8   8   8   8   8   8   8
#     4   9  15  27  43  62  89 122 156 189 223 261
#     4  11  22  33  46  65  89 119 154 192 232 275
#     4  11  20  30  42  62  92 126 162 196 229 267
#     4   9  18  27  40  62  90 123 159 194 224 255
#     4   9  18  34  53  72  93 116 144 183 232 286
#     4  10  18  30  45  64  90 123 157 189 228 272
#     4   8  14  25  45  68  89 117 150 181 221 272
#
# _framework density 16.225629999999999
#
# number of rings (size 3 to 8) (size 9 to 14) (size 15 to 20)
#    0.000    2.429    1.429    3.429    0.000    0.857 
#    0.000    0.000    0.000    0.000    0.000    1.000 
#    0.000    5.714    0.000    0.000    0.000    0.429 
#
# Total GULP energy -312111.373200 kJ/mol
# GULP energy per Si atom -5573.417379 kJ/mol
# Density = 1.618870 g / cm^3
# Si number density = 16.225630 Si / 1000 Ang^3
#
#
#
# Elastic Constant Matrix: (Units=GPa)
#
#
# Indices 1 2 3 4 5 6 
#
# 1 9.9005 2.8276 7.8312 0.0000 0.0000 0.0000
# 2 2.8276 62.6397 44.1720 0.0000 0.0000 0.0000
# 3 7.8312 44.1720 141.1128 0.0000 0.0000 0.0000
# 4 0.0000 0.0000 0.0000 12.6965 0.0000 0.0000
# 5 0.0000 0.0000 0.0000 0.0000 12.7434 0.0000
# 6 0.0000 0.0000 0.0000 0.0000 0.0000 15.3817
#
#
#
# Elastic Compliance Matrix: (Units=1/GPa)
#
#
# Indices 1 2 3 4 5 6 
#
# 1 0.105675 -0.000814 -0.005610 0.000000 0.000000 0.000000
# 2 -0.000814 0.020493 -0.006370 0.000000 0.000000 0.000000
# 3 -0.005610 -0.006370 0.009392 0.000000 0.000000 0.000000
# 4 0.000000 0.000000 0.000000 0.078762 0.000000 0.000000
# 5 0.000000 0.000000 0.000000 0.000000 0.078472 0.000000
# 6 0.000000 0.000000 0.000000 0.000000 0.000000 0.065012
#
#
# Mechanical properties :
#
#
# Convention : Reuss Voigt Hill
#
# Bulk Modulus (GPa) = 9.09322 35.92384 22.50853
# Shear Modulus (GPa) = 11.90336 18.75248 15.32792
#
# Velocity S-wave (km/s) = 2.71147 3.40329 3.07689
# Velocity P-wave (km/s) = 3.92672 6.13445 5.15027
#
# Compressibility (1/GPa) = 0.10997208
#
# Stress axis : x y z
#
# Youngs Moduli (GPa) = 9.46299 48.79771 106.47714
#
# Poissons Ratio (x) = 0.03974 0.59729
# Poissons Ratio (y) = 0.00771 0.67821
# Poissons Ratio (z) = 0.05308 0.31082
#
# Static dielectric constant tensor:
#      x y z
#    x 1.551970 0.000000 0.000000 
#    y 0.000000 1.515330 0.000000 
#    z 0.000000 0.000000 1.597420 
# 
# From -- ./inp_files/21768.got.cif
#   From: 2010.05.17/outbox.cif.g08.bks.cpg/sg59_11_cif.got.tgz:21768.got - 2010.06.03 14:40:33.
