data_PCOD9446199
_publ_section_title
;
Structure prediction by ZEFSAII (Michael W. Deem and Ramdas Pophale) SiO2 
 PCOD9446199
Probable space group: P M M N
;
_chemical_formula_sum "Si O2"
_cell_formula_units_Z 48
_cell_length_a 23.840036
_cell_length_b 7.445459
_cell_length_c 14.135486
_cell_angle_alpha 90.000000
_cell_angle_beta 90.000000
_cell_angle_gamma 90.000000
_cell_volume 2509.048915
_symmetry_space_group_name_H-M "P M M N"
_symmetry_group_IT_number 59
_space_group.IT_coordinate_system_code '2'
_symmetry_cell_setting 'orthorhombic'
loop_
_space_group_symop_operation_xyz
x,y,z
1/2-x,1/2-y,z
1/2+x,-y,-z
-x,1/2+y,-z
-x,-y,-z
1/2+x,1/2+y,-z
1/2-x,y,z
x,1/2-y,z
loop_
_atom_site_type_symbol
_atom_site_label
_atom_site_fract_x
_atom_site_fract_y
_atom_site_fract_z
Si Si1 0.060062 0.967133 0.603022
Si Si2 0.750000 0.030194 0.482498
Si Si3 0.547121 0.534494 0.712270
Si Si4 0.871213 0.466975 0.208015
Si Si5 0.367040 0.536443 0.432627
Si Si6 0.750000 0.469980 0.260470
Si Si7 0.980969 0.464854 0.106070
O O1 0.055657 0.750000 0.596042
O O2 0.102693 0.004716 0.688792
O O3 0.087335 0.037390 0.507365
O O4 0.999727 0.034191 0.637533
O O5 0.750000 0.250000 0.481960
O O6 0.694065 0.969552 0.537129
O O7 0.750000 0.977379 0.371696
O O8 0.543583 0.750000 0.713922
O O9 0.608150 0.491504 0.671644
O O10 0.525648 0.470385 0.814773
O O11 0.868658 0.250000 0.198910
O O12 0.807209 0.530526 0.209648
O O13 0.918559 0.531845 0.134270
O O14 0.364775 0.750000 0.447154
O O15 0.750000 0.250000 0.260760
O O16 0.978458 0.250000 0.116939
O O17 0.000000 0.500000 0.000000
#
# Coordination Sequence:
#
# PCOD9446199 Si02
#       7
#     8   4   8   8   8   4   8
#     4   8  13  23  39  61  90 118 143 173 210 255
#     4   9  16  24  39  66  95 122 150 181 215 254
#     4   9  18  30  43  62  88 117 147 181 219 263
#     4   8  13  22  40  67  93 115 141 177 221 268
#     4  10  17  26  42  65  91 119 150 179 210 253
#     4   9  12  20  40  66  95 120 142 173 217 266
#     4   9  18  32  49  68  89 113 147 190 234 274
#
# _framework density 19.130755000000001
#
# number of rings (size 3 to 8) (size 9 to 14) (size 15 to 20)
#    0.000    3.167    1.667    2.500    0.000    0.667 
#    0.000    0.417    0.000    2.000    0.000    5.250 
#    0.000    0.000    0.000    0.000    0.000    0.000 
#
# Total GULP energy -267461.403500 kJ/mol
# GULP energy per Si atom -5572.112573 kJ/mol
# Density = 1.908721 g / cm^3
# Si number density = 19.130755 Si / 1000 Ang^3
#
#
#
# Elastic Constant Matrix: (Units=GPa)
#
#
# Indices 1 2 3 4 5 6 
#
# 1 135.3529 3.5063 100.2587 0.0000 0.0000 0.0000
# 2 3.5063 56.8955 1.2156 0.0000 0.0000 0.0000
# 3 100.2587 1.2156 121.1377 0.0000 0.0000 0.0000
# 4 0.0000 0.0000 0.0000 6.0103 0.0000 0.0000
# 5 0.0000 0.0000 0.0000 0.0000 19.2142 0.0000
# 6 0.0000 0.0000 0.0000 0.0000 0.0000 3.8251
#
#
#
# Elastic Compliance Matrix: (Units=1/GPa)
#
#
# Indices 1 2 3 4 5 6 
#
# 1 0.019133 -0.000841 -0.015827 0.000000 0.000000 0.000000
# 2 -0.000841 0.017617 0.000519 0.000000 0.000000 0.000000
# 3 -0.015827 0.000519 0.021349 0.000000 0.000000 0.000000
# 4 0.000000 0.000000 0.000000 0.166382 0.000000 0.000000
# 5 0.000000 0.000000 0.000000 0.000000 0.052045 0.000000
# 6 0.000000 0.000000 0.000000 0.000000 0.000000 0.261433
#
#
# Mechanical properties :
#
#
# Convention : Reuss Voigt Hill
#
# Bulk Modulus (GPa) = 38.75743 58.14969 48.45356
# Shear Modulus (GPa) = 8.63771 19.70362 14.17066
#
# Velocity S-wave (km/s) = 2.12718 3.21276 2.72458
# Velocity P-wave (km/s) = 5.13190 6.65014 5.93973
#
# Compressibility (1/GPa) = 0.02580150
#
# Stress axis : x y z
#
# Youngs Moduli (GPa) = 52.26468 56.76395 46.84042
#
# Poissons Ratio (x) = 0.04774 0.74135
# Poissons Ratio (y) = 0.04395 -0.02432
# Poissons Ratio (z) = 0.82720 -0.02948
#
# Static dielectric constant tensor:
#      x y z
#    x 1.704180 0.000000 0.000000 
#    y 0.000000 1.754230 0.000000 
#    z 0.000000 0.000000 1.648640 
# 
# From -- ./inp_files/18252.got.cif
#   From: 2010.05.17/outbox.cif.g08.bks.cpg/sg59_10_cif.got.tgz:18252.got - 2010.06.03 14:40:33.
