data_PCOD9446823
_publ_section_title
;
Structure prediction by ZEFSAII (Michael W. Deem and Ramdas Pophale) SiO2 
 PCOD9446823
Probable space group: P M M N
;
_chemical_formula_sum "Si O2"
_cell_formula_units_Z 64
_cell_length_a 18.429210
_cell_length_b 7.567836
_cell_length_c 22.526086
_cell_angle_alpha 90.000000
_cell_angle_beta 90.000000
_cell_angle_gamma 90.000000
_cell_volume 3141.696070
_symmetry_space_group_name_H-M "P M M N"
_symmetry_group_IT_number 59
_space_group.IT_coordinate_system_code '2'
_symmetry_cell_setting 'orthorhombic'
loop_
_space_group_symop_operation_xyz
x,y,z
1/2-x,1/2-y,z
1/2+x,-y,-z
-x,1/2+y,-z
-x,-y,-z
1/2+x,1/2+y,-z
1/2-x,y,z
x,1/2-y,z
loop_
_atom_site_type_symbol
_atom_site_label
_atom_site_fract_x
_atom_site_fract_y
_atom_site_fract_z
Si Si1 0.022155 0.041732 0.066691
Si Si2 0.329547 0.961270 0.127134
Si Si3 0.928065 0.035844 0.390516
Si Si4 0.166684 0.533481 0.723306
Si Si5 0.056530 0.541607 0.818079
Si Si6 0.096648 0.543145 0.376639
Si Si7 0.907116 0.035164 0.754751
Si Si8 0.833015 0.033668 0.502603
O O1 0.017130 0.250000 0.073483
O O2 0.970475 0.964626 0.118901
O O3 0.105027 0.995577 0.082048
O O4 0.000000 0.000000 0.000000
O O5 0.250000 0.029538 0.110708
O O6 0.324878 0.750000 0.131708
O O7 0.354941 0.025812 0.192097
O O8 0.930626 0.250000 0.390181
O O9 0.881090 0.979584 0.333464
O O10 0.886867 0.978121 0.450133
O O11 0.010451 0.971508 0.387283
O O12 0.250000 0.477241 0.719063
O O13 0.166472 0.750000 0.723391
O O14 0.126053 0.471101 0.782987
O O15 0.070161 0.750000 0.826575
O O16 0.987775 0.521344 0.774109
O O17 0.116250 0.750000 0.373927
O O18 0.111645 0.469731 0.310931
O O19 0.138816 0.470036 0.433437
O O20 0.906744 0.250000 0.753970
O O21 0.750000 0.981063 0.491511
O O22 0.834454 0.250000 0.502749
#
# Coordination Sequence:
#
# PCOD9446823 Si02
#       8
#     8   8   8   8   8   8   8   8
#     4  10  20  34  54  78 105 138 174 208 249 300
#     4   9  18  33  53  77 104 134 172 214 253 296
#     4  10  18  30  50  70  91 124 165 206 246 293
#     4   9  16  27  47  73  95 118 156 205 249 286
#     4   9  17  31  50  72  97 126 162 203 243 287
#     4  10  19  30  47  71  98 128 161 202 251 301
#     4   9  17  29  47  71  98 129 161 198 248 300
#     4   9  18  31  46  67  94 125 165 209 248 290
#
# _framework density 20.371162999999999
#
# number of rings (size 3 to 8) (size 9 to 14) (size 15 to 20)
#    0.000    2.625    1.250    1.125    0.000    2.750 
#    0.000    3.125    0.000    6.000    0.000    1.750 
#    0.000    0.000    0.000    0.000    0.000    0.000 
#
# Total GULP energy -357106.041753 kJ/mol
# GULP energy per Si atom -5579.781902 kJ/mol
# Density = 2.032480 g / cm^3
# Si number density = 20.371163 Si / 1000 Ang^3
#
#
#
# Elastic Constant Matrix: (Units=GPa)
#
#
# Indices 1 2 3 4 5 6 
#
# 1 52.4409 -3.8511 36.5981 0.0000 0.0000 0.0000
# 2 -3.8511 41.9969 -2.9950 0.0000 0.0000 0.0000
# 3 36.5981 -2.9950 136.4351 0.0000 0.0000 0.0000
# 4 0.0000 0.0000 0.0000 3.3434 0.0000 0.0000
# 5 0.0000 0.0000 0.0000 0.0000 15.2485 0.0000
# 6 0.0000 0.0000 0.0000 0.0000 0.0000 17.9021
#
#
#
# Elastic Compliance Matrix: (Units=1/GPa)
#
#
# Indices 1 2 3 4 5 6 
#
# 1 0.023584 0.001714 -0.006289 0.000000 0.000000 0.000000
# 2 0.001714 0.023973 0.000066 0.000000 0.000000 0.000000
# 3 -0.006289 0.000066 0.009018 0.000000 0.000000 0.000000
# 4 0.000000 0.000000 0.000000 0.299097 0.000000 0.000000
# 5 0.000000 0.000000 0.000000 0.000000 0.065580 0.000000
# 6 0.000000 0.000000 0.000000 0.000000 0.000000 0.055859
#
#
# Mechanical properties :
#
#
# Convention : Reuss Voigt Hill
#
# Bulk Modulus (GPa) = 21.02662 32.26410 26.64536
# Shear Modulus (GPa) = 9.96054 20.70685 15.33370
#
# Velocity S-wave (km/s) = 2.21363 3.19168 2.74654
# Velocity P-wave (km/s) = 4.10825 5.42724 4.81314
#
# Compressibility (1/GPa) = 0.04755877
#
# Stress axis : x y z
#
# Youngs Moduli (GPa) = 42.40210 41.71324 110.89138
#
# Poissons Ratio (x) = -0.07150 0.69735
# Poissons Ratio (y) = -0.07268 -0.00737
# Poissons Ratio (z) = 0.26665 -0.00277
#
# Static dielectric constant tensor:
#      x y z
#    x 1.692460 0.000000 0.000000 
#    y 0.000000 1.788070 0.000000 
#    z 0.000000 0.000000 1.691080 
# 
# From -- ./inp_files/30671.got.cif
#   From: 2010.05.17/outbox.cif.g08.bks.cpg/sg59_16_cif.got.tgz:30671.got - 2010.06.03 14:40:33.
