data_PCOD9446887
_publ_section_title
;
Structure prediction by ZEFSAII (Michael W. Deem and Ramdas Pophale) SiO2 
 PCOD9446887
Probable space group: P M M N
;
_chemical_formula_sum "Si O2"
_cell_formula_units_Z 48
_cell_length_a 32.138563
_cell_length_b 8.642949
_cell_length_c 9.237460
_cell_angle_alpha 90.000000
_cell_angle_beta 90.000000
_cell_angle_gamma 90.000000
_cell_volume 2565.907378
_symmetry_space_group_name_H-M "P M M N"
_symmetry_group_IT_number 59
_space_group.IT_coordinate_system_code '2'
_symmetry_cell_setting 'orthorhombic'
loop_
_space_group_symop_operation_xyz
x,y,z
1/2-x,1/2-y,z
1/2+x,-y,-z
-x,1/2+y,-z
-x,-y,-z
1/2+x,1/2+y,-z
1/2-x,y,z
x,1/2-y,z
loop_
_atom_site_type_symbol
_atom_site_label
_atom_site_fract_x
_atom_site_fract_y
_atom_site_fract_z
Si Si1 0.750000 0.938425 0.333632
Si Si2 0.668373 0.563008 0.156495
Si Si3 0.413917 0.435749 0.665532
Si Si4 0.670002 0.064801 0.833063
Si Si5 0.250000 0.435814 0.332961
Si Si6 0.000330 0.434665 0.335582
Si Si7 0.413254 0.564358 0.339182
O O1 0.750000 0.750000 0.334983
O O2 0.791500 0.987398 0.249299
O O3 0.750000 0.989263 0.500069
O O4 0.669596 0.750000 0.146235
O O5 0.625935 0.520768 0.239214
O O6 0.669987 0.493928 0.997015
O O7 0.416867 0.250000 0.657599
O O8 0.457163 0.502377 0.728137
O O9 0.408546 0.500057 0.502507
O O10 0.673054 0.250000 0.830681
O O11 0.627002 0.020486 0.753702
O O12 0.709058 0.995208 0.747925
O O13 0.250000 0.250000 0.330980
O O14 0.000208 0.250000 0.338251
O O15 0.043849 0.496867 0.274266
O O16 0.000000 0.500000 0.500000
O O17 0.416586 0.750000 0.346236
#
# Coordination Sequence:
#
# PCOD9446887 Si02
#       7
#     4   8   8   8   4   8   8
#     4   9  19  37  60  86 108 135 180 227 266 314
#     4  10  21  37  58  82 111 147 185 224 272 329
#     4  10  19  33  55  83 112 144 186 232 276 329
#     4  11  24  39  56  82 116 148 182 224 274 327
#     4  11  22  39  64  86 110 143 182 225 270 324
#     4  10  18  30  52  80 109 143 184 231 280 328
#     4  10  20  35  55  80 111 147 186 231 278 327
#
# _framework density 18.706831000000001
#
# number of rings (size 3 to 8) (size 9 to 14) (size 15 to 20)
#    0.000    1.833    0.000    6.750    0.000    6.000 
#    0.000    2.500    0.000    0.000    0.000    0.000 
#    0.000    0.000    0.000    0.000    0.000    0.000 
#
# Total GULP energy -268099.417465 kJ/mol
# GULP energy per Si atom -5585.404531 kJ/mol
# Density = 1.866425 g / cm^3
# Si number density = 18.706831 Si / 1000 Ang^3
#
#
#
# Elastic Constant Matrix: (Units=GPa)
#
#
# Indices 1 2 3 4 5 6 
#
# 1 237.3123 68.1942 105.1093 0.0000 0.0000 0.0000
# 2 68.1942 65.2921 38.7254 0.0000 0.0000 0.0000
# 3 105.1093 38.7254 127.2515 0.0000 0.0000 0.0000
# 4 0.0000 0.0000 0.0000 21.3087 0.0000 0.0000
# 5 0.0000 0.0000 0.0000 0.0000 -13.4998 0.0000
# 6 0.0000 0.0000 0.0000 0.0000 0.0000 26.1077
#
#
#
# Elastic Compliance Matrix: (Units=1/GPa)
#
#
# Indices 1 2 3 4 5 6 
#
# 1 0.007937 -0.005371 -0.004921 0.000000 0.000000 0.000000
# 2 -0.005371 0.022323 -0.002357 0.000000 0.000000 0.000000
# 3 -0.004921 -0.002357 0.012641 0.000000 0.000000 0.000000
# 4 0.000000 0.000000 0.000000 0.046929 0.000000 0.000000
# 5 0.000000 0.000000 0.000000 0.000000 -0.074075 0.000000
# 6 0.000000 0.000000 0.000000 0.000000 0.000000 0.038303
#
#
# Mechanical properties :
#
#
# Convention : Reuss Voigt Hill
#
# Bulk Modulus (GPa) = 56.81072 94.87929 75.84500
# Shear Modulus (GPa) = 58.66854 21.30514 39.98684
#
# Velocity S-wave (km/s) = 5.60626 3.37841 4.62838
# Velocity P-wave (km/s) = 8.50540 8.12696 8.31833
#
# Compressibility (1/GPa) = 0.01760231
#
# Stress axis : x y z
#
# Youngs Moduli (GPa) = 125.99184 44.79600 79.10800
#
# Poissons Ratio (x) = 0.24059 0.38933
# Poissons Ratio (y) = 0.67668 0.18648
# Poissons Ratio (z) = 0.62007 0.10559
#
# Static dielectric constant tensor:
#      x y z
#    x 1.668390 0.000000 0.000000 
#    y 0.000000 1.628320 0.000000 
#    z 0.000000 0.000000 1.611910 
# 
# From -- ./inp_files/13005.got.cif
#   From: 2010.05.17/outbox.cif.g08.bks.cpg/sg59_7_cif.got.tgz:13005.got - 2010.06.03 14:40:33.
