data_PCOD9447302
_publ_section_title
;
Structure prediction by ZEFSAII (Michael W. Deem and Ramdas Pophale) SiO2 
 PCOD9447302
Probable space group: P M M N
;
_chemical_formula_sum "Si O2"
_cell_formula_units_Z 48
_cell_length_a 14.608798
_cell_length_b 8.318325
_cell_length_c 20.819610
_cell_angle_alpha 90.000000
_cell_angle_beta 90.000000
_cell_angle_gamma 90.000000
_cell_volume 2530.014198
_symmetry_space_group_name_H-M "P M M N"
_symmetry_group_IT_number 59
_space_group.IT_coordinate_system_code '2'
_symmetry_cell_setting 'orthorhombic'
loop_
_space_group_symop_operation_xyz
x,y,z
1/2-x,1/2-y,z
1/2+x,-y,-z
-x,1/2+y,-z
-x,-y,-z
1/2+x,1/2+y,-z
1/2-x,y,z
x,1/2-y,z
loop_
_atom_site_type_symbol
_atom_site_label
_atom_site_fract_x
_atom_site_fract_y
_atom_site_fract_z
Si Si1 0.250000 0.559638 0.362764
Si Si2 0.750000 0.944824 0.992612
Si Si3 0.442096 0.443882 0.060545
Si Si4 0.554366 0.558305 0.685161
Si Si5 0.550249 0.446687 0.186831
Si Si6 0.944244 0.943199 0.438176
Si Si7 0.250000 0.944300 0.858895
Si Si8 0.250000 0.056070 0.510898
O O1 0.250000 0.750000 0.366455
O O2 0.156877 0.505525 0.327357
O O3 0.250000 0.496257 0.436412
O O4 0.750000 0.750000 0.995230
O O5 0.750000 0.003965 0.066287
O O6 0.660565 0.998757 0.953977
O O7 0.441741 0.250000 0.062661
O O8 0.490313 0.499415 0.125639
O O9 0.500000 0.500000 0.000000
O O10 0.562030 0.750000 0.689763
O O11 0.501186 0.499237 0.748705
O O12 0.492151 0.513716 0.624308
O O13 0.551728 0.250000 0.187877
O O14 0.655638 0.498399 0.175345
O O15 0.946569 0.750000 0.434083
O O16 0.840549 0.997177 0.451615
O O17 0.000000 0.000000 0.500000
O O18 0.250000 0.750000 0.858197
O O19 0.250000 0.250000 0.509797
#
# Coordination Sequence:
#
# PCOD9447302 Si02
#       8
#     4   4   8   8   8   8   4   4
#     4  12  24  39  62  88 116 154 199 246 300 358
#     4  10  20  31  52  86 118 146 188 241 295 345
#     4  10  19  34  55  83 113 148 194 240 287 342
#     4  11  23  40  61  87 121 159 199 244 300 357
#     4   9  20  36  58  85 115 155 196 238 287 350
#     4  11  22  38  61  90 120 155 200 246 293 347
#     4  10  18  35  60  84 112 150 197 236 282 348
#     4  10  22  39  62  88 120 158 198 241 295 355
#
# _framework density 18.972225999999999
#
# number of rings (size 3 to 8) (size 9 to 14) (size 15 to 20)
#    0.000    1.667    3.333    1.750    0.000    2.000 
#    0.000    6.667    0.000    1.000    0.000    0.000 
#    0.000    0.000    0.000    0.000    0.000    0.000 
#
# Total GULP energy -267995.223883 kJ/mol
# GULP energy per Si atom -5583.233831 kJ/mol
# Density = 1.892904 g / cm^3
# Si number density = 18.972226 Si / 1000 Ang^3
#
#
#
# Elastic Constant Matrix: (Units=GPa)
#
#
# Indices 1 2 3 4 5 6 
#
# 1 233.0387 20.9339 109.3828 0.0000 0.0000 0.0000
# 2 20.9339 13.7563 6.9053 0.0000 0.0000 0.0000
# 3 109.3828 6.9053 172.7295 0.0000 0.0000 0.0000
# 4 0.0000 0.0000 0.0000 26.0494 0.0000 0.0000
# 5 0.0000 0.0000 0.0000 0.0000 30.0560 0.0000
# 6 0.0000 0.0000 0.0000 0.0000 0.0000 20.9729
#
#
#
# Elastic Compliance Matrix: (Units=1/GPa)
#
#
# Indices 1 2 3 4 5 6 
#
# 1 0.006972 -0.008566 -0.004073 0.000000 0.000000 0.000000
# 2 -0.008566 0.084706 0.002038 0.000000 0.000000 0.000000
# 3 -0.004073 0.002038 0.008287 0.000000 0.000000 0.000000
# 4 0.000000 0.000000 0.000000 0.038389 0.000000 0.000000
# 5 0.000000 0.000000 0.000000 0.000000 0.033271 0.000000
# 6 0.000000 0.000000 0.000000 0.000000 0.000000 0.047681
#
#
# Mechanical properties :
#
#
# Convention : Reuss Voigt Hill
#
# Bulk Modulus (GPa) = 12.69608 77.10760 44.90184
# Shear Modulus (GPa) = 18.74329 34.23582 26.48956
#
# Velocity S-wave (km/s) = 3.14655 4.25258 3.74067
# Velocity P-wave (km/s) = 4.46178 8.05252 6.50963
#
# Compressibility (1/GPa) = 0.07876447
#
# Stress axis : x y z
#
# Youngs Moduli (GPa) = 143.42487 11.80550 120.66963
#
# Poissons Ratio (x) = 0.10112 0.49147
# Poissons Ratio (y) = 1.22855 -0.24593
# Poissons Ratio (z) = 0.58415 -0.02406
#
# Static dielectric constant tensor:
#      x y z
#    x 1.613320 0.000000 0.000000 
#    y 0.000000 1.661230 0.000000 
#    z 0.000000 0.000000 1.622240 
# 
# From -- ./inp_files/27490.got.cif
#   From: 2010.05.17/outbox.cif.g08.bks.cpg/sg59_14_cif.got.tgz:27490.got - 2010.06.03 14:40:33.
