data_PCOD9447630
_publ_section_title
;
Structure prediction by ZEFSAII (Michael W. Deem and Ramdas Pophale) SiO2 
 PCOD9447630
Probable space group: P M M N
;
_chemical_formula_sum "Si O2"
_cell_formula_units_Z 64
_cell_length_a 23.650756
_cell_length_b 7.571471
_cell_length_c 18.103818
_cell_angle_alpha 90.000000
_cell_angle_beta 90.000000
_cell_angle_gamma 90.000000
_cell_volume 3241.869032
_symmetry_space_group_name_H-M "P M M N"
_symmetry_group_IT_number 59
_space_group.IT_coordinate_system_code '2'
_symmetry_cell_setting 'orthorhombic'
loop_
_space_group_symop_operation_xyz
x,y,z
1/2-x,1/2-y,z
1/2+x,-y,-z
-x,1/2+y,-z
-x,-y,-z
1/2+x,1/2+y,-z
1/2-x,y,z
x,1/2-y,z
loop_
_atom_site_type_symbol
_atom_site_label
_atom_site_fract_x
_atom_site_fract_y
_atom_site_fract_z
Si Si1 0.414950 0.537505 0.350255
Si Si2 0.081358 0.458372 0.830544
Si Si3 0.348013 0.964012 0.085336
Si Si4 0.433668 0.538640 0.510722
Si Si5 0.023805 0.961514 0.080924
Si Si6 0.687677 0.034162 0.753206
Si Si7 0.188395 0.040712 0.920104
Si Si8 0.547883 0.460420 0.329993
O O1 0.410494 0.750000 0.351545
O O2 0.406093 0.471541 0.434697
O O3 0.366356 0.473406 0.294555
O O4 0.480385 0.502102 0.328099
O O5 0.080321 0.250000 0.848457
O O6 0.135620 0.532994 0.873470
O O7 0.079344 0.476597 0.743024
O O8 0.022506 0.532772 0.862207
O O9 0.347253 0.750000 0.084408
O O10 0.412776 0.028741 0.088427
O O11 0.318656 0.019985 0.161222
O O12 0.322085 0.020540 0.007542
O O13 0.500000 0.500000 0.500000
O O14 0.424817 0.750000 0.511805
O O15 0.424086 0.470509 0.593750
O O16 0.028149 0.750000 0.090864
O O17 0.000000 0.000000 0.000000
O O18 0.750000 0.981108 0.725527
O O19 0.686129 0.250000 0.752429
O O20 0.250000 0.965462 0.901494
O O21 0.190387 0.250000 0.904655
O O22 0.551548 0.250000 0.331743
#
# Coordination Sequence:
#
# PCOD9447630 Si02
#       8
#     8   8   8   8   8   8   8   8
#     4   9  16  30  51  71  97 130 159 190 235 286
#     4  10  20  34  50  69  95 126 159 195 238 285
#     4  10  19  31  49  71  95 122 155 194 237 283
#     4   8  15  27  45  70  97 123 150 185 229 281
#     4  10  19  31  48  70  94 121 154 192 237 286
#     4   9  17  29  47  71  96 125 163 200 230 274
#     4  10  21  36  52  68  88 120 163 204 238 278
#     4  10  19  30  47  74 102 124 155 198 243 289
#
# _framework density 19.741699000000001
#
# number of rings (size 3 to 8) (size 9 to 14) (size 15 to 20)
#    0.000    2.500    1.250    1.500    0.000    4.250 
#    0.000    1.875    0.000    1.875    0.000    1.750 
#    0.000    0.000    0.000    0.000    0.000    0.000 
#
# Total GULP energy -356829.275664 kJ/mol
# GULP energy per Si atom -5575.457432 kJ/mol
# Density = 1.969677 g / cm^3
# Si number density = 19.741699 Si / 1000 Ang^3
#
#
#
# Elastic Constant Matrix: (Units=GPa)
#
#
# Indices 1 2 3 4 5 6 
#
# 1 102.2145 2.2664 38.5930 0.0000 0.0000 0.0000
# 2 2.2664 41.2276 -17.3617 0.0000 0.0000 0.0000
# 3 38.5930 -17.3617 108.1237 0.0000 0.0000 0.0000
# 4 0.0000 0.0000 0.0000 13.6143 0.0000 0.0000
# 5 0.0000 0.0000 0.0000 0.0000 13.7404 0.0000
# 6 0.0000 0.0000 0.0000 0.0000 0.0000 5.8014
#
#
#
# Elastic Compliance Matrix: (Units=1/GPa)
#
#
# Indices 1 2 3 4 5 6 
#
# 1 0.011551 -0.002543 -0.004531 0.000000 0.000000 0.000000
# 2 -0.002543 0.026575 0.005175 0.000000 0.000000 0.000000
# 3 -0.004531 0.005175 0.011697 0.000000 0.000000 0.000000
# 4 0.000000 0.000000 0.000000 0.073452 0.000000 0.000000
# 5 0.000000 0.000000 0.000000 0.000000 0.072778 0.000000
# 6 0.000000 0.000000 0.000000 0.000000 0.000000 0.172371
#
#
# Mechanical properties :
#
#
# Convention : Reuss Voigt Hill
#
# Bulk Modulus (GPa) = 21.72811 33.17347 27.45079
# Shear Modulus (GPa) = 12.90113 21.83577 17.36845
#
# Velocity S-wave (km/s) = 2.55913 3.32938 2.96933
# Velocity P-wave (km/s) = 4.44548 5.62316 5.06864
#
# Compressibility (1/GPa) = 0.04602334
#
# Stress axis : x y z
#
# Youngs Moduli (GPa) = 86.57598 37.62992 85.49257
#
# Poissons Ratio (x) = 0.09570 0.38738
# Poissons Ratio (y) = 0.22017 -0.44241
# Poissons Ratio (z) = 0.39229 -0.19473
#
# Static dielectric constant tensor:
#      x y z
#    x 1.687730 0.000000 0.000000 
#    y 0.000000 1.756930 0.000000 
#    z 0.000000 0.000000 1.720730 
# 
# From -- ./inp_files/28399.got.cif
#   From: 2010.05.17/outbox.cif.g08.bks.cpg/sg59_15_cif.got.tgz:28399.got - 2010.06.03 14:40:33.
