data_PCOD9447317
_publ_section_title
;
Structure prediction by ZEFSAII (Michael W. Deem and Ramdas Pophale) SiO2 
 PCOD9447317
Probable space group: P M M N
;
_chemical_formula_sum "Si O2"
_cell_formula_units_Z 34
_cell_length_a 18.997005
_cell_length_b 9.945574
_cell_length_c 7.284131
_cell_angle_alpha 90.000000
_cell_angle_beta 90.000000
_cell_angle_gamma 90.000000
_cell_volume 1376.235441
_symmetry_space_group_name_H-M "P M M N"
_symmetry_group_IT_number 59
_space_group.IT_coordinate_system_code '2'
_symmetry_cell_setting 'orthorhombic'
loop_
_space_group_symop_operation_xyz
x,y,z
1/2-x,1/2-y,z
1/2+x,-y,-z
-x,1/2+y,-z
-x,-y,-z
1/2+x,1/2+y,-z
1/2-x,y,z
x,1/2-y,z
loop_
_atom_site_type_symbol
_atom_site_label
_atom_site_fract_x
_atom_site_fract_y
_atom_site_fract_z
Si Si1 0.554583 0.250000 0.279351
Si Si2 0.325643 0.956154 0.818329
Si Si3 0.638448 0.042777 0.753481
Si Si4 0.021824 0.750000 0.294990
Si Si5 0.859622 0.750000 0.196338
Si Si6 0.750000 0.250000 0.597038
Si Si7 0.603308 0.750000 0.782467
O O1 0.605646 0.375421 0.242021
O O2 0.529413 0.250000 0.487048
O O3 0.480434 0.250000 0.173473
O O4 0.250000 0.894416 0.763506
O O5 0.328164 0.108026 0.747001
O O6 0.329158 0.955576 0.041056
O O7 0.564000 0.119303 0.773045
O O8 0.688107 0.132510 0.625534
O O9 0.624424 0.890545 0.689962
O O10 0.941238 0.750000 0.245938
O O11 0.856064 0.750000 0.975158
#
# Coordination Sequence:
#
# PCOD9447317 Si02
#       7
#     4   8   8   4   4   2   4
#     4  12  25  39  63  91 132 167 219 254 307 365
#     4  11  22  40  64  95 122 165 204 265 314 379
#     4  10  21  39  67  91 125 158 209 253 318 371
#     4  11  24  41  61  92 123 178 210 257 304 371
#     4  10  22  40  65  90 128 156 212 261 320 369
#     4  10  18  36  60  92 120 164 184 246 302 380
#     4  10  22  39  63 100 119 156 208 268 306 366
#
# _framework density 24.705076999999999
#
# number of rings (size 3 to 8) (size 9 to 14) (size 15 to 20)
#    0.000    1.412    1.176    4.941    0.000    8.000 
#    8.471    0.000    0.000    0.000    0.000    0.000 
#    0.000    0.000    0.000    0.000    0.000    0.000 
#
# Total GULP energy -189901.117060 kJ/mol
# GULP energy per Si atom -5585.326972 kJ/mol
# Density = 2.464885 g / cm^3
# Si number density = 24.705077 Si / 1000 Ang^3
#
#
#
# Elastic Constant Matrix: (Units=GPa)
#
#
# Indices 1 2 3 4 5 6 
#
# 1 133.5584 62.5090 -9.1990 0.0000 0.0000 0.0000
# 2 62.5090 228.9627 -11.3351 0.0000 0.0000 0.0000
# 3 -9.1990 -11.3351 62.4797 0.0000 0.0000 0.0000
# 4 0.0000 0.0000 0.0000 34.2583 0.0000 0.0000
# 5 0.0000 0.0000 0.0000 0.0000 26.9040 0.0000
# 6 0.0000 0.0000 0.0000 0.0000 0.0000 38.4303
#
#
#
# Elastic Compliance Matrix: (Units=1/GPa)
#
#
# Indices 1 2 3 4 5 6 
#
# 1 0.008629 -0.002314 0.000851 0.000000 0.000000 0.000000
# 2 -0.002314 0.005027 0.000571 0.000000 0.000000 0.000000
# 3 0.000851 0.000571 0.016234 0.000000 0.000000 0.000000
# 4 0.000000 0.000000 0.000000 0.029190 0.000000 0.000000
# 5 0.000000 0.000000 0.000000 0.000000 0.037169 0.000000
# 6 0.000000 0.000000 0.000000 0.000000 0.000000 0.026021
#
#
# Mechanical properties :
#
#
# Convention : Reuss Voigt Hill
#
# Bulk Modulus (GPa) = 35.57784 56.55007 46.06396
# Shear Modulus (GPa) = 37.47485 45.45357 41.46421
#
# Velocity S-wave (km/s) = 3.89895 4.29400 4.10123
# Velocity P-wave (km/s) = 5.89079 6.89379 6.41193
#
# Compressibility (1/GPa) = 0.02810738
#
# Stress axis : x y z
#
# Youngs Moduli (GPa) = 115.89099 198.90768 61.59867
#
# Poissons Ratio (x) = 0.46020 -0.05240
# Poissons Ratio (y) = 0.26813 -0.03520
# Poissons Ratio (z) = -0.09859 -0.11366
#
# Static dielectric constant tensor:
#      x y z
#    x 1.910750 0.000000 0.000000 
#    y 0.000000 0.995090 0.000000 
#    z 0.000000 0.000000 2.034730 
# 
# From -- ./inp_files/10999.got.cif
#   From: 2010.05.17/outbox.cif.g08.bks.cpg/sg59_6_cif.got.tgz:10999.got - 2010.06.03 14:40:33.
