data_PCOD9447537
_publ_section_title
;
Structure prediction by ZEFSAII (Michael W. Deem and Ramdas Pophale) SiO2 
 PCOD9447537
Probable space group: P M M N
;
_chemical_formula_sum "Si O2"
_cell_formula_units_Z 56
_cell_length_a 7.803194
_cell_length_b 14.672091
_cell_length_c 21.487659
_cell_angle_alpha 90.000000
_cell_angle_beta 90.000000
_cell_angle_gamma 90.000000
_cell_volume 2460.104297
_symmetry_space_group_name_H-M "P M M N"
_symmetry_group_IT_number 59
_space_group.IT_coordinate_system_code '2'
_symmetry_cell_setting 'orthorhombic'
loop_
_space_group_symop_operation_xyz
x,y,z
1/2-x,1/2-y,z
1/2+x,-y,-z
-x,1/2+y,-z
-x,-y,-z
1/2+x,1/2+y,-z
1/2-x,y,z
x,1/2-y,z
loop_
_atom_site_type_symbol
_atom_site_label
_atom_site_fract_x
_atom_site_fract_y
_atom_site_fract_z
Si Si1 0.452754 0.652200 0.689386
Si Si2 0.451792 0.351347 0.107278
Si Si3 0.544085 0.356394 0.967979
Si Si4 0.444189 0.397113 0.578488
Si Si5 0.959352 0.894229 0.553499
Si Si6 0.461698 0.962396 0.154430
Si Si7 0.551466 0.056527 0.713165
O O1 0.250000 0.646676 0.701062
O O2 0.516734 0.750000 0.716341
O O3 0.485270 0.656756 0.615265
O O4 0.530011 0.553772 0.707095
O O5 0.250000 0.344536 0.120425
O O6 0.528256 0.250000 0.113690
O O7 0.520622 0.432646 0.149240
O O8 0.470281 0.381695 0.035248
O O9 0.750000 0.365931 0.972363
O O10 0.504055 0.250000 0.958686
O O11 0.483383 0.411644 0.908151
O O12 0.250000 0.366294 0.577989
O O13 0.463292 0.505111 0.564436
O O14 0.520844 0.358312 0.513953
O O15 0.498122 0.392139 0.650207
O O16 0.750000 0.900469 0.553125
O O17 0.250000 0.961591 0.154048
O O18 0.524260 0.920068 0.219311
O O19 0.750000 0.075830 0.717528
#
# Coordination Sequence:
#
# PCOD9447537 Si02
#       7
#     8   8   8   8   8   8   8
#     4  10  20  32  45  64  93 124 153 192 240 284
#     4   9  17  30  48  70  97 126 156 194 238 281
#     4   9  17  31  51  72  94 120 153 197 244 285
#     4   9  16  27  43  64  89 112 140 184 233 273
#     4   9  16  26  44  66  84 110 148 186 225 272
#     4   9  18  31  47  70  97 126 162 197 232 279
#     4  10  19  30  46  66  89 123 163 195 225 273
#
# _framework density 22.763262000000001
#
# number of rings (size 3 to 8) (size 9 to 14) (size 15 to 20)
#    0.000    2.714    0.000    3.857    0.000    3.429 
#    0.000    4.286    0.000    2.571    0.000    2.000 
#    0.000    0.000    0.000    0.000    0.000    0.000 
#
# Total GULP energy -311998.788498 kJ/mol
# GULP energy per Si atom -5571.406937 kJ/mol
# Density = 2.271145 g / cm^3
# Si number density = 22.763262 Si / 1000 Ang^3
#
#
#
# Elastic Constant Matrix: (Units=GPa)
#
#
# Indices 1 2 3 4 5 6 
#
# 1 27.8104 -4.5780 6.1543 0.0000 0.0000 0.0000
# 2 -4.5780 21.0119 3.2507 0.0000 0.0000 0.0000
# 3 6.1543 3.2507 100.4745 0.0000 0.0000 0.0000
# 4 0.0000 0.0000 0.0000 1.2041 0.0000 0.0000
# 5 0.0000 0.0000 0.0000 0.0000 18.3988 0.0000
# 6 0.0000 0.0000 0.0000 0.0000 0.0000 0.5477
#
#
#
# Elastic Compliance Matrix: (Units=1/GPa)
#
#
# Indices 1 2 3 4 5 6 
#
# 1 0.037962 0.008674 -0.002606 0.000000 0.000000 0.000000
# 2 0.008674 0.049814 -0.002143 0.000000 0.000000 0.000000
# 3 -0.002606 -0.002143 0.010182 0.000000 0.000000 0.000000
# 4 0.000000 0.000000 0.000000 0.830494 0.000000 0.000000
# 5 0.000000 0.000000 0.000000 0.000000 0.054351 0.000000
# 6 0.000000 0.000000 0.000000 0.000000 0.000000 1.825944
#
#
# Mechanical properties :
#
#
# Convention : Reuss Voigt Hill
#
# Bulk Modulus (GPa) = 9.45104 17.66120 13.55612
# Shear Modulus (GPa) = 1.76294 13.66142 7.71218
#
# Velocity S-wave (km/s) = 0.88099 2.45246 1.84265
# Velocity P-wave (km/s) = 2.27942 3.97428 3.23965
#
# Compressibility (1/GPa) = 0.10580846
#
# Stress axis : x y z
#
# Youngs Moduli (GPa) = 26.34186 20.07484 98.21510
#
# Poissons Ratio (x) = -0.17414 0.25594
# Poissons Ratio (y) = -0.22850 0.21047
# Poissons Ratio (z) = 0.06865 0.04302
#
# Static dielectric constant tensor:
#      x y z
#    x 1.829750 0.000000 0.000000 
#    y 0.000000 1.873270 0.000000 
#    z 0.000000 0.000000 1.920590 
# 
# From -- ./inp_files/29340.got.cif
#   From: 2010.05.17/outbox.cif.g08.bks.cpg/sg59_15_cif.got.tgz:29340.got - 2010.06.03 14:40:33.
