data_PCOD9447849
_publ_section_title
;
Structure prediction by ZEFSAII (Michael W. Deem and Ramdas Pophale) SiO2 
 PCOD9447849
Probable space group: P M M N
;
_chemical_formula_sum "Si O2"
_cell_formula_units_Z 48
_cell_length_a 14.271356
_cell_length_b 7.656574
_cell_length_c 21.620617
_cell_angle_alpha 90.000000
_cell_angle_beta 90.000000
_cell_angle_gamma 90.000000
_cell_volume 2362.478188
_symmetry_space_group_name_H-M "P M M N"
_symmetry_group_IT_number 59
_space_group.IT_coordinate_system_code '2'
_symmetry_cell_setting 'orthorhombic'
loop_
_space_group_symop_operation_xyz
x,y,z
1/2-x,1/2-y,z
1/2+x,-y,-z
-x,1/2+y,-z
-x,-y,-z
1/2+x,1/2+y,-z
1/2-x,y,z
x,1/2-y,z
loop_
_atom_site_type_symbol
_atom_site_label
_atom_site_fract_x
_atom_site_fract_y
_atom_site_fract_z
Si Si1 0.142547 0.464167 0.909597
Si Si2 0.855858 0.043372 0.721112
Si Si3 0.856303 0.960531 0.466530
Si Si4 0.024445 0.548739 0.166477
Si Si5 0.047428 0.042863 0.406864
Si Si6 0.638505 0.541273 0.952630
O O1 0.250000 0.516000 0.900992
O O2 0.140438 0.250000 0.910356
O O3 0.073637 0.529121 0.856463
O O4 0.110469 0.518993 0.978455
O O5 0.750000 0.971103 0.718246
O O6 0.846729 0.250000 0.733754
O O7 0.918002 0.967806 0.777049
O O8 0.908816 0.025038 0.656273
O O9 0.750000 0.022524 0.455035
O O10 0.852865 0.750000 0.469328
O O11 0.896156 0.025478 0.532837
O O12 0.937496 0.005557 0.417602
O O13 0.004631 0.750000 0.183641
O O14 0.087012 0.545143 0.104592
O O15 0.059625 0.250000 0.406196
O O16 0.750000 0.512018 0.947931
O O17 0.622815 0.750000 0.948558
#
# Coordination Sequence:
#
# PCOD9447849 Si02
#       6
#     8   8   8   8   8   8
#     4   8  15  29  48  69  93 122 158 201 250 302
#     4  10  21  35  49  69 101 136 167 203 249 300
#     4   9  18  34  56  81 108 136 168 206 247 294
#     4  10  19  31  49  71  95 126 166 208 244 285
#     4  10  20  34  54  80 107 135 170 209 247 290
#     4   9  17  29  46  69  96 124 155 197 252 307
#
# _framework density 20.317647000000001
#
# number of rings (size 3 to 8) (size 9 to 14) (size 15 to 20)
#    0.000    2.667    0.000    3.000    0.000    3.667 
#    0.000    0.833    0.000    4.500    0.000    0.000 
#    0.000    0.000    0.000    0.000    0.000    0.000 
#
# Total GULP energy -267806.204807 kJ/mol
# GULP energy per Si atom -5579.295933 kJ/mol
# Density = 2.027140 g / cm^3
# Si number density = 20.317647 Si / 1000 Ang^3
#
#
#
# Elastic Constant Matrix: (Units=GPa)
#
#
# Indices 1 2 3 4 5 6 
#
# 1 131.8415 -4.9657 80.5522 0.0000 0.0000 0.0000
# 2 -4.9657 32.8313 -7.4383 0.0000 0.0000 0.0000
# 3 80.5522 -7.4383 126.8155 0.0000 0.0000 0.0000
# 4 0.0000 0.0000 0.0000 1.1164 0.0000 0.0000
# 5 0.0000 0.0000 0.0000 0.0000 16.1898 0.0000
# 6 0.0000 0.0000 0.0000 0.0000 0.0000 12.3484
#
#
#
# Elastic Compliance Matrix: (Units=1/GPa)
#
#
# Indices 1 2 3 4 5 6 
#
# 1 0.012396 0.000092 -0.007868 0.000000 0.000000 0.000000
# 2 0.000092 0.030870 0.001752 0.000000 0.000000 0.000000
# 3 -0.007868 0.001752 0.012986 0.000000 0.000000 0.000000
# 4 0.000000 0.000000 0.000000 0.895713 0.000000 0.000000
# 5 0.000000 0.000000 0.000000 0.000000 0.061767 0.000000
# 6 0.000000 0.000000 0.000000 0.000000 0.000000 0.080982
#
#
# Mechanical properties :
#
#
# Convention : Reuss Voigt Hill
#
# Bulk Modulus (GPa) = 22.62266 47.53163 35.07714
# Shear Modulus (GPa) = 4.45833 20.82027 12.63930
#
# Velocity S-wave (km/s) = 1.48293 3.20463 2.49687
# Velocity P-wave (km/s) = 3.75377 6.09409 5.06106
#
# Compressibility (1/GPa) = 0.04420347
#
# Stress axis : x y z
#
# Youngs Moduli (GPa) = 80.67359 32.39430 77.00574
#
# Poissons Ratio (x) = -0.00299 0.60590
# Poissons Ratio (y) = -0.00744 -0.13492
# Poissons Ratio (z) = 0.63476 -0.05676
#
# Static dielectric constant tensor:
#      x y z
#    x 1.743920 0.000000 0.000000 
#    y 0.000000 1.740750 0.000000 
#    z 0.000000 0.000000 1.698610 
# 
# From -- ./inp_files/27372.got.cif
#   From: 2010.05.17/outbox.cif.g08.bks.cpg/sg59_14_cif.got.tgz:27372.got - 2010.06.03 14:40:33.
