data_PCOD9447878
_publ_section_title
;
Structure prediction by ZEFSAII (Michael W. Deem and Ramdas Pophale) SiO2 
 PCOD9447878
Probable space group: P M M N
;
_chemical_formula_sum "Si O2"
_cell_formula_units_Z 64
_cell_length_a 8.536205
_cell_length_b 15.054763
_cell_length_c 24.221626
_cell_angle_alpha 90.000000
_cell_angle_beta 90.000000
_cell_angle_gamma 90.000000
_cell_volume 3112.734314
_symmetry_space_group_name_H-M "P M M N"
_symmetry_group_IT_number 59
_space_group.IT_coordinate_system_code '2'
_symmetry_cell_setting 'orthorhombic'
loop_
_space_group_symop_operation_xyz
x,y,z
1/2-x,1/2-y,z
1/2+x,-y,-z
-x,1/2+y,-z
-x,-y,-z
1/2+x,1/2+y,-z
1/2-x,y,z
x,1/2-y,z
loop_
_atom_site_type_symbol
_atom_site_label
_atom_site_fract_x
_atom_site_fract_y
_atom_site_fract_z
Si Si1 0.939265 0.353897 0.026531
Si Si2 0.932681 0.654969 0.777193
Si Si3 0.561955 0.151088 0.572571
Si Si4 0.569697 0.142607 0.454977
Si Si5 0.427701 0.089100 0.341231
Si Si6 0.572526 0.914724 0.313897
Si Si7 0.563181 0.537734 0.196972
Si Si8 0.436823 0.530174 0.079710
O O1 0.750000 0.352251 0.028834
O O2 0.991600 0.250000 0.032549
O O3 0.997016 0.430317 0.069007
O O4 0.986792 0.400304 0.968156
O O5 0.750000 0.647035 0.793911
O O6 0.994818 0.750000 0.797588
O O7 0.933311 0.655473 0.710241
O O8 0.018714 0.565995 0.795405
O O9 0.750000 0.152506 0.568468
O O10 0.496611 0.250000 0.570385
O O11 0.511057 0.106879 0.514637
O O12 0.518519 0.119410 0.633063
O O13 0.750000 0.112579 0.445465
O O14 0.575720 0.250000 0.459308
O O15 0.463845 0.121239 0.402509
O O16 0.250000 0.050698 0.339955
O O17 0.561487 0.019407 0.325590
O O18 0.750000 0.881410 0.315036
O O19 0.507060 0.908518 0.251584
O O20 0.750000 0.546033 0.195886
O O21 0.490843 0.564973 0.139026
O O22 0.250000 0.523718 0.077609
#
# Coordination Sequence:
#
# PCOD9447878 Si02
#       8
#     8   8   8   8   8   8   8   8
#     4   9  19  37  60  86 117 151 185 221 262 309
#     4   9  18  32  49  71 100 133 172 218 263 310
#     4   9  19  36  55  73  94 123 161 207 260 315
#     4   9  18  32  49  70  97 127 160 202 254 313
#     4  10  19  31  49  72  98 129 165 207 257 313
#     4  10  21  36  53  73  98 130 169 211 256 306
#     4  10  21  36  53  75 105 141 178 215 258 306
#     4  10  20  35  58  86 115 148 185 224 265 310
#
# _framework density 20.560701999999999
#
# number of rings (size 3 to 8) (size 9 to 14) (size 15 to 20)
#    0.000    2.500    0.000    2.625    0.000    5.500 
#    0.000    1.875    0.000    2.250    0.000    0.000 
#    0.000    0.000    0.000    0.000    0.000    0.000 
#
# Total GULP energy -356295.291974 kJ/mol
# GULP energy per Si atom -5567.113937 kJ/mol
# Density = 2.051391 g / cm^3
# Si number density = 20.560702 Si / 1000 Ang^3
#
#
#
# Elastic Constant Matrix: (Units=GPa)
#
#
# Indices 1 2 3 4 5 6 
#
# 1 23.1557 -0.2923 10.1399 0.0000 0.0000 0.0000
# 2 -0.2923 28.1458 -6.8280 0.0000 0.0000 0.0000
# 3 10.1399 -6.8280 110.1042 0.0000 0.0000 0.0000
# 4 0.0000 0.0000 0.0000 32.4599 0.0000 0.0000
# 5 0.0000 0.0000 0.0000 0.0000 30.0932 0.0000
# 6 0.0000 0.0000 0.0000 0.0000 0.0000 14.8713
#
#
#
# Elastic Compliance Matrix: (Units=1/GPa)
#
#
# Indices 1 2 3 4 5 6 
#
# 1 0.045009 -0.000546 -0.004179 0.000000 0.000000 0.000000
# 2 -0.000546 0.036079 0.002288 0.000000 0.000000 0.000000
# 3 -0.004179 0.002288 0.009609 0.000000 0.000000 0.000000
# 4 0.000000 0.000000 0.000000 0.030807 0.000000 0.000000
# 5 0.000000 0.000000 0.000000 0.000000 0.033230 0.000000
# 6 0.000000 0.000000 0.000000 0.000000 0.000000 0.067244
#
#
# Mechanical properties :
#
#
# Convention : Reuss Voigt Hill
#
# Bulk Modulus (GPa) = 11.65210 18.60499 15.12854
# Shear Modulus (GPa) = 19.57256 26.04395 22.80826
#
# Velocity S-wave (km/s) = 3.08870 3.56291 3.33425
# Velocity P-wave (km/s) = 4.28947 5.09846 4.71136
#
# Compressibility (1/GPa) = 0.08582146
#
# Stress axis : x y z
#
# Youngs Moduli (GPa) = 22.21784 27.71727 104.06881
#
# Poissons Ratio (x) = 0.01514 0.43490
# Poissons Ratio (y) = 0.01214 -0.23808
# Poissons Ratio (z) = 0.09285 -0.06341
#
# Static dielectric constant tensor:
#      x y z
#    x 1.717140 0.000000 0.000000 
#    y 0.000000 1.853550 0.000000 
#    z 0.000000 0.000000 1.810440 
# 
# From -- ./inp_files/31535.got.cif
#   From: 2010.05.17/outbox.cif.g08.bks.cpg/sg59_16_cif.got.tgz:31535.got - 2010.06.03 14:40:33.
