data_PCOD9447955
_publ_section_title
;
Structure prediction by ZEFSAII (Michael W. Deem and Ramdas Pophale) SiO2 
 PCOD9447955
Probable space group: P M M N
;
_chemical_formula_sum "Si O2"
_cell_formula_units_Z 64
_cell_length_a 8.480611
_cell_length_b 23.335803
_cell_length_c 18.186833
_cell_angle_alpha 90.000000
_cell_angle_beta 90.000000
_cell_angle_gamma 90.000000
_cell_volume 3599.208217
_symmetry_space_group_name_H-M "P M M N"
_symmetry_group_IT_number 59
_space_group.IT_coordinate_system_code '2'
_symmetry_cell_setting 'orthorhombic'
loop_
_space_group_symop_operation_xyz
x,y,z
1/2-x,1/2-y,z
1/2+x,-y,-z
-x,1/2+y,-z
-x,-y,-z
1/2+x,1/2+y,-z
1/2-x,y,z
x,1/2-y,z
loop_
_atom_site_type_symbol
_atom_site_label
_atom_site_fract_x
_atom_site_fract_y
_atom_site_fract_z
Si Si1 0.061714 0.813320 0.249987
Si Si2 0.440503 0.587802 0.822529
Si Si3 0.439871 0.018270 0.920386
Si Si4 0.557831 0.049147 0.333878
Si Si5 0.940978 0.648947 0.094804
Si Si6 0.439168 0.934857 0.505871
Si Si7 0.561689 0.583799 0.350992
Si Si8 0.059768 0.185597 0.069426
O O1 0.250000 0.815144 0.254528
O O2 0.008161 0.750000 0.276443
O O3 0.010527 0.819618 0.165112
O O4 0.996733 0.867099 0.296070
O O5 0.250000 0.589428 0.822810
O O6 0.491559 0.529021 0.862138
O O7 0.494689 0.582912 0.738388
O O8 0.499538 0.639914 0.871911
O O9 0.250000 0.018467 0.922132
O O10 0.489570 0.082361 0.901081
O O11 0.500000 0.000000 0.000000
O O12 0.750000 0.047134 0.332896
O O13 0.513136 0.079741 0.410468
O O14 0.506538 0.981821 0.332828
O O15 0.750000 0.652803 0.098610
O O16 0.990142 0.671249 0.014335
O O17 0.250000 0.933415 0.500899
O O18 0.508746 0.903595 0.434827
O O19 0.500000 0.000000 0.500000
O O20 0.750000 0.582431 0.347597
O O21 0.250000 0.183281 0.069346
O O22 0.009308 0.250000 0.087801
#
# Coordination Sequence:
#
# PCOD9447955 Si02
#       8
#     8   8   8   8   8   8   8   8
#     4  11  24  38  52  75 106 138 177 224 266 309
#     4  10  19  32  51  75 102 133 168 209 254 300
#     4  10  19  31  50  75 103 132 167 210 257 309
#     4   8  16  31  52  79 108 136 167 207 257 311
#     4  10  20  36  56  74  98 135 175 212 258 315
#     4   9  16  29  51  79 110 139 169 206 251 307
#     4  10  19  34  56  79 107 140 172 209 259 320
#     4  10  21  36  52  70  95 131 174 216 256 299
#
# _framework density 17.781689
#
# number of rings (size 3 to 8) (size 9 to 14) (size 15 to 20)
#    0.000    2.250    1.250    3.000    0.000    4.750 
#    0.000    5.000    0.000    0.750    0.000    1.750 
#    0.000    0.000    0.000    0.000    0.000    0.000 
#
# Total GULP energy -356863.605460 kJ/mol
# GULP energy per Si atom -5575.993835 kJ/mol
# Density = 1.774122 g / cm^3
# Si number density = 17.781689 Si / 1000 Ang^3
#
#
#
# Elastic Constant Matrix: (Units=GPa)
#
#
# Indices 1 2 3 4 5 6 
#
# 1 17.4794 18.7718 20.1012 0.0000 0.0000 0.0000
# 2 18.7718 91.3952 49.3202 0.0000 0.0000 0.0000
# 3 20.1012 49.3202 148.1576 0.0000 0.0000 0.0000
# 4 0.0000 0.0000 0.0000 13.9023 0.0000 0.0000
# 5 0.0000 0.0000 0.0000 0.0000 28.6917 0.0000
# 6 0.0000 0.0000 0.0000 0.0000 0.0000 20.2106
#
#
#
# Elastic Compliance Matrix: (Units=1/GPa)
#
#
# Indices 1 2 3 4 5 6 
#
# 1 0.078090 -0.012582 -0.006406 0.000000 0.000000 0.000000
# 2 -0.012582 0.015365 -0.003408 0.000000 0.000000 0.000000
# 3 -0.006406 -0.003408 0.008753 0.000000 0.000000 0.000000
# 4 0.000000 0.000000 0.000000 0.071931 0.000000 0.000000
# 5 0.000000 0.000000 0.000000 0.000000 0.034853 0.000000
# 6 0.000000 0.000000 0.000000 0.000000 0.000000 0.049479
#
#
# Mechanical properties :
#
#
# Convention : Reuss Voigt Hill
#
# Bulk Modulus (GPa) = 17.41690 48.15761 32.78726
# Shear Modulus (GPa) = 15.50867 23.81687 19.66277
#
# Velocity S-wave (km/s) = 2.95646 3.66376 3.32895
# Velocity P-wave (km/s) = 4.63361 6.71111 5.76668
#
# Compressibility (1/GPa) = 0.05741549
#
# Stress axis : x y z
#
# Youngs Moduli (GPa) = 12.80582 65.08470 114.24474
#
# Poissons Ratio (x) = 0.81888 0.73190
# Poissons Ratio (y) = 0.16112 0.38931
# Poissons Ratio (z) = 0.08204 0.22179
#
# Static dielectric constant tensor:
#      x y z
#    x 1.613520 0.000000 0.000000 
#    y 0.000000 1.589440 0.000000 
#    z 0.000000 0.000000 1.627470 
# 
# From -- ./inp_files/26303.got.cif
#   From: 2010.05.17/outbox.cif.g08.bks.cpg/sg59_14_cif.got.tgz:26303.got - 2010.06.03 14:40:33.
