data_PCOD9447579
_publ_section_title
;
Structure prediction by ZEFSAII (Michael W. Deem and Ramdas Pophale) SiO2 
 PCOD9447579
Probable space group: P M M N
;
_chemical_formula_sum "Si O2"
_cell_formula_units_Z 40
_cell_length_a 13.251771
_cell_length_b 7.680501
_cell_length_c 21.357672
_cell_angle_alpha 90.000000
_cell_angle_beta 90.000000
_cell_angle_gamma 90.000000
_cell_volume 2173.788991
_symmetry_space_group_name_H-M "P M M N"
_symmetry_group_IT_number 59
_space_group.IT_coordinate_system_code '2'
_symmetry_cell_setting 'orthorhombic'
loop_
_space_group_symop_operation_xyz
x,y,z
1/2-x,1/2-y,z
1/2+x,-y,-z
-x,1/2+y,-z
-x,-y,-z
1/2+x,1/2+y,-z
1/2-x,y,z
x,1/2-y,z
loop_
_atom_site_type_symbol
_atom_site_label
_atom_site_fract_x
_atom_site_fract_y
_atom_site_fract_z
Si Si1 0.250000 0.963404 0.680713
Si Si2 0.640495 0.453394 0.940972
Si Si3 0.578790 0.956860 0.079492
Si Si4 0.639801 0.957790 0.554776
Si Si5 0.577346 0.039193 0.413221
Si Si6 0.250000 0.957973 0.823279
O O1 0.250000 0.750000 0.680892
O O2 0.151355 0.019370 0.641761
O O3 0.250000 0.023465 0.752189
O O4 0.750000 0.531587 0.925205
O O5 0.644282 0.250000 0.923521
O O6 0.535784 0.525357 0.913182
O O7 0.625415 0.464577 0.016091
O O8 0.572857 0.750000 0.067944
O O9 0.651773 0.987148 0.137533
O O10 0.750000 0.028965 0.572390
O O11 0.642208 0.750000 0.564879
O O12 0.538426 0.024920 0.588282
O O13 0.622184 0.987733 0.480729
O O14 0.575444 0.250000 0.412033
O O15 0.250000 0.750000 0.821196
#
# Coordination Sequence:
#
# PCOD9447579 Si02
#       6
#     4   8   8   8   8   4
#     4   9  18  31  47  63  83 121 164 191 212 261
#     4   9  17  30  49  71  96 122 145 181 233 284
#     4  10  19  30  46  71  96 119 153 190 229 275
#     4   9  16  25  41  67  94 113 134 179 234 274
#     4   9  16  28  44  62  86 117 151 180 217 269
#     4  11  21  33  47  63  91 129 164 195 228 265
#
# _framework density 18.401049
#
# number of rings (size 3 to 8) (size 9 to 14) (size 15 to 20)
#    0.000    2.600    2.000    0.900    0.000    0.800 
#    0.000    2.000    0.000    1.200    0.000    2.800 
#    0.000    0.000    0.000    0.000    0.000    0.000 
#
# Total GULP energy -222907.276477 kJ/mol
# GULP energy per Si atom -5572.681912 kJ/mol
# Density = 1.835917 g / cm^3
# Si number density = 18.401049 Si / 1000 Ang^3
#
#
#
# Elastic Constant Matrix: (Units=GPa)
#
#
# Indices 1 2 3 4 5 6 
#
# 1 219.9616 2.2575 69.9234 0.0000 0.0000 0.0000
# 2 2.2575 35.8562 -8.0732 0.0000 0.0000 0.0000
# 3 69.9234 -8.0732 88.0569 0.0000 0.0000 0.0000
# 4 0.0000 0.0000 0.0000 14.0876 0.0000 0.0000
# 5 0.0000 0.0000 0.0000 0.0000 16.1269 0.0000
# 6 0.0000 0.0000 0.0000 0.0000 0.0000 11.6657
#
#
#
# Elastic Compliance Matrix: (Units=1/GPa)
#
#
# Indices 1 2 3 4 5 6 
#
# 1 0.006162 -0.001521 -0.005032 0.000000 0.000000 0.000000
# 2 -0.001521 0.028852 0.003853 0.000000 0.000000 0.000000
# 3 -0.005032 0.003853 0.015705 0.000000 0.000000 0.000000
# 4 0.000000 0.000000 0.000000 0.070984 0.000000 0.000000
# 5 0.000000 0.000000 0.000000 0.000000 0.062008 0.000000
# 6 0.000000 0.000000 0.000000 0.000000 0.000000 0.085721
#
#
# Mechanical properties :
#
#
# Convention : Reuss Voigt Hill
#
# Bulk Modulus (GPa) = 22.06570 52.45445 37.26007
# Shear Modulus (GPa) = 17.24497 27.02719 22.13608
#
# Velocity S-wave (km/s) = 3.06465 3.83663 3.47216
# Velocity P-wave (km/s) = 4.95382 6.94222 6.03054
#
# Compressibility (1/GPa) = 0.04531922
#
# Stress axis : x y z
#
# Youngs Moduli (GPa) = 162.29786 34.65909 63.67241
#
# Poissons Ratio (x) = 0.05271 0.32041
# Poissons Ratio (y) = 0.24684 -0.24533
# Poissons Ratio (z) = 0.81670 -0.13354
#
# Static dielectric constant tensor:
#      x y z
#    x 1.733310 0.000000 0.000000 
#    y 0.000000 1.677620 0.000000 
#    z 0.000000 0.000000 1.575970 
# 
# From -- ./inp_files/30190.got.cif
#   From: 2010.05.17/outbox.cif.g08.bks.cpg/sg59_16_cif.got.tgz:30190.got - 2010.06.03 14:40:33.
