data_PCOD9447408
_publ_section_title
;
Structure prediction by ZEFSAII (Michael W. Deem and Ramdas Pophale) SiO2 
 PCOD9447408
Probable space group: P M M N
;
_chemical_formula_sum "Si O2"
_cell_formula_units_Z 48
_cell_length_a 8.804608
_cell_length_b 23.586036
_cell_length_c 13.746867
_cell_angle_alpha 90.000000
_cell_angle_beta 90.000000
_cell_angle_gamma 90.000000
_cell_volume 2854.754150
_symmetry_space_group_name_H-M "P M M N"
_symmetry_group_IT_number 59
_space_group.IT_coordinate_system_code '2'
_symmetry_cell_setting 'orthorhombic'
loop_
_space_group_symop_operation_xyz
x,y,z
1/2-x,1/2-y,z
1/2+x,-y,-z
-x,1/2+y,-z
-x,-y,-z
1/2+x,1/2+y,-z
1/2-x,y,z
x,1/2-y,z
loop_
_atom_site_type_symbol
_atom_site_label
_atom_site_fract_x
_atom_site_fract_y
_atom_site_fract_z
Si Si1 0.077265 0.011703 0.899260
Si Si2 0.932385 0.684157 0.111877
Si Si3 0.933056 0.502071 0.607604
Si Si4 0.932754 0.682792 0.892491
Si Si5 0.577681 0.092101 0.247737
Si Si6 0.427880 0.594946 0.245765
O O1 0.250000 0.034691 0.906942
O O2 0.084879 0.954432 0.837740
O O3 0.966026 0.053318 0.842920
O O4 0.000000 0.000000 0.000000
O O5 0.750000 0.680590 0.112143
O O6 0.975930 0.750000 0.117279
O O7 0.993061 0.651449 0.206288
O O8 0.981881 0.663980 0.002614
O O9 0.750000 0.503247 0.606982
O O10 0.981714 0.443738 0.663431
O O11 0.000000 0.500000 0.500000
O O12 0.991886 0.557472 0.666736
O O13 0.750000 0.677028 0.889226
O O14 0.968147 0.750000 0.883619
O O15 0.001621 0.646079 0.804631
O O16 0.750000 0.105344 0.279205
O O17 0.250000 0.605193 0.257814
#
# Coordination Sequence:
#
# PCOD9447408 Si02
#       6
#     8   8   8   8   8   8
#     4  10  19  29  43  66  97 130 162 199 242 291
#     4   9  18  32  50  73 103 140 176 206 239 284
#     4  10  21  37  56  76  98 125 160 206 259 309
#     4   9  18  32  49  71 102 139 174 205 239 282
#     4  10  20  32  48  72  99 128 164 203 246 296
#     4  10  20  32  48  72  99 128 162 201 248 298
#
# _framework density 16.814056999999998
#
# number of rings (size 3 to 8) (size 9 to 14) (size 15 to 20)
#    0.000    2.333    0.000    4.000    0.000    8.000 
#    0.000    1.667    0.000    1.000    0.000    4.667 
#    0.000    0.000    0.000    0.000    0.000    0.000 
#
# Total GULP energy -267275.150557 kJ/mol
# GULP energy per Si atom -5568.232303 kJ/mol
# Density = 1.677579 g / cm^3
# Si number density = 16.814057 Si / 1000 Ang^3
#
#
#
# Elastic Constant Matrix: (Units=GPa)
#
#
# Indices 1 2 3 4 5 6 
#
# 1 39.2681 26.7536 35.7058 0.0000 0.0000 0.0000
# 2 26.7536 81.1000 48.0084 0.0000 0.0000 0.0000
# 3 35.7058 48.0084 128.5955 0.0000 0.0000 0.0000
# 4 0.0000 0.0000 0.0000 23.6681 0.0000 0.0000
# 5 0.0000 0.0000 0.0000 0.0000 25.6331 0.0000
# 6 0.0000 0.0000 0.0000 0.0000 0.0000 28.0646
#
#
#
# Elastic Compliance Matrix: (Units=1/GPa)
#
#
# Indices 1 2 3 4 5 6 
#
# 1 0.037733 -0.008017 -0.007484 0.000000 0.000000 0.000000
# 2 -0.008017 0.017532 -0.004319 0.000000 0.000000 0.000000
# 3 -0.007484 -0.004319 0.011467 0.000000 0.000000 0.000000
# 4 0.000000 0.000000 0.000000 0.042251 0.000000 0.000000
# 5 0.000000 0.000000 0.000000 0.000000 0.039012 0.000000
# 6 0.000000 0.000000 0.000000 0.000000 0.000000 0.035632
#
#
# Mechanical properties :
#
#
# Convention : Reuss Voigt Hill
#
# Bulk Modulus (GPa) = 36.91230 52.21102 44.56166
# Shear Modulus (GPa) = 21.52404 24.70620 23.11512
#
# Velocity S-wave (km/s) = 3.58176 3.83740 3.71178
# Velocity P-wave (km/s) = 6.25350 7.12416 6.70298
#
# Compressibility (1/GPa) = 0.02709124
#
# Stress axis : x y z
#
# Youngs Moduli (GPa) = 26.50184 57.03843 87.20879
#
# Poissons Ratio (x) = 0.45730 0.65266
# Poissons Ratio (y) = 0.21248 0.37666
# Poissons Ratio (z) = 0.19834 0.24635
#
# Static dielectric constant tensor:
#      x y z
#    x 1.589920 0.000000 0.000000 
#    y 0.000000 1.616870 0.000000 
#    z 0.000000 0.000000 1.567720 
# 
# From -- ./inp_files/14366.got.cif
#   From: 2010.05.17/outbox.cif.g08.bks.cpg/sg59_8_cif.got.tgz:14366.got - 2010.06.03 14:40:33.
