data_PCOD9447884
_publ_section_title
;
Structure prediction by ZEFSAII (Michael W. Deem and Ramdas Pophale) SiO2 
 PCOD9447884
Probable space group: P M M N
;
_chemical_formula_sum "Si O2"
_cell_formula_units_Z 48
_cell_length_a 14.763213
_cell_length_b 17.472004
_cell_length_c 6.808298
_cell_angle_alpha 90.000000
_cell_angle_beta 90.000000
_cell_angle_gamma 90.000000
_cell_volume 1756.152243
_symmetry_space_group_name_H-M "P M M N"
_symmetry_group_IT_number 59
_space_group.IT_coordinate_system_code '2'
_symmetry_cell_setting 'orthorhombic'
loop_
_space_group_symop_operation_xyz
x,y,z
1/2-x,1/2-y,z
1/2+x,-y,-z
-x,1/2+y,-z
-x,-y,-z
1/2+x,1/2+y,-z
1/2-x,y,z
x,1/2-y,z
loop_
_atom_site_type_symbol
_atom_site_label
_atom_site_fract_x
_atom_site_fract_y
_atom_site_fract_z
Si Si1 0.887176 0.665019 0.383916
Si Si2 0.045417 0.670236 0.882816
Si Si3 0.649554 0.463978 0.025843
Si Si4 0.103003 0.665422 0.441009
Si Si5 0.849086 0.634575 0.924413
Si Si6 0.390234 0.500003 0.518697
O O1 0.858165 0.750000 0.449355
O O2 0.856098 0.654811 0.157570
O O3 0.858893 0.588629 0.504388
O O4 0.996925 0.664991 0.382106
O O5 0.065934 0.750000 0.983697
O O6 0.073132 0.598304 0.011007
O O7 0.099269 0.667584 0.679775
O O8 0.939864 0.667811 0.834262
O O9 0.750000 0.431055 0.004763
O O10 0.642440 0.542592 0.909821
O O11 0.635448 0.487019 0.253398
O O12 0.141566 0.750000 0.384511
O O13 0.141298 0.578442 0.407473
O O14 0.750000 0.659072 0.858532
O O15 0.500000 0.500000 0.500000
#
# Coordination Sequence:
#
# PCOD9447884 Si02
#       6
#     8   8   8   8   8   8
#     4   9  16  27  44  66  91 120 154 193 238 291
#     4  10  19  31  49  73 100 130 164 208 259 304
#     4   9  18  32  50  72  98 131 171 212 253 301
#     4   8  15  28  45  66  92 122 156 194 240 292
#     4  10  20  33  49  70  98 132 170 209 251 304
#     4   8  14  26  45  67  92 122 154 195 242 287
#
# _framework density 27.332483
#
# number of rings (size 3 to 8) (size 9 to 14) (size 15 to 20)
#    0.000    3.000    0.000    1.000    0.000    1.667 
#    0.000    0.833    0.000    9.000    0.000   26.833 
#    0.000   22.667    0.000    0.000    0.000    0.000 
#
# Total GULP energy -268339.712209 kJ/mol
# GULP energy per Si atom -5590.410671 kJ/mol
# Density = 2.727027 g / cm^3
# Si number density = 27.332483 Si / 1000 Ang^3
#
#
#
# Elastic Constant Matrix: (Units=GPa)
#
#
# Indices 1 2 3 4 5 6 
#
# 1 97.1958 47.3407 3.7395 0.0000 0.0000 0.0000
# 2 47.3407 302.8031 26.5541 0.0000 0.0000 0.0000
# 3 3.7395 26.5541 96.0381 0.0000 0.0000 0.0000
# 4 0.0000 0.0000 0.0000 14.3512 0.0000 0.0000
# 5 0.0000 0.0000 0.0000 0.0000 19.3489 0.0000
# 6 0.0000 0.0000 0.0000 0.0000 0.0000 65.0675
#
#
#
# Elastic Compliance Matrix: (Units=1/GPa)
#
#
# Indices 1 2 3 4 5 6 
#
# 1 0.011137 -0.001745 0.000049 0.000000 0.000000 0.000000
# 2 -0.001745 0.003658 -0.000943 0.000000 0.000000 0.000000
# 3 0.000049 -0.000943 0.010671 0.000000 0.000000 0.000000
# 4 0.000000 0.000000 0.000000 0.069681 0.000000 0.000000
# 5 0.000000 0.000000 0.000000 0.000000 0.051683 0.000000
# 6 0.000000 0.000000 0.000000 0.000000 0.000000 0.015369
#
#
# Mechanical properties :
#
#
# Convention : Reuss Voigt Hill
#
# Bulk Modulus (GPa) = 49.53818 72.36732 60.95275
# Shear Modulus (GPa) = 28.70152 47.64703 38.17428
#
# Velocity S-wave (km/s) = 3.24402 4.17974 3.74125
# Velocity P-wave (km/s) = 5.67408 7.05888 6.40402
#
# Compressibility (1/GPa) = 0.02018645
#
# Stress axis : x y z
#
# Youngs Moduli (GPa) = 89.79271 273.36613 93.70757
#
# Poissons Ratio (x) = 0.47714 -0.00459
# Poissons Ratio (y) = 0.15673 0.08841
# Poissons Ratio (z) = -0.00440 0.25792
#
# Static dielectric constant tensor:
#      x y z
#    x 1.762550 0.000000 0.000000 
#    y 0.000000 2.225950 0.000000 
#    z 0.000000 0.000000 2.229680 
# 
# From -- ./inp_files/9012.got.cif
#   From: 2010.05.17/outbox.cif.g08.bks.cpg/sg59_5_cif.got.tgz:9012.got - 2010.06.03 14:40:33.
