data_PCOD9447506
_publ_section_title
;
Structure prediction by ZEFSAII (Michael W. Deem and Ramdas Pophale) SiO2 
 PCOD9447506
Probable space group: P M M N
;
_chemical_formula_sum "Si O2"
_cell_formula_units_Z 64
_cell_length_a 26.288459
_cell_length_b 8.689631
_cell_length_c 17.687703
_cell_angle_alpha 90.000000
_cell_angle_beta 90.000000
_cell_angle_gamma 90.000000
_cell_volume 4040.525956
_symmetry_space_group_name_H-M "P M M N"
_symmetry_group_IT_number 59
_space_group.IT_coordinate_system_code '2'
_symmetry_cell_setting 'orthorhombic'
loop_
_space_group_symop_operation_xyz
x,y,z
1/2-x,1/2-y,z
1/2+x,-y,-z
-x,1/2+y,-z
-x,-y,-z
1/2+x,1/2+y,-z
1/2-x,y,z
x,1/2-y,z
loop_
_atom_site_type_symbol
_atom_site_label
_atom_site_fract_x
_atom_site_fract_y
_atom_site_fract_z
Si Si1 0.000049 0.564311 0.584503
Si Si2 0.557283 0.434525 0.003004
Si Si3 0.440317 0.565017 0.163359
Si Si4 0.402322 0.935981 0.684683
Si Si5 0.402080 0.064365 0.317500
Si Si6 0.059640 0.065969 0.839824
Si Si7 0.308078 0.935680 0.583560
Si Si8 0.807992 0.935861 0.582342
O O1 0.999622 0.750000 0.580526
O O2 0.950116 0.514513 0.631133
O O3 0.000000 0.500000 0.500000
O O4 0.050310 0.517923 0.631116
O O5 0.555563 0.250000 0.007409
O O6 0.579708 0.500771 0.080380
O O7 0.500000 0.500000 0.000000
O O8 0.579367 0.477473 0.920648
O O9 0.439283 0.750000 0.168769
O O10 0.410192 0.495169 0.233073
O O11 0.500017 0.517396 0.168831
O O12 0.403010 0.750000 0.690391
O O13 0.350015 0.983957 0.644399
O O14 0.410708 0.005165 0.767244
O O15 0.402458 0.250000 0.315919
O O16 0.350030 0.012987 0.357469
O O17 0.060479 0.250000 0.842736
O O18 0.250000 0.981845 0.601985
O O19 0.309514 0.750000 0.579031
O O20 0.320641 0.001623 0.500928
O O21 0.750000 0.983638 0.600276
O O22 0.809086 0.750000 0.579456
#
# Coordination Sequence:
#
# PCOD9447506 Si02
#       8
#     8   8   8   8   8   8   8   8
#     4  10  20  30  41  61  87 119 152 181 221 270
#     4   9  17  29  45  66  93 124 156 187 224 270
#     4   9  18  30  44  66  93 121 151 183 221 266
#     4  10  19  31  46  65  92 123 152 188 231 272
#     4  10  19  30  45  65  90 120 153 186 224 271
#     4  10  19  30  45  68  94 123 156 187 225 274
#     4   9  18  32  49  68  89 117 156 196 234 274
#     4   9  18  32  48  66  89 118 154 195 235 270
#
# _framework density 15.839523
#
# number of rings (size 3 to 8) (size 9 to 14) (size 15 to 20)
#    0.000    2.500    1.250    2.250    0.000    4.500 
#    0.000    0.000    0.000    0.000    0.000    0.875 
#    0.000    1.000    0.000    0.000    0.000    0.000 
#
# Total GULP energy -356737.604702 kJ/mol
# GULP energy per Si atom -5574.025073 kJ/mol
# Density = 1.580347 g / cm^3
# Si number density = 15.839523 Si / 1000 Ang^3
#
#
#
# Elastic Constant Matrix: (Units=GPa)
#
#
# Indices 1 2 3 4 5 6 
#
# 1 83.9558 23.0920 82.0010 0.0000 0.0000 0.0000
# 2 23.0920 13.4375 34.9065 0.0000 0.0000 0.0000
# 3 82.0010 34.9065 183.4544 0.0000 0.0000 0.0000
# 4 0.0000 0.0000 0.0000 32.4926 0.0000 0.0000
# 5 0.0000 0.0000 0.0000 0.0000 19.2410 0.0000
# 6 0.0000 0.0000 0.0000 0.0000 0.0000 7.8386
#
#
#
# Elastic Compliance Matrix: (Units=1/GPa)
#
#
# Indices 1 2 3 4 5 6 
#
# 1 0.025609 -0.028223 -0.006077 0.000000 0.000000 0.000000
# 2 -0.028223 0.178256 -0.021302 0.000000 0.000000 0.000000
# 3 -0.006077 -0.021302 0.012220 0.000000 0.000000 0.000000
# 4 0.000000 0.000000 0.000000 0.030776 0.000000 0.000000
# 5 0.000000 0.000000 0.000000 0.000000 0.051972 0.000000
# 6 0.000000 0.000000 0.000000 0.000000 0.000000 0.127574
#
#
# Mechanical properties :
#
#
# Convention : Reuss Voigt Hill
#
# Bulk Modulus (GPa) = 9.53455 62.31631 35.92543
# Shear Modulus (GPa) = 8.73252 21.30433 15.01842
#
# Velocity S-wave (km/s) = 2.35055 3.67142 3.08256
# Velocity P-wave (km/s) = 3.66051 7.57629 5.94977
#
# Compressibility (1/GPa) = 0.10488175
#
# Stress axis : x y z
#
# Youngs Moduli (GPa) = 39.04890 5.60990 81.83061
#
# Poissons Ratio (x) = 0.15833 0.49726
# Poissons Ratio (y) = 1.10208 1.74318
# Poissons Ratio (z) = 0.23729 0.11950
#
# Static dielectric constant tensor:
#      x y z
#    x 1.550120 0.000000 0.000000 
#    y 0.000000 1.532670 0.000000 
#    z 0.000000 0.000000 1.536730 
# 
# From -- ./inp_files/25106.got.cif
#   From: 2010.05.17/outbox.cif.g08.bks.cpg/sg59_13_cif.got.tgz:25106.got - 2010.06.03 14:40:33.
