data_PCOD9447053
_publ_section_title
;
Structure prediction by ZEFSAII (Michael W. Deem and Ramdas Pophale) SiO2 
 PCOD9447053
Probable space group: P M M N
;
_chemical_formula_sum "Si O2"
_cell_formula_units_Z 56
_cell_length_a 22.114158
_cell_length_b 19.206826
_cell_length_c 7.429658
_cell_angle_alpha 90.000000
_cell_angle_beta 90.000000
_cell_angle_gamma 90.000000
_cell_volume 3155.693629
_symmetry_space_group_name_H-M "P M M N"
_symmetry_group_IT_number 59
_space_group.IT_coordinate_system_code '2'
_symmetry_cell_setting 'orthorhombic'
loop_
_space_group_symop_operation_xyz
x,y,z
1/2-x,1/2-y,z
1/2+x,-y,-z
-x,1/2+y,-z
-x,-y,-z
1/2+x,1/2+y,-z
1/2-x,y,z
x,1/2-y,z
loop_
_atom_site_type_symbol
_atom_site_label
_atom_site_fract_x
_atom_site_fract_y
_atom_site_fract_z
Si Si1 0.049230 0.171338 0.852892
Si Si2 0.941157 0.419779 0.865389
Si Si3 0.681035 0.020121 0.926059
Si Si4 0.128706 0.457300 0.707541
Si Si5 0.058780 0.327111 0.288027
Si Si6 0.482061 0.954838 0.725788
Si Si7 0.817098 0.603865 0.637238
O O1 0.061911 0.250000 0.791818
O O2 0.092932 0.111867 0.774185
O O3 0.980327 0.147358 0.812837
O O4 0.057196 0.169773 0.069921
O O5 0.869044 0.424201 0.861524
O O6 0.968392 0.485166 0.756559
O O7 0.959781 0.434378 0.073381
O O8 0.750000 0.045240 0.925548
O O9 0.677027 0.953471 0.794438
O O10 0.661793 0.992163 0.122736
O O11 0.076811 0.510526 0.638681
O O12 0.173570 0.435881 0.550608
O O13 0.040136 0.250000 0.343887
O O14 0.127075 0.343732 0.344977
O O15 0.014281 0.387736 0.357128
O O16 0.750000 0.635140 0.647567
#
# Coordination Sequence:
#
# PCOD9447053 Si02
#       7
#     8   8   8   8   8   8   8
#     4   9  17  31  52  73  96 128 161 199 249 292
#     4   8  13  27  49  71  95 120 158 202 241 279
#     4  10  18  32  51  71  97 129 160 194 237 285
#     4  10  19  33  53  72  98 124 161 206 243 279
#     4  10  18  32  50  70 100 132 161 195 241 290
#     4   8  14  28  48  72  93 122 156 201 247 282
#     4  11  22  33  48  71  97 128 165 199 233 282
#
# _framework density 17.745701
#
# number of rings (size 3 to 8) (size 9 to 14) (size 15 to 20)
#    0.000    2.571    2.857    2.143    0.000    1.429 
#    0.000    0.000    0.000    1.714    0.000    0.000 
#    0.000    2.857    0.000    0.286    0.000    0.286 
#
# Total GULP energy -312275.933836 kJ/mol
# GULP energy per Si atom -5576.355961 kJ/mol
# Density = 1.770531 g / cm^3
# Si number density = 17.745701 Si / 1000 Ang^3
#
#
#
# Elastic Constant Matrix: (Units=GPa)
#
#
# Indices 1 2 3 4 5 6 
#
# 1 72.3335 -4.2599 -8.5472 0.0000 0.0000 0.0000
# 2 -4.2599 37.7202 -9.1336 0.0000 0.0000 0.0000
# 3 -8.5472 -9.1336 48.1540 0.0000 0.0000 0.0000
# 4 0.0000 0.0000 0.0000 1.4510 0.0000 0.0000
# 5 0.0000 0.0000 0.0000 0.0000 17.6317 0.0000
# 6 0.0000 0.0000 0.0000 0.0000 0.0000 19.6398
#
#
#
# Elastic Compliance Matrix: (Units=1/GPa)
#
#
# Indices 1 2 3 4 5 6 
#
# 1 0.014315 0.002339 0.002985 0.000000 0.000000 0.000000
# 2 0.002339 0.028170 0.005758 0.000000 0.000000 0.000000
# 3 0.002985 0.005758 0.022389 0.000000 0.000000 0.000000
# 4 0.000000 0.000000 0.000000 0.689174 0.000000 0.000000
# 5 0.000000 0.000000 0.000000 0.000000 0.056716 0.000000
# 6 0.000000 0.000000 0.000000 0.000000 0.000000 0.050917
#
#
# Mechanical properties :
#
#
# Convention : Reuss Voigt Hill
#
# Bulk Modulus (GPa) = 11.48922 12.70293 12.09607
# Shear Modulus (GPa) = 5.75686 19.75439 12.75562
#
# Velocity S-wave (km/s) = 1.80309 3.34007 2.68395
# Velocity P-wave (km/s) = 3.28987 4.69560 4.05413
#
# Compressibility (1/GPa) = 0.08703810
#
# Stress axis : x y z
#
# Youngs Moduli (GPa) = 69.85536 35.49937 44.66545
#
# Poissons Ratio (x) = -0.08305 -0.13331
# Poissons Ratio (y) = -0.16342 -0.25720
# Poissons Ratio (z) = -0.20849 -0.20441
#
# Static dielectric constant tensor:
#      x y z
#    x 1.609300 0.000000 0.000000 
#    y 0.000000 1.592410 0.000000 
#    z 0.000000 0.000000 1.648840 
# 
# From -- ./inp_files/11563.got.cif
#   From: 2010.05.17/outbox.cif.g08.bks.cpg/sg59_6_cif.got.tgz:11563.got - 2010.06.03 14:40:33.
