data_PCOD9447055
_publ_section_title
;
Structure prediction by ZEFSAII (Michael W. Deem and Ramdas Pophale) SiO2 
 PCOD9447055
Probable space group: P M M N
;
_chemical_formula_sum "Si O2"
_cell_formula_units_Z 52
_cell_length_a 7.602470
_cell_length_b 16.630534
_cell_length_c 20.013777
_cell_angle_alpha 90.000000
_cell_angle_beta 90.000000
_cell_angle_gamma 90.000000
_cell_volume 2530.404586
_symmetry_space_group_name_H-M "P M M N"
_symmetry_group_IT_number 59
_space_group.IT_coordinate_system_code '2'
_symmetry_cell_setting 'orthorhombic'
loop_
_space_group_symop_operation_xyz
x,y,z
1/2-x,1/2-y,z
1/2+x,-y,-z
-x,1/2+y,-z
-x,-y,-z
1/2+x,1/2+y,-z
1/2-x,y,z
x,1/2-y,z
loop_
_atom_site_type_symbol
_atom_site_label
_atom_site_fract_x
_atom_site_fract_y
_atom_site_fract_z
Si Si1 0.948270 0.750000 0.571638
Si Si2 0.002165 0.750000 0.716284
Si Si3 0.957992 0.426280 0.451070
Si Si4 0.960665 0.158996 0.923389
Si Si5 0.958173 0.088792 0.058553
Si Si6 0.465979 0.570953 0.701399
Si Si7 0.961322 0.750000 0.862539
Si Si8 0.460740 0.470795 0.828320
O O1 0.750000 0.750000 0.599476
O O2 0.067030 0.750000 0.638594
O O3 0.971194 0.835514 0.534717
O O4 0.064561 0.750000 0.792933
O O5 0.943948 0.843605 0.716629
O O6 0.750000 0.416674 0.451491
O O7 0.010882 0.449007 0.375122
O O8 0.000000 0.500000 0.500000
O O9 0.750000 0.162446 0.931767
O O10 0.028165 0.250000 0.929193
O O11 0.997895 0.118879 0.852054
O O12 0.031132 0.102961 0.984033
O O13 0.750000 0.072032 0.052251
O O14 0.985933 0.173190 0.095044
O O15 0.034829 0.025286 0.111058
O O16 0.250000 0.582787 0.705375
O O17 0.518132 0.505689 0.756944
O O18 0.750000 0.750000 0.848817
O O19 0.250000 0.479251 0.827866
#
# Coordination Sequence:
#
# PCOD9447055 Si02
#       8
#     4   4   8   8   8   8   4   8
#     4  10  20  35  56  85 119 152 186 224 273 332
#     4  10  18  32  50  78 117 146 173 210 265 326
#     4  10  20  36  59  87 118 152 189 228 273 329
#     4  10  21  37  54  71  97 136 178 222 274 325
#     4  10  20  36  54  71 100 140 176 211 265 329
#     4   9  18  32  55  83 110 144 182 215 258 320
#     4  12  22  29  46  79 111 136 170 216 263 310
#     4  10  20  34  55  80 102 132 176 222 265 314
#
# _framework density 20.550073000000001
#
# number of rings (size 3 to 8) (size 9 to 14) (size 15 to 20)
#    0.000    2.000    2.308    1.846    0.000    4.000 
#    0.000    1.538    1.692    0.000    0.000    0.000 
#    0.000    0.000    0.000    0.000    0.000    0.000 
#
# Total GULP energy -289516.904977 kJ/mol
# GULP energy per Si atom -5567.632788 kJ/mol
# Density = 2.050330 g / cm^3
# Si number density = 20.550073 Si / 1000 Ang^3
#
#
#
# Elastic Constant Matrix: (Units=GPa)
#
#
# Indices 1 2 3 4 5 6 
#
# 1 68.4278 8.0810 13.6262 0.0000 0.0000 0.0000
# 2 8.0810 91.6717 74.4366 0.0000 0.0000 0.0000
# 3 13.6262 74.4366 134.1291 0.0000 0.0000 0.0000
# 4 0.0000 0.0000 0.0000 47.9252 0.0000 0.0000
# 5 0.0000 0.0000 0.0000 0.0000 -146.9057 0.0000
# 6 0.0000 0.0000 0.0000 0.0000 0.0000 42.4518
#
#
#
# Elastic Compliance Matrix: (Units=1/GPa)
#
#
# Indices 1 2 3 4 5 6 
#
# 1 0.014917 -0.000154 -0.001430 0.000000 0.000000 0.000000
# 2 -0.000154 0.019858 -0.011005 0.000000 0.000000 0.000000
# 3 -0.001430 -0.011005 0.013708 0.000000 0.000000 0.000000
# 4 0.000000 0.000000 0.000000 0.020866 0.000000 0.000000
# 5 0.000000 0.000000 0.000000 0.000000 -0.006807 0.000000
# 6 0.000000 0.000000 0.000000 0.000000 0.000000 0.023556
#
#
# Mechanical properties :
#
#
# Convention : Reuss Voigt Hill
#
# Bulk Modulus (GPa) = 42.90815 54.05734 48.48275
# Shear Modulus (GPa) = 42.00165 1.89992 21.95078
#
# Velocity S-wave (km/s) = 4.52582 0.96257 3.27182
# Velocity P-wave (km/s) = 6.94521 5.25335 6.15766
#
# Compressibility (1/GPa) = 0.02330559
#
# Stress axis : x y z
#
# Youngs Moduli (GPa) = 67.03818 50.35823 72.95027
#
# Poissons Ratio (x) = 0.00774 0.10433
# Poissons Ratio (y) = 0.01030 0.80279
# Poissons Ratio (z) = 0.09587 0.55418
#
# Static dielectric constant tensor:
#      x y z
#    x 1.852370 0.000000 0.000000 
#    y 0.000000 1.788020 0.000000 
#    z 0.000000 0.000000 1.726480 
# 
# From -- ./inp_files/28949.got.cif
#   From: 2010.05.17/outbox.cif.g08.bks.cpg/sg59_15_cif.got.tgz:28949.got - 2010.06.03 14:40:33.
