data_PCOD9447589
_publ_section_title
;
Structure prediction by ZEFSAII (Michael W. Deem and Ramdas Pophale) SiO2 
 PCOD9447589
Probable space group: P M M N
;
_chemical_formula_sum "Si O2"
_cell_formula_units_Z 64
_cell_length_a 7.600841
_cell_length_b 18.505290
_cell_length_c 23.090643
_cell_angle_alpha 90.000000
_cell_angle_beta 90.000000
_cell_angle_gamma 90.000000
_cell_volume 3247.832101
_symmetry_space_group_name_H-M "P M M N"
_symmetry_group_IT_number 59
_space_group.IT_coordinate_system_code '2'
_symmetry_cell_setting 'orthorhombic'
loop_
_space_group_symop_operation_xyz
x,y,z
1/2-x,1/2-y,z
1/2+x,-y,-z
-x,1/2+y,-z
-x,-y,-z
1/2+x,1/2+y,-z
1/2-x,y,z
x,1/2-y,z
loop_
_atom_site_type_symbol
_atom_site_label
_atom_site_fract_x
_atom_site_fract_y
_atom_site_fract_z
Si Si1 0.961915 0.465784 0.860412
Si Si2 0.963337 0.987173 0.736472
Si Si3 0.038094 0.871651 0.579813
Si Si4 0.041676 0.470136 0.607913
Si Si5 0.042964 0.171924 0.291401
Si Si6 0.541652 0.672463 0.451637
Si Si7 0.539563 0.567336 0.957920
Si Si8 0.538520 0.831421 0.056120
O O1 0.750000 0.470070 0.859794
O O2 0.023445 0.472659 0.794491
O O3 0.026786 0.535932 0.896929
O O4 0.002889 0.391706 0.894593
O O5 0.750000 0.985136 0.736498
O O6 0.027798 0.903676 0.733743
O O7 0.017278 0.024998 0.676807
O O8 0.250000 0.870547 0.581576
O O9 0.974747 0.835388 0.639096
O O10 0.979350 0.836127 0.520450
O O11 0.972351 0.954667 0.581901
O O12 0.250000 0.470840 0.595813
O O13 0.965845 0.398080 0.579596
O O14 0.250000 0.173046 0.277140
O O15 0.967712 0.250000 0.273628
O O16 0.750000 0.673852 0.438846
O O17 0.466788 0.750000 0.433623
O O18 0.750000 0.576542 0.952332
O O19 0.500000 0.500000 0.000000
O O20 0.472539 0.635899 0.994477
O O21 0.750000 0.827747 0.052072
O O22 0.473441 0.750000 0.067507
#
# Coordination Sequence:
#
# PCOD9447589 Si02
#       8
#     8   8   8   8   8   8   8   8
#     4   9  17  30  48  69  93 123 157 190 226 269
#     4   9  18  32  49  68  90 119 156 191 222 263
#     4  10  19  30  47  70  92 114 144 183 226 275
#     4   9  19  34  49  66  89 119 153 186 224 270
#     4   9  17  30  47  66  90 119 148 181 224 272
#     4  10  20  33  48  66  89 116 146 183 228 276
#     4   8  14  26  44  65  90 118 146 178 219 265
#     4   9  17  29  46  70  97 123 154 192 230 267
#
# _framework density 19.705452000000001
#
# number of rings (size 3 to 8) (size 9 to 14) (size 15 to 20)
#    0.000    2.875    0.000    1.125    0.000    3.750 
#    0.000    1.250    0.000    6.000    0.000    0.000 
#    0.000    9.000    0.000    0.000    0.000    0.000 
#
# Total GULP energy -356577.710323 kJ/mol
# GULP energy per Si atom -5571.526724 kJ/mol
# Density = 1.966060 g / cm^3
# Si number density = 19.705452 Si / 1000 Ang^3
#
#
#
# Elastic Constant Matrix: (Units=GPa)
#
#
# Indices 1 2 3 4 5 6 
#
# 1 41.0793 0.4119 -15.1190 0.0000 0.0000 0.0000
# 2 0.4119 139.3953 47.8485 0.0000 0.0000 0.0000
# 3 -15.1190 47.8485 52.5639 0.0000 0.0000 0.0000
# 4 0.0000 0.0000 0.0000 20.0111 0.0000 0.0000
# 5 0.0000 0.0000 0.0000 0.0000 10.5376 0.0000
# 6 0.0000 0.0000 0.0000 0.0000 0.0000 8.3064
#
#
#
# Elastic Compliance Matrix: (Units=1/GPa)
#
#
# Indices 1 2 3 4 5 6 
#
# 1 0.028873 -0.004270 0.012192 0.000000 0.000000 0.000000
# 2 -0.004270 0.011066 -0.011301 0.000000 0.000000 0.000000
# 3 0.012192 -0.011301 0.032819 0.000000 0.000000 0.000000
# 4 0.000000 0.000000 0.000000 0.049972 0.000000 0.000000
# 5 0.000000 0.000000 0.000000 0.000000 0.094898 0.000000
# 6 0.000000 0.000000 0.000000 0.000000 0.000000 0.120389
#
#
# Mechanical properties :
#
#
# Convention : Reuss Voigt Hill
#
# Bulk Modulus (GPa) = 15.15183 33.25791 24.20487
# Shear Modulus (GPa) = 13.63230 21.09749 17.36489
#
# Velocity S-wave (km/s) = 2.63307 3.27562 2.97176
# Velocity P-wave (km/s) = 4.11703 5.58752 4.90766
#
# Compressibility (1/GPa) = 0.06599863
#
# Stress axis : x y z
#
# Youngs Moduli (GPa) = 34.63416 90.36913 30.47034
#
# Poissons Ratio (x) = 0.38591 -0.37150
# Poissons Ratio (y) = 0.14790 0.34436
# Poissons Ratio (z) = -0.42226 1.02129
#
# Static dielectric constant tensor:
#      x y z
#    x 1.740820 0.000000 0.000000 
#    y 0.000000 1.732980 0.000000 
#    z 0.000000 0.000000 1.674180 
# 
# From -- ./inp_files/31728.got.cif
#   From: 2010.05.17/outbox.cif.g08.bks.cpg/sg59_16_cif.got.tgz:31728.got - 2010.06.03 14:40:33.
