data_PCOD9447991
_publ_section_title
;
Structure prediction by ZEFSAII (Michael W. Deem and Ramdas Pophale) SiO2 
 PCOD9447991
Probable space group: P M M N
;
_chemical_formula_sum "Si O2"
_cell_formula_units_Z 64
_cell_length_a 14.385708
_cell_length_b 16.921828
_cell_length_c 13.404443
_cell_angle_alpha 90.000000
_cell_angle_beta 90.000000
_cell_angle_gamma 90.000000
_cell_volume 3263.076755
_symmetry_space_group_name_H-M "P M M N"
_symmetry_group_IT_number 59
_space_group.IT_coordinate_system_code '2'
_symmetry_cell_setting 'orthorhombic'
loop_
_space_group_symop_operation_xyz
x,y,z
1/2-x,1/2-y,z
1/2+x,-y,-z
-x,1/2+y,-z
-x,-y,-z
1/2+x,1/2+y,-z
1/2-x,y,z
x,1/2-y,z
loop_
_atom_site_type_symbol
_atom_site_label
_atom_site_fract_x
_atom_site_fract_y
_atom_site_fract_z
Si Si1 0.647204 0.881126 0.428266
Si Si2 0.023844 0.897771 0.313600
Si Si3 0.535210 0.031366 0.159358
Si Si4 0.151357 0.340736 0.342954
Si Si5 0.858859 0.435402 0.489240
Si Si6 0.860080 0.503870 0.966252
Si Si7 0.556225 0.155337 0.302824
Si Si8 0.858994 0.335875 0.865461
O O1 0.750000 0.870492 0.385208
O O2 0.564584 0.853145 0.359063
O O3 0.645929 0.842521 0.537218
O O4 0.631653 0.974538 0.450665
O O5 0.084823 0.924730 0.408472
O O6 0.084110 0.848634 0.235680
O O7 0.985444 0.971383 0.249605
O O8 0.586819 0.107810 0.204859
O O9 0.436058 0.047691 0.103911
O O10 0.602083 0.989892 0.078441
O O11 0.250000 0.380901 0.315184
O O12 0.155806 0.250000 0.309895
O O13 0.052607 0.370194 0.307317
O O14 0.750000 0.421039 0.507092
O O15 0.896098 0.377645 0.402730
O O16 0.750000 0.523333 0.954511
O O17 0.873863 0.411585 0.935439
O O18 0.564201 0.250000 0.297695
O O19 0.750000 0.336762 0.840568
O O20 0.881889 0.250000 0.910073
#
# Coordination Sequence:
#
# PCOD9447991 Si02
#       8
#     8   8   8   8   8   8   8   8
#     4  10  19  31  51  73 101 147 190 230 273 314
#     4  11  19  33  56  79 113 150 189 235 277 319
#     4  10  21  36  58  86 110 139 189 239 279 347
#     4   9  18  32  49  72 104 144 190 231 269 315
#     4  11  22  35  51  77 116 158 194 229 269 324
#     4   9  20  39  61  83 110 143 177 233 299 348
#     4  11  22  36  55  81 118 156 190 232 277 327
#     4   9  19  35  56  84 112 142 184 228 279 344
#
# _framework density 19.613392000000001
#
# number of rings (size 3 to 8) (size 9 to 14) (size 15 to 20)
#    0.000    2.000    2.500    1.500    0.000    3.750 
#    0.000    0.000    0.000    0.000    0.000    0.000 
#    0.000    0.000    0.000    0.000    0.000    0.000 
#
# Total GULP energy -356869.840050 kJ/mol
# GULP energy per Si atom -5576.091251 kJ/mol
# Density = 1.956875 g / cm^3
# Si number density = 19.613392 Si / 1000 Ang^3
#
#
#
# Elastic Constant Matrix: (Units=GPa)
#
#
# Indices 1 2 3 4 5 6 
#
# 1 75.5791 -3.3362 22.1567 0.0000 0.0000 0.0000
# 2 -3.3362 60.9593 14.2064 0.0000 0.0000 0.0000
# 3 22.1567 14.2064 84.9676 0.0000 0.0000 0.0000
# 4 0.0000 0.0000 0.0000 13.3140 0.0000 0.0000
# 5 0.0000 0.0000 0.0000 0.0000 10.2142 0.0000
# 6 0.0000 0.0000 0.0000 0.0000 0.0000 15.3948
#
#
#
# Elastic Compliance Matrix: (Units=1/GPa)
#
#
# Indices 1 2 3 4 5 6 
#
# 1 0.014502 0.001743 -0.004073 0.000000 0.000000 0.000000
# 2 0.001743 0.017279 -0.003343 0.000000 0.000000 0.000000
# 3 -0.004073 -0.003343 0.013390 0.000000 0.000000 0.000000
# 4 0.000000 0.000000 0.000000 0.075109 0.000000 0.000000
# 5 0.000000 0.000000 0.000000 0.000000 0.097903 0.000000
# 6 0.000000 0.000000 0.000000 0.000000 0.000000 0.064957
#
#
# Mechanical properties :
#
#
# Convention : Reuss Voigt Hill
#
# Bulk Modulus (GPa) = 29.56471 31.95108 30.75790
# Shear Modulus (GPa) = 16.35257 20.34988 18.35122
#
# Velocity S-wave (km/s) = 2.89060 3.22460 3.06215
# Velocity P-wave (km/s) = 5.12320 5.49453 5.31211
#
# Compressibility (1/GPa) = 0.03382411
#
# Stress axis : x y z
#
# Youngs Moduli (GPa) = 68.95519 57.87389 74.68077
#
# Poissons Ratio (x) = -0.10087 0.30418
# Poissons Ratio (y) = -0.12018 0.24969
# Poissons Ratio (z) = 0.28086 0.19350
#
# Static dielectric constant tensor:
#      x y z
#    x 1.730250 0.000000 0.000000 
#    y 0.000000 1.734730 0.000000 
#    z 0.000000 0.000000 1.673610 
# 
# From -- ./inp_files/17184.got.cif
#   From: 2010.05.17/outbox.cif.g08.bks.cpg/sg59_9_cif.got.tgz:17184.got - 2010.06.03 14:40:33.
