data_PCOD9447247
_publ_section_title
;
Structure prediction by ZEFSAII (Michael W. Deem and Ramdas Pophale) SiO2 
 PCOD9447247
Probable space group: P M M N
;
_chemical_formula_sum "Si O2"
_cell_formula_units_Z 48
_cell_length_a 7.450703
_cell_length_b 9.796113
_cell_length_c 29.221923
_cell_angle_alpha 90.000000
_cell_angle_beta 90.000000
_cell_angle_gamma 90.000000
_cell_volume 2132.847627
_symmetry_space_group_name_H-M "P M M N"
_symmetry_group_IT_number 59
_space_group.IT_coordinate_system_code '2'
_symmetry_cell_setting 'orthorhombic'
loop_
_space_group_symop_operation_xyz
x,y,z
1/2-x,1/2-y,z
1/2+x,-y,-z
-x,1/2+y,-z
-x,-y,-z
1/2+x,1/2+y,-z
1/2-x,y,z
x,1/2-y,z
loop_
_atom_site_type_symbol
_atom_site_label
_atom_site_fract_x
_atom_site_fract_y
_atom_site_fract_z
Si Si1 0.030261 0.591493 0.130476
Si Si2 0.541519 0.250000 0.422525
Si Si3 0.033480 0.250000 0.528702
Si Si4 0.464602 0.407870 0.044583
Si Si5 0.030215 0.461092 0.604601
Si Si6 0.466260 0.102724 0.706754
Si Si7 0.961176 0.904235 0.786585
O O1 0.250000 0.595375 0.130210
O O2 0.972047 0.750000 0.127933
O O3 0.971934 0.496977 0.087915
O O4 0.968547 0.511839 0.176002
O O5 0.750000 0.250000 0.408932
O O6 0.534659 0.250000 0.477381
O O7 0.463595 0.386876 0.402382
O O8 0.250000 0.250000 0.525571
O O9 0.975698 0.376685 0.560009
O O10 0.250000 0.397193 0.049276
O O11 0.531981 0.250000 0.042068
O O12 0.500000 0.500000 0.000000
O O13 0.250000 0.456074 0.604425
O O14 0.974409 0.407499 0.654046
O O15 0.250000 0.102869 0.706419
O O16 0.527046 0.250000 0.725835
O O17 0.521090 0.975493 0.737430
O O18 0.750000 0.892278 0.796523
O O19 0.035663 0.750000 0.788463
#
# Coordination Sequence:
#
# PCOD9447247 Si02
#       7
#     8   4   4   8   8   8   8
#     4   9  17  32  55  79 106 144 185 220 265 326
#     4  10  20  32  50  76 102 128 166 208 249 302
#     4  10  18  34  54  72  98 132 166 204 251 304
#     4  10  20  34  54  81 112 147 187 230 274 321
#     4   9  18  33  53  74  98 132 170 206 250 308
#     4  10  20  36  57  79 103 137 181 221 260 315
#     4  10  21  36  55  81 111 140 173 219 271 321
#
# _framework density 22.505123000000001
#
# number of rings (size 3 to 8) (size 9 to 14) (size 15 to 20)
#    0.000    2.333    0.833    2.000    1.167    4.333 
#    0.000    2.500    0.000    5.000    0.000    0.000 
#    0.000    0.000    0.000    0.000    0.000    0.000 
#
# Total GULP energy -268053.349563 kJ/mol
# GULP energy per Si atom -5584.444783 kJ/mol
# Density = 2.245390 g / cm^3
# Si number density = 22.505123 Si / 1000 Ang^3
#
#
#
# Elastic Constant Matrix: (Units=GPa)
#
#
# Indices 1 2 3 4 5 6 
#
# 1 66.5938 6.6414 -10.8526 0.0000 0.0000 0.0000
# 2 6.6414 227.7296 63.1563 0.0000 0.0000 0.0000
# 3 -10.8526 63.1563 98.5269 0.0000 0.0000 0.0000
# 4 0.0000 0.0000 0.0000 32.6133 0.0000 0.0000
# 5 0.0000 0.0000 0.0000 0.0000 18.1168 0.0000
# 6 0.0000 0.0000 0.0000 0.0000 0.0000 -18.6673
#
#
#
# Elastic Compliance Matrix: (Units=1/GPa)
#
#
# Indices 1 2 3 4 5 6 
#
# 1 0.015525 -0.001127 0.002433 0.000000 0.000000 0.000000
# 2 -0.001127 0.005422 -0.003600 0.000000 0.000000 0.000000
# 3 0.002433 -0.003600 0.012725 0.000000 0.000000 0.000000
# 4 0.000000 0.000000 0.000000 0.030662 0.000000 0.000000
# 5 0.000000 0.000000 0.000000 0.000000 0.055197 0.000000
# 6 0.000000 0.000000 0.000000 0.000000 0.000000 -0.053570
#
#
# Mechanical properties :
#
#
# Convention : Reuss Voigt Hill
#
# Bulk Modulus (GPa) = 34.38370 56.74893 45.56631
# Shear Modulus (GPa) = 62.30782 28.67290 45.49036
#
# Velocity S-wave (km/s) = 5.26746 3.57327 4.50080
# Velocity P-wave (km/s) = 7.23230 6.50347 6.87755
#
# Compressibility (1/GPa) = 0.02908355
#
# Stress axis : x y z
#
# Youngs Moduli (GPa) = 64.41089 184.41868 78.58477
#
# Poissons Ratio (x) = 0.20793 -0.19118
# Poissons Ratio (y) = 0.07262 0.28291
# Poissons Ratio (z) = -0.15670 0.66391
#
# Static dielectric constant tensor:
#      x y z
#    x 1.876660 0.000000 0.000000 
#    y 0.000000 1.721630 0.000000 
#    z 0.000000 0.000000 1.779540 
# 
# From -- ./inp_files/32986.got.cif
#   From: 2010.05.17/outbox.cif.g08.bks.cpg/sg59_17_cif.got.tgz:32986.got - 2010.06.03 14:40:33.
