data_PCOD9447672
_publ_section_title
;
Structure prediction by ZEFSAII (Michael W. Deem and Ramdas Pophale) SiO2 
 PCOD9447672
Probable space group: P M M N
;
_chemical_formula_sum "Si O2"
_cell_formula_units_Z 48
_cell_length_a 21.040633
_cell_length_b 8.820464
_cell_length_c 15.303962
_cell_angle_alpha 90.000000
_cell_angle_beta 90.000000
_cell_angle_gamma 90.000000
_cell_volume 2840.233933
_symmetry_space_group_name_H-M "P M M N"
_symmetry_group_IT_number 59
_space_group.IT_coordinate_system_code '2'
_symmetry_cell_setting 'orthorhombic'
loop_
_space_group_symop_operation_xyz
x,y,z
1/2-x,1/2-y,z
1/2+x,-y,-z
-x,1/2+y,-z
-x,-y,-z
1/2+x,1/2+y,-z
1/2-x,y,z
x,1/2-y,z
loop_
_atom_site_type_symbol
_atom_site_label
_atom_site_fract_x
_atom_site_fract_y
_atom_site_fract_z
Si Si1 0.948367 0.569597 0.432650
Si Si2 0.679198 0.430024 0.506396
Si Si3 0.345311 0.425355 0.310338
Si Si4 0.960254 0.067987 0.920527
Si Si5 0.507131 0.926175 0.734622
Si Si6 0.819168 0.432227 0.876599
O O1 0.953794 0.750000 0.436559
O O2 0.878382 0.516944 0.460884
O O3 0.963580 0.509673 0.335710
O O4 0.000000 0.500000 0.500000
O O5 0.750000 0.467304 0.472959
O O6 0.669291 0.250000 0.498157
O O7 0.676751 0.476642 0.608093
O O8 0.326379 0.250000 0.320822
O O9 0.421787 0.430504 0.305407
O O10 0.322080 0.491321 0.218507
O O11 0.964173 0.250000 0.921339
O O12 0.885005 0.024356 0.924152
O O13 0.987286 0.005188 0.828755
O O14 0.000000 0.000000 0.000000
O O15 0.488905 0.750000 0.744643
O O16 0.750000 0.470011 0.916832
O O17 0.821525 0.250000 0.865725
#
# Coordination Sequence:
#
# PCOD9447672 Si02
#       6
#     8   8   8   8   8   8
#     4  12  23  36  56  80 108 144 186 229 270 321
#     4  11  23  36  51  73 106 147 187 228 274 324
#     4  10  19  30  48  75 107 141 175 215 264 320
#     4  10  20  35  56  81 109 140 177 223 273 327
#     4  10  20  35  55  80 108 141 180 224 270 323
#     4   9  18  32  50  73 104 140 174 211 261 323
#
# _framework density 16.900016000000001
#
# number of rings (size 3 to 8) (size 9 to 14) (size 15 to 20)
#    0.000    1.667    1.667    4.000    0.000    5.667 
#    0.000    0.000    0.000    1.000    0.000    2.333 
#    0.000    0.000    0.000    0.000    0.000    0.000 
#
# Total GULP energy -267944.672095 kJ/mol
# GULP energy per Si atom -5582.180669 kJ/mol
# Density = 1.686155 g / cm^3
# Si number density = 16.900016 Si / 1000 Ang^3
#
#
#
# Elastic Constant Matrix: (Units=GPa)
#
#
# Indices 1 2 3 4 5 6 
#
# 1 132.0729 61.9539 68.3834 0.0000 0.0000 0.0000
# 2 61.9539 95.3549 45.5810 0.0000 0.0000 0.0000
# 3 68.3834 45.5810 88.4099 0.0000 0.0000 0.0000
# 4 0.0000 0.0000 0.0000 30.0448 0.0000 0.0000
# 5 0.0000 0.0000 0.0000 0.0000 15.5928 0.0000
# 6 0.0000 0.0000 0.0000 0.0000 0.0000 23.7406
#
#
#
# Elastic Compliance Matrix: (Units=1/GPa)
#
#
# Indices 1 2 3 4 5 6 
#
# 1 0.014438 -0.005365 -0.008402 0.000000 0.000000 0.000000
# 2 -0.005365 0.015910 -0.004053 0.000000 0.000000 0.000000
# 3 -0.008402 -0.004053 0.019899 0.000000 0.000000 0.000000
# 4 0.000000 0.000000 0.000000 0.033284 0.000000 0.000000
# 5 0.000000 0.000000 0.000000 0.000000 0.064132 0.000000
# 6 0.000000 0.000000 0.000000 0.000000 0.000000 0.042122
#
#
# Mechanical properties :
#
#
# Convention : Reuss Voigt Hill
#
# Bulk Modulus (GPa) = 68.45471 74.18603 71.32037
# Shear Modulus (GPa) = 21.71130 23.20361 22.45745
#
# Velocity S-wave (km/s) = 3.58815 3.70941 3.64928
# Velocity P-wave (km/s) = 7.60000 7.89548 7.74915
#
# Compressibility (1/GPa) = 0.01460820
#
# Stress axis : x y z
#
# Youngs Moduli (GPa) = 69.25995 62.85297 50.25261
#
# Poissons Ratio (x) = 0.33718 0.42222
# Poissons Ratio (y) = 0.37155 0.20369
# Poissons Ratio (z) = 0.58192 0.25476
#
# Static dielectric constant tensor:
#      x y z
#    x 1.609470 0.000000 0.000000 
#    y 0.000000 1.564290 0.000000 
#    z 0.000000 0.000000 1.533320 
# 
# From -- ./inp_files/20437.got.cif
#   From: 2010.05.17/outbox.cif.g08.bks.cpg/sg59_11_cif.got.tgz:20437.got - 2010.06.03 14:40:33.
