data_PCOD9447984
_publ_section_title
;
Structure prediction by ZEFSAII (Michael W. Deem and Ramdas Pophale) SiO2 
 PCOD9447984
Probable space group: P M M N
;
_chemical_formula_sum "Si O2"
_cell_formula_units_Z 64
_cell_length_a 7.476467
_cell_length_b 20.340551
_cell_length_c 19.255295
_cell_angle_alpha 90.000000
_cell_angle_beta 90.000000
_cell_angle_gamma 90.000000
_cell_volume 2928.257812
_symmetry_space_group_name_H-M "P M M N"
_symmetry_group_IT_number 59
_space_group.IT_coordinate_system_code '2'
_symmetry_cell_setting 'orthorhombic'
loop_
_space_group_symop_operation_xyz
x,y,z
1/2-x,1/2-y,z
1/2+x,-y,-z
-x,1/2+y,-z
-x,-y,-z
1/2+x,1/2+y,-z
1/2-x,y,z
x,1/2-y,z
loop_
_atom_site_type_symbol
_atom_site_label
_atom_site_fract_x
_atom_site_fract_y
_atom_site_fract_z
Si Si1 0.537075 0.946091 0.939975
Si Si2 0.965979 0.819814 0.324693
Si Si3 0.531238 0.822243 0.023605
Si Si4 0.952322 0.069880 0.573026
Si Si5 0.542257 0.494090 0.210802
Si Si6 0.969397 0.326925 0.456627
Si Si7 0.468144 0.138262 0.823483
Si Si8 0.959269 0.435534 0.353419
O O1 0.750000 0.943894 0.931814
O O2 0.470207 0.878285 0.972026
O O3 0.462678 0.958543 0.863424
O O4 0.500000 0.000000 0.000000
O O5 0.750000 0.823980 0.330464
O O6 0.023652 0.750000 0.357057
O O7 0.012405 0.819878 0.243765
O O8 0.043034 0.884922 0.358553
O O9 0.750000 0.824295 0.024517
O O10 0.475951 0.750000 0.002457
O O11 0.471052 0.836955 0.102080
O O12 0.750000 0.056347 0.550514
O O13 0.030103 0.122533 0.517727
O O14 0.027569 0.998540 0.594162
O O15 0.750000 0.506465 0.229425
O O16 0.464543 0.565378 0.193395
O O17 0.464813 0.457640 0.278449
O O18 0.750000 0.325359 0.459654
O O19 0.026475 0.250000 0.460726
O O20 0.027684 0.368383 0.388553
O O21 0.250000 0.136877 0.827743
O O22 0.750000 0.422609 0.343037
#
# Coordination Sequence:
#
# PCOD9447984 Si02
#       8
#     8   8   8   8   8   8   8   8
#     4  11  21  34  55  81 108 140 178 221 266 317
#     4  10  19  31  50  77 109 146 185 220 259 318
#     4   9  17  30  50  75 100 132 174 213 254 309
#     4  11  21  33  53  81 114 145 176 223 280 333
#     4  10  19  34  55  80 107 138 179 225 271 318
#     4   9  19  36  57  81 108 143 186 229 279 334
#     4   9  15  28  49  74 104 134 172 218 259 308
#     4  10  20  37  60  80 105 142 187 233 269 323
#
# _framework density 21.855999000000001
#
# number of rings (size 3 to 8) (size 9 to 14) (size 15 to 20)
#    0.000    2.125    2.500    1.875    0.000    2.750 
#    0.000    1.250    0.000    4.125    0.000    0.000 
#    0.000    0.000    0.000    0.000    0.000    0.000 
#
# Total GULP energy -357070.001439 kJ/mol
# GULP energy per Si atom -5579.218772 kJ/mol
# Density = 2.180625 g / cm^3
# Si number density = 21.855999 Si / 1000 Ang^3
#
#
#
# Elastic Constant Matrix: (Units=GPa)
#
#
# Indices 1 2 3 4 5 6 
#
# 1 58.7053 -9.0294 -7.6813 0.0000 0.0000 0.0000
# 2 -9.0294 159.3457 78.1087 0.0000 0.0000 0.0000
# 3 -7.6813 78.1087 104.0694 0.0000 0.0000 0.0000
# 4 0.0000 0.0000 0.0000 25.6874 0.0000 0.0000
# 5 0.0000 0.0000 0.0000 0.0000 7.8305 0.0000
# 6 0.0000 0.0000 0.0000 0.0000 0.0000 0.7998
#
#
#
# Elastic Compliance Matrix: (Units=1/GPa)
#
#
# Indices 1 2 3 4 5 6 
#
# 1 0.017232 0.000558 0.000853 0.000000 0.000000 0.000000
# 2 0.000558 0.009946 -0.007424 0.000000 0.000000 0.000000
# 3 0.000853 -0.007424 0.015244 0.000000 0.000000 0.000000
# 4 0.000000 0.000000 0.000000 0.038930 0.000000 0.000000
# 5 0.000000 0.000000 0.000000 0.000000 0.127706 0.000000
# 6 0.000000 0.000000 0.000000 0.000000 0.000000 1.250302
#
#
# Mechanical properties :
#
#
# Convention : Reuss Voigt Hill
#
# Bulk Modulus (GPa) = 32.89863 49.43514 41.16689
# Shear Modulus (GPa) = 3.37492 24.24503 13.80997
#
# Velocity S-wave (km/s) = 1.24399 3.33424 2.51641
# Velocity P-wave (km/s) = 4.14107 6.12295 5.22681
#
# Compressibility (1/GPa) = 0.03039640
#
# Stress axis : x y z
#
# Youngs Moduli (GPa) = 58.03258 100.53840 65.59972
#
# Poissons Ratio (x) = -0.05615 -0.05594
# Poissons Ratio (y) = -0.03241 0.48701
# Poissons Ratio (z) = -0.04948 0.74640
#
# Static dielectric constant tensor:
#      x y z
#    x 1.865400 0.000000 0.000000 
#    y 0.000000 1.802430 0.000000 
#    z 0.000000 0.000000 1.829710 
# 
# From -- ./inp_files/26248.got.cif
#   From: 2010.05.17/outbox.cif.g08.bks.cpg/sg59_14_cif.got.tgz:26248.got - 2010.06.03 14:40:33.
