data_PCOD9447385
_publ_section_title
;
Structure prediction by ZEFSAII (Michael W. Deem and Ramdas Pophale) SiO2 
 PCOD9447385
Probable space group: P M M N
;
_chemical_formula_sum "Si O2"
_cell_formula_units_Z 56
_cell_length_a 7.439326
_cell_length_b 14.462260
_cell_length_c 21.261559
_cell_angle_alpha 90.000000
_cell_angle_beta 90.000000
_cell_angle_gamma 90.000000
_cell_volume 2287.519797
_symmetry_space_group_name_H-M "P M M N"
_symmetry_group_IT_number 59
_space_group.IT_coordinate_system_code '2'
_symmetry_cell_setting 'orthorhombic'
loop_
_space_group_symop_operation_xyz
x,y,z
1/2-x,1/2-y,z
1/2+x,-y,-z
-x,1/2+y,-z
-x,-y,-z
1/2+x,1/2+y,-z
1/2-x,y,z
x,1/2-y,z
loop_
_atom_site_type_symbol
_atom_site_label
_atom_site_fract_x
_atom_site_fract_y
_atom_site_fract_z
Si Si1 0.464033 0.894680 0.519416
Si Si2 0.960533 0.439628 0.346742
Si Si3 0.969134 0.894324 0.055362
Si Si4 0.455143 0.390915 0.078778
Si Si5 0.538837 0.945996 0.791761
Si Si6 0.032751 0.848823 0.383737
Si Si7 0.958433 0.348172 0.806106
O O1 0.250000 0.876205 0.522483
O O2 0.531128 0.846268 0.456443
O O3 0.500000 0.000000 0.500000
O O4 0.535775 0.889213 0.590647
O O5 0.750000 0.421784 0.346705
O O6 0.027950 0.408974 0.278696
O O7 0.982887 0.551393 0.355116
O O8 0.750000 0.895197 0.055149
O O9 0.033533 0.846078 0.118289
O O10 0.031402 0.856039 0.987732
O O11 0.039032 0.998781 0.065262
O O12 0.250000 0.356996 0.081596
O O13 0.534778 0.386561 0.149298
O O14 0.750000 0.956818 0.807027
O O15 0.461865 0.051065 0.789994
O O16 0.250000 0.850348 0.383694
O O17 0.977179 0.750000 0.354927
O O18 0.750000 0.349660 0.784487
O O19 0.037231 0.250000 0.784685
#
# Coordination Sequence:
#
# PCOD9447385 Si02
#       7
#     8   8   8   8   8   8   8
#     4   8  15  28  44  62  84 108 136 172 212 250
#     4  10  19  29  42  63  91 116 138 172 217 255
#     4   9  15  24  41  62  80  99 130 173 213 243
#     4   8  15  27  41  58  80 104 131 166 207 246
#     4   9  17  29  43  59  82 114 148 172 195 241
#     4   9  17  30  48  66  83 109 145 176 204 249
#     4   9  18  31  43  56  80 114 145 171 204 248
#
# _framework density 24.480661000000001
#
# number of rings (size 3 to 8) (size 9 to 14) (size 15 to 20)
#    0.000    3.143    0.000    1.714    0.000    4.571 
#    0.000    1.429    0.000    0.000    0.000    1.000 
#    0.000    3.429    0.000    0.000    0.000    0.000 
#
# Total GULP energy -311815.436335 kJ/mol
# GULP energy per Si atom -5568.132792 kJ/mol
# Density = 2.442494 g / cm^3
# Si number density = 24.480661 Si / 1000 Ang^3
#
#
#
# Elastic Constant Matrix: (Units=GPa)
#
#
# Indices 1 2 3 4 5 6 
#
# 1 88.3970 -5.9348 -4.5091 0.0000 0.0000 0.0000
# 2 -5.9348 41.9278 0.4667 0.0000 0.0000 0.0000
# 3 -4.5091 0.4667 232.3979 0.0000 0.0000 0.0000
# 4 0.0000 0.0000 0.0000 -28.5308 0.0000 0.0000
# 5 0.0000 0.0000 0.0000 0.0000 22.3556 0.0000
# 6 0.0000 0.0000 0.0000 0.0000 0.0000 -8.9103
#
#
#
# Elastic Compliance Matrix: (Units=1/GPa)
#
#
# Indices 1 2 3 4 5 6 
#
# 1 0.011432 0.001616 0.000219 0.000000 0.000000 0.000000
# 2 0.001616 0.024079 -0.000017 0.000000 0.000000 0.000000
# 3 0.000219 -0.000017 0.004307 0.000000 0.000000 0.000000
# 4 0.000000 0.000000 0.000000 -0.035050 0.000000 0.000000
# 5 0.000000 0.000000 0.000000 0.000000 0.044732 0.000000
# 6 0.000000 0.000000 0.000000 0.000000 0.000000 -0.112230
#
#
# Mechanical properties :
#
#
# Convention : Reuss Voigt Hill
#
# Bulk Modulus (GPa) = 23.01304 38.08535 30.54920
# Shear Modulus (GPa) = -96.37701 21.82955 -37.27373
#
# Velocity S-wave (km/s) = -6.28125 2.98938 -3.90626
# Velocity P-wave (km/s) = 6.57150 5.24465 2.79984
#
# Compressibility (1/GPa) = 0.04345362
#
# Stress axis : x y z
#
# Youngs Moduli (GPa) = 87.47198 41.52920 232.16720
#
# Poissons Ratio (x) = -0.06710 -0.05074
# Poissons Ratio (y) = -0.14134 0.00395
# Poissons Ratio (z) = -0.01912 0.00071
#
# Static dielectric constant tensor:
#      x y z
#    x 1.946710 0.000000 0.000000 
#    y 0.000000 1.961760 0.000000 
#    z 0.000000 0.000000 2.021630 
# 
# From -- ./inp_files/29633.got.cif
#   From: 2010.05.17/outbox.cif.g08.bks.cpg/sg59_15_cif.got.tgz:29633.got - 2010.06.03 14:40:33.
