data_PCOD9447935
_publ_section_title
;
Structure prediction by ZEFSAII (Michael W. Deem and Ramdas Pophale) SiO2 
 PCOD9447935
Probable space group: P M M N
;
_chemical_formula_sum "Si O2"
_cell_formula_units_Z 56
_cell_length_a 20.442514
_cell_length_b 7.570498
_cell_length_c 17.877102
_cell_angle_alpha 90.000000
_cell_angle_beta 90.000000
_cell_angle_gamma 90.000000
_cell_volume 2766.660508
_symmetry_space_group_name_H-M "P M M N"
_symmetry_group_IT_number 59
_space_group.IT_coordinate_system_code '2'
_symmetry_cell_setting 'orthorhombic'
loop_
_space_group_symop_operation_xyz
x,y,z
1/2-x,1/2-y,z
1/2+x,-y,-z
-x,1/2+y,-z
-x,-y,-z
1/2+x,1/2+y,-z
1/2-x,y,z
x,1/2-y,z
loop_
_atom_site_type_symbol
_atom_site_label
_atom_site_fract_x
_atom_site_fract_y
_atom_site_fract_z
Si Si1 0.463028 0.544009 0.099842
Si Si2 0.824578 0.465508 0.454689
Si Si3 0.176380 0.963026 0.374589
Si Si4 0.603066 0.451666 0.044943
Si Si5 0.676167 0.033703 0.185599
Si Si6 0.916830 0.465825 0.321503
Si Si7 0.556458 0.542692 0.732152
O O1 0.474252 0.750000 0.081330
O O2 0.533137 0.453460 0.087898
O O3 0.439187 0.532917 0.184415
O O4 0.413222 0.472315 0.036791
O O5 0.750000 0.517703 0.434412
O O6 0.824989 0.250000 0.453968
O O7 0.837411 0.521608 0.540090
O O8 0.878571 0.525715 0.395549
O O9 0.250000 0.022678 0.354726
O O10 0.177396 0.750000 0.375808
O O11 0.120597 0.016829 0.317262
O O12 0.624726 0.250000 0.032399
O O13 0.653325 0.531338 0.104131
O O14 0.750000 0.981399 0.203364
O O15 0.674268 0.250000 0.184267
O O16 0.625422 0.979432 0.249413
O O17 0.916846 0.250000 0.323927
O O18 0.991358 0.525656 0.309962
O O19 0.546130 0.750000 0.743430
#
# Coordination Sequence:
#
# PCOD9447935 Si02
#       7
#     8   8   8   8   8   8   8
#     4  10  19  31  50  72  99 135 172 210 256 304
#     4   8  14  27  48  73 101 133 168 206 250 300
#     4   9  19  36  55  74  98 129 168 213 257 306
#     4   9  17  31  49  73 100 129 172 215 252 299
#     4   9  15  25  45  73 104 133 163 205 251 294
#     4   9  16  26  44  74 106 132 164 204 247 297
#     4  11  21  33  51  76 106 133 166 214 257 303
#
# _framework density 20.241008000000001
#
# number of rings (size 3 to 8) (size 9 to 14) (size 15 to 20)
#    0.000    2.714    1.429    2.143    0.000    3.143 
#    0.000    0.714    0.000    3.857    0.000    0.000 
#    0.000    0.000    0.000    0.000    0.000    0.000 
#
# Total GULP energy -312372.769945 kJ/mol
# GULP energy per Si atom -5578.085178 kJ/mol
# Density = 2.019494 g / cm^3
# Si number density = 20.241008 Si / 1000 Ang^3
#
#
#
# Elastic Constant Matrix: (Units=GPa)
#
#
# Indices 1 2 3 4 5 6 
#
# 1 123.2247 -4.3845 83.7872 0.0000 0.0000 0.0000
# 2 -4.3845 48.9520 -3.6686 0.0000 0.0000 0.0000
# 3 83.7872 -3.6686 138.7658 0.0000 0.0000 0.0000
# 4 0.0000 0.0000 0.0000 3.0234 0.0000 0.0000
# 5 0.0000 0.0000 0.0000 0.0000 32.9765 0.0000
# 6 0.0000 0.0000 0.0000 0.0000 0.0000 11.8365
#
#
#
# Elastic Compliance Matrix: (Units=1/GPa)
#
#
# Indices 1 2 3 4 5 6 
#
# 1 0.013786 0.000612 -0.008308 0.000000 0.000000 0.000000
# 2 0.000612 0.020496 0.000172 0.000000 0.000000 0.000000
# 3 -0.008308 0.000172 0.012227 0.000000 0.000000 0.000000
# 4 0.000000 0.000000 0.000000 0.330757 0.000000 0.000000
# 5 0.000000 0.000000 0.000000 0.000000 0.030325 0.000000
# 6 0.000000 0.000000 0.000000 0.000000 0.000000 0.084485
#
#
# Mechanical properties :
#
#
# Convention : Reuss Voigt Hill
#
# Bulk Modulus (GPa) = 31.78412 51.37896 41.58154
# Shear Modulus (GPa) = 9.65980 25.24783 17.45381
#
# Velocity S-wave (km/s) = 2.18695 3.53563 2.93968
# Velocity P-wave (km/s) = 4.70254 6.48894 5.66658
#
# Compressibility (1/GPa) = 0.03146226
#
# Stress axis : x y z
#
# Youngs Moduli (GPa) = 72.53746 48.79022 81.78468
#
# Poissons Ratio (x) = -0.02987 0.67945
# Poissons Ratio (y) = -0.04441 -0.01409
# Poissons Ratio (z) = 0.60263 -0.00840
#
# Static dielectric constant tensor:
#      x y z
#    x 1.691940 0.000000 0.000000 
#    y 0.000000 1.797590 0.000000 
#    z 0.000000 0.000000 1.711510 
# 
# From -- ./inp_files/28051.got.cif
#   From: 2010.05.17/outbox.cif.g08.bks.cpg/sg59_15_cif.got.tgz:28051.got - 2010.06.03 14:40:33.
