data_PCOD9447964
_publ_section_title
;
Structure prediction by ZEFSAII (Michael W. Deem and Ramdas Pophale) SiO2 
 PCOD9447964
Probable space group: P M M N
;
_chemical_formula_sum "Si O2"
_cell_formula_units_Z 48
_cell_length_a 9.236190
_cell_length_b 31.654723
_cell_length_c 9.648194
_cell_angle_alpha 90.000000
_cell_angle_beta 90.000000
_cell_angle_gamma 90.000000
_cell_volume 2820.833179
_symmetry_space_group_name_H-M "P M M N"
_symmetry_group_IT_number 59
_space_group.IT_coordinate_system_code '2'
_symmetry_cell_setting 'orthorhombic'
loop_
_space_group_symop_operation_xyz
x,y,z
1/2-x,1/2-y,z
1/2+x,-y,-z
-x,1/2+y,-z
-x,-y,-z
1/2+x,1/2+y,-z
1/2-x,y,z
x,1/2-y,z
loop_
_atom_site_type_symbol
_atom_site_label
_atom_site_fract_x
_atom_site_fract_y
_atom_site_fract_z
Si Si1 0.077935 0.700942 0.672423
Si Si2 0.916452 0.039910 0.825520
Si Si3 0.578097 0.869976 0.849319
Si Si4 0.578684 0.875094 0.178565
Si Si5 0.577496 0.798130 0.378786
Si Si6 0.583053 0.044130 0.163047
O O1 0.250000 0.693409 0.671766
O O2 0.052929 0.750000 0.711883
O O3 0.997936 0.668876 0.773909
O O4 0.011845 0.695428 0.519109
O O5 0.750000 0.036705 0.781383
O O6 0.989625 0.083488 0.778709
O O7 0.917811 0.041418 0.994399
O O8 0.006852 0.998514 0.784872
O O9 0.750000 0.870302 0.823532
O O10 0.506246 0.913943 0.800777
O O11 0.554979 0.867184 0.015139
O O12 0.750000 0.883731 0.196205
O O13 0.540922 0.833800 0.266973
O O14 0.750000 0.801375 0.408596
O O15 0.550852 0.750000 0.329283
O O16 0.750000 0.046993 0.207069
#
# Coordination Sequence:
#
# PCOD9447964 Si02
#       6
#     8   8   8   8   8   8
#     4  10  21  36  52  71  97 130 167 204 244 293
#     4   9  16  26  43  68  98 131 165 199 238 287
#     4  10  19  31  50  76 103 130 163 203 246 291
#     4   9  18  31  49  75 103 129 161 203 248 291
#     4   9  18  34  54  73  95 127 166 204 243 291
#     4   9  16  27  44  67  98 132 164 200 241 285
#
# _framework density 17.016249999999999
#
# number of rings (size 3 to 8) (size 9 to 14) (size 15 to 20)
#    0.000    2.667    0.000    2.000    0.000    7.000 
#    0.000    1.667    0.000    3.000    0.000    0.000 
#    0.000    0.000    0.000    0.000    0.000    0.000 
#
# Total GULP energy -267624.599239 kJ/mol
# GULP energy per Si atom -5575.512484 kJ/mol
# Density = 1.697752 g / cm^3
# Si number density = 17.016250 Si / 1000 Ang^3
#
#
#
# Elastic Constant Matrix: (Units=GPa)
#
#
# Indices 1 2 3 4 5 6 
#
# 1 122.6034 114.0659 49.1074 0.0000 0.0000 0.0000
# 2 114.0659 175.7154 62.2369 0.0000 0.0000 0.0000
# 3 49.1074 62.2369 29.0366 0.0000 0.0000 0.0000
# 4 0.0000 0.0000 0.0000 -13.0770 0.0000 0.0000
# 5 0.0000 0.0000 0.0000 0.0000 17.0610 0.0000
# 6 0.0000 0.0000 0.0000 0.0000 0.0000 31.4521
#
#
#
# Elastic Compliance Matrix: (Units=1/GPa)
#
#
# Indices 1 2 3 4 5 6 
#
# 1 0.026513 -0.005519 -0.033008 0.000000 0.000000 0.000000
# 2 -0.005519 0.024780 -0.043779 0.000000 0.000000 0.000000
# 3 -0.033008 -0.043779 0.184099 0.000000 0.000000 0.000000
# 4 0.000000 0.000000 0.000000 -0.076470 0.000000 0.000000
# 5 0.000000 0.000000 0.000000 0.000000 0.058613 0.000000
# 6 0.000000 0.000000 0.000000 0.000000 0.000000 0.031794
#
#
# Mechanical properties :
#
#
# Convention : Reuss Voigt Hill
#
# Bulk Modulus (GPa) = 14.12859 86.46398 50.29629
# Shear Modulus (GPa) = 11.42764 13.88355 12.65559
#
# Velocity S-wave (km/s) = 2.59428 2.85949 2.73011
# Velocity P-wave (km/s) = 4.15870 7.86290 6.28967
#
# Compressibility (1/GPa) = 0.07077845
#
# Stress axis : x y z
#
# Youngs Moduli (GPa) = 37.71801 40.35513 5.43185
#
# Poissons Ratio (x) = 0.22273 0.17930
# Poissons Ratio (y) = 0.20818 0.23780
# Poissons Ratio (z) = 1.24501 1.76670
#
# Static dielectric constant tensor:
#      x y z
#    x 1.568490 0.000000 0.000000 
#    y 0.000000 1.564350 0.000000 
#    z 0.000000 0.000000 1.548080 
# 
# From -- ./inp_files/6182.got.cif
#   From: 2010.05.17/outbox.cif.g08.bks.cpg/sg59_4_cif.got.tgz:6182.got - 2010.06.03 14:40:33.
