data_PCOD9447035
_publ_section_title
;
Structure prediction by ZEFSAII (Michael W. Deem and Ramdas Pophale) SiO2 
 PCOD9447035
Probable space group: P M M N
;
_chemical_formula_sum "Si O2"
_cell_formula_units_Z 48
_cell_length_a 21.070257
_cell_length_b 8.546462
_cell_length_c 14.898347
_cell_angle_alpha 90.000000
_cell_angle_beta 90.000000
_cell_angle_gamma 90.000000
_cell_volume 2682.836981
_symmetry_space_group_name_H-M "P M M N"
_symmetry_group_IT_number 59
_space_group.IT_coordinate_system_code '2'
_symmetry_cell_setting 'orthorhombic'
loop_
_space_group_symop_operation_xyz
x,y,z
1/2-x,1/2-y,z
1/2+x,-y,-z
-x,1/2+y,-z
-x,-y,-z
1/2+x,1/2+y,-z
1/2-x,y,z
x,1/2-y,z
loop_
_atom_site_type_symbol
_atom_site_label
_atom_site_fract_x
_atom_site_fract_y
_atom_site_fract_z
Si Si1 0.821436 0.059192 0.059529
Si Si2 0.622219 0.439158 0.251403
Si Si3 0.939465 0.564179 0.555078
Si Si4 0.059513 0.560679 0.057319
Si Si5 0.021224 0.562580 0.255283
Si Si6 0.821695 0.439075 0.443356
O O1 0.750000 0.005772 0.040061
O O2 0.820826 0.250000 0.058150
O O3 0.842874 0.013192 0.159827
O O4 0.875304 0.008043 0.989608
O O5 0.616599 0.250000 0.250353
O O6 0.552034 0.509623 0.254905
O O7 0.660108 0.482892 0.341162
O O8 0.942006 0.750000 0.551795
O O9 0.945724 0.507515 0.657216
O O10 0.875327 0.505049 0.508519
O O11 0.000000 0.500000 0.500000
O O12 0.057994 0.750000 0.054818
O O13 0.051696 0.511814 0.160653
O O14 0.000000 0.500000 0.000000
O O15 0.023999 0.750000 0.260719
O O16 0.750000 0.489875 0.464363
O O17 0.823734 0.250000 0.448065
#
# Coordination Sequence:
#
# PCOD9447035 Si02
#       6
#     8   8   8   8   8   8
#     4   9  17  31  53  82 113 146 186 229 275 331
#     4  10  18  31  56  85 114 146 182 228 282 341
#     4  12  24  39  60  84 113 150 193 240 287 343
#     4  10  20  34  55  82 112 146 187 232 278 332
#     4  11  22  35  54  84 117 148 189 238 283 337
#     4  10  21  37  58  87 120 151 186 231 286 347
#
# _framework density 17.891508999999999
#
# number of rings (size 3 to 8) (size 9 to 14) (size 15 to 20)
#    0.000    1.667    3.333    2.500    0.000    3.000 
#    0.000    0.833    0.000    6.000    0.000    0.000 
#    0.000    0.000    0.000    0.000    0.000    0.000 
#
# Total GULP energy -268088.240371 kJ/mol
# GULP energy per Si atom -5585.171674 kJ/mol
# Density = 1.785079 g / cm^3
# Si number density = 17.891509 Si / 1000 Ang^3
#
#
#
# Elastic Constant Matrix: (Units=GPa)
#
#
# Indices 1 2 3 4 5 6 
#
# 1 190.1849 37.7545 109.2769 0.0000 0.0000 0.0000
# 2 37.7545 27.4387 38.2373 0.0000 0.0000 0.0000
# 3 109.2769 38.2373 172.5579 0.0000 0.0000 0.0000
# 4 0.0000 0.0000 0.0000 18.5069 0.0000 0.0000
# 5 0.0000 0.0000 0.0000 0.0000 23.0793 0.0000
# 6 0.0000 0.0000 0.0000 0.0000 0.0000 24.9654
#
#
#
# Elastic Compliance Matrix: (Units=1/GPa)
#
#
# Indices 1 2 3 4 5 6 
#
# 1 0.008983 -0.006413 -0.004268 0.000000 0.000000 0.000000
# 2 -0.006413 0.057305 -0.008637 0.000000 0.000000 0.000000
# 3 -0.004268 -0.008637 0.010412 0.000000 0.000000 0.000000
# 4 0.000000 0.000000 0.000000 0.054034 0.000000 0.000000
# 5 0.000000 0.000000 0.000000 0.000000 0.043329 0.000000
# 6 0.000000 0.000000 0.000000 0.000000 0.000000 0.040055
#
#
# Mechanical properties :
#
#
# Convention : Reuss Voigt Hill
#
# Bulk Modulus (GPa) = 26.27137 84.52433 55.39785
# Shear Modulus (GPa) = 18.83644 26.97117 22.90381
#
# Velocity S-wave (km/s) = 3.24823 3.88685 3.58180
# Velocity P-wave (km/s) = 5.36503 8.21515 6.93802
#
# Compressibility (1/GPa) = 0.03806425
#
# Stress axis : x y z
#
# Youngs Moduli (GPa) = 111.31622 17.45039 96.04525
#
# Poissons Ratio (x) = 0.11192 0.40991
# Poissons Ratio (y) = 0.71391 0.82954
# Poissons Ratio (z) = 0.47508 0.15072
#
# Static dielectric constant tensor:
#      x y z
#    x 1.589970 0.000000 0.000000 
#    y 0.000000 1.613300 0.000000 
#    z 0.000000 0.000000 1.604810 
# 
# From -- ./inp_files/20732.got.cif
#   From: 2010.05.17/outbox.cif.g08.bks.cpg/sg59_11_cif.got.tgz:20732.got - 2010.06.03 14:40:33.
