data_PCOD9447191
_publ_section_title
;
Structure prediction by ZEFSAII (Michael W. Deem and Ramdas Pophale) SiO2 
 PCOD9447191
Probable space group: P M M N
;
_chemical_formula_sum "Si O2"
_cell_formula_units_Z 64
_cell_length_a 7.629275
_cell_length_b 26.335253
_cell_length_c 14.704566
_cell_angle_alpha 90.000000
_cell_angle_beta 90.000000
_cell_angle_gamma 90.000000
_cell_volume 2954.425039
_symmetry_space_group_name_H-M "P M M N"
_symmetry_group_IT_number 59
_space_group.IT_coordinate_system_code '2'
_symmetry_cell_setting 'orthorhombic'
loop_
_space_group_symop_operation_xyz
x,y,z
1/2-x,1/2-y,z
1/2+x,-y,-z
-x,1/2+y,-z
-x,-y,-z
1/2+x,1/2+y,-z
1/2-x,y,z
x,1/2-y,z
loop_
_atom_site_type_symbol
_atom_site_label
_atom_site_fract_x
_atom_site_fract_y
_atom_site_fract_z
Si Si1 0.462691 0.335149 0.510743
Si Si2 0.459510 0.806409 0.281344
Si Si3 0.959469 0.057574 0.032444
Si Si4 0.535866 0.695276 0.687881
Si Si5 0.944203 0.943981 0.475598
Si Si6 0.037654 0.520090 0.288770
Si Si7 0.537080 0.103445 0.850732
Si Si8 0.044474 0.412015 0.236849
O O1 0.250000 0.335708 0.512592
O O2 0.513179 0.316658 0.611072
O O3 0.512960 0.306544 0.418989
O O4 0.535404 0.392304 0.496998
O O5 0.250000 0.805658 0.268644
O O6 0.528702 0.750000 0.260324
O O7 0.526617 0.850623 0.213645
O O8 0.750000 0.061069 0.038303
O O9 0.030069 0.073274 0.130912
O O10 0.022485 0.096778 0.954272
O O11 0.000000 0.000000 0.000000
O O12 0.750000 0.694725 0.692125
O O13 0.478446 0.750000 0.726066
O O14 0.473461 0.643337 0.736196
O O15 0.750000 0.939560 0.512902
O O16 0.000000 0.000000 0.500000
O O17 0.953701 0.946142 0.367038
O O18 0.250000 0.520952 0.300685
O O19 0.996154 0.549558 0.196672
O O20 0.973837 0.462047 0.288855
O O21 0.750000 0.106936 0.852103
O O22 0.250000 0.410514 0.260193
#
# Coordination Sequence:
#
# PCOD9447191 Si02
#       8
#     8   8   8   8   8   8   8   8
#     4  10  20  35  55  79 107 142 186 227 267 317
#     4  10  20  35  56  80 106 141 183 222 265 323
#     4  11  21  36  58  84 111 142 180 222 273 329
#     4   9  18  34  56  78 104 142 184 222 264 319
#     4  11  22  33  48  76 110 147 185 226 275 327
#     4  10  18  33  54  74 106 145 175 216 272 329
#     4   9  18  34  54  76 107 142 172 210 267 323
#     4  10  20  36  57  82 109 141 180 224 275 328
#
# _framework density 21.662420999999998
#
# number of rings (size 3 to 8) (size 9 to 14) (size 15 to 20)
#    0.000    2.000    2.500    1.875    0.000    3.750 
#    0.000    2.500    0.000    1.875    0.000    0.000 
#    0.000    0.000    0.000    0.000    0.000    0.000 
#
# Total GULP energy -356985.086063 kJ/mol
# GULP energy per Si atom -5577.891970 kJ/mol
# Density = 2.161312 g / cm^3
# Si number density = 21.662421 Si / 1000 Ang^3
#
#
#
# Elastic Constant Matrix: (Units=GPa)
#
#
# Indices 1 2 3 4 5 6 
#
# 1 40.3940 5.8322 -11.8599 0.0000 0.0000 0.0000
# 2 5.8322 187.2590 46.2955 0.0000 0.0000 0.0000
# 3 -11.8599 46.2955 79.9078 0.0000 0.0000 0.0000
# 4 0.0000 0.0000 0.0000 20.6430 0.0000 0.0000
# 5 0.0000 0.0000 0.0000 0.0000 21.3115 0.0000
# 6 0.0000 0.0000 0.0000 0.0000 0.0000 6.2817
#
#
#
# Elastic Compliance Matrix: (Units=1/GPa)
#
#
# Indices 1 2 3 4 5 6 
#
# 1 0.026576 -0.002104 0.005164 0.000000 0.000000 0.000000
# 2 -0.002104 0.006400 -0.004020 0.000000 0.000000 0.000000
# 3 0.005164 -0.004020 0.015610 0.000000 0.000000 0.000000
# 4 0.000000 0.000000 0.000000 0.048443 0.000000 0.000000
# 5 0.000000 0.000000 0.000000 0.000000 0.046923 0.000000
# 6 0.000000 0.000000 0.000000 0.000000 0.000000 0.159193
#
#
# Mechanical properties :
#
#
# Convention : Reuss Voigt Hill
#
# Bulk Modulus (GPa) = 21.42979 43.12180 32.27580
# Shear Modulus (GPa) = 15.59478 27.46677 21.53077
#
# Velocity S-wave (km/s) = 2.68601 3.56469 3.15607
# Velocity P-wave (km/s) = 4.41968 6.07389 5.31158
#
# Compressibility (1/GPa) = 0.04666401
#
# Stress axis : x y z
#
# Youngs Moduli (GPa) = 37.62788 156.26014 64.06224
#
# Poissons Ratio (x) = 0.32882 -0.33079
# Poissons Ratio (y) = 0.07918 0.25753
# Poissons Ratio (z) = -0.19429 0.62816
#
# Static dielectric constant tensor:
#      x y z
#    x 1.826860 0.000000 0.000000 
#    y 0.000000 1.840920 0.000000 
#    z 0.000000 0.000000 1.821830 
# 
# From -- ./inp_files/21585.got.cif
#   From: 2010.05.17/outbox.cif.g08.bks.cpg/sg59_11_cif.got.tgz:21585.got - 2010.06.03 14:40:33.
