data_PCOD9447572
_publ_section_title
;
Structure prediction by ZEFSAII (Michael W. Deem and Ramdas Pophale) SiO2 
 PCOD9447572
Probable space group: P M M N
;
_chemical_formula_sum "Si O2"
_cell_formula_units_Z 64
_cell_length_a 20.060970
_cell_length_b 7.881144
_cell_length_c 20.726494
_cell_angle_alpha 90.000000
_cell_angle_beta 90.000000
_cell_angle_gamma 90.000000
_cell_volume 3276.929034
_symmetry_space_group_name_H-M "P M M N"
_symmetry_group_IT_number 59
_space_group.IT_coordinate_system_code '2'
_symmetry_cell_setting 'orthorhombic'
loop_
_space_group_symop_operation_xyz
x,y,z
1/2-x,1/2-y,z
1/2+x,-y,-z
-x,1/2+y,-z
-x,-y,-z
1/2+x,1/2+y,-z
1/2-x,y,z
x,1/2-y,z
loop_
_atom_site_type_symbol
_atom_site_label
_atom_site_fract_x
_atom_site_fract_y
_atom_site_fract_z
Si Si1 0.561893 0.452856 0.904384
Si Si2 0.065689 0.944152 0.240621
Si Si3 0.593571 0.048327 0.547879
Si Si4 0.089092 0.546351 0.874631
Si Si5 0.923911 0.442924 0.268339
Si Si6 0.824326 0.947336 0.663641
Si Si7 0.326483 0.958040 0.994320
Si Si8 0.054312 0.956224 0.592578
O O1 0.559505 0.250000 0.912753
O O2 0.586046 0.491477 0.831795
O O3 0.484548 0.510581 0.904440
O O4 0.616590 0.517106 0.955167
O O5 0.040693 0.750000 0.238800
O O6 0.125295 0.957137 0.289990
O O7 0.004290 0.058621 0.262304
O O8 0.603453 0.250000 0.548318
O O9 0.589973 0.990023 0.473694
O O10 0.649624 0.964057 0.591013
O O11 0.522240 0.011449 0.581708
O O12 0.092858 0.750000 0.869519
O O13 0.096110 0.479011 0.801093
O O14 0.145774 0.489696 0.924175
O O15 0.897707 0.250000 0.270187
O O16 0.914476 0.519202 0.339895
O O17 0.750000 0.013514 0.669647
O O18 0.825885 0.750000 0.682118
O O19 0.250000 0.012018 0.006367
O O20 0.326151 0.750000 0.996279
O O21 0.054316 0.750000 0.594899
#
# Coordination Sequence:
#
# PCOD9447572 Si02
#       8
#     8   8   8   8   8   8   8   8
#     4   9  18  31  49  72  98 127 159 201 248 292
#     4  10  19  30  46  70  94 118 156 198 236 282
#     4  10  19  30  47  71  94 120 159 198 233 278
#     4   9  17  29  49  74  97 127 165 201 239 288
#     4   9  16  28  47  70  98 125 149 186 238 287
#     4  11  23  36  48  63  91 131 165 194 236 289
#     4   9  17  30  48  70  97 129 165 203 243 289
#     4   9  17  29  47  70  98 125 149 189 241 286
#
# _framework density 19.530481999999999
#
# number of rings (size 3 to 8) (size 9 to 14) (size 15 to 20)
#    0.000    2.500    1.250    1.500    0.000    2.500 
#    0.000    1.250    0.000    2.250    0.000    3.500 
#    0.000    0.000    0.000    0.000    0.000    0.000 
#
# Total GULP energy -356643.217052 kJ/mol
# GULP energy per Si atom -5572.550266 kJ/mol
# Density = 1.948603 g / cm^3
# Si number density = 19.530482 Si / 1000 Ang^3
#
#
#
# Elastic Constant Matrix: (Units=GPa)
#
#
# Indices 1 2 3 4 5 6 
#
# 1 28.1122 -1.0664 13.9824 0.0000 0.0000 0.0000
# 2 -1.0664 23.9283 7.2203 0.0000 0.0000 0.0000
# 3 13.9824 7.2203 105.2113 0.0000 0.0000 0.0000
# 4 0.0000 0.0000 0.0000 12.2135 0.0000 0.0000
# 5 0.0000 0.0000 0.0000 0.0000 12.8623 0.0000
# 6 0.0000 0.0000 0.0000 0.0000 0.0000 13.5805
#
#
#
# Elastic Compliance Matrix: (Units=1/GPa)
#
#
# Indices 1 2 3 4 5 6 
#
# 1 0.038345 0.003315 -0.005324 0.000000 0.000000 0.000000
# 2 0.003315 0.042962 -0.003389 0.000000 0.000000 0.000000
# 3 -0.005324 -0.003389 0.010445 0.000000 0.000000 0.000000
# 4 0.000000 0.000000 0.000000 0.081877 0.000000 0.000000
# 5 0.000000 0.000000 0.000000 0.000000 0.077746 0.000000
# 6 0.000000 0.000000 0.000000 0.000000 0.000000 0.073635
#
#
# Mechanical properties :
#
#
# Convention : Reuss Voigt Hill
#
# Bulk Modulus (GPa) = 12.35215 21.94715 17.14965
# Shear Modulus (GPa) = 13.78208 16.87230 15.32719
#
# Velocity S-wave (km/s) = 2.65933 2.94240 2.80444
# Velocity P-wave (km/s) = 3.97085 4.77550 4.39164
#
# Compressibility (1/GPa) = 0.08095760
#
# Stress axis : x y z
#
# Youngs Moduli (GPa) = 26.07883 23.27641 95.74193
#
# Poissons Ratio (x) = -0.07717 0.50969
# Poissons Ratio (y) = -0.08646 0.32446
# Poissons Ratio (z) = 0.13883 0.07888
#
# Static dielectric constant tensor:
#      x y z
#    x 1.646230 0.000000 0.000000 
#    y 0.000000 1.660400 0.000000 
#    z 0.000000 0.000000 1.746490 
# 
# From -- ./inp_files/30912.got.cif
#   From: 2010.05.17/outbox.cif.g08.bks.cpg/sg59_16_cif.got.tgz:30912.got - 2010.06.03 14:40:33.
