data_PCOD9447562
_publ_section_title
;
Structure prediction by ZEFSAII (Michael W. Deem and Ramdas Pophale) SiO2 
 PCOD9447562
Probable space group: P M M N
;
_chemical_formula_sum "Si O2"
_cell_formula_units_Z 64
_cell_length_a 8.933762
_cell_length_b 14.209978
_cell_length_c 32.336568
_cell_angle_alpha 90.000000
_cell_angle_beta 90.000000
_cell_angle_gamma 90.000000
_cell_volume 4105.080791
_symmetry_space_group_name_H-M "P M M N"
_symmetry_group_IT_number 59
_space_group.IT_coordinate_system_code '2'
_symmetry_cell_setting 'orthorhombic'
loop_
_space_group_symop_operation_xyz
x,y,z
1/2-x,1/2-y,z
1/2+x,-y,-z
-x,1/2+y,-z
-x,-y,-z
1/2+x,1/2+y,-z
1/2-x,y,z
x,1/2-y,z
loop_
_atom_site_type_symbol
_atom_site_label
_atom_site_fract_x
_atom_site_fract_y
_atom_site_fract_z
Si Si1 0.932188 0.856574 0.437342
Si Si2 0.428878 0.965181 0.935984
Si Si3 0.423663 0.363553 0.470200
Si Si4 0.077678 0.635791 0.772067
Si Si5 0.929015 0.639050 0.858452
Si Si6 0.929983 0.359036 0.978720
Si Si7 0.928734 0.039355 0.392590
Si Si8 0.071286 0.361102 0.314024
O O1 0.750000 0.854610 0.438971
O O2 0.983485 0.750000 0.429822
O O3 0.978683 0.888137 0.483553
O O4 0.974953 0.932334 0.403194
O O5 0.250000 0.968842 0.931859
O O6 0.501235 0.921525 0.895200
O O7 0.492321 0.067822 0.947711
O O8 0.464872 0.897424 0.975159
O O9 0.250000 0.394247 0.465275
O O10 0.423627 0.250000 0.468654
O O11 0.521735 0.403160 0.433216
O O12 0.250000 0.605135 0.773005
O O13 0.075648 0.750000 0.771688
O O14 0.992821 0.608266 0.813917
O O15 0.998288 0.606689 0.729584
O O16 0.750000 0.631709 0.858558
O O17 0.968098 0.750000 0.864313
O O18 0.750000 0.364856 0.973672
O O19 0.974654 0.250000 0.974104
O O20 0.750000 0.043779 0.387747
O O21 0.006295 0.081839 0.352431
O O22 0.250000 0.368903 0.312495
O O23 0.034295 0.250000 0.319680
#
# Coordination Sequence:
#
# PCOD9447562 Si02
#       8
#     8   8   8   8   8   8   8   8
#     4   8  16  31  47  62  83 113 148 183 219 259
#     4  10  19  30  46  69  95 124 162 204 241 279
#     4   9  17  30  46  62  85 118 148 174 212 262
#     4   9  17  30  48  69  93 119 148 185 225 264
#     4  10  19  30  46  69  97 128 159 189 226 276
#     4   9  18  32  47  64  92 129 165 202 244 285
#     4  11  20  28  44  68  89 112 145 184 220 255
#     4  10  20  33  47  64  91 124 150 173 211 268
#
# _framework density 15.590436
#
# number of rings (size 3 to 8) (size 9 to 14) (size 15 to 20)
#    0.000    2.500    0.000    3.750    0.000    6.000 
#    0.000    0.625    0.000    3.000    0.000    0.875 
#    0.000    5.000    0.000    0.000    0.000    0.000 
#
# Total GULP energy -356896.951547 kJ/mol
# GULP energy per Si atom -5576.514868 kJ/mol
# Density = 1.555495 g / cm^3
# Si number density = 15.590436 Si / 1000 Ang^3
#
#
#
# Elastic Constant Matrix: (Units=GPa)
#
#
# Indices 1 2 3 4 5 6 
#
# 1 49.8308 40.1790 56.2807 0.0000 0.0000 0.0000
# 2 40.1790 88.6020 71.9800 0.0000 0.0000 0.0000
# 3 56.2807 71.9800 147.5815 0.0000 0.0000 0.0000
# 4 0.0000 0.0000 0.0000 26.4746 0.0000 0.0000
# 5 0.0000 0.0000 0.0000 0.0000 28.4431 0.0000
# 6 0.0000 0.0000 0.0000 0.0000 0.0000 18.0867
#
#
#
# Elastic Compliance Matrix: (Units=1/GPa)
#
#
# Indices 1 2 3 4 5 6 
#
# 1 0.039465 -0.009391 -0.010470 0.000000 0.000000 0.000000
# 2 -0.009391 0.020928 -0.006626 0.000000 0.000000 0.000000
# 3 -0.010470 -0.006626 0.014000 0.000000 0.000000 0.000000
# 4 0.000000 0.000000 0.000000 0.037772 0.000000 0.000000
# 5 0.000000 0.000000 0.000000 0.000000 0.035158 0.000000
# 6 0.000000 0.000000 0.000000 0.000000 0.000000 0.055289
#
#
# Mechanical properties :
#
#
# Convention : Reuss Voigt Hill
#
# Bulk Modulus (GPa) = 46.68575 69.21040 57.94807
# Shear Modulus (GPa) = 19.03131 22.43919 20.73525
#
# Velocity S-wave (km/s) = 3.49765 3.79792 3.65087
# Velocity P-wave (km/s) = 6.80599 7.98257 7.41765
#
# Compressibility (1/GPa) = 0.02141981
#
# Stress axis : x y z
#
# Youngs Moduli (GPa) = 25.33912 47.78332 71.42697
#
# Poissons Ratio (x) = 0.44872 0.74783
# Poissons Ratio (y) = 0.23795 0.47327
# Poissons Ratio (z) = 0.26530 0.31661
#
# Static dielectric constant tensor:
#      x y z
#    x 1.521290 0.000000 0.000000 
#    y 0.000000 1.517830 0.000000 
#    z 0.000000 0.000000 1.499870 
# 
# From -- ./inp_files/33202.got.cif
#   From: 2010.05.17/outbox.cif.g08.bks.cpg/sg59_17_cif.got.tgz:33202.got - 2010.06.03 14:40:33.
