data_PCOD9447149
_publ_section_title
;
Structure prediction by ZEFSAII (Michael W. Deem and Ramdas Pophale) SiO2 
 PCOD9447149
Probable space group: P M M N
;
_chemical_formula_sum "Si O2"
_cell_formula_units_Z 56
_cell_length_a 16.046454
_cell_length_b 8.333204
_cell_length_c 21.688026
_cell_angle_alpha 90.000000
_cell_angle_beta 90.000000
_cell_angle_gamma 90.000000
_cell_volume 2900.087586
_symmetry_space_group_name_H-M "P M M N"
_symmetry_group_IT_number 59
_space_group.IT_coordinate_system_code '2'
_symmetry_cell_setting 'orthorhombic'
loop_
_space_group_symop_operation_xyz
x,y,z
1/2-x,1/2-y,z
1/2+x,-y,-z
-x,1/2+y,-z
-x,-y,-z
1/2+x,1/2+y,-z
1/2-x,y,z
x,1/2-y,z
loop_
_atom_site_type_symbol
_atom_site_label
_atom_site_fract_x
_atom_site_fract_y
_atom_site_fract_z
Si Si1 0.656299 0.553843 0.857057
Si Si2 0.486875 0.058706 0.651628
Si Si3 0.490375 0.941464 0.788990
Si Si4 0.905248 0.943640 0.991876
Si Si5 0.585347 0.441546 0.468168
Si Si6 0.341811 0.056039 0.876239
Si Si7 0.160380 0.554365 0.407690
O O1 0.750000 0.501451 0.840544
O O2 0.656435 0.750000 0.856399
O O3 0.580861 0.499292 0.813090
O O4 0.633456 0.502900 0.926931
O O5 0.490100 0.250000 0.651758
O O6 0.577997 0.997722 0.628147
O O7 0.471969 0.998555 0.720117
O O8 0.418608 0.007848 0.600812
O O9 0.493172 0.750000 0.789781
O O10 0.417818 0.996113 0.835070
O O11 0.904621 0.750000 0.990571
O O12 0.855893 0.995152 0.052883
O O13 0.000000 0.000000 0.000000
O O14 0.500000 0.500000 0.500000
O O15 0.585930 0.250000 0.464419
O O16 0.652120 0.490182 0.519927
O O17 0.250000 0.003187 0.854957
O O18 0.343475 0.250000 0.875054
O O19 0.250000 0.500121 0.383121
O O20 0.158683 0.750000 0.405344
#
# Coordination Sequence:
#
# PCOD9447149 Si02
#       7
#     8   8   8   8   8   8   8
#     4   9  18  33  53  78 109 144 180 219 271 334
#     4  10  20  34  53  74 103 143 180 218 263 318
#     4  11  22  36  55  79 108 145 186 230 275 325
#     4  10  18  32  56  82 108 139 176 222 276 331
#     4   9  16  29  51  76 102 133 168 209 256 309
#     4  10  21  37  58  81 106 140 182 228 279 334
#     4   8  15  29  51  79 106 132 166 210 261 313
#
# _framework density 19.309760000000001
#
# number of rings (size 3 to 8) (size 9 to 14) (size 15 to 20)
#    0.000    2.429    1.429    2.571    0.000    2.571 
#    0.000    0.714    0.000   21.857    0.000    0.000 
#    0.000    0.000    0.000    0.000    0.000    0.000 
#
# Total GULP energy -312212.437358 kJ/mol
# GULP energy per Si atom -5575.222096 kJ/mol
# Density = 1.926581 g / cm^3
# Si number density = 19.309760 Si / 1000 Ang^3
#
#
#
# Elastic Constant Matrix: (Units=GPa)
#
#
# Indices 1 2 3 4 5 6 
#
# 1 56.3284 9.2567 -5.4016 0.0000 0.0000 0.0000
# 2 9.2567 17.6621 13.6915 0.0000 0.0000 0.0000
# 3 -5.4016 13.6915 87.9742 0.0000 0.0000 0.0000
# 4 0.0000 0.0000 0.0000 17.4656 0.0000 0.0000
# 5 0.0000 0.0000 0.0000 0.0000 9.6495 0.0000
# 6 0.0000 0.0000 0.0000 0.0000 0.0000 18.6226
#
#
#
# Elastic Compliance Matrix: (Units=1/GPa)
#
#
# Indices 1 2 3 4 5 6 
#
# 1 0.020230 -0.013152 0.003289 0.000000 0.000000 0.000000
# 2 -0.013152 0.072937 -0.012159 0.000000 0.000000 0.000000
# 3 0.003289 -0.012159 0.013461 0.000000 0.000000 0.000000
# 4 0.000000 0.000000 0.000000 0.057255 0.000000 0.000000
# 5 0.000000 0.000000 0.000000 0.000000 0.103633 0.000000
# 6 0.000000 0.000000 0.000000 0.000000 0.000000 0.053698
#
#
# Mechanical properties :
#
#
# Convention : Reuss Voigt Hill
#
# Bulk Modulus (GPa) = 15.97850 21.89532 18.93691
# Shear Modulus (GPa) = 12.94939 18.77542 15.86240
#
# Velocity S-wave (km/s) = 2.59243 3.12160 2.86924
# Velocity P-wave (km/s) = 4.15376 4.93519 4.56124
#
# Compressibility (1/GPa) = 0.06258408
#
# Stress axis : x y z
#
# Youngs Moduli (GPa) = 49.43207 13.71053 74.28770
#
# Poissons Ratio (x) = 0.18032 -0.24433
# Poissons Ratio (y) = 0.65013 0.90324
# Poissons Ratio (z) = -0.16258 0.16670
#
# Static dielectric constant tensor:
#      x y z
#    x 1.686960 0.000000 0.000000 
#    y 0.000000 1.667090 0.000000 
#    z 0.000000 0.000000 1.675400 
# 
# From -- ./inp_files/30294.got.cif
#   From: 2010.05.17/outbox.cif.g08.bks.cpg/sg59_16_cif.got.tgz:30294.got - 2010.06.03 14:40:33.
