data_PCOD9447325
_publ_section_title
;
Structure prediction by ZEFSAII (Michael W. Deem and Ramdas Pophale) SiO2 
 PCOD9447325
Probable space group: P M M N
;
_chemical_formula_sum "Si O2"
_cell_formula_units_Z 48
_cell_length_a 16.194978
_cell_length_b 8.471431
_cell_length_c 17.093779
_cell_angle_alpha 90.000000
_cell_angle_beta 90.000000
_cell_angle_gamma 90.000000
_cell_volume 2345.174833
_symmetry_space_group_name_H-M "P M M N"
_symmetry_group_IT_number 59
_space_group.IT_coordinate_system_code '2'
_symmetry_cell_setting 'orthorhombic'
loop_
_space_group_symop_operation_xyz
x,y,z
1/2-x,1/2-y,z
1/2+x,-y,-z
-x,1/2+y,-z
-x,-y,-z
1/2+x,1/2+y,-z
1/2-x,y,z
x,1/2-y,z
loop_
_atom_site_type_symbol
_atom_site_label
_atom_site_fract_x
_atom_site_fract_y
_atom_site_fract_z
Si Si1 0.921283 0.504402 0.651379
Si Si2 0.153301 0.750000 0.794493
Si Si3 0.151258 0.438404 0.191138
Si Si4 0.061291 0.750000 0.647289
Si Si5 0.159846 0.250000 0.453558
Si Si6 0.409531 0.559642 0.024800
Si Si7 0.518901 0.250000 0.529425
Si Si8 0.346017 0.427619 0.870552
O O1 0.882909 0.463690 0.734673
O O2 0.852398 0.604863 0.605454
O O3 0.954092 0.391343 0.584192
O O4 0.002927 0.604721 0.669585
O O5 0.250000 0.750000 0.815764
O O6 0.140517 0.750000 0.701382
O O7 0.117564 0.584576 0.828262
O O8 0.250000 0.453165 0.186755
O O9 0.132439 0.250000 0.202329
O O10 0.111998 0.501668 0.111369
O O11 0.066543 0.750000 0.553432
O O12 0.250000 0.250000 0.491162
O O13 0.078702 0.250000 0.508693
O O14 0.403036 0.750000 0.018909
O O15 0.500000 0.500000 0.000000
O O16 0.351297 0.473041 0.961736
O O17 0.250000 0.418283 0.846618
O O18 0.381952 0.250000 0.857525
#
# Coordination Sequence:
#
# PCOD9447325 Si02
#       8
#     8   4   8   4   4   8   4   8
#     4  10  21  39  65  92 128 168 211 265 336 395
#     4  10  22  40  65  93 129 177 221 274 330 386
#     4  11  23  41  64  95 130 171 222 276 334 398
#     4  10  20  40  66  88 127 168 217 266 322 404
#     4  10  18  38  68  93 122 169 217 259 323 407
#     4  12  26  41  62  93 128 169 220 269 329 397
#     4  10  22  42  63 100 128 170 213 275 339 403
#     4  10  21  41  66  91 126 169 215 267 325 386
#
# _framework density 20.467555999999998
#
# number of rings (size 3 to 8) (size 9 to 14) (size 15 to 20)
#    0.000    1.667    2.500    4.500    3.500    2.333 
#    1.500    5.417    0.000    0.000    0.000    0.000 
#    0.000    0.000    0.000    0.000    0.000    0.000 
#
# Total GULP energy -267557.777805 kJ/mol
# GULP energy per Si atom -5574.120371 kJ/mol
# Density = 2.042097 g / cm^3
# Si number density = 20.467556 Si / 1000 Ang^3
#
#
#
# Elastic Constant Matrix: (Units=GPa)
#
#
# Indices 1 2 3 4 5 6 
#
# 1 30.2732 28.6017 45.7045 0.0000 0.0000 0.0000
# 2 28.6017 113.7808 52.2792 0.0000 0.0000 0.0000
# 3 45.7045 52.2792 158.5649 0.0000 0.0000 0.0000
# 4 0.0000 0.0000 0.0000 21.1731 0.0000 0.0000
# 5 0.0000 0.0000 0.0000 0.0000 27.0214 0.0000
# 6 0.0000 0.0000 0.0000 0.0000 0.0000 2.8109
#
#
#
# Elastic Compliance Matrix: (Units=1/GPa)
#
#
# Indices 1 2 3 4 5 6 
#
# 1 0.065779 -0.009220 -0.015920 0.000000 0.000000 0.000000
# 2 -0.009220 0.011650 -0.001183 0.000000 0.000000 0.000000
# 3 -0.015920 -0.001183 0.011285 0.000000 0.000000 0.000000
# 4 0.000000 0.000000 0.000000 0.047230 0.000000 0.000000
# 5 0.000000 0.000000 0.000000 0.000000 0.037008 0.000000
# 6 0.000000 0.000000 0.000000 0.000000 0.000000 0.355763
#
#
# Mechanical properties :
#
#
# Convention : Reuss Voigt Hill
#
# Bulk Modulus (GPa) = 27.72626 61.75441 44.74034
# Shear Modulus (GPa) = 8.42624 21.93664 15.18144
#
# Velocity S-wave (km/s) = 2.03121 3.27735 2.72643
# Velocity P-wave (km/s) = 4.36772 6.67523 5.64073
#
# Compressibility (1/GPa) = 0.03606689
#
# Stress axis : x y z
#
# Youngs Moduli (GPa) = 15.20252 85.83406 88.60933
#
# Poissons Ratio (x) = 0.79142 1.41065
# Poissons Ratio (y) = 0.14017 0.10487
# Poissons Ratio (z) = 0.24202 0.10158
#
# Static dielectric constant tensor:
#      x y z
#    x 1.692090 0.000000 0.000000 
#    y 0.000000 1.778840 0.000000 
#    z 0.000000 0.000000 1.699420 
# 
# From -- ./inp_files/23789.got.cif
#   From: 2010.05.17/outbox.cif.g08.bks.cpg/sg59_12_cif.got.tgz:23789.got - 2010.06.03 14:40:33.
