data_PCOD9447234
_publ_section_title
;
Structure prediction by ZEFSAII (Michael W. Deem and Ramdas Pophale) SiO2 
 PCOD9447234
Probable space group: P M M N
;
_chemical_formula_sum "Si O2"
_cell_formula_units_Z 64
_cell_length_a 31.754600
_cell_length_b 8.698271
_cell_length_c 12.154607
_cell_angle_alpha 90.000000
_cell_angle_beta 90.000000
_cell_angle_gamma 90.000000
_cell_volume 3357.225413
_symmetry_space_group_name_H-M "P M M N"
_symmetry_group_IT_number 59
_space_group.IT_coordinate_system_code '2'
_symmetry_cell_setting 'orthorhombic'
loop_
_space_group_symop_operation_xyz
x,y,z
1/2-x,1/2-y,z
1/2+x,-y,-z
-x,1/2+y,-z
-x,-y,-z
1/2+x,1/2+y,-z
1/2-x,y,z
x,1/2-y,z
loop_
_atom_site_type_symbol
_atom_site_label
_atom_site_fract_x
_atom_site_fract_y
_atom_site_fract_z
Si Si1 0.297275 0.065191 0.764405
Si Si2 0.124060 0.567327 0.632511
Si Si3 0.297203 0.062943 0.240144
Si Si4 0.573812 0.433176 0.003339
Si Si5 0.332644 0.065176 0.002427
Si Si6 0.624033 0.934498 0.612171
Si Si7 0.451817 0.935213 0.244383
Si Si8 0.046163 0.433728 0.769326
O O1 0.250000 0.016846 0.734208
O O2 0.300163 0.250000 0.750581
O O3 0.305918 0.033017 0.893171
O O4 0.333756 0.988885 0.693473
O O5 0.123134 0.750000 0.629264
O O6 0.122963 0.500615 0.509948
O O7 0.083911 0.507824 0.700976
O O8 0.250000 0.009603 0.267176
O O9 0.296700 0.250000 0.243202
O O10 0.333988 0.012465 0.322580
O O11 0.309744 0.020366 0.115455
O O12 0.569846 0.250000 0.016939
O O13 0.622654 0.481993 0.006736
O O14 0.550821 0.516099 0.103884
O O15 0.556539 0.476129 0.883177
O O16 0.339945 0.250000 0.006252
O O17 0.624739 0.750000 0.607479
O O18 0.583318 0.987950 0.680286
O O19 0.447916 0.750000 0.253401
O O20 0.499753 0.978397 0.272620
O O21 0.049985 0.250000 0.762927
#
# Coordination Sequence:
#
# PCOD9447234 Si02
#       8
#     8   8   8   8   8   8   8   8
#     4  10  21  38  63  93 124 160 202 246 294 357
#     4  12  26  43  62  86 120 160 202 256 311 359
#     4   9  18  34  59  92 123 153 196 244 289 344
#     4  11  21  35  59  92 128 160 191 238 302 363
#     4  10  18  33  60  91 123 159 195 238 292 353
#     4  11  23  40  64  90 117 158 207 253 301 359
#     4  10  23  41  62  90 125 159 195 246 305 363
#     4  11  23  41  64  89 119 159 204 248 298 361
#
# _framework density 19.063361
#
# number of rings (size 3 to 8) (size 9 to 14) (size 15 to 20)
#    0.000    1.500    2.500    3.000    0.000    4.250 
#    0.000    1.250    0.000    3.750    0.000    0.000 
#    0.000    0.000    0.000    0.000    0.000    0.000 
#
# Total GULP energy -357719.452192 kJ/mol
# GULP energy per Si atom -5589.366441 kJ/mol
# Density = 1.901997 g / cm^3
# Si number density = 19.063361 Si / 1000 Ang^3
#
#
#
# Elastic Constant Matrix: (Units=GPa)
#
#
# Indices 1 2 3 4 5 6 
#
# 1 171.4154 56.3570 73.2673 0.0000 0.0000 0.0000
# 2 56.3570 48.3877 50.7135 0.0000 0.0000 0.0000
# 3 73.2673 50.7135 138.8273 0.0000 0.0000 0.0000
# 4 0.0000 0.0000 0.0000 28.9087 0.0000 0.0000
# 5 0.0000 0.0000 0.0000 0.0000 -7.1298 0.0000
# 6 0.0000 0.0000 0.0000 0.0000 0.0000 18.4362
#
#
#
# Elastic Compliance Matrix: (Units=1/GPa)
#
#
# Indices 1 2 3 4 5 6 
#
# 1 0.009669 -0.009582 -0.001603 0.000000 0.000000 0.000000
# 2 -0.009582 0.042982 -0.010645 0.000000 0.000000 0.000000
# 3 -0.001603 -0.010645 0.011938 0.000000 0.000000 0.000000
# 4 0.000000 0.000000 0.000000 0.034592 0.000000 0.000000
# 5 0.000000 0.000000 0.000000 0.000000 -0.140256 0.000000
# 6 0.000000 0.000000 0.000000 0.000000 0.000000 0.054241
#
#
# Mechanical properties :
#
#
# Convention : Reuss Voigt Hill
#
# Bulk Modulus (GPa) = 47.77633 79.92289 63.84961
# Shear Modulus (GPa) = 78.36852 19.92919 49.14885
#
# Velocity S-wave (km/s) = 6.41862 3.23680 5.08309
# Velocity P-wave (km/s) = 8.94695 7.48232 8.24721
#
# Compressibility (1/GPa) = 0.02093086
#
# Stress axis : x y z
#
# Youngs Moduli (GPa) = 103.42267 23.26531 83.76952
#
# Poissons Ratio (x) = 0.22292 0.13426
# Poissons Ratio (y) = 0.99097 0.89169
# Poissons Ratio (z) = 0.16576 0.24765
#
# Static dielectric constant tensor:
#      x y z
#    x 1.655530 0.000000 0.000000 
#    y 0.000000 1.645900 0.000000 
#    z 0.000000 0.000000 1.636770 
# 
# From -- ./inp_files/19280.got.cif
#   From: 2010.05.17/outbox.cif.g08.bks.cpg/sg59_10_cif.got.tgz:19280.got - 2010.06.03 14:40:33.
