data_PCOD9447900
_publ_section_title
;
Structure prediction by ZEFSAII (Michael W. Deem and Ramdas Pophale) SiO2 
 PCOD9447900
Probable space group: P M M N
;
_chemical_formula_sum "Si O2"
_cell_formula_units_Z 64
_cell_length_a 7.998096
_cell_length_b 20.057713
_cell_length_c 20.833844
_cell_angle_alpha 90.000000
_cell_angle_beta 90.000000
_cell_angle_gamma 90.000000
_cell_volume 3342.238467
_symmetry_space_group_name_H-M "P M M N"
_symmetry_group_IT_number 59
_space_group.IT_coordinate_system_code '2'
_symmetry_cell_setting 'orthorhombic'
loop_
_space_group_symop_operation_xyz
x,y,z
1/2-x,1/2-y,z
1/2+x,-y,-z
-x,1/2+y,-z
-x,-y,-z
1/2+x,1/2+y,-z
1/2-x,y,z
x,1/2-y,z
loop_
_atom_site_type_symbol
_atom_site_label
_atom_site_fract_x
_atom_site_fract_y
_atom_site_fract_z
Si Si1 0.944455 0.068674 0.265745
Si Si2 0.943912 0.910774 0.239498
Si Si3 0.942975 0.584216 0.463222
Si Si4 0.545718 0.565580 0.096215
Si Si5 0.552107 0.445841 0.404289
Si Si6 0.952756 0.084728 0.123631
Si Si7 0.057117 0.675253 0.354864
Si Si8 0.951127 0.826218 0.992069
O O1 0.750000 0.091172 0.266235
O O2 0.018027 0.081285 0.336790
O O3 0.015556 0.092406 0.197170
O O4 0.947155 0.988346 0.259189
O O5 0.750000 0.889514 0.241373
O O6 0.003577 0.907480 0.166386
O O7 0.040115 0.868024 0.291021
O O8 0.750000 0.570027 0.477775
O O9 0.014920 0.518466 0.426912
O O10 0.028339 0.596990 0.531511
O O11 0.956226 0.642723 0.412549
O O12 0.750000 0.564243 0.094388
O O13 0.491835 0.487657 0.094696
O O14 0.486632 0.617295 0.042290
O O15 0.750000 0.455220 0.392470
O O16 0.750000 0.081799 0.126322
O O17 0.005903 0.144200 0.077528
O O18 0.250000 0.675217 0.375099
O O19 0.001932 0.750000 0.341376
O O20 0.750000 0.824215 0.998667
O O21 0.012162 0.750000 0.001494
#
# Coordination Sequence:
#
# PCOD9447900 Si02
#       8
#     8   8   8   8   8   8   8   8
#     4   8  14  28  50  75 100 123 152 197 249 295
#     4   9  16  31  52  73  94 121 163 204 240 289
#     4  10  19  31  49  73  97 126 165 201 236 285
#     4   8  16  31  53  76  99 129 166 209 253 300
#     4   9  16  29  50  74 101 125 149 196 253 294
#     4   9  17  31  53  76  98 128 168 212 250 294
#     4  11  23  35  46  65  99 138 169 200 241 288
#     4  10  20  33  48  70 103 137 168 206 254 306
#
# _framework density 19.148844
#
# number of rings (size 3 to 8) (size 9 to 14) (size 15 to 20)
#    0.000    2.750    1.250    2.625    0.000    2.250 
#    0.000    5.000    0.000    0.750    0.000    1.750 
#    0.000    0.000    0.000    0.000    0.000    0.000 
#
# Total GULP energy -356487.994680 kJ/mol
# GULP energy per Si atom -5570.124917 kJ/mol
# Density = 1.910526 g / cm^3
# Si number density = 19.148844 Si / 1000 Ang^3
#
#
#
# Elastic Constant Matrix: (Units=GPa)
#
#
# Indices 1 2 3 4 5 6 
#
# 1 14.1942 3.4525 1.6727 0.0000 0.0000 0.0000
# 2 3.4525 34.8814 24.4332 0.0000 0.0000 0.0000
# 3 1.6727 24.4332 114.4295 0.0000 0.0000 0.0000
# 4 0.0000 0.0000 0.0000 8.3317 0.0000 0.0000
# 5 0.0000 0.0000 0.0000 0.0000 22.2570 0.0000
# 6 0.0000 0.0000 0.0000 0.0000 0.0000 16.0845
#
#
#
# Elastic Compliance Matrix: (Units=1/GPa)
#
#
# Indices 1 2 3 4 5 6 
#
# 1 0.072219 -0.007536 0.000553 0.000000 0.000000 0.000000
# 2 -0.007536 0.034497 -0.007256 0.000000 0.000000 0.000000
# 3 0.000553 -0.007256 0.010280 0.000000 0.000000 0.000000
# 4 0.000000 0.000000 0.000000 0.120024 0.000000 0.000000
# 5 0.000000 0.000000 0.000000 0.000000 0.044930 0.000000
# 6 0.000000 0.000000 0.000000 0.000000 0.000000 0.062172
#
#
# Mechanical properties :
#
#
# Convention : Reuss Voigt Hill
#
# Bulk Modulus (GPa) = 11.29690 24.73578 18.01634
# Shear Modulus (GPa) = 12.43461 18.26442 15.34952
#
# Velocity S-wave (km/s) = 2.55103 3.09174 2.83431
# Velocity P-wave (km/s) = 3.81960 5.06861 4.48777
#
# Compressibility (1/GPa) = 0.08851988
#
# Stress axis : x y z
#
# Youngs Moduli (GPa) = 13.84680 28.98822 97.27471
#
# Poissons Ratio (x) = 0.21844 -0.05382
# Poissons Ratio (y) = 0.10434 0.70579
# Poissons Ratio (z) = -0.00766 0.21033
#
# Static dielectric constant tensor:
#      x y z
#    x 1.789630 0.000000 0.000000 
#    y 0.000000 1.652510 0.000000 
#    z 0.000000 0.000000 1.703950 
# 
# From -- ./inp_files/29560.got.cif
#   From: 2010.05.17/outbox.cif.g08.bks.cpg/sg59_15_cif.got.tgz:29560.got - 2010.06.03 14:40:33.
