data_PCOD9447175
_publ_section_title
;
Structure prediction by ZEFSAII (Michael W. Deem and Ramdas Pophale) SiO2 
 PCOD9447175
Probable space group: P M M N
;
_chemical_formula_sum "Si O2"
_cell_formula_units_Z 48
_cell_length_a 10.060054
_cell_length_b 19.763701
_cell_length_c 14.148479
_cell_angle_alpha 90.000000
_cell_angle_beta 90.000000
_cell_angle_gamma 90.000000
_cell_volume 2813.055764
_symmetry_space_group_name_H-M "P M M N"
_symmetry_group_IT_number 59
_space_group.IT_coordinate_system_code '2'
_symmetry_cell_setting 'orthorhombic'
loop_
_space_group_symop_operation_xyz
x,y,z
1/2-x,1/2-y,z
1/2+x,-y,-z
-x,1/2+y,-z
-x,-y,-z
1/2+x,1/2+y,-z
1/2-x,y,z
x,1/2-y,z
loop_
_atom_site_type_symbol
_atom_site_label
_atom_site_fract_x
_atom_site_fract_y
_atom_site_fract_z
Si Si1 0.408679 0.064134 0.526972
Si Si2 0.750000 0.074815 0.849573
Si Si3 0.250000 0.630432 0.943491
Si Si4 0.021955 0.326235 0.144541
Si Si5 0.093125 0.106197 0.326621
Si Si6 0.250000 0.077584 0.066159
Si Si7 0.503397 0.046232 0.728325
Si Si8 0.250000 0.478591 0.860085
O O1 0.250000 0.047726 0.528225
O O2 0.429672 0.114610 0.438725
O O3 0.454972 0.082627 0.632302
O O4 0.500000 0.000000 0.500000
O O5 0.620135 0.083011 0.785056
O O6 0.750000 0.996642 0.886464
O O7 0.750000 0.119809 0.943728
O O8 0.381524 0.666735 0.906656
O O9 0.250000 0.555754 0.896225
O O10 0.073044 0.250000 0.135479
O O11 0.013599 0.346516 0.255011
O O12 0.121780 0.380671 0.099125
O O13 0.250000 0.116497 0.308529
O O14 0.057536 0.028404 0.300965
O O15 0.250000 0.066657 0.954086
O O16 0.379323 0.034955 0.797288
#
# Coordination Sequence:
#
# PCOD9447175 Si02
#       8
#     8   4   4   8   8   4   8   4
#     4   9  19  29  47  72 108 139 165 207 255 311
#     4  11  20  34  56  72 112 145 172 217 275 331
#     4  11  23  36  49  79 108 141 177 217 274 317
#     4  12  22  36  54  74 105 141 179 220 260 316
#     4  10  18  33  49  74 106 140 175 208 257 322
#     4  11  21  36  49  79 102 141 181 223 264 315
#     4  11  17  32  49  79 105 142 170 209 269 324
#     4  11  20  30  56  74 108 137 172 225 271 321
#
# _framework density 17.063293999999999
#
# number of rings (size 3 to 8) (size 9 to 14) (size 15 to 20)
#    0.000    1.333    5.833    1.500    1.167    2.667 
#    0.000    0.000    0.000    0.000    0.000    7.000 
#    0.000    0.000    0.000    0.000    0.000    0.000 
#
# Total GULP energy -267732.453639 kJ/mol
# GULP energy per Si atom -5577.759451 kJ/mol
# Density = 1.702446 g / cm^3
# Si number density = 17.063294 Si / 1000 Ang^3
#
#
#
# Elastic Constant Matrix: (Units=GPa)
#
#
# Indices 1 2 3 4 5 6 
#
# 1 95.1653 1.6626 47.9199 0.0000 0.0000 0.0000
# 2 1.6626 36.3189 19.8962 0.0000 0.0000 0.0000
# 3 47.9199 19.8962 158.3428 0.0000 0.0000 0.0000
# 4 0.0000 0.0000 0.0000 8.7820 0.0000 0.0000
# 5 0.0000 0.0000 0.0000 0.0000 21.8201 0.0000
# 6 0.0000 0.0000 0.0000 0.0000 0.0000 -6.5922
#
#
#
# Elastic Compliance Matrix: (Units=1/GPa)
#
#
# Indices 1 2 3 4 5 6 
#
# 1 0.012484 0.001609 -0.003980 0.000000 0.000000 0.000000
# 2 0.001609 0.029777 -0.004228 0.000000 0.000000 0.000000
# 3 -0.003980 -0.004228 0.008051 0.000000 0.000000 0.000000
# 4 0.000000 0.000000 0.000000 0.113869 0.000000 0.000000
# 5 0.000000 0.000000 0.000000 0.000000 0.045829 0.000000
# 6 0.000000 0.000000 0.000000 0.000000 0.000000 -0.151694
#
#
# Mechanical properties :
#
#
# Convention : Reuss Voigt Hill
#
# Bulk Modulus (GPa) = 26.94501 47.64270 37.29386
# Shear Modulus (GPa) = 59.60388 19.49187 39.54787
#
# Velocity S-wave (km/s) = 5.91666 3.38350 4.81949
# Velocity P-wave (km/s) = 7.90578 6.57616 7.27142
#
# Compressibility (1/GPa) = 0.03711262
#
# Stress axis : x y z
#
# Youngs Moduli (GPa) = 80.10138 33.58335 124.20351
#
# Poissons Ratio (x) = -0.05404 0.49437
# Poissons Ratio (y) = -0.12888 0.52519
# Poissons Ratio (z) = 0.31883 0.14201
#
# Static dielectric constant tensor:
#      x y z
#    x 1.585920 0.000000 0.000000 
#    y 0.000000 1.535050 0.000000 
#    z 0.000000 0.000000 1.615540 
# 
# From -- ./inp_files/20628.got.cif
#   From: 2010.05.17/outbox.cif.g08.bks.cpg/sg59_11_cif.got.tgz:20628.got - 2010.06.03 14:40:33.
