data_PCOD9447441
_publ_section_title
;
Structure prediction by ZEFSAII (Michael W. Deem and Ramdas Pophale) SiO2 
 PCOD9447441
Probable space group: P M M N
;
_chemical_formula_sum "Si O2"
_cell_formula_units_Z 48
_cell_length_a 15.850414
_cell_length_b 17.057779
_cell_length_c 7.166410
_cell_angle_alpha 90.000000
_cell_angle_beta 90.000000
_cell_angle_gamma 90.000000
_cell_volume 1937.602761
_symmetry_space_group_name_H-M "P M M N"
_symmetry_group_IT_number 59
_space_group.IT_coordinate_system_code '2'
_symmetry_cell_setting 'orthorhombic'
loop_
_space_group_symop_operation_xyz
x,y,z
1/2-x,1/2-y,z
1/2+x,-y,-z
-x,1/2+y,-z
-x,-y,-z
1/2+x,1/2+y,-z
1/2-x,y,z
x,1/2-y,z
loop_
_atom_site_type_symbol
_atom_site_label
_atom_site_fract_x
_atom_site_fract_y
_atom_site_fract_z
Si Si1 0.575295 0.834837 0.550506
Si Si2 0.601305 0.665526 0.993470
Si Si3 0.100802 0.833351 0.057736
Si Si4 0.399606 0.501030 0.033056
Si Si5 0.123868 0.664298 0.497888
Si Si6 0.153942 0.009504 0.461252
O O1 0.602182 0.750000 0.470488
O O2 0.602717 0.835167 0.767061
O O3 0.474660 0.835899 0.548653
O O4 0.605716 0.915201 0.456009
O O5 0.637564 0.750000 0.051398
O O6 0.637741 0.580166 0.044084
O O7 0.502015 0.665504 0.052807
O O8 0.126571 0.750000 0.973621
O O9 0.131870 0.914010 0.967748
O O10 0.130083 0.833515 0.272127
O O11 0.386395 0.501167 0.255984
O O12 0.500000 0.500000 0.000000
O O13 0.157226 0.750000 0.559609
O O14 0.153101 0.576846 0.551389
O O15 0.250000 0.034174 0.437445
#
# Coordination Sequence:
#
# PCOD9447441 Si02
#       6
#     8   8   8   8   8   8
#     4   9  17  29  45  66  90 118 154 192 229 274
#     4   8  13  22  38  61  84 105 136 179 219 254
#     4   8  13  22  38  61  84 105 136 179 219 254
#     4   8  14  25  40  59  84 116 148 180 220 269
#     4   9  17  29  45  66  90 118 154 192 229 274
#     4  10  19  29  44  69  97 122 152 196 247 287
#
# _framework density 24.772877999999999
#
# number of rings (size 3 to 8) (size 9 to 14) (size 15 to 20)
#    0.000    3.333    0.000    0.500    0.000    0.667 
#    0.000    0.000    0.000    0.000    0.000   74.667 
#    0.000   88.000    0.000    0.000    0.000    0.000 
#
# Total GULP energy -267436.860814 kJ/mol
# GULP energy per Si atom -5571.601267 kJ/mol
# Density = 2.471649 g / cm^3
# Si number density = 24.772878 Si / 1000 Ang^3
#
#
#
# Elastic Constant Matrix: (Units=GPa)
#
#
# Indices 1 2 3 4 5 6 
#
# 1 39.7206 45.4600 -17.6017 0.0000 0.0000 0.0000
# 2 45.4600 323.4968 -13.7406 0.0000 0.0000 0.0000
# 3 -17.6017 -13.7406 54.9601 0.0000 0.0000 0.0000
# 4 0.0000 0.0000 0.0000 -18.8042 0.0000 0.0000
# 5 0.0000 0.0000 0.0000 0.0000 -3.3154 0.0000
# 6 0.0000 0.0000 0.0000 0.0000 0.0000 -45.1540
#
#
#
# Elastic Compliance Matrix: (Units=1/GPa)
#
#
# Indices 1 2 3 4 5 6 
#
# 1 0.034703 -0.004452 0.010001 0.000000 0.000000 0.000000
# 2 -0.004452 0.003696 -0.000502 0.000000 0.000000 0.000000
# 3 0.010001 -0.000502 0.021273 0.000000 0.000000 0.000000
# 4 0.000000 0.000000 0.000000 -0.053180 0.000000 0.000000
# 5 0.000000 0.000000 0.000000 0.000000 -0.301618 0.000000
# 6 0.000000 0.000000 0.000000 0.000000 0.000000 -0.022146
#
#
# Mechanical properties :
#
#
# Convention : Reuss Voigt Hill
#
# Bulk Modulus (GPa) = 14.33374 49.60142 31.96758
# Shear Modulus (GPa) = -16.44127 13.48259 -1.47934
#
# Velocity S-wave (km/s) = -2.57899 2.33544 -0.77360
# Velocity P-wave (km/s) = 1.75204 5.22861 3.48344
#
# Compressibility (1/GPa) = 0.06976547
#
# Stress axis : x y z
#
# Youngs Moduli (GPa) = 28.81607 270.59833 47.00902
#
# Poissons Ratio (x) = 1.20467 -0.47014
# Poissons Ratio (y) = 0.12829 0.02359
# Poissons Ratio (z) = -0.28819 0.13580
#
# Static dielectric constant tensor:
#      x y z
#    x 1.861630 0.000000 0.000000 
#    y 0.000000 2.096380 0.000000 
#    z 0.000000 0.000000 1.918150 
# 
# From -- ./inp_files/8995.got.cif
#   From: 2010.05.17/outbox.cif.g08.bks.cpg/sg59_5_cif.got.tgz:8995.got - 2010.06.03 14:40:33.
