data_PCOD9447137
_publ_section_title
;
Structure prediction by ZEFSAII (Michael W. Deem and Ramdas Pophale) SiO2 
 PCOD9447137
Probable space group: P M M N
;
_chemical_formula_sum "Si O2"
_cell_formula_units_Z 56
_cell_length_a 7.751747
_cell_length_b 21.773564
_cell_length_c 14.462624
_cell_angle_alpha 90.000000
_cell_angle_beta 90.000000
_cell_angle_gamma 90.000000
_cell_volume 2441.047372
_symmetry_space_group_name_H-M "P M M N"
_symmetry_group_IT_number 59
_space_group.IT_coordinate_system_code '2'
_symmetry_cell_setting 'orthorhombic'
loop_
_space_group_symop_operation_xyz
x,y,z
1/2-x,1/2-y,z
1/2+x,-y,-z
-x,1/2+y,-z
-x,-y,-z
1/2+x,1/2+y,-z
1/2-x,y,z
x,1/2-y,z
loop_
_atom_site_type_symbol
_atom_site_label
_atom_site_fract_x
_atom_site_fract_y
_atom_site_fract_z
Si Si1 0.448946 0.543724 0.741571
Si Si2 0.050202 0.819339 0.295156
Si Si3 0.045202 0.180614 0.913990
Si Si4 0.460541 0.750000 0.798365
Si Si5 0.045761 0.384312 0.427231
Si Si6 0.956004 0.250000 0.415073
Si Si7 0.449103 0.440910 0.608954
Si Si8 0.958032 0.374263 0.101135
O O1 0.250000 0.526010 0.759797
O O2 0.455364 0.600729 0.669686
O O3 0.530354 0.488872 0.681183
O O4 0.523630 0.568479 0.837850
O O5 0.250000 0.821515 0.324554
O O6 0.984615 0.750000 0.311709
O O7 0.040271 0.830245 0.184879
O O8 0.953129 0.874111 0.344478
O O9 0.250000 0.180862 0.899210
O O10 0.992148 0.250000 0.944429
O O11 0.003392 0.132420 0.994020
O O12 0.250000 0.750000 0.799374
O O13 0.515816 0.750000 0.691913
O O14 0.519976 0.688623 0.850167
O O15 0.250000 0.393939 0.415673
O O16 0.976237 0.429575 0.506933
O O17 0.017543 0.314084 0.456627
O O18 0.750000 0.250000 0.417732
O O19 0.250000 0.459508 0.595892
O O20 0.750000 0.375172 0.108417
#
# Coordination Sequence:
#
# PCOD9447137 Si02
#       8
#     8   8   8   4   8   4   8   8
#     4  10  21  39  60  83 114 159 200 232 278 342
#     4  10  22  40  62  87 111 142 190 242 290 342
#     4  10  20  34  55  85 117 148 181 226 290 348
#     4   9  16  29  51  78 109 148 185 229 278 322
#     4  11  23  37  56  86 120 153 191 241 294 337
#     4  11  21  37  57  82 115 154 195 237 288 346
#     4  10  23  41  60  82 114 153 195 240 289 340
#     4  10  18  32  55  82 113 148 190 230 273 333
#
# _framework density 22.940973
#
# number of rings (size 3 to 8) (size 9 to 14) (size 15 to 20)
#    0.000    1.857    2.143    1.929    1.000    3.714 
#    0.000    0.714    0.000    0.000    0.000    0.000 
#    0.000    0.000    0.000    0.000    0.000    0.000 
#
# Total GULP energy -312912.916717 kJ/mol
# GULP energy per Si atom -5587.730656 kJ/mol
# Density = 2.288876 g / cm^3
# Si number density = 22.940973 Si / 1000 Ang^3
#
#
#
# Elastic Constant Matrix: (Units=GPa)
#
#
# Indices 1 2 3 4 5 6 
#
# 1 53.1214 1.1273 -4.1472 0.0000 0.0000 0.0000
# 2 1.1273 69.0743 4.0900 0.0000 0.0000 0.0000
# 3 -4.1472 4.0900 48.5697 0.0000 0.0000 0.0000
# 4 0.0000 0.0000 0.0000 28.0088 0.0000 0.0000
# 5 0.0000 0.0000 0.0000 0.0000 15.7201 0.0000
# 6 0.0000 0.0000 0.0000 0.0000 0.0000 17.1994
#
#
#
# Elastic Compliance Matrix: (Units=1/GPa)
#
#
# Indices 1 2 3 4 5 6 
#
# 1 0.018963 -0.000407 0.001653 0.000000 0.000000 0.000000
# 2 -0.000407 0.014558 -0.001261 0.000000 0.000000 0.000000
# 3 0.001653 -0.001261 0.020836 0.000000 0.000000 0.000000
# 4 0.000000 0.000000 0.000000 0.035703 0.000000 0.000000
# 5 0.000000 0.000000 0.000000 0.000000 0.063613 0.000000
# 6 0.000000 0.000000 0.000000 0.000000 0.000000 0.058141
#
#
# Mechanical properties :
#
#
# Convention : Reuss Voigt Hill
#
# Bulk Modulus (GPa) = 18.40673 19.21175 18.80924
# Shear Modulus (GPa) = 21.74354 23.49869 22.62111
#
# Velocity S-wave (km/s) = 3.08198 3.20396 3.14356
# Velocity P-wave (km/s) = 4.55036 4.69891 4.62523
#
# Compressibility (1/GPa) = 0.05432795
#
# Stress axis : x y z
#
# Youngs Moduli (GPa) = 52.73554 68.68856 47.99315
#
# Poissons Ratio (x) = 0.02798 -0.07935
# Poissons Ratio (y) = 0.02148 0.06051
# Poissons Ratio (z) = -0.08719 0.08660
#
# Static dielectric constant tensor:
#      x y z
#    x 1.807520 0.000000 0.000000 
#    y 0.000000 1.886830 0.000000 
#    z 0.000000 0.000000 1.864480 
# 
# From -- ./inp_files/21129.got.cif
#   From: 2010.05.17/outbox.cif.g08.bks.cpg/sg59_11_cif.got.tgz:21129.got - 2010.06.03 14:40:33.
