data_PCOD9447110
_publ_section_title
;
Structure prediction by ZEFSAII (Michael W. Deem and Ramdas Pophale) SiO2 
 PCOD9447110
Probable space group: P M M N
;
_chemical_formula_sum "Si O2"
_cell_formula_units_Z 40
_cell_length_a 8.716349
_cell_length_b 25.404934
_cell_length_c 10.402824
_cell_angle_alpha 90.000000
_cell_angle_beta 90.000000
_cell_angle_gamma 90.000000
_cell_volume 2303.583361
_symmetry_space_group_name_H-M "P M M N"
_symmetry_group_IT_number 59
_space_group.IT_coordinate_system_code '2'
_symmetry_cell_setting 'orthorhombic'
loop_
_space_group_symop_operation_xyz
x,y,z
1/2-x,1/2-y,z
1/2+x,-y,-z
-x,1/2+y,-z
-x,-y,-z
1/2+x,1/2+y,-z
1/2-x,y,z
x,1/2-y,z
loop_
_atom_site_type_symbol
_atom_site_label
_atom_site_fract_x
_atom_site_fract_y
_atom_site_fract_z
Si Si1 0.933626 0.529224 0.123523
Si Si2 0.064372 0.635443 0.227723
Si Si3 0.073402 0.750000 0.210558
Si Si4 0.426976 0.750000 0.523212
Si Si5 0.933458 0.034421 0.383369
Si Si6 0.932859 0.861118 0.516279
O O1 0.750000 0.534065 0.114217
O O2 0.969308 0.494755 0.250355
O O3 0.006681 0.586575 0.145207
O O4 0.000000 0.500000 0.000000
O O5 0.250000 0.636349 0.233681
O O6 0.008290 0.692686 0.176249
O O7 0.001413 0.629512 0.373095
O O8 0.250000 0.750000 0.166319
O O9 0.073101 0.750000 0.366709
O O10 0.250000 0.750000 0.564612
O O11 0.510053 0.696174 0.561312
O O12 0.750000 0.037835 0.396669
O O13 0.005335 0.092168 0.394976
O O14 0.000000 0.000000 0.500000
O O15 0.750000 0.862533 0.508084
#
# Coordination Sequence:
#
# PCOD9447110 Si02
#       6
#     8   8   4   4   8   8
#     4  11  24  39  56  80 111 147 189 231 282 337
#     4  10  18  32  54  78 110 145 182 227 275 327
#     4   7  14  27  47  76 103 136 175 216 268 320
#     4   9  17  31  49  74 109 146 181 224 280 330
#     4  11  22  36  56  81 110 145 185 228 277 333
#     4  11  20  31  51  81 113 144 183 229 279 332
#
# _framework density 17.364250999999999
#
# number of rings (size 3 to 8) (size 9 to 14) (size 15 to 20)
#    0.000    1.800    2.000    5.100    0.000    2.400 
#    0.000    1.500    0.000    1.200    0.000    2.800 
#    0.000    0.000    0.000    0.000    0.000    0.000 
#
# Total GULP energy -223211.883798 kJ/mol
# GULP energy per Si atom -5580.297095 kJ/mol
# Density = 1.732473 g / cm^3
# Si number density = 17.364251 Si / 1000 Ang^3
#
#
#
# Elastic Constant Matrix: (Units=GPa)
#
#
# Indices 1 2 3 4 5 6 
#
# 1 89.7428 68.3253 48.7467 0.0000 0.0000 0.0000
# 2 68.3253 200.4802 60.0467 0.0000 0.0000 0.0000
# 3 48.7467 60.0467 71.0297 0.0000 0.0000 0.0000
# 4 0.0000 0.0000 0.0000 20.3199 0.0000 0.0000
# 5 0.0000 0.0000 0.0000 0.0000 20.6579 0.0000
# 6 0.0000 0.0000 0.0000 0.0000 0.0000 34.5123
#
#
#
# Elastic Compliance Matrix: (Units=1/GPa)
#
#
# Indices 1 2 3 4 5 6 
#
# 1 0.019464 -0.003525 -0.010378 0.000000 0.000000 0.000000
# 2 -0.003525 0.007318 -0.003767 0.000000 0.000000 0.000000
# 3 -0.010378 -0.003767 0.024385 0.000000 0.000000 0.000000
# 4 0.000000 0.000000 0.000000 0.049213 0.000000 0.000000
# 5 0.000000 0.000000 0.000000 0.000000 0.048408 0.000000
# 6 0.000000 0.000000 0.000000 0.000000 0.000000 0.028975
#
#
# Mechanical properties :
#
#
# Convention : Reuss Voigt Hill
#
# Bulk Modulus (GPa) = 63.18267 79.49892 71.34080
# Shear Modulus (GPa) = 22.89614 27.37361 25.13488
#
# Velocity S-wave (km/s) = 3.63516 3.97474 3.80874
# Velocity P-wave (km/s) = 7.35424 8.18213 7.77921
#
# Compressibility (1/GPa) = 0.01582713
#
# Stress axis : x y z
#
# Youngs Moduli (GPa) = 51.37747 136.65555 41.00867
#
# Poissons Ratio (x) = 0.48173 0.42557
# Poissons Ratio (y) = 0.18111 0.15448
# Poissons Ratio (z) = 0.53318 0.51477
#
# Static dielectric constant tensor:
#      x y z
#    x 1.584060 0.000000 0.000000 
#    y 0.000000 1.623820 0.000000 
#    z 0.000000 0.000000 1.553360 
# 
# From -- ./inp_files/14433.got.cif
#   From: 2010.05.17/outbox.cif.g08.bks.cpg/sg59_8_cif.got.tgz:14433.got - 2010.06.03 14:40:33.
