data_PCOD9447187
_publ_section_title
;
Structure prediction by ZEFSAII (Michael W. Deem and Ramdas Pophale) SiO2 
 PCOD9447187
Probable space group: P M M N
;
_chemical_formula_sum "Si O2"
_cell_formula_units_Z 64
_cell_length_a 17.332041
_cell_length_b 13.120837
_cell_length_c 14.413590
_cell_angle_alpha 90.000000
_cell_angle_beta 90.000000
_cell_angle_gamma 90.000000
_cell_volume 3277.807256
_symmetry_space_group_name_H-M "P M M N"
_symmetry_group_IT_number 59
_space_group.IT_coordinate_system_code '2'
_symmetry_cell_setting 'orthorhombic'
loop_
_space_group_symop_operation_xyz
x,y,z
1/2-x,1/2-y,z
1/2+x,-y,-z
-x,1/2+y,-z
-x,-y,-z
1/2+x,1/2+y,-z
1/2-x,y,z
x,1/2-y,z
loop_
_atom_site_type_symbol
_atom_site_label
_atom_site_fract_x
_atom_site_fract_y
_atom_site_fract_z
Si Si1 0.859702 0.362329 0.794460
Si Si2 0.491498 0.545758 0.602549
Si Si3 0.163742 0.865956 0.540240
Si Si4 0.121680 0.364561 0.947298
Si Si5 0.988179 0.361149 0.100375
Si Si6 0.024901 0.065362 0.784461
Si Si7 0.669844 0.415271 0.006131
Si Si8 0.335755 0.477301 0.367815
O O1 0.833635 0.250000 0.765897
O O2 0.834120 0.387234 0.898351
O O3 0.837480 0.450536 0.722834
O O4 0.952106 0.363172 0.797819
O O5 0.500000 0.500000 0.500000
O O6 0.415114 0.617050 0.598926
O O7 0.467870 0.458812 0.676463
O O8 0.580130 0.579771 0.629104
O O9 0.250000 0.878007 0.585391
O O10 0.160766 0.750000 0.504623
O O11 0.162124 0.946412 0.456063
O O12 0.153673 0.250000 0.954746
O O13 0.095521 0.388955 0.842184
O O14 0.167528 0.462453 0.982247
O O15 0.046014 0.368554 0.013390
O O16 0.999829 0.250000 0.144529
O O17 0.996966 0.456724 0.167958
O O18 0.903211 0.370650 0.058282
O O19 0.750000 0.376512 0.046020
O O20 0.250000 0.425540 0.369580
#
# Coordination Sequence:
#
# PCOD9447187 Si02
#       8
#     8   8   8   8   8   8   8   8
#     4  11  19  29  48  78 112 142 171 208 264 326
#     4   9  19  33  51  77 109 141 176 219 268 322
#     4   9  17  32  53  76 103 135 174 223 276 324
#     4  10  19  36  57  72  95 135 183 220 251 303
#     4  10  19  34  54  73  97 135 179 212 252 308
#     4  10  18  33  53  76 103 137 180 217 262 313
#     4  11  21  32  48  76 111 137 166 215 269 320
#     4   9  18  31  49  75 108 144 177 212 261 325
#
# _framework density 19.525248999999999
#
# number of rings (size 3 to 8) (size 9 to 14) (size 15 to 20)
#    0.000    2.125    2.500    2.250    0.000    3.000 
#    0.000    3.125    0.000    0.375    0.000    0.000 
#    0.000   17.500    0.000    0.000    0.000    0.000 
#
# Total GULP energy -356313.803711 kJ/mol
# GULP energy per Si atom -5567.403183 kJ/mol
# Density = 1.948081 g / cm^3
# Si number density = 19.525249 Si / 1000 Ang^3
#
#
#
# Elastic Constant Matrix: (Units=GPa)
#
#
# Indices 1 2 3 4 5 6 
#
# 1 138.0123 14.1336 12.3990 0.0000 0.0000 0.0000
# 2 14.1336 75.7445 9.8159 0.0000 0.0000 0.0000
# 3 12.3990 9.8159 63.3367 0.0000 0.0000 0.0000
# 4 0.0000 0.0000 0.0000 3.1269 0.0000 0.0000
# 5 0.0000 0.0000 0.0000 0.0000 -25.1492 0.0000
# 6 0.0000 0.0000 0.0000 0.0000 0.0000 -19.9099
#
#
#
# Elastic Compliance Matrix: (Units=1/GPa)
#
#
# Indices 1 2 3 4 5 6 
#
# 1 0.007486 -0.001232 -0.001275 0.000000 0.000000 0.000000
# 2 -0.001232 0.013676 -0.001878 0.000000 0.000000 0.000000
# 3 -0.001275 -0.001878 0.016329 0.000000 0.000000 0.000000
# 4 0.000000 0.000000 0.000000 0.319810 0.000000 0.000000
# 5 0.000000 0.000000 0.000000 0.000000 -0.039763 0.000000
# 6 0.000000 0.000000 0.000000 0.000000 0.000000 -0.050226
#
#
# Mechanical properties :
#
#
# Convention : Reuss Voigt Hill
#
# Bulk Modulus (GPa) = 34.81679 38.86561 36.84120
# Shear Modulus (GPa) = 17.50358 7.66323 12.58340
#
# Velocity S-wave (km/s) = 2.99734 1.98325 2.54139
# Velocity P-wave (km/s) = 5.46343 5.01925 5.24605
#
# Compressibility (1/GPa) = 0.02872178
#
# Stress axis : x y z
#
# Youngs Moduli (GPa) = 133.57578 73.12331 61.23975
#
# Poissons Ratio (x) = 0.09007 0.07806
# Poissons Ratio (y) = 0.16453 0.11503
# Poissons Ratio (z) = 0.17027 0.13735
#
# Static dielectric constant tensor:
#      x y z
#    x 1.762860 0.000000 0.000000 
#    y 0.000000 1.662180 0.000000 
#    z 0.000000 0.000000 1.660980 
# 
# From -- ./inp_files/24039.got.cif
#   From: 2010.05.17/outbox.cif.g08.bks.cpg/sg59_13_cif.got.tgz:24039.got - 2010.06.03 14:40:33.
