data_PCOD9447840
_publ_section_title
;
Structure prediction by ZEFSAII (Michael W. Deem and Ramdas Pophale) SiO2 
 PCOD9447840
Probable space group: P M M N
;
_chemical_formula_sum "Si O2"
_cell_formula_units_Z 64
_cell_length_a 23.831683
_cell_length_b 8.841808
_cell_length_c 19.505213
_cell_angle_alpha 90.000000
_cell_angle_beta 90.000000
_cell_angle_gamma 90.000000
_cell_volume 4110.044184
_symmetry_space_group_name_H-M "P M M N"
_symmetry_group_IT_number 59
_space_group.IT_coordinate_system_code '2'
_symmetry_cell_setting 'orthorhombic'
loop_
_space_group_symop_operation_xyz
x,y,z
1/2-x,1/2-y,z
1/2+x,-y,-z
-x,1/2+y,-z
-x,-y,-z
1/2+x,1/2+y,-z
1/2-x,y,z
x,1/2-y,z
loop_
_atom_site_type_symbol
_atom_site_label
_atom_site_fract_x
_atom_site_fract_y
_atom_site_fract_z
Si Si1 0.184900 0.568081 0.105097
Si Si2 0.521918 0.569859 0.391321
Si Si3 0.500797 0.570112 0.750299
Si Si4 0.980925 0.569842 0.108043
Si Si5 0.585328 0.930174 0.972804
Si Si6 0.814401 0.568113 0.618414
Si Si7 0.082271 0.431144 0.472044
Si Si8 0.374311 0.931128 0.249373
O O1 0.250000 0.523319 0.101977
O O2 0.181738 0.750000 0.097780
O O3 0.145828 0.490930 0.048455
O O4 0.158367 0.530235 0.179304
O O5 0.520492 0.750000 0.381492
O O6 0.528231 0.489197 0.318779
O O7 0.568301 0.532338 0.449126
O O8 0.463278 0.515435 0.424934
O O9 0.503005 0.750000 0.750645
O O10 0.472239 0.508555 0.819255
O O11 0.564305 0.505284 0.750163
O O12 0.985191 0.750000 0.117080
O O13 0.039228 0.509495 0.075877
O O14 0.933931 0.537131 0.050601
O O15 0.581914 0.750000 0.962508
O O16 0.750000 0.524160 0.606893
O O17 0.816369 0.750000 0.628443
O O18 0.856087 0.532524 0.555584
O O19 0.839368 0.489868 0.685834
O O20 0.073270 0.250000 0.463856
O O21 0.380521 0.750000 0.252679
#
# Coordination Sequence:
#
# PCOD9447840 Si02
#       8
#     8   8   8   8   8   8   8   8
#     4  10  21  35  50  69  99 138 174 206 240 283
#     4  10  19  31  49  70  95 129 162 199 247 292
#     4  12  22  32  49  74 100 129 164 203 250 296
#     4  10  20  34  51  72  99 129 162 200 247 300
#     4  10  20  33  51  74  98 128 164 205 247 290
#     4  10  20  33  49  70  98 132 167 204 241 281
#     4   9  18  32  48  69  97 128 163 201 240 290
#     4  11  21  33  48  69  98 135 173 204 236 281
#
# _framework density 15.571607999999999
#
# number of rings (size 3 to 8) (size 9 to 14) (size 15 to 20)
#    0.000    1.750    2.500    3.000    0.000    3.500 
#    0.000    0.000    0.000    0.000    0.000    0.875 
#    0.000    5.000    0.000    0.000    0.000    0.000 
#
# Total GULP energy -357273.158922 kJ/mol
# GULP energy per Si atom -5582.393108 kJ/mol
# Density = 1.553617 g / cm^3
# Si number density = 15.571608 Si / 1000 Ang^3
#
#
#
# Elastic Constant Matrix: (Units=GPa)
#
#
# Indices 1 2 3 4 5 6 
#
# 1 85.0544 37.1371 60.6145 0.0000 0.0000 0.0000
# 2 37.1371 53.3026 57.6137 0.0000 0.0000 0.0000
# 3 60.6145 57.6137 136.1957 0.0000 0.0000 0.0000
# 4 0.0000 0.0000 0.0000 27.4062 0.0000 0.0000
# 5 0.0000 0.0000 0.0000 0.0000 18.7116 0.0000
# 6 0.0000 0.0000 0.0000 0.0000 0.0000 19.9254
#
#
#
# Elastic Compliance Matrix: (Units=1/GPa)
#
#
# Indices 1 2 3 4 5 6 
#
# 1 0.018688 -0.007426 -0.005176 0.000000 0.000000 0.000000
# 2 -0.007426 0.037516 -0.012565 0.000000 0.000000 0.000000
# 3 -0.005176 -0.012565 0.014961 0.000000 0.000000 0.000000
# 4 0.000000 0.000000 0.000000 0.036488 0.000000 0.000000
# 5 0.000000 0.000000 0.000000 0.000000 0.053443 0.000000
# 6 0.000000 0.000000 0.000000 0.000000 0.000000 0.050187
#
#
# Mechanical properties :
#
#
# Convention : Reuss Voigt Hill
#
# Bulk Modulus (GPa) = 48.00426 65.03150 56.51788
# Shear Modulus (GPa) = 18.61770 21.15445 19.88608
#
# Velocity S-wave (km/s) = 3.46152 3.68982 3.57749
# Velocity P-wave (km/s) = 6.84625 7.74639 7.31019
#
# Compressibility (1/GPa) = 0.02083148
#
# Stress axis : x y z
#
# Youngs Moduli (GPa) = 53.50965 26.65527 66.83911
#
# Poissons Ratio (x) = 0.19794 0.34596
# Poissons Ratio (y) = 0.39736 0.83984
# Poissons Ratio (z) = 0.27696 0.33493
#
# Static dielectric constant tensor:
#      x y z
#    x 1.498660 0.000000 0.000000 
#    y 0.000000 1.520560 0.000000 
#    z 0.000000 0.000000 1.523530 
# 
# From -- ./inp_files/26491.got.cif
#   From: 2010.05.17/outbox.cif.g08.bks.cpg/sg59_14_cif.got.tgz:26491.got - 2010.06.03 14:40:33.
