data_PCOD9447665
_publ_section_title
;
Structure prediction by ZEFSAII (Michael W. Deem and Ramdas Pophale) SiO2 
 PCOD9447665
Probable space group: P M M N
;
_chemical_formula_sum "Si O2"
_cell_formula_units_Z 48
_cell_length_a 15.021367
_cell_length_b 18.104881
_cell_length_c 7.915632
_cell_angle_alpha 90.000000
_cell_angle_beta 90.000000
_cell_angle_gamma 90.000000
_cell_volume 2152.735769
_symmetry_space_group_name_H-M "P M M N"
_symmetry_group_IT_number 59
_space_group.IT_coordinate_system_code '2'
_symmetry_cell_setting 'orthorhombic'
loop_
_space_group_symop_operation_xyz
x,y,z
1/2-x,1/2-y,z
1/2+x,-y,-z
-x,1/2+y,-z
-x,-y,-z
1/2+x,1/2+y,-z
1/2-x,y,z
x,1/2-y,z
loop_
_atom_site_type_symbol
_atom_site_label
_atom_site_fract_x
_atom_site_fract_y
_atom_site_fract_z
Si Si1 0.343610 0.636282 0.505252
Si Si2 0.011240 0.893442 0.737018
Si Si3 0.151184 0.020672 0.320805
Si Si4 0.846214 0.330680 0.871550
Si Si5 0.645947 0.986128 0.089884
Si Si6 0.048449 0.163967 0.928089
O O1 0.250000 0.646519 0.597260
O O2 0.424922 0.654408 0.622134
O O3 0.349968 0.552230 0.435401
O O4 0.340618 0.676909 0.328822
O O5 0.935061 0.933478 0.630279
O O6 0.956394 0.845008 0.870039
O O7 0.078208 0.954794 0.823882
O O8 0.250000 0.054219 0.340176
O O9 0.140840 0.006194 0.116866
O O10 0.750000 0.365647 0.922348
O O11 0.848018 0.250000 0.955033
O O12 0.946380 0.358862 0.888463
O O13 0.750000 0.994584 0.139423
O O14 0.612465 0.902497 0.131647
O O15 0.065037 0.250000 0.879325
#
# Coordination Sequence:
#
# PCOD9447665 Si02
#       6
#     8   8   8   8   8   8
#     4  10  19  30  48  74 102 132 168 214 264 312
#     4  11  20  32  52  80 106 131 170 224 271 304
#     4   9  18  32  49  69  97 134 169 201 248 310
#     4   9  18  33  51  70  98 139 178 209 254 321
#     4  10  20  35  55  78 106 138 173 217 263 309
#     4  10  21  36  54  77 105 140 179 215 257 310
#
# _framework density 22.297208999999999
#
# number of rings (size 3 to 8) (size 9 to 14) (size 15 to 20)
#    0.000    2.167    0.000    5.000    0.000    3.667 
#    0.000    0.000    0.000    0.000    0.000    0.000 
#    0.000    4.000    0.000    0.000    0.000    0.000 
#
# Total GULP energy -267286.609675 kJ/mol
# GULP energy per Si atom -5568.471035 kJ/mol
# Density = 2.224646 g / cm^3
# Si number density = 22.297209 Si / 1000 Ang^3
#
#
#
# Elastic Constant Matrix: (Units=GPa)
#
#
# Indices 1 2 3 4 5 6 
#
# 1 117.4522 32.8930 -3.3279 0.0000 0.0000 0.0000
# 2 32.8930 84.5129 2.0110 0.0000 0.0000 0.0000
# 3 -3.3279 2.0110 12.6723 0.0000 0.0000 0.0000
# 4 0.0000 0.0000 0.0000 -15.5250 0.0000 0.0000
# 5 0.0000 0.0000 0.0000 0.0000 31.0201 0.0000
# 6 0.0000 0.0000 0.0000 0.0000 0.0000 -21.7524
#
#
#
# Elastic Compliance Matrix: (Units=1/GPa)
#
#
# Indices 1 2 3 4 5 6 
#
# 1 0.009679 -0.003842 0.003152 0.000000 0.000000 0.000000
# 2 -0.003842 0.013403 -0.003136 0.000000 0.000000 0.000000
# 3 0.003152 -0.003136 0.080238 0.000000 0.000000 0.000000
# 4 0.000000 0.000000 0.000000 -0.064412 0.000000 0.000000
# 5 0.000000 0.000000 0.000000 0.000000 0.032237 0.000000
# 6 0.000000 0.000000 0.000000 0.000000 0.000000 -0.045972
#
#
# Mechanical properties :
#
#
# Convention : Reuss Voigt Hill
#
# Bulk Modulus (GPa) = 10.45297 30.86551 20.65924
# Shear Modulus (GPa) = 77.26249 10.95263 44.10756
#
# Velocity S-wave (km/s) = 5.89291 2.21873 4.45248
# Velocity P-wave (km/s) = 7.14143 4.52068 5.97648
#
# Compressibility (1/GPa) = 0.09566656
#
# Stress axis : x y z
#
# Youngs Moduli (GPa) = 103.31165 74.61248 12.46299
#
# Poissons Ratio (x) = 0.28668 -0.03928
# Poissons Ratio (y) = 0.39695 0.03908
# Poissons Ratio (z) = -0.32560 0.23397
#
# Static dielectric constant tensor:
#      x y z
#    x 1.853190 0.000000 0.000000 
#    y 0.000000 3.720280 0.000000 
#    z 0.000000 0.000000 1.879480 
# 
# From -- ./inp_files/9184.got.cif
#   From: 2010.05.17/outbox.cif.g08.bks.cpg/sg59_5_cif.got.tgz:9184.got - 2010.06.03 14:40:33.
