data_PCOD9447418
_publ_section_title
;
Structure prediction by ZEFSAII (Michael W. Deem and Ramdas Pophale) SiO2 
 PCOD9447418
Probable space group: P M M N
;
_chemical_formula_sum "Si O2"
_cell_formula_units_Z 56
_cell_length_a 9.106793
_cell_length_b 13.990234
_cell_length_c 29.849170
_cell_angle_alpha 90.000000
_cell_angle_beta 90.000000
_cell_angle_gamma 90.000000
_cell_volume 3802.968280
_symmetry_space_group_name_H-M "P M M N"
_symmetry_group_IT_number 59
_space_group.IT_coordinate_system_code '2'
_symmetry_cell_setting 'orthorhombic'
loop_
_space_group_symop_operation_xyz
x,y,z
1/2-x,1/2-y,z
1/2+x,-y,-z
-x,1/2+y,-z
-x,-y,-z
1/2+x,1/2+y,-z
1/2-x,y,z
x,1/2-y,z
loop_
_atom_site_type_symbol
_atom_site_label
_atom_site_fract_x
_atom_site_fract_y
_atom_site_fract_z
Si Si1 0.081097 0.366109 0.747141
Si Si2 0.075143 0.636111 0.344940
Si Si3 0.426826 0.549085 0.066983
Si Si4 0.073614 0.357417 0.018118
Si Si5 0.075031 0.641145 0.516585
Si Si6 0.574423 0.136581 0.838689
Si Si7 0.425114 0.048340 0.568721
O O1 0.250000 0.396908 0.744465
O O2 0.078878 0.250000 0.747778
O O3 0.992353 0.394156 0.702772
O O4 0.006292 0.396180 0.793618
O O5 0.250000 0.623445 0.344927
O O6 0.045469 0.750000 0.350805
O O7 0.001615 0.579864 0.385639
O O8 0.250000 0.559355 0.064331
O O9 0.465375 0.440287 0.053538
O O10 0.471562 0.580887 0.116579
O O11 0.499212 0.614533 0.028824
O O12 0.250000 0.360649 0.012514
O O13 0.032174 0.250000 0.031460
O O14 0.250000 0.634645 0.506886
O O15 0.042332 0.750000 0.529828
O O16 0.042685 0.560937 0.553851
O O17 0.987661 0.612404 0.471930
O O18 0.750000 0.125951 0.832814
O O19 0.545742 0.250000 0.845295
O O20 0.250000 0.059982 0.572222
#
# Coordination Sequence:
#
# PCOD9447418 Si02
#       7
#     8   8   8   8   8   8   8
#     4   9  17  28  42  61  84 108 135 169 208 249
#     4  10  19  30  44  62  87 117 143 169 207 254
#     4   9  17  28  42  60  82 111 144 172 204 249
#     4   9  17  28  41  59  84 111 140 176 212 243
#     4   9  18  32  46  61  86 118 147 175 210 251
#     4   9  16  26  40  58  81 108 136 166 203 249
#     4  10  19  29  44  66  88 112 145 180 211 245
#
# _framework density 14.725339999999999
#
# number of rings (size 3 to 8) (size 9 to 14) (size 15 to 20)
#    0.000    2.714    0.000    2.143    0.000    6.571 
#    0.000    1.429    0.000    0.000    0.000    1.000 
#    0.000    3.429    0.000    0.000    0.000    0.000 
#
# Total GULP energy -312057.898752 kJ/mol
# GULP energy per Si atom -5572.462478 kJ/mol
# Density = 1.469182 g / cm^3
# Si number density = 14.725340 Si / 1000 Ang^3
#
#
#
# Elastic Constant Matrix: (Units=GPa)
#
#
# Indices 1 2 3 4 5 6 
#
# 1 45.8411 39.0014 61.8745 0.0000 0.0000 0.0000
# 2 39.0014 81.6422 59.0015 0.0000 0.0000 0.0000
# 3 61.8745 59.0015 152.6389 0.0000 0.0000 0.0000
# 4 0.0000 0.0000 0.0000 21.1380 0.0000 0.0000
# 5 0.0000 0.0000 0.0000 0.0000 29.0086 0.0000
# 6 0.0000 0.0000 0.0000 0.0000 0.0000 16.3300
#
#
#
# Elastic Compliance Matrix: (Units=1/GPa)
#
#
# Indices 1 2 3 4 5 6 
#
# 1 0.059199 -0.015177 -0.018131 0.000000 0.000000 0.000000
# 2 -0.015177 0.020888 -0.001922 0.000000 0.000000 0.000000
# 3 -0.018131 -0.001922 0.014644 0.000000 0.000000 0.000000
# 4 0.000000 0.000000 0.000000 0.047308 0.000000 0.000000
# 5 0.000000 0.000000 0.000000 0.000000 0.034473 0.000000
# 6 0.000000 0.000000 0.000000 0.000000 0.000000 0.061237
#
#
# Mechanical properties :
#
#
# Convention : Reuss Voigt Hill
#
# Bulk Modulus (GPa) = 41.20069 66.65298 53.92683
# Shear Modulus (GPa) = 15.80787 21.31165 18.55976
#
# Velocity S-wave (km/s) = 3.28001 3.80844 3.55406
# Velocity P-wave (km/s) = 6.51036 8.04371 7.31731
#
# Compressibility (1/GPa) = 0.02427144
#
# Stress axis : x y z
#
# Youngs Moduli (GPa) = 16.89207 47.87501 68.28875
#
# Poissons Ratio (x) = 0.72662 1.23812
# Poissons Ratio (y) = 0.25638 0.13122
# Poissons Ratio (z) = 0.30626 0.09200
#
# Static dielectric constant tensor:
#      x y z
#    x 1.492050 0.000000 0.000000 
#    y 0.000000 1.485290 0.000000 
#    z 0.000000 0.000000 1.464210 
# 
# From -- ./inp_files/33170.got.cif
#   From: 2010.05.17/outbox.cif.g08.bks.cpg/sg59_17_cif.got.tgz:33170.got - 2010.06.03 14:40:33.
