data_PCOD9447316
_publ_section_title
;
Structure prediction by ZEFSAII (Michael W. Deem and Ramdas Pophale) SiO2 
 PCOD9447316
Probable space group: P M M N
;
_chemical_formula_sum "Si O2"
_cell_formula_units_Z 64
_cell_length_a 18.209001
_cell_length_b 30.256573
_cell_length_c 5.471913
_cell_angle_alpha 90.000000
_cell_angle_beta 90.000000
_cell_angle_gamma 90.000000
_cell_volume 3014.706517
_symmetry_space_group_name_H-M "P M M N"
_symmetry_group_IT_number 59
_space_group.IT_coordinate_system_code '2'
_symmetry_cell_setting 'orthorhombic'
loop_
_space_group_symop_operation_xyz
x,y,z
1/2-x,1/2-y,z
1/2+x,-y,-z
-x,1/2+y,-z
-x,-y,-z
1/2+x,1/2+y,-z
1/2-x,y,z
x,1/2-y,z
loop_
_atom_site_type_symbol
_atom_site_label
_atom_site_fract_x
_atom_site_fract_y
_atom_site_fract_z
Si Si1 0.337276 0.148355 0.562329
Si Si2 0.884582 0.698258 0.937608
Si Si3 0.564869 0.367286 0.406903
Si Si4 0.331400 0.915231 0.235089
Si Si5 0.471692 0.702523 0.214865
Si Si6 0.553265 0.571182 0.554391
Si Si7 0.945073 0.482403 0.802160
Si Si8 0.666821 0.322881 0.045774
O O1 0.250000 0.140490 0.547091
O O2 0.353233 0.174235 0.817707
O O3 0.384130 0.102922 0.551081
O O4 0.361333 0.175869 0.317972
O O5 0.862776 0.750000 0.935381
O O6 0.972736 0.697028 0.987424
O O7 0.625339 0.399601 0.524866
O O8 0.521415 0.339966 0.614441
O O9 0.501965 0.397562 0.282694
O O10 0.615053 0.330691 0.277392
O O11 0.250000 0.929847 0.295479
O O12 0.378272 0.952955 0.107473
O O13 0.328297 0.871906 0.068183
O O14 0.491205 0.750000 0.330709
O O15 0.386706 0.703169 0.134691
O O16 0.496140 0.549450 0.363184
O O17 0.584673 0.527078 0.677041
O O18 0.000000 0.500000 0.000000
O O19 0.750000 0.306771 0.085106
#
# Coordination Sequence:
#
# PCOD9447316 Si02
#       8
#     8   8   8   8   8   8   8   8
#     4  12  26  44  70 103 139 179 224 284 352 410
#     4  11  25  46  71 100 135 179 231 282 339 413
#     4  10  18  36  60  81 113 155 204 254 313 381
#     4   9  19  34  54  82 111 148 200 255 309 376
#     4  10  22  37  58  85 118 162 211 261 314 383
#     4  10  22  38  60  91 122 167 218 270 329 399
#     4  10  21  37  60  86 123 167 216 269 331 397
#     4  10  20  34  55  84 117 156 201 259 323 385
#
# _framework density 21.229263
#
# number of rings (size 3 to 8) (size 9 to 14) (size 15 to 20)
#    0.000    1.750    1.250    2.625    1.750    3.250 
#    0.000    0.625    0.000    0.000    0.000    0.000 
#    0.000    0.000    0.000    0.000    0.000    0.000 
#
# Total GULP energy -356759.750092 kJ/mol
# GULP energy per Si atom -5574.371095 kJ/mol
# Density = 2.118094 g / cm^3
# Si number density = 21.229263 Si / 1000 Ang^3
#
#
#
# Elastic Constant Matrix: (Units=GPa)
#
#
# Indices 1 2 3 4 5 6 
#
# 1 79.6308 48.4149 9.0517 0.0000 0.0000 0.0000
# 2 48.4149 134.3954 29.3351 0.0000 0.0000 0.0000
# 3 9.0517 29.3351 56.3773 0.0000 0.0000 0.0000
# 4 0.0000 0.0000 0.0000 -4.8267 0.0000 0.0000
# 5 0.0000 0.0000 0.0000 0.0000 19.6379 0.0000
# 6 0.0000 0.0000 0.0000 0.0000 0.0000 0.0928
#
#
#
# Elastic Compliance Matrix: (Units=1/GPa)
#
#
# Indices 1 2 3 4 5 6 
#
# 1 0.016092 -0.005903 0.000488 0.000000 0.000000 0.000000
# 2 -0.005903 0.010560 -0.004547 0.000000 0.000000 0.000000
# 3 0.000488 -0.004547 0.020025 0.000000 0.000000 0.000000
# 4 0.000000 0.000000 0.000000 -0.207181 0.000000 0.000000
# 5 0.000000 0.000000 0.000000 0.000000 0.050922 0.000000
# 6 0.000000 0.000000 0.000000 0.000000 0.000000 10.771865
#
#
# Mechanical properties :
#
#
# Convention : Reuss Voigt Hill
#
# Bulk Modulus (GPa) = 37.37977 49.33410 43.35693
# Shear Modulus (GPa) = 0.46768 15.22092 7.84430
#
# Velocity S-wave (km/s) = 0.46987 2.68055 1.92433
# Velocity P-wave (km/s) = 4.23559 5.73320 5.04033
#
# Compressibility (1/GPa) = 0.02675244
#
# Stress axis : x y z
#
# Youngs Moduli (GPa) = 62.14373 94.69813 49.93724
#
# Poissons Ratio (x) = 0.55905 -0.02438
# Poissons Ratio (y) = 0.36686 0.22706
# Poissons Ratio (z) = -0.03034 0.43058
#
# Static dielectric constant tensor:
#      x y z
#    x 1.678600 0.000000 0.000000 
#    y 0.000000 1.857190 0.000000 
#    z 0.000000 0.000000 1.839020 
# 
# From -- ./inp_files/3031.got.cif
#   From: 2010.05.17/outbox.cif.g08.bks.cpg/sg59_2_cif.got.tgz:3031.got - 2010.06.03 14:40:33.
