data_PCOD9447270
_publ_section_title
;
Structure prediction by ZEFSAII (Michael W. Deem and Ramdas Pophale) SiO2 
 PCOD9447270
Probable space group: P M M N
;
_chemical_formula_sum "Si O2"
_cell_formula_units_Z 64
_cell_length_a 7.570939
_cell_length_b 19.695234
_cell_length_c 20.051926
_cell_angle_alpha 90.000000
_cell_angle_beta 90.000000
_cell_angle_gamma 90.000000
_cell_volume 2989.971063
_symmetry_space_group_name_H-M "P M M N"
_symmetry_group_IT_number 59
_space_group.IT_coordinate_system_code '2'
_symmetry_cell_setting 'orthorhombic'
loop_
_space_group_symop_operation_xyz
x,y,z
1/2-x,1/2-y,z
1/2+x,-y,-z
-x,1/2+y,-z
-x,-y,-z
1/2+x,1/2+y,-z
1/2-x,y,z
x,1/2-y,z
loop_
_atom_site_type_symbol
_atom_site_label
_atom_site_fract_x
_atom_site_fract_y
_atom_site_fract_z
Si Si1 0.043724 0.562467 0.139849
Si Si2 0.043578 0.452103 0.707923
Si Si3 0.539328 0.404762 0.341159
Si Si4 0.538023 0.673481 0.527013
Si Si5 0.533953 0.673252 0.375626
Si Si6 0.536607 0.081783 0.089427
Si Si7 0.533640 0.328491 0.962860
Si Si8 0.034131 0.826413 0.786964
O O1 0.250000 0.573195 0.151494
O O2 0.974617 0.628926 0.101772
O O3 0.964880 0.547824 0.212227
O O4 0.022842 0.496055 0.093386
O O5 0.250000 0.452231 0.689481
O O6 0.966521 0.521115 0.677156
O O7 0.969830 0.383584 0.675482
O O8 0.750000 0.407786 0.331415
O O9 0.509442 0.378782 0.415436
O O10 0.474582 0.351457 0.285621
O O11 0.750000 0.676254 0.525078
O O12 0.473853 0.750000 0.543341
O O13 0.480148 0.656633 0.451777
O O14 0.750000 0.674758 0.374470
O O15 0.476043 0.750000 0.360232
O O16 0.750000 0.080456 0.088587
O O17 0.478827 0.120297 0.156738
O O18 0.478532 0.127080 0.026882
O O19 0.750000 0.328035 0.963131
O O20 0.477077 0.250000 0.965076
O O21 0.250000 0.825578 0.788163
O O22 0.975638 0.750000 0.801532
#
# Coordination Sequence:
#
# PCOD9447270 Si02
#       8
#     8   8   8   8   8   8   8   8
#     4  11  22  35  53  79 112 143 169 212 271 317
#     4  10  20  36  56  77 102 137 182 220 253 304
#     4  10  19  31  48  74 106 136 170 217 259 300
#     4   9  18  33  52  75 104 138 172 209 261 319
#     4   8  16  33  56  78 101 133 175 220 261 305
#     4  10  18  34  58  79 101 137 180 216 250 304
#     4   9  19  35  56  82 108 137 177 219 259 308
#     4   9  16  27  47  74 100 130 171 213 249 289
#
# _framework density 21.404890999999999
#
# number of rings (size 3 to 8) (size 9 to 14) (size 15 to 20)
#    0.000    2.500    1.250    2.250    0.000    3.750 
#    0.000    1.250    0.000    4.875    0.000    0.000 
#    0.000    0.000    0.000    0.000    0.000    0.000 
#
# Total GULP energy -357315.180277 kJ/mol
# GULP energy per Si atom -5583.049692 kJ/mol
# Density = 2.135617 g / cm^3
# Si number density = 21.404891 Si / 1000 Ang^3
#
#
#
# Elastic Constant Matrix: (Units=GPa)
#
#
# Indices 1 2 3 4 5 6 
#
# 1 42.6570 -6.5053 -8.6266 0.0000 0.0000 0.0000
# 2 -6.5053 133.9759 71.0953 0.0000 0.0000 0.0000
# 3 -8.6266 71.0953 76.3098 0.0000 0.0000 0.0000
# 4 0.0000 0.0000 0.0000 41.0788 0.0000 0.0000
# 5 0.0000 0.0000 0.0000 0.0000 -36.7897 0.0000
# 6 0.0000 0.0000 0.0000 0.0000 0.0000 -4.2118
#
#
#
# Elastic Compliance Matrix: (Units=1/GPa)
#
#
# Indices 1 2 3 4 5 6 
#
# 1 0.024011 -0.000543 0.003220 0.000000 0.000000 0.000000
# 2 -0.000543 0.014775 -0.013827 0.000000 0.000000 0.000000
# 3 0.003220 -0.013827 0.026350 0.000000 0.000000 0.000000
# 4 0.000000 0.000000 0.000000 0.024343 0.000000 0.000000
# 5 0.000000 0.000000 0.000000 0.000000 -0.027182 0.000000
# 6 0.000000 0.000000 0.000000 0.000000 0.000000 -0.237431
#
#
# Mechanical properties :
#
#
# Convention : Reuss Voigt Hill
#
# Bulk Modulus (GPa) = 23.34389 40.54106 31.94247
# Shear Modulus (GPa) = -36.08692 13.14743 -11.46974
#
# Velocity S-wave (km/s) = -4.11045 2.48105 -2.31735
# Velocity P-wave (km/s) = 3.40561 5.21427 2.79200
#
# Compressibility (1/GPa) = 0.04283776
#
# Stress axis : x y z
#
# Youngs Moduli (GPa) = 41.64715 67.68252 37.95020
#
# Poissons Ratio (x) = 0.03675 -0.12221
# Poissons Ratio (y) = 0.02261 0.52472
# Poissons Ratio (z) = -0.13411 0.93582
#
# Static dielectric constant tensor:
#      x y z
#    x 1.822330 0.000000 0.000000 
#    y 0.000000 1.770220 0.000000 
#    z 0.000000 0.000000 1.740020 
# 
# From -- ./inp_files/29396.got.cif
#   From: 2010.05.17/outbox.cif.g08.bks.cpg/sg59_15_cif.got.tgz:29396.got - 2010.06.03 14:40:33.
