data_PCOD9447225
_publ_section_title
;
Structure prediction by ZEFSAII (Michael W. Deem and Ramdas Pophale) SiO2 
 PCOD9447225
Probable space group: P M M N
;
_chemical_formula_sum "Si O2"
_cell_formula_units_Z 56
_cell_length_a 19.943848
_cell_length_b 17.066122
_cell_length_c 8.715422
_cell_angle_alpha 90.000000
_cell_angle_beta 90.000000
_cell_angle_gamma 90.000000
_cell_volume 2966.417141
_symmetry_space_group_name_H-M "P M M N"
_symmetry_group_IT_number 59
_space_group.IT_coordinate_system_code '2'
_symmetry_cell_setting 'orthorhombic'
loop_
_space_group_symop_operation_xyz
x,y,z
1/2-x,1/2-y,z
1/2+x,-y,-z
-x,1/2+y,-z
-x,-y,-z
1/2+x,1/2+y,-z
1/2-x,y,z
x,1/2-y,z
loop_
_atom_site_type_symbol
_atom_site_label
_atom_site_fract_x
_atom_site_fract_y
_atom_site_fract_z
Si Si1 0.142439 0.965671 0.947238
Si Si2 0.175742 0.079249 0.186368
Si Si3 0.526480 0.097485 0.858457
Si Si4 0.750000 0.341051 0.086045
Si Si5 0.034775 0.339762 0.163945
Si Si6 0.373079 0.571441 0.380302
Si Si7 0.056150 0.528291 0.678968
Si Si8 0.250000 0.658024 0.542462
O O1 0.186216 0.888611 0.977102
O O2 0.126539 0.966855 0.769212
O O3 0.070870 0.960151 0.033400
O O4 0.176327 0.041915 0.015790
O O5 0.250000 0.109997 0.223904
O O6 0.112364 0.136887 0.190095
O O7 0.159267 0.002686 0.290935
O O8 0.584209 0.124813 0.739264
O O9 0.476560 0.049536 0.749896
O O10 0.488014 0.148914 0.984924
O O11 0.750000 0.250000 0.045249
O O12 0.750000 0.347912 0.271741
O O13 0.022525 0.250000 0.206708
O O14 0.989776 0.399107 0.264967
O O15 0.425656 0.535092 0.502122
O O16 0.315494 0.618439 0.467559
O O17 0.250000 0.750000 0.506315
#
# Coordination Sequence:
#
# PCOD9447225 Si02
#       8
#     8   8   8   4   8   8   8   4
#     4  10  18  33  59  82 111 152 193 232 274 340
#     4  11  21  38  62  87 112 149 200 245 288 349
#     4  10  21  37  59  87 113 146 196 244 281 344
#     4  11  22  35  55  87 123 156 192 237 282 345
#     4  11  23  39  59  87 118 149 192 251 298 339
#     4  11  22  36  64  88 115 159 196 230 289 346
#     4  11  19  37  62  88 115 151 198 234 286 348
#     4  11  24  39  51  85 131 156 188 231 280 355
#
# _framework density 18.877993
#
# number of rings (size 3 to 8) (size 9 to 14) (size 15 to 20)
#    0.000    1.286    7.143    1.286    0.000    3.714 
#    0.000    5.000    0.000    0.000    0.000    0.000 
#    0.000    0.000    0.000    0.000    0.000    0.000 
#
# Total GULP energy -312019.812241 kJ/mol
# GULP energy per Si atom -5571.782361 kJ/mol
# Density = 1.883503 g / cm^3
# Si number density = 18.877993 Si / 1000 Ang^3
#
#
#
# Elastic Constant Matrix: (Units=GPa)
#
#
# Indices 1 2 3 4 5 6 
#
# 1 91.2267 8.8402 18.4965 0.0000 0.0000 0.0000
# 2 8.8402 36.8321 -10.3316 0.0000 0.0000 0.0000
# 3 18.4965 -10.3316 61.4499 0.0000 0.0000 0.0000
# 4 0.0000 0.0000 0.0000 13.4126 0.0000 0.0000
# 5 0.0000 0.0000 0.0000 0.0000 29.6815 0.0000
# 6 0.0000 0.0000 0.0000 0.0000 0.0000 20.2853
#
#
#
# Elastic Compliance Matrix: (Units=1/GPa)
#
#
# Indices 1 2 3 4 5 6 
#
# 1 0.012256 -0.004173 -0.004391 0.000000 0.000000 0.000000
# 2 -0.004173 0.029915 0.006286 0.000000 0.000000 0.000000
# 3 -0.004391 0.006286 0.018652 0.000000 0.000000 0.000000
# 4 0.000000 0.000000 0.000000 0.074557 0.000000 0.000000
# 5 0.000000 0.000000 0.000000 0.000000 0.033691 0.000000
# 6 0.000000 0.000000 0.000000 0.000000 0.000000 0.049297
#
#
# Mechanical properties :
#
#
# Convention : Reuss Voigt Hill
#
# Bulk Modulus (GPa) = 17.77253 24.83544 21.30399
# Shear Modulus (GPa) = 20.68849 24.17612 22.43231
#
# Velocity S-wave (km/s) = 3.31404 3.58250 3.45088
# Velocity P-wave (km/s) = 4.90700 5.50425 5.21418
#
# Compressibility (1/GPa) = 0.05626660
#
# Stress axis : x y z
#
# Youngs Moduli (GPa) = 81.59025 33.42795 53.61382
#
# Poissons Ratio (x) = 0.13951 0.23541
# Poissons Ratio (y) = 0.34050 -0.33701
# Poissons Ratio (z) = 0.35825 -0.21012
#
# Static dielectric constant tensor:
#      x y z
#    x 1.729410 0.000000 0.000000 
#    y 0.000000 1.627790 0.000000 
#    z 0.000000 0.000000 1.692630 
# 
# From -- ./inp_files/11469.got.cif
#   From: 2010.05.17/outbox.cif.g08.bks.cpg/sg59_6_cif.got.tgz:11469.got - 2010.06.03 14:40:33.
