data_PCOD9447501
_publ_section_title
;
Structure prediction by ZEFSAII (Michael W. Deem and Ramdas Pophale) SiO2 
 PCOD9447501
Probable space group: P M M N
;
_chemical_formula_sum "Si O2"
_cell_formula_units_Z 64
_cell_length_a 14.191652
_cell_length_b 9.205452
_cell_length_c 32.289284
_cell_angle_alpha 90.000000
_cell_angle_beta 90.000000
_cell_angle_gamma 90.000000
_cell_volume 4218.290508
_symmetry_space_group_name_H-M "P M M N"
_symmetry_group_IT_number 59
_space_group.IT_coordinate_system_code '2'
_symmetry_cell_setting 'orthorhombic'
loop_
_space_group_symop_operation_xyz
x,y,z
1/2-x,1/2-y,z
1/2+x,-y,-z
-x,1/2+y,-z
-x,-y,-z
1/2+x,1/2+y,-z
1/2-x,y,z
x,1/2-y,z
loop_
_atom_site_type_symbol
_atom_site_label
_atom_site_fract_x
_atom_site_fract_y
_atom_site_fract_z
Si Si1 0.638822 0.424170 0.853913
Si Si2 0.641129 0.075356 0.021303
Si Si3 0.136806 0.418433 0.477918
Si Si4 0.137546 0.922746 0.314793
Si Si5 0.460732 0.075120 0.391789
Si Si6 0.357573 0.575830 0.562213
Si Si7 0.135581 0.082929 0.230378
Si Si8 0.969386 0.075642 0.937324
O O1 0.750000 0.455760 0.861193
O O2 0.631439 0.250000 0.848176
O O3 0.607441 0.504849 0.812197
O O4 0.578188 0.466088 0.893966
O O5 0.750000 0.030570 0.025792
O O6 0.636700 0.250000 0.025916
O O7 0.568203 0.000796 0.052660
O O8 0.601528 0.040581 0.975307
O O9 0.250000 0.426442 0.474394
O O10 0.109951 0.250000 0.484466
O O11 0.093422 0.465027 0.434270
O O12 0.110280 0.509531 0.518378
O O13 0.250000 0.949405 0.320122
O O14 0.123492 0.750000 0.313283
O O15 0.082759 0.994111 0.352877
O O16 0.107526 0.995788 0.271478
O O17 0.451405 0.250000 0.386347
O O18 0.569294 0.038532 0.401731
O O19 0.250000 0.528467 0.569990
O O20 0.358525 0.750000 0.558127
O O21 0.250000 0.082360 0.230215
O O22 0.104290 0.250000 0.231984
O O23 0.981999 0.250000 0.937375
#
# Coordination Sequence:
#
# PCOD9447501 Si02
#       8
#     8   8   8   8   8   8   8   8
#     4   9  16  27  44  65  90 119 149 181 217 258
#     4   9  17  29  43  60  87 122 156 190 228 267
#     4   9  17  28  42  61  85 113 144 177 213 252
#     4  10  20  32  46  66  91 116 142 173 210 256
#     4  10  19  30  45  64  87 116 146 176 213 255
#     4   9  18  31  45  62  85 113 146 182 215 247
#     4   9  17  29  45  65  90 118 144 172 210 257
#     4   9  17  28  43  64  88 117 154 191 226 264
#
# _framework density 15.172022999999999
#
# number of rings (size 3 to 8) (size 9 to 14) (size 15 to 20)
#    0.000    2.750    0.000    1.875    0.000    6.000 
#    0.000    1.250    0.000    2.250    0.000    0.875 
#    0.000    5.000    0.000    0.000    0.000    0.000 
#
# Total GULP energy -356692.062907 kJ/mol
# GULP energy per Si atom -5573.313483 kJ/mol
# Density = 1.513749 g / cm^3
# Si number density = 15.172023 Si / 1000 Ang^3
#
#
#
# Elastic Constant Matrix: (Units=GPa)
#
#
# Indices 1 2 3 4 5 6 
#
# 1 86.1782 42.8376 70.0847 0.0000 0.0000 0.0000
# 2 42.8376 43.8498 62.6122 0.0000 0.0000 0.0000
# 3 70.0847 62.6122 147.1268 0.0000 0.0000 0.0000
# 4 0.0000 0.0000 0.0000 29.3859 0.0000 0.0000
# 5 0.0000 0.0000 0.0000 0.0000 25.6025 0.0000
# 6 0.0000 0.0000 0.0000 0.0000 0.0000 19.3289
#
#
#
# Elastic Compliance Matrix: (Units=1/GPa)
#
#
# Indices 1 2 3 4 5 6 
#
# 1 0.023282 -0.017609 -0.003597 0.000000 0.000000 0.000000
# 2 -0.017609 0.071443 -0.022016 0.000000 0.000000 0.000000
# 3 -0.003597 -0.022016 0.017879 0.000000 0.000000 0.000000
# 4 0.000000 0.000000 0.000000 0.034030 0.000000 0.000000
# 5 0.000000 0.000000 0.000000 0.000000 0.039059 0.000000
# 6 0.000000 0.000000 0.000000 0.000000 0.000000 0.051736
#
#
# Mechanical properties :
#
#
# Convention : Reuss Voigt Hill
#
# Bulk Modulus (GPa) = 38.22348 69.80265 54.01306
# Shear Modulus (GPa) = 15.03340 21.63813 18.33576
#
# Velocity S-wave (km/s) = 3.15121 3.78059 3.48016
# Velocity P-wave (km/s) = 6.20389 8.07245 7.19905
#
# Compressibility (1/GPa) = 0.02616193
#
# Stress axis : x y z
#
# Youngs Moduli (GPa) = 42.95176 13.99711 55.93007
#
# Poissons Ratio (x) = 0.24647 0.20117
# Poissons Ratio (y) = 0.75632 1.23135
# Poissons Ratio (z) = 0.15449 0.30816
#
# Static dielectric constant tensor:
#      x y z
#    x 1.506420 0.000000 0.000000 
#    y 0.000000 1.509750 0.000000 
#    z 0.000000 0.000000 1.479930 
# 
# From -- ./inp_files/33216.got.cif
#   From: 2010.05.17/outbox.cif.g08.bks.cpg/sg59_17_cif.got.tgz:33216.got - 2010.06.03 14:40:33.
