data_PCOD9447449
_publ_section_title
;
Structure prediction by ZEFSAII (Michael W. Deem and Ramdas Pophale) SiO2 
 PCOD9447449
Probable space group: P M M N
;
_chemical_formula_sum "Si O2"
_cell_formula_units_Z 64
_cell_length_a 29.538024
_cell_length_b 8.387338
_cell_length_c 16.235994
_cell_angle_alpha 90.000000
_cell_angle_beta 90.000000
_cell_angle_gamma 90.000000
_cell_volume 4022.392684
_symmetry_space_group_name_H-M "P M M N"
_symmetry_group_IT_number 59
_space_group.IT_coordinate_system_code '2'
_symmetry_cell_setting 'orthorhombic'
loop_
_space_group_symop_operation_xyz
x,y,z
1/2-x,1/2-y,z
1/2+x,-y,-z
-x,1/2+y,-z
-x,-y,-z
1/2+x,1/2+y,-z
1/2-x,y,z
x,1/2-y,z
loop_
_atom_site_type_symbol
_atom_site_label
_atom_site_fract_x
_atom_site_fract_y
_atom_site_fract_z
Si Si1 0.946975 0.558887 0.321999
Si Si2 0.551829 0.942243 0.501979
Si Si3 0.199021 0.557616 0.099270
Si Si4 0.106117 0.557154 0.836069
Si Si5 0.199683 0.944220 0.907383
Si Si6 0.050633 0.443065 0.317958
Si Si7 0.448618 0.559029 0.998201
Si Si8 0.894675 0.940577 0.841695
O O1 0.948599 0.750000 0.321281
O O2 0.929617 0.505355 0.412933
O O3 0.915785 0.500739 0.248111
O O4 0.998446 0.497344 0.310212
O O5 0.553028 0.750000 0.502415
O O6 0.569002 0.995585 0.591870
O O7 0.500000 0.000000 0.500000
O O8 0.250000 0.508192 0.123674
O O9 0.197399 0.750000 0.101702
O O10 0.157487 0.491677 0.151226
O O11 0.192479 0.510643 0.003162
O O12 0.105885 0.750000 0.835708
O O13 0.157498 0.502345 0.852901
O O14 0.076177 0.504351 0.914535
O O15 0.250000 0.997414 0.882284
O O16 0.199803 0.750000 0.906309
O O17 0.050522 0.250000 0.316698
O O18 0.080422 0.499547 0.241086
O O19 0.448378 0.750000 0.997863
O O20 0.421189 0.502647 0.078105
O O21 0.500000 0.500000 0.000000
O O22 0.897145 0.750000 0.842252
#
# Coordination Sequence:
#
# PCOD9447449 Si02
#       8
#     8   8   8   8   8   8   8   8
#     4  10  19  29  45  69  92 117 150 191 228 263
#     4   8  15  29  46  63  86 115 149 186 226 266
#     4   9  17  32  52  69  88 118 154 191 232 275
#     4  10  19  31  46  64  88 120 152 182 220 270
#     4   8  14  28  49  67  82 108 149 188 221 264
#     4   9  18  32  47  64  90 124 154 183 222 272
#     4  11  22  34  45  61  90 128 162 188 220 266
#     4  11  21  31  46  69  94 121 154 191 229 268
#
# _framework density 15.910928
#
# number of rings (size 3 to 8) (size 9 to 14) (size 15 to 20)
#    0.000    2.500    1.250    2.625    0.000    5.750 
#    0.000    0.000    0.000    0.375    0.000    0.875 
#    0.000    5.000    0.000    0.000    0.000    0.000 
#
# Total GULP energy -356591.499962 kJ/mol
# GULP energy per Si atom -5571.742187 kJ/mol
# Density = 1.587471 g / cm^3
# Si number density = 15.910928 Si / 1000 Ang^3
#
#
#
# Elastic Constant Matrix: (Units=GPa)
#
#
# Indices 1 2 3 4 5 6 
#
# 1 113.1235 14.2502 71.6264 0.0000 0.0000 0.0000
# 2 14.2502 11.9437 17.3083 0.0000 0.0000 0.0000
# 3 71.6264 17.3083 146.1754 0.0000 0.0000 0.0000
# 4 0.0000 0.0000 0.0000 12.4190 0.0000 0.0000
# 5 0.0000 0.0000 0.0000 0.0000 7.7698 0.0000
# 6 0.0000 0.0000 0.0000 0.0000 0.0000 20.6185
#
#
#
# Elastic Compliance Matrix: (Units=1/GPa)
#
#
# Indices 1 2 3 4 5 6 
#
# 1 0.013394 -0.007809 -0.005638 0.000000 0.000000 0.000000
# 2 -0.007809 0.105622 -0.008680 0.000000 0.000000 0.000000
# 3 -0.005638 -0.008680 0.010632 0.000000 0.000000 0.000000
# 4 0.000000 0.000000 0.000000 0.080522 0.000000 0.000000
# 5 0.000000 0.000000 0.000000 0.000000 0.128704 0.000000
# 6 0.000000 0.000000 0.000000 0.000000 0.000000 0.048500
#
#
# Mechanical properties :
#
#
# Convention : Reuss Voigt Hill
#
# Bulk Modulus (GPa) = 11.71069 53.06805 32.38937
# Shear Modulus (GPa) = 10.86741 19.36531 15.11636
#
# Velocity S-wave (km/s) = 2.61629 3.49249 3.08565
# Velocity P-wave (km/s) = 4.06236 7.04904 5.75290
#
# Compressibility (1/GPa) = 0.08539203
#
# Stress axis : x y z
#
# Youngs Moduli (GPa) = 74.66246 9.46776 94.05936
#
# Poissons Ratio (x) = 0.07394 0.53033
# Poissons Ratio (y) = 0.58307 0.81641
# Poissons Ratio (z) = 0.42096 0.08218
#
# Static dielectric constant tensor:
#      x y z
#    x 1.491510 0.000000 0.000000 
#    y 0.000000 1.555400 0.000000 
#    z 0.000000 0.000000 1.554620 
# 
# From -- ./inp_files/21826.got.cif
#   From: 2010.05.17/outbox.cif.g08.bks.cpg/sg59_11_cif.got.tgz:21826.got - 2010.06.03 14:40:33.
