data_PCOD9447127
_publ_section_title
;
Structure prediction by ZEFSAII (Michael W. Deem and Ramdas Pophale) SiO2 
 PCOD9447127
Probable space group: P M M N
;
_chemical_formula_sum "Si O2"
_cell_formula_units_Z 64
_cell_length_a 18.565922
_cell_length_b 7.785153
_cell_length_c 22.315294
_cell_angle_alpha 90.000000
_cell_angle_beta 90.000000
_cell_angle_gamma 90.000000
_cell_volume 3225.420089
_symmetry_space_group_name_H-M "P M M N"
_symmetry_group_IT_number 59
_space_group.IT_coordinate_system_code '2'
_symmetry_cell_setting 'orthorhombic'
loop_
_space_group_symop_operation_xyz
x,y,z
1/2-x,1/2-y,z
1/2+x,-y,-z
-x,1/2+y,-z
-x,-y,-z
1/2+x,1/2+y,-z
1/2-x,y,z
x,1/2-y,z
loop_
_atom_site_type_symbol
_atom_site_label
_atom_site_fract_x
_atom_site_fract_y
_atom_site_fract_z
Si Si1 0.168191 0.043275 0.273463
Si Si2 0.168390 0.957333 0.503058
Si Si3 0.975490 0.956510 0.066341
Si Si4 0.105757 0.549863 0.755085
Si Si5 0.911556 0.460858 0.377254
Si Si6 0.576522 0.955712 0.613206
Si Si7 0.043330 0.955286 0.188484
Si Si8 0.328991 0.048407 0.878985
O O1 0.250000 0.978292 0.271266
O O2 0.171635 0.250000 0.278371
O O3 0.124447 0.977334 0.331492
O O4 0.120067 0.001518 0.215773
O O5 0.250000 0.019778 0.493366
O O6 0.170472 0.750000 0.504913
O O7 0.135976 0.016359 0.566467
O O8 0.116382 0.006887 0.448799
O O9 0.972633 0.750000 0.070184
O O10 0.896049 0.025104 0.083582
O O11 0.028254 0.013293 0.120290
O O12 0.000000 0.000000 0.000000
O O13 0.125343 0.750000 0.756277
O O14 0.116355 0.482935 0.687914
O O15 0.148595 0.463816 0.809253
O O16 0.020893 0.532767 0.771096
O O17 0.911584 0.250000 0.376413
O O18 0.994323 0.518700 0.385280
O O19 0.572418 0.750000 0.620048
O O20 0.034625 0.750000 0.191057
O O21 0.250000 0.971781 0.888764
O O22 0.324972 0.250000 0.893956
#
# Coordination Sequence:
#
# PCOD9447127 Si02
#       8
#     8   8   8   8   8   8   8   8
#     4  10  20  34  54  79 105 136 176 222 270 317
#     4  10  21  35  49  70 101 134 170 215 267 319
#     4   9  19  35  56  81 107 143 182 217 259 307
#     4  10  18  32  55  80 105 135 177 220 262 315
#     4   9  18  33  53  74  99 134 172 215 264 316
#     4  10  19  35  55  73  97 132 176 219 264 315
#     4  10  20  35  54  78 110 141 172 211 263 318
#     4   9  19  36  55  79 114 147 177 219 270 318
#
# _framework density 19.842376999999999
#
# number of rings (size 3 to 8) (size 9 to 14) (size 15 to 20)
#    0.000    2.375    1.250    2.250    0.000    4.750 
#    0.000    3.125    0.000    2.250    0.000    0.000 
#    0.000    0.000    0.000    0.000    0.000    0.000 
#
# Total GULP energy -357196.917166 kJ/mol
# GULP energy per Si atom -5581.201831 kJ/mol
# Density = 1.979721 g / cm^3
# Si number density = 19.842377 Si / 1000 Ang^3
#
#
#
# Elastic Constant Matrix: (Units=GPa)
#
#
# Indices 1 2 3 4 5 6 
#
# 1 69.6662 -2.3754 32.6744 0.0000 0.0000 0.0000
# 2 -2.3754 25.5289 -8.1648 0.0000 0.0000 0.0000
# 3 32.6744 -8.1648 125.4501 0.0000 0.0000 0.0000
# 4 0.0000 0.0000 0.0000 23.7188 0.0000 0.0000
# 5 0.0000 0.0000 0.0000 0.0000 16.0091 0.0000
# 6 0.0000 0.0000 0.0000 0.0000 0.0000 14.2021
#
#
#
# Elastic Compliance Matrix: (Units=1/GPa)
#
#
# Indices 1 2 3 4 5 6 
#
# 1 0.016352 0.000163 -0.004248 0.000000 0.000000 0.000000
# 2 0.000163 0.040006 0.002561 0.000000 0.000000 0.000000
# 3 -0.004248 0.002561 0.009245 0.000000 0.000000 0.000000
# 4 0.000000 0.000000 0.000000 0.042161 0.000000 0.000000
# 5 0.000000 0.000000 0.000000 0.000000 0.062465 0.000000
# 6 0.000000 0.000000 0.000000 0.000000 0.000000 0.070412
#
#
# Mechanical properties :
#
#
# Convention : Reuss Voigt Hill
#
# Bulk Modulus (GPa) = 15.98627 29.43485 22.71056
# Shear Modulus (GPa) = 18.90074 24.02005 21.46040
#
# Velocity S-wave (km/s) = 3.08968 3.48306 3.29225
# Velocity P-wave (km/s) = 4.56095 5.57155 5.09139
#
# Compressibility (1/GPa) = 0.06255366
#
# Stress axis : x y z
#
# Youngs Moduli (GPa) = 61.15341 24.99651 108.17181
#
# Poissons Ratio (x) = -0.00407 0.45957
# Poissons Ratio (y) = -0.00995 -0.27707
# Poissons Ratio (z) = 0.25981 -0.06402
#
# Static dielectric constant tensor:
#      x y z
#    x 1.703300 0.000000 0.000000 
#    y 0.000000 1.739610 0.000000 
#    z 0.000000 0.000000 1.678780 
# 
# From -- ./inp_files/29515.got.cif
#   From: 2010.05.17/outbox.cif.g08.bks.cpg/sg59_15_cif.got.tgz:29515.got - 2010.06.03 14:40:33.
