data_PCOD9447180
_publ_section_title
;
Structure prediction by ZEFSAII (Michael W. Deem and Ramdas Pophale) SiO2 
 PCOD9447180
Probable space group: P M M N
;
_chemical_formula_sum "Si O2"
_cell_formula_units_Z 64
_cell_length_a 21.874196
_cell_length_b 9.481433
_cell_length_c 19.384898
_cell_angle_alpha 90.000000
_cell_angle_beta 90.000000
_cell_angle_gamma 90.000000
_cell_volume 4020.403106
_symmetry_space_group_name_H-M "P M M N"
_symmetry_group_IT_number 59
_space_group.IT_coordinate_system_code '2'
_symmetry_cell_setting 'orthorhombic'
loop_
_space_group_symop_operation_xyz
x,y,z
1/2-x,1/2-y,z
1/2+x,-y,-z
-x,1/2+y,-z
-x,-y,-z
1/2+x,1/2+y,-z
1/2-x,y,z
x,1/2-y,z
loop_
_atom_site_type_symbol
_atom_site_label
_atom_site_fract_x
_atom_site_fract_y
_atom_site_fract_z
Si Si1 0.053560 0.416572 0.960178
Si Si2 0.818031 0.921138 0.523175
Si Si3 0.620072 0.911493 0.904860
Si Si4 0.366725 0.086290 0.330268
Si Si5 0.014869 0.584888 0.836636
Si Si6 0.511189 0.086143 0.326229
Si Si7 0.947532 0.920918 0.454841
Si Si8 0.178175 0.907903 0.203003
O O1 0.039386 0.250000 0.955547
O O2 0.056295 0.486679 0.885183
O O3 0.109366 0.431231 0.013690
O O4 0.000000 0.500000 0.000000
O O5 0.750000 0.968881 0.500702
O O6 0.817229 0.750000 0.522638
O O7 0.830353 0.963816 0.602454
O O8 0.879264 0.959756 0.481349
O O9 0.638850 0.750000 0.892372
O O10 0.554687 0.930575 0.865266
O O11 0.665183 0.019413 0.869731
O O12 0.351019 0.250000 0.317452
O O13 0.439067 0.079810 0.344062
O O14 0.352121 0.997920 0.263138
O O15 0.030444 0.750000 0.846646
O O16 0.017676 0.554078 0.755265
O O17 0.530299 0.250000 0.337198
O O18 0.544448 0.979122 0.377334
O O19 0.954739 0.750000 0.459698
O O20 0.000000 0.000000 0.500000
O O21 0.250000 0.904691 0.216182
O O22 0.153175 0.750000 0.203201
#
# Coordination Sequence:
#
# PCOD9447180 Si02
#       8
#     8   8   8   8   8   8   8   8
#     4   9  17  28  44  67  93 119 153 192 231 280
#     4   9  18  33  53  74  95 127 172 212 246 293
#     4   9  17  31  47  64  88 124 164 197 233 282
#     4  10  18  33  53  69  92 130 172 207 240 292
#     4   9  17  30  47  68  96 124 154 195 240 287
#     4  10  19  33  51  74 102 131 166 204 246 301
#     4  11  21  34  52  75 103 133 167 211 259 305
#     4  11  23  33  42  65  99 130 165 209 249 289
#
# _framework density 15.918801999999999
#
# number of rings (size 3 to 8) (size 9 to 14) (size 15 to 20)
#    0.000    2.250    2.500    2.250    0.000    5.000 
#    0.000    0.000    0.000    2.250    0.000    0.875 
#    0.000    3.000    0.000    0.000    0.000    0.000 
#
# Total GULP energy -356515.867981 kJ/mol
# GULP energy per Si atom -5570.560437 kJ/mol
# Density = 1.588257 g / cm^3
# Si number density = 15.918802 Si / 1000 Ang^3
#
#
#
# Elastic Constant Matrix: (Units=GPa)
#
#
# Indices 1 2 3 4 5 6 
#
# 1 58.7726 30.6066 30.7491 0.0000 0.0000 0.0000
# 2 30.6066 61.3508 40.6176 0.0000 0.0000 0.0000
# 3 30.7491 40.6176 84.5622 0.0000 0.0000 0.0000
# 4 0.0000 0.0000 0.0000 30.8960 0.0000 0.0000
# 5 0.0000 0.0000 0.0000 0.0000 17.6418 0.0000
# 6 0.0000 0.0000 0.0000 0.0000 0.0000 17.2196
#
#
#
# Elastic Compliance Matrix: (Units=1/GPa)
#
#
# Indices 1 2 3 4 5 6 
#
# 1 0.024040 -0.009099 -0.004371 0.000000 0.000000 0.000000
# 2 -0.009099 0.027344 -0.009825 0.000000 0.000000 0.000000
# 3 -0.004371 -0.009825 0.018134 0.000000 0.000000 0.000000
# 4 0.000000 0.000000 0.000000 0.032367 0.000000 0.000000
# 5 0.000000 0.000000 0.000000 0.000000 0.056683 0.000000
# 6 0.000000 0.000000 0.000000 0.000000 0.000000 0.058073
#
#
# Mechanical properties :
#
#
# Convention : Reuss Voigt Hill
#
# Bulk Modulus (GPa) = 43.61603 45.40355 44.50979
# Shear Modulus (GPa) = 18.45863 19.99897 19.22880
#
# Velocity S-wave (km/s) = 3.40891 3.54829 3.47930
# Velocity P-wave (km/s) = 6.55384 6.73580 6.64544
#
# Compressibility (1/GPa) = 0.02292735
#
# Stress axis : x y z
#
# Youngs Moduli (GPa) = 41.59707 36.57099 55.14365
#
# Poissons Ratio (x) = 0.33277 0.24103
# Poissons Ratio (y) = 0.37850 0.54181
# Poissons Ratio (z) = 0.18182 0.35932
#
# Static dielectric constant tensor:
#      x y z
#    x 1.537100 0.000000 0.000000 
#    y 0.000000 1.539210 0.000000 
#    z 0.000000 0.000000 1.551670 
# 
# From -- ./inp_files/31033.got.cif
#   From: 2010.05.17/outbox.cif.g08.bks.cpg/sg59_16_cif.got.tgz:31033.got - 2010.06.03 14:40:33.
