data_PCOD9447219
_publ_section_title
;
Structure prediction by ZEFSAII (Michael W. Deem and Ramdas Pophale) SiO2 
 PCOD9447219
Probable space group: P M M N
;
_chemical_formula_sum "Si O2"
_cell_formula_units_Z 56
_cell_length_a 19.937371
_cell_length_b 8.630254
_cell_length_c 18.081858
_cell_angle_alpha 90.000000
_cell_angle_beta 90.000000
_cell_angle_gamma 90.000000
_cell_volume 3111.247227
_symmetry_space_group_name_H-M "P M M N"
_symmetry_group_IT_number 59
_space_group.IT_coordinate_system_code '2'
_symmetry_cell_setting 'orthorhombic'
loop_
_space_group_symop_operation_xyz
x,y,z
1/2-x,1/2-y,z
1/2+x,-y,-z
-x,1/2+y,-z
-x,-y,-z
1/2+x,1/2+y,-z
1/2-x,y,z
x,1/2-y,z
loop_
_atom_site_type_symbol
_atom_site_label
_atom_site_fract_x
_atom_site_fract_y
_atom_site_fract_z
Si Si1 0.941352 0.935221 0.599212
Si Si2 0.092442 0.564764 0.554934
Si Si3 0.070846 0.437269 0.816238
Si Si4 0.673091 0.439051 0.891962
Si Si5 0.427127 0.564137 0.977863
Si Si6 0.922720 0.062985 0.759633
Si Si7 0.826339 0.936939 0.311631
O O1 0.939198 0.750000 0.598779
O O2 0.019283 0.984534 0.587027
O O3 0.902721 0.999308 0.527779
O O4 0.916115 0.997634 0.677393
O O5 0.093762 0.750000 0.552413
O O6 0.147716 0.502506 0.610898
O O7 0.071980 0.250000 0.821464
O O8 0.088258 0.506581 0.895602
O O9 0.123031 0.486777 0.753147
O O10 0.995517 0.483042 0.792240
O O11 0.750000 0.491748 0.895323
O O12 0.673726 0.250000 0.892117
O O13 0.634511 0.486764 0.817233
O O14 0.628268 0.487186 0.962188
O O15 0.429863 0.750000 0.979599
O O16 0.500000 0.500000 0.000000
O O17 0.922050 0.250000 0.755656
O O18 0.750000 0.983713 0.296463
O O19 0.829033 0.750000 0.314961
#
# Coordination Sequence:
#
# PCOD9447219 Si02
#       7
#     8   8   8   8   8   8   8
#     4  10  20  33  54  83 111 140 181 231 278 325
#     4  10  20  34  54  81 110 143 185 230 275 324
#     4  10  20  35  55  82 111 142 185 228 272 329
#     4   9  19  36  56  79 108 143 182 224 274 326
#     4  11  21  35  57  84 111 144 184 228 276 327
#     4  10  18  33  57  81 107 142 182 228 275 323
#     4  10  21  37  56  78 112 153 184 223 283 339
#
# _framework density 17.999213000000001
#
# number of rings (size 3 to 8) (size 9 to 14) (size 15 to 20)
#    0.000    2.000    2.857    1.286    0.000    3.143 
#    0.000    0.714    0.000    6.000    0.000    0.000 
#    0.000    0.000    0.000    0.000    0.000    0.000 
#
# Total GULP energy -312638.612734 kJ/mol
# GULP energy per Si atom -5582.832370 kJ/mol
# Density = 1.795825 g / cm^3
# Si number density = 17.999213 Si / 1000 Ang^3
#
#
#
# Elastic Constant Matrix: (Units=GPa)
#
#
# Indices 1 2 3 4 5 6 
#
# 1 141.8287 26.2703 89.2311 0.0000 0.0000 0.0000
# 2 26.2703 13.5661 29.3092 0.0000 0.0000 0.0000
# 3 89.2311 29.3092 183.2919 0.0000 0.0000 0.0000
# 4 0.0000 0.0000 0.0000 36.0907 0.0000 0.0000
# 5 0.0000 0.0000 0.0000 0.0000 27.9726 0.0000
# 6 0.0000 0.0000 0.0000 0.0000 0.0000 15.2061
#
#
#
# Elastic Compliance Matrix: (Units=1/GPa)
#
#
# Indices 1 2 3 4 5 6 
#
# 1 0.012170 -0.016450 -0.003294 0.000000 0.000000 0.000000
# 2 -0.016450 0.134855 -0.013556 0.000000 0.000000 0.000000
# 3 -0.003294 -0.013556 0.009227 0.000000 0.000000 0.000000
# 4 0.000000 0.000000 0.000000 0.027708 0.000000 0.000000
# 5 0.000000 0.000000 0.000000 0.000000 0.035749 0.000000
# 6 0.000000 0.000000 0.000000 0.000000 0.000000 0.065763
#
#
# Mechanical properties :
#
#
# Convention : Reuss Voigt Hill
#
# Bulk Modulus (GPa) = 11.15417 69.81200 40.48308
# Shear Modulus (GPa) = 13.09044 28.77894 20.93469
#
# Velocity S-wave (km/s) = 2.69974 4.00296 3.41411
# Velocity P-wave (km/s) = 3.99106 7.76114 6.17106
#
# Compressibility (1/GPa) = 0.08965258
#
# Stress axis : x y z
#
# Youngs Moduli (GPa) = 82.16638 7.41535 108.37532
#
# Poissons Ratio (x) = 0.12198 0.35703
# Poissons Ratio (y) = 1.35165 1.46910
# Poissons Ratio (z) = 0.27069 0.10052
#
# Static dielectric constant tensor:
#      x y z
#    x 1.611380 0.000000 0.000000 
#    y 0.000000 1.611110 0.000000 
#    z 0.000000 0.000000 1.593900 
# 
# From -- ./inp_files/24302.got.cif
#   From: 2010.05.17/outbox.cif.g08.bks.cpg/sg59_13_cif.got.tgz:24302.got - 2010.06.03 14:40:33.
