data_PCOD9447251
_publ_section_title
;
Structure prediction by ZEFSAII (Michael W. Deem and Ramdas Pophale) SiO2 
 PCOD9447251
Probable space group: P M M N
;
_chemical_formula_sum "Si O2"
_cell_formula_units_Z 56
_cell_length_a 9.222186
_cell_length_b 22.035617
_cell_length_c 14.956830
_cell_angle_alpha 90.000000
_cell_angle_beta 90.000000
_cell_angle_gamma 90.000000
_cell_volume 3039.475520
_symmetry_space_group_name_H-M "P M M N"
_symmetry_group_IT_number 59
_space_group.IT_coordinate_system_code '2'
_symmetry_cell_setting 'orthorhombic'
loop_
_space_group_symop_operation_xyz
x,y,z
1/2-x,1/2-y,z
1/2+x,-y,-z
-x,1/2+y,-z
-x,-y,-z
1/2+x,1/2+y,-z
1/2-x,y,z
x,1/2-y,z
loop_
_atom_site_type_symbol
_atom_site_label
_atom_site_fract_x
_atom_site_fract_y
_atom_site_fract_z
Si Si1 0.075484 0.046792 0.287208
Si Si2 0.577477 0.250000 0.429475
Si Si3 0.077869 0.426111 0.645887
Si Si4 0.423463 0.819918 0.038816
Si Si5 0.920283 0.750000 0.759511
Si Si6 0.577991 0.871839 0.874648
Si Si7 0.077907 0.372392 0.458746
Si Si8 0.077256 0.678940 0.247742
O O1 0.250000 0.039135 0.287090
O O2 0.031714 0.073951 0.191173
O O3 0.042174 0.096166 0.364408
O O4 0.999693 0.984513 0.313104
O O5 0.750000 0.250000 0.434416
O O6 0.520350 0.250000 0.327221
O O7 0.511641 0.188996 0.471509
O O8 0.250000 0.430163 0.659003
O O9 0.049892 0.418393 0.540004
O O10 0.014596 0.366196 0.692514
O O11 0.250000 0.821966 0.028037
O O12 0.470274 0.750000 0.021229
O O13 0.454431 0.832747 0.142741
O O14 0.497275 0.864025 0.968053
O O15 0.750000 0.750000 0.731319
O O16 0.944937 0.690233 0.818551
O O17 0.750000 0.877361 0.890109
O O18 0.250000 0.358133 0.458418
O O19 0.250000 0.669344 0.261307
O O20 0.047582 0.750000 0.265531
#
# Coordination Sequence:
#
# PCOD9447251 Si02
#       8
#     8   4   8   8   4   8   8   8
#     4  10  21  39  60  80 112 158 193 224 277 344
#     4  12  24  34  54  89 118 147 190 239 280 324
#     4  11  24  39  60  86 111 145 192 243 286 328
#     4   9  18  33  55  84 116 148 182 231 289 334
#     4  10  18  34  54  77 118 157 186 225 282 342
#     4  10  19  32  56  85 113 152 190 223 275 340
#     4  10  22  41  60  80 116 156 188 230 287 341
#     4   9  20  40  62  83 113 150 187 232 288 344
#
# _framework density 18.424230999999999
#
# number of rings (size 3 to 8) (size 9 to 14) (size 15 to 20)
#    0.000    2.000    2.143    2.357    1.000    3.714 
#    0.000    2.143    0.000    0.000    0.000    0.000 
#    0.000    0.000    0.000    0.000    0.000    0.000 
#
# Total GULP energy -312723.758313 kJ/mol
# GULP energy per Si atom -5584.352827 kJ/mol
# Density = 1.838230 g / cm^3
# Si number density = 18.424231 Si / 1000 Ang^3
#
#
#
# Elastic Constant Matrix: (Units=GPa)
#
#
# Indices 1 2 3 4 5 6 
#
# 1 25.3609 23.6671 16.3287 0.0000 0.0000 0.0000
# 2 23.6671 56.0944 7.6403 0.0000 0.0000 0.0000
# 3 16.3287 7.6403 47.4564 0.0000 0.0000 0.0000
# 4 0.0000 0.0000 0.0000 17.1411 0.0000 0.0000
# 5 0.0000 0.0000 0.0000 0.0000 27.1426 0.0000
# 6 0.0000 0.0000 0.0000 0.0000 0.0000 23.9649
#
#
#
# Elastic Compliance Matrix: (Units=1/GPa)
#
#
# Indices 1 2 3 4 5 6 
#
# 1 0.085652 -0.032844 -0.024183 0.000000 0.000000 0.000000
# 2 -0.032844 0.030821 0.006339 0.000000 0.000000 0.000000
# 3 -0.024183 0.006339 0.028372 0.000000 0.000000 0.000000
# 4 0.000000 0.000000 0.000000 0.058339 0.000000 0.000000
# 5 0.000000 0.000000 0.000000 0.000000 0.036842 0.000000
# 6 0.000000 0.000000 0.000000 0.000000 0.000000 0.041728
#
#
# Mechanical properties :
#
#
# Convention : Reuss Voigt Hill
#
# Bulk Modulus (GPa) = 23.00510 24.90932 23.95721
# Shear Modulus (GPa) = 12.57480 19.06810 15.82145
#
# Velocity S-wave (km/s) = 2.61533 3.22055 2.93359
# Velocity P-wave (km/s) = 4.65117 5.23244 4.95035
#
# Compressibility (1/GPa) = 0.04346862
#
# Stress axis : x y z
#
# Youngs Moduli (GPa) = 11.67519 32.44528 35.24567
#
# Poissons Ratio (x) = 1.06563 0.85235
# Poissons Ratio (y) = 0.38346 -0.22341
# Poissons Ratio (z) = 0.28234 -0.20566
#
# Static dielectric constant tensor:
#      x y z
#    x 1.608270 0.000000 0.000000 
#    y 0.000000 1.620700 0.000000 
#    z 0.000000 0.000000 1.633470 
# 
# From -- ./inp_files/21102.got.cif
#   From: 2010.05.17/outbox.cif.g08.bks.cpg/sg59_11_cif.got.tgz:21102.got - 2010.06.03 14:40:33.
