data_PCOD9447762
_publ_section_title
;
Structure prediction by ZEFSAII (Michael W. Deem and Ramdas Pophale) SiO2 
 PCOD9447762
Probable space group: P M M N
;
_chemical_formula_sum "Si O2"
_cell_formula_units_Z 48
_cell_length_a 23.413636
_cell_length_b 8.004554
_cell_length_c 13.447124
_cell_angle_alpha 90.000000
_cell_angle_beta 90.000000
_cell_angle_gamma 90.000000
_cell_volume 2520.202342
_symmetry_space_group_name_H-M "P M M N"
_symmetry_group_IT_number 59
_space_group.IT_coordinate_system_code '2'
_symmetry_cell_setting 'orthorhombic'
loop_
_space_group_symop_operation_xyz
x,y,z
1/2-x,1/2-y,z
1/2+x,-y,-z
-x,1/2+y,-z
-x,-y,-z
1/2+x,1/2+y,-z
1/2-x,y,z
x,1/2-y,z
loop_
_atom_site_type_symbol
_atom_site_label
_atom_site_fract_x
_atom_site_fract_y
_atom_site_fract_z
Si Si1 0.491561 0.440739 0.388869
Si Si2 0.682862 0.453008 0.505145
Si Si3 0.880428 0.061348 0.701630
Si Si4 0.564960 0.947580 0.896440
Si Si5 0.619668 0.442821 0.308122
Si Si6 0.934191 0.449486 0.117720
O O1 0.500000 0.500000 0.500000
O O2 0.469839 0.250000 0.382727
O O3 0.444906 0.557203 0.339777
O O4 0.553542 0.441592 0.340745
O O5 0.750000 0.485392 0.503029
O O6 0.673488 0.250000 0.505885
O O7 0.655714 0.514128 0.609553
O O8 0.653733 0.516267 0.402646
O O9 0.859867 0.250000 0.717113
O O10 0.889541 0.980266 0.809370
O O11 0.558963 0.750000 0.908239
O O12 0.500225 0.011670 0.870964
O O13 0.581399 0.020274 0.003317
O O14 0.640554 0.250000 0.298652
O O15 0.611856 0.518067 0.197533
O O16 0.936042 0.250000 0.135493
#
# Coordination Sequence:
#
# PCOD9447762 Si02
#       6
#     8   8   8   8   8   8
#     4  11  19  30  46  73 105 134 165 200 249 306
#     4   9  18  32  51  75 100 129 168 213 257 297
#     4  11  20  31  50  75 103 135 169 207 253 303
#     4  10  19  31  47  71 104 137 168 203 244 297
#     4   9  16  29  48  71 101 131 161 201 248 296
#     4   9  17  30  47  70 102 136 167 200 242 299
#
# _framework density 19.046088999999998
#
# number of rings (size 3 to 8) (size 9 to 14) (size 15 to 20)
#    0.000    2.167    3.333    1.500    0.000    0.667 
#    0.000    0.000    0.000    3.000    0.000    4.667 
#    0.000    0.000    0.000    0.000    0.000    0.000 
#
# Total GULP energy -267237.570199 kJ/mol
# GULP energy per Si atom -5567.449379 kJ/mol
# Density = 1.900274 g / cm^3
# Si number density = 19.046089 Si / 1000 Ang^3
#
#
#
# Elastic Constant Matrix: (Units=GPa)
#
#
# Indices 1 2 3 4 5 6 
#
# 1 58.0375 2.9965 51.2581 0.0000 0.0000 0.0000
# 2 2.9965 20.8667 4.6952 0.0000 0.0000 0.0000
# 3 51.2581 4.6952 179.0665 0.0000 0.0000 0.0000
# 4 0.0000 0.0000 0.0000 8.0948 0.0000 0.0000
# 5 0.0000 0.0000 0.0000 0.0000 9.8121 0.0000
# 6 0.0000 0.0000 0.0000 0.0000 0.0000 10.8648
#
#
#
# Elastic Compliance Matrix: (Units=1/GPa)
#
#
# Indices 1 2 3 4 5 6 
#
# 1 0.023130 -0.001843 -0.006573 0.000000 0.000000 0.000000
# 2 -0.001843 0.048355 -0.000740 0.000000 0.000000 0.000000
# 3 -0.006573 -0.000740 0.007485 0.000000 0.000000 0.000000
# 4 0.000000 0.000000 0.000000 0.123536 0.000000 0.000000
# 5 0.000000 0.000000 0.000000 0.000000 0.101915 0.000000
# 6 0.000000 0.000000 0.000000 0.000000 0.000000 0.092040
#
#
# Mechanical properties :
#
#
# Convention : Reuss Voigt Hill
#
# Bulk Modulus (GPa) = 16.48570 41.76336 29.12453
# Shear Modulus (GPa) = 11.49446 19.02241 15.25844
#
# Velocity S-wave (km/s) = 2.45930 3.16374 2.83350
# Velocity P-wave (km/s) = 4.09130 5.94313 5.10194
#
# Compressibility (1/GPa) = 0.06065863
#
# Stress axis : x y z
#
# Youngs Moduli (GPa) = 43.23313 20.68058 133.59322
#
# Poissons Ratio (x) = 0.03811 0.87808
# Poissons Ratio (y) = 0.07966 0.09891
# Poissons Ratio (z) = 0.28416 0.01531
#
# Static dielectric constant tensor:
#      x y z
#    x 1.623470 0.000000 0.000000 
#    y 0.000000 1.697770 0.000000 
#    z 0.000000 0.000000 1.739760 
# 
# From -- ./inp_files/18607.got.cif
#   From: 2010.05.17/outbox.cif.g08.bks.cpg/sg59_10_cif.got.tgz:18607.got - 2010.06.03 14:40:33.
