data_PCOD9447382
_publ_section_title
;
Structure prediction by ZEFSAII (Michael W. Deem and Ramdas Pophale) SiO2 
 PCOD9447382
Probable space group: P M M N
;
_chemical_formula_sum "Si O2"
_cell_formula_units_Z 56
_cell_length_a 8.815190
_cell_length_b 14.127238
_cell_length_c 30.157502
_cell_angle_alpha 90.000000
_cell_angle_beta 90.000000
_cell_angle_gamma 90.000000
_cell_volume 3755.643014
_symmetry_space_group_name_H-M "P M M N"
_symmetry_group_IT_number 59
_space_group.IT_coordinate_system_code '2'
_symmetry_cell_setting 'orthorhombic'
loop_
_space_group_symop_operation_xyz
x,y,z
1/2-x,1/2-y,z
1/2+x,-y,-z
-x,1/2+y,-z
-x,-y,-z
1/2+x,1/2+y,-z
1/2-x,y,z
x,1/2-y,z
loop_
_atom_site_type_symbol
_atom_site_label
_atom_site_fract_x
_atom_site_fract_y
_atom_site_fract_z
Si Si1 0.569207 0.639522 0.152417
Si Si2 0.935130 0.359724 0.657639
Si Si3 0.925243 0.135095 0.755030
Si Si4 0.066688 0.955938 0.432617
Si Si5 0.933002 0.643290 0.517955
Si Si6 0.568683 0.465262 0.931124
Si Si7 0.432889 0.858712 0.978369
O O1 0.750000 0.635821 0.149187
O O2 0.521376 0.750000 0.146983
O O3 0.517548 0.607948 0.201442
O O4 0.496399 0.577236 0.113929
O O5 0.750000 0.359724 0.658948
O O6 0.981460 0.250000 0.651193
O O7 0.984022 0.394419 0.706446
O O8 0.983630 0.421997 0.615848
O O9 0.750000 0.105207 0.760206
O O10 0.925719 0.250000 0.753125
O O11 0.250000 0.949999 0.433846
O O12 0.001319 0.888292 0.470860
O O13 0.022503 0.062465 0.446717
O O14 0.750000 0.641234 0.514595
O O15 0.979794 0.750000 0.529282
O O16 0.750000 0.468644 0.928921
O O17 0.504419 0.568145 0.943742
O O18 0.525695 0.397049 0.972559
O O19 0.250000 0.863187 0.974962
O O20 0.480294 0.750000 0.972722
#
# Coordination Sequence:
#
# PCOD9447382 Si02
#       7
#     8   8   8   8   8   8   8
#     4  10  19  29  42  62  88 115 142 173 209 251
#     4   8  13  22  38  59  78  97 128 169 205 239
#     4   8  14  25  40  57  78 103 131 166 208 250
#     4   9  16  26  41  58  76 104 140 169 196 239
#     4   9  17  27  37  54  82 109 132 164 204 240
#     4  10  19  30  46  67  89 115 147 178 209 248
#     4   9  18  32  47  64  89 118 146 177 212 249
#
# _framework density 14.910895999999999
#
# number of rings (size 3 to 8) (size 9 to 14) (size 15 to 20)
#    0.000    3.000    0.000    2.571    0.000    3.143 
#    0.000    0.714    0.000    2.571    0.000    1.000 
#    0.000    3.429    0.000    0.000    0.000    0.000 
#
# Total GULP energy -311871.608589 kJ/mol
# GULP energy per Si atom -5569.135868 kJ/mol
# Density = 1.487696 g / cm^3
# Si number density = 14.910896 Si / 1000 Ang^3
#
#
#
# Elastic Constant Matrix: (Units=GPa)
#
#
# Indices 1 2 3 4 5 6 
#
# 1 14.3422 25.3096 28.7152 0.0000 0.0000 0.0000
# 2 25.3096 103.8372 70.1071 0.0000 0.0000 0.0000
# 3 28.7152 70.1071 144.7809 0.0000 0.0000 0.0000
# 4 0.0000 0.0000 0.0000 23.3780 0.0000 0.0000
# 5 0.0000 0.0000 0.0000 0.0000 20.3858 0.0000
# 6 0.0000 0.0000 0.0000 0.0000 0.0000 16.1911
#
#
#
# Elastic Compliance Matrix: (Units=1/GPa)
#
#
# Indices 1 2 3 4 5 6 
#
# 1 0.147366 -0.024048 -0.017583 0.000000 0.000000 0.000000
# 2 -0.024048 0.018233 -0.004059 0.000000 0.000000 0.000000
# 3 -0.017583 -0.004059 0.012360 0.000000 0.000000 0.000000
# 4 0.000000 0.000000 0.000000 0.042775 0.000000 0.000000
# 5 0.000000 0.000000 0.000000 0.000000 0.049054 0.000000
# 6 0.000000 0.000000 0.000000 0.000000 0.000000 0.061762
#
#
# Mechanical properties :
#
#
# Convention : Reuss Voigt Hill
#
# Bulk Modulus (GPa) = 11.55027 56.80267 34.17647
# Shear Modulus (GPa) = 11.06708 21.24619 16.15664
#
# Velocity S-wave (km/s) = 2.72732 3.77885 3.29530
# Velocity P-wave (km/s) = 4.20484 7.56419 6.11955
#
# Compressibility (1/GPa) = 0.08657805
#
# Stress axis : x y z
#
# Youngs Moduli (GPa) = 6.78582 54.84677 80.90649
#
# Poissons Ratio (x) = 1.31895 1.42259
# Poissons Ratio (y) = 0.16318 0.32842
# Poissons Ratio (z) = 0.11932 0.22263
#
# Static dielectric constant tensor:
#      x y z
#    x 1.501620 0.000000 0.000000 
#    y 0.000000 1.484460 0.000000 
#    z 0.000000 0.000000 1.494000 
# 
# From -- ./inp_files/33171.got.cif
#   From: 2010.05.17/outbox.cif.g08.bks.cpg/sg59_17_cif.got.tgz:33171.got - 2010.06.03 14:40:33.
