data_PCOD9447461
_publ_section_title
;
Structure prediction by ZEFSAII (Michael W. Deem and Ramdas Pophale) SiO2 
 PCOD9447461
Probable space group: P M M N
;
_chemical_formula_sum "Si O2"
_cell_formula_units_Z 64
_cell_length_a 7.765770
_cell_length_b 30.458628
_cell_length_c 15.351775
_cell_angle_alpha 90.000000
_cell_angle_beta 90.000000
_cell_angle_gamma 90.000000
_cell_volume 3631.227487
_symmetry_space_group_name_H-M "P M M N"
_symmetry_group_IT_number 59
_space_group.IT_coordinate_system_code '2'
_symmetry_cell_setting 'orthorhombic'
loop_
_space_group_symop_operation_xyz
x,y,z
1/2-x,1/2-y,z
1/2+x,-y,-z
-x,1/2+y,-z
-x,-y,-z
1/2+x,1/2+y,-z
1/2-x,y,z
x,1/2-y,z
loop_
_atom_site_type_symbol
_atom_site_label
_atom_site_fract_x
_atom_site_fract_y
_atom_site_fract_z
Si Si1 0.542039 0.298914 0.297308
Si Si2 0.451163 0.068629 0.042567
Si Si3 0.960463 0.524614 0.125938
Si Si4 0.046854 0.112829 0.208428
Si Si5 0.460415 0.700687 0.500592
Si Si6 0.050708 0.607999 0.441480
Si Si7 0.450579 0.435622 0.379689
Si Si8 0.449805 0.028499 0.675313
O O1 0.750000 0.300673 0.296355
O O2 0.488502 0.250000 0.270896
O O3 0.474191 0.337346 0.237326
O O4 0.488744 0.305383 0.398098
O O5 0.250000 0.079551 0.030401
O O6 0.527984 0.101864 0.113547
O O7 0.469489 0.021745 0.091266
O O8 0.520574 0.060445 0.945388
O O9 0.750000 0.522837 0.122912
O O10 0.014473 0.531956 0.225344
O O11 0.250000 0.102036 0.203634
O O12 0.977325 0.083352 0.288375
O O13 0.250000 0.700215 0.499143
O O14 0.513933 0.750000 0.473294
O O15 0.519748 0.657696 0.448569
O O16 0.250000 0.610921 0.416191
O O17 0.039406 0.586178 0.537394
O O18 0.965355 0.574056 0.375496
O O19 0.250000 0.423050 0.386321
O O20 0.462363 0.488218 0.375262
O O21 0.250000 0.016095 0.679688
#
# Coordination Sequence:
#
# PCOD9447461 Si02
#       8
#     8   8   8   8   8   8   8   8
#     4   9  17  30  48  68  92 122 155 190 227 275
#     4   9  17  31  48  68  92 118 151 190 231 273
#     4   9  18  31  48  67  89 120 155 191 231 271
#     4  10  19  29  46  70  97 124 151 190 234 275
#     4   8  15  29  48  68  88 113 149 190 229 272
#     4  11  21  33  50  69  91 125 160 195 232 276
#     4  11  21  33  46  66  96 129 161 192 226 270
#     4  11  22  34  47  66  94 127 162 198 232 274
#
# _framework density 17.624894999999999
#
# number of rings (size 3 to 8) (size 9 to 14) (size 15 to 20)
#    0.000    2.250    2.500    2.250    0.000    1.750 
#    0.000    0.000    0.000    1.500    0.000    0.875 
#    0.000    5.000    0.000    0.000    0.000    0.000 
#
# Total GULP energy -356838.715002 kJ/mol
# GULP energy per Si atom -5575.604922 kJ/mol
# Density = 1.758478 g / cm^3
# Si number density = 17.624895 Si / 1000 Ang^3
#
#
#
# Elastic Constant Matrix: (Units=GPa)
#
#
# Indices 1 2 3 4 5 6 
#
# 1 25.2812 -11.1100 -4.0485 0.0000 0.0000 0.0000
# 2 -11.1100 103.5286 32.5794 0.0000 0.0000 0.0000
# 3 -4.0485 32.5794 53.1448 0.0000 0.0000 0.0000
# 4 0.0000 0.0000 0.0000 25.6292 0.0000 0.0000
# 5 0.0000 0.0000 0.0000 0.0000 6.8623 0.0000
# 6 0.0000 0.0000 0.0000 0.0000 0.0000 17.6062
#
#
#
# Elastic Compliance Matrix: (Units=1/GPa)
#
#
# Indices 1 2 3 4 5 6 
#
# 1 0.041525 0.004288 0.000535 0.000000 0.000000 0.000000
# 2 0.004288 0.012411 -0.007282 0.000000 0.000000 0.000000
# 3 0.000535 -0.007282 0.023321 0.000000 0.000000 0.000000
# 4 0.000000 0.000000 0.000000 0.039018 0.000000 0.000000
# 5 0.000000 0.000000 0.000000 0.000000 0.145723 0.000000
# 6 0.000000 0.000000 0.000000 0.000000 0.000000 0.056798
#
#
# Mechanical properties :
#
#
# Convention : Reuss Voigt Hill
#
# Bulk Modulus (GPa) = 13.82379 24.08849 18.95614
# Shear Modulus (GPa) = 14.37498 20.98846 17.68172
#
# Velocity S-wave (km/s) = 2.85898 3.45460 3.17081
# Velocity P-wave (km/s) = 4.33113 5.44145 4.91773
#
# Compressibility (1/GPa) = 0.07233909
#
# Stress axis : x y z
#
# Youngs Moduli (GPa) = 24.08180 80.57541 42.87978
#
# Poissons Ratio (x) = -0.34550 -0.02293
# Poissons Ratio (y) = -0.10326 0.31223
# Poissons Ratio (z) = -0.01288 0.58671
#
# Static dielectric constant tensor:
#      x y z
#    x 1.696140 0.000000 0.000000 
#    y 0.000000 1.604220 0.000000 
#    z 0.000000 0.000000 1.613330 
# 
# From -- ./inp_files/21856.got.cif
#   From: 2010.05.17/outbox.cif.g08.bks.cpg/sg59_11_cif.got.tgz:21856.got - 2010.06.03 14:40:33.
