data_PCOD9447057
_publ_section_title
;
Structure prediction by ZEFSAII (Michael W. Deem and Ramdas Pophale) SiO2 
 PCOD9447057
Probable space group: P M M N
;
_chemical_formula_sum "Si O2"
_cell_formula_units_Z 64
_cell_length_a 23.845898
_cell_length_b 8.777996
_cell_length_c 19.734660
_cell_angle_alpha 90.000000
_cell_angle_beta 90.000000
_cell_angle_gamma 90.000000
_cell_volume 4130.843189
_symmetry_space_group_name_H-M "P M M N"
_symmetry_group_IT_number 59
_space_group.IT_coordinate_system_code '2'
_symmetry_cell_setting 'orthorhombic'
loop_
_space_group_symop_operation_xyz
x,y,z
1/2-x,1/2-y,z
1/2+x,-y,-z
-x,1/2+y,-z
-x,-y,-z
1/2+x,1/2+y,-z
1/2-x,y,z
x,1/2-y,z
loop_
_atom_site_type_symbol
_atom_site_label
_atom_site_fract_x
_atom_site_fract_y
_atom_site_fract_z
Si Si1 0.483553 0.932975 0.898116
Si Si2 0.589365 0.068213 0.976343
Si Si3 0.315257 0.432161 0.109694
Si Si4 0.814664 0.566089 0.618686
Si Si5 0.026719 0.566975 0.601650
Si Si6 0.993621 0.566165 0.748219
Si Si7 0.413610 0.067084 0.478798
Si Si8 0.868507 0.068191 0.753808
O O1 0.492256 0.750000 0.903406
O O2 0.476733 0.971307 0.819296
O O3 0.539111 0.013679 0.926956
O O4 0.432558 0.971991 0.948357
O O5 0.595135 0.250000 0.971457
O O6 0.645925 0.989765 0.951482
O O7 0.250000 0.472559 0.101396
O O8 0.319838 0.250000 0.115384
O O9 0.339631 0.505289 0.178277
O O10 0.750000 0.528887 0.605041
O O11 0.819336 0.750000 0.626100
O O12 0.856839 0.519040 0.558674
O O13 0.835156 0.491480 0.688356
O O14 0.030333 0.750000 0.599093
O O15 0.073799 0.499403 0.552628
O O16 0.025627 0.518589 0.679933
O O17 0.966517 0.522625 0.568808
O O18 0.986939 0.750000 0.745100
O O19 0.931788 0.494734 0.749364
O O20 0.413680 0.250000 0.483269
O O21 0.869139 0.250000 0.755363
#
# Coordination Sequence:
#
# PCOD9447057 Si02
#       8
#     8   8   8   8   8   8   8   8
#     4   9  18  31  50  71  97 129 157 192 241 293
#     4  10  19  31  48  74  98 121 159 204 244 279
#     4  11  23  37  51  66  91 133 173 199 235 287
#     4  10  20  35  52  67  90 129 168 196 230 283
#     4   9  17  29  47  68  92 123 157 193 234 278
#     4  10  18  32  51  70  96 131 164 189 228 289
#     4   9  17  30  46  68  93 120 157 197 236 277
#     4  12  23  32  46  71 100 127 161 201 238 273
#
# _framework density 15.493206000000001
#
# number of rings (size 3 to 8) (size 9 to 14) (size 15 to 20)
#    0.000    2.000    2.500    2.250    0.000    4.250 
#    0.000    0.000    0.000    0.000    0.000    0.875 
#    0.000    5.000    0.000    0.000    0.000    0.000 
#
# Total GULP energy -357044.820354 kJ/mol
# GULP energy per Si atom -5578.825318 kJ/mol
# Density = 1.545794 g / cm^3
# Si number density = 15.493206 Si / 1000 Ang^3
#
#
#
# Elastic Constant Matrix: (Units=GPa)
#
#
# Indices 1 2 3 4 5 6 
#
# 1 91.2761 30.2669 70.4807 0.0000 0.0000 0.0000
# 2 30.2669 22.6352 37.4438 0.0000 0.0000 0.0000
# 3 70.4807 37.4438 144.0138 0.0000 0.0000 0.0000
# 4 0.0000 0.0000 0.0000 23.2872 0.0000 0.0000
# 5 0.0000 0.0000 0.0000 0.0000 17.5341 0.0000
# 6 0.0000 0.0000 0.0000 0.0000 0.0000 19.5712
#
#
#
# Elastic Compliance Matrix: (Units=1/GPa)
#
#
# Indices 1 2 3 4 5 6 
#
# 1 0.021869 -0.020245 -0.005439 0.000000 0.000000 0.000000
# 2 -0.020245 0.096262 -0.015120 0.000000 0.000000 0.000000
# 3 -0.005439 -0.015120 0.013537 0.000000 0.000000 0.000000
# 4 0.000000 0.000000 0.000000 0.042942 0.000000 0.000000
# 5 0.000000 0.000000 0.000000 0.000000 0.057032 0.000000
# 6 0.000000 0.000000 0.000000 0.000000 0.000000 0.051096
#
#
# Mechanical properties :
#
#
# Convention : Reuss Voigt Hill
#
# Bulk Modulus (GPa) = 19.97628 59.36754 39.67191
# Shear Modulus (GPa) = 13.12230 20.06076 16.59153
#
# Velocity S-wave (km/s) = 2.91343 3.60225 3.27600
# Velocity P-wave (km/s) = 4.92332 7.46346 6.32227
#
# Compressibility (1/GPa) = 0.05005937
#
# Stress axis : x y z
#
# Youngs Moduli (GPa) = 45.72775 10.38835 73.87193
#
# Poissons Ratio (x) = 0.21031 0.40178
# Poissons Ratio (y) = 0.92574 1.11698
# Poissons Ratio (z) = 0.24871 0.15708
#
# Static dielectric constant tensor:
#      x y z
#    x 1.493830 0.000000 0.000000 
#    y 0.000000 1.522920 0.000000 
#    z 0.000000 0.000000 1.525140 
# 
# From -- ./inp_files/28162.got.cif
#   From: 2010.05.17/outbox.cif.g08.bks.cpg/sg59_15_cif.got.tgz:28162.got - 2010.06.03 14:40:33.
