data_PCOD9447440
_publ_section_title
;
Structure prediction by ZEFSAII (Michael W. Deem and Ramdas Pophale) SiO2 
 PCOD9447440
Probable space group: P M M N
;
_chemical_formula_sum "Si O2"
_cell_formula_units_Z 56
_cell_length_a 19.489932
_cell_length_b 9.833557
_cell_length_c 15.025890
_cell_angle_alpha 90.000000
_cell_angle_beta 90.000000
_cell_angle_gamma 90.000000
_cell_volume 2879.792316
_symmetry_space_group_name_H-M "P M M N"
_symmetry_group_IT_number 59
_space_group.IT_coordinate_system_code '2'
_symmetry_cell_setting 'orthorhombic'
loop_
_space_group_symop_operation_xyz
x,y,z
1/2-x,1/2-y,z
1/2+x,-y,-z
-x,1/2+y,-z
-x,-y,-z
1/2+x,1/2+y,-z
1/2-x,y,z
x,1/2-y,z
loop_
_atom_site_type_symbol
_atom_site_label
_atom_site_fract_x
_atom_site_fract_y
_atom_site_fract_z
Si Si1 0.667245 0.912681 0.148107
Si Si2 0.489352 0.387770 0.604124
Si Si3 0.831652 0.397936 0.311386
Si Si4 0.118836 0.517462 0.497938
Si Si5 0.029662 0.407640 0.254737
Si Si6 0.547492 0.085855 0.067831
Si Si7 0.824187 0.914074 0.682560
O O1 0.750000 0.928007 0.132505
O O2 0.652204 0.750000 0.143816
O O3 0.650735 0.977574 0.245592
O O4 0.619465 0.004446 0.083023
O O5 0.488588 0.250000 0.658970
O O6 0.558471 0.394470 0.546509
O O7 0.425471 0.394648 0.538613
O O8 0.489402 0.515607 0.668032
O O9 0.750000 0.389682 0.303231
O O10 0.860803 0.250000 0.281603
O O11 0.846933 0.418456 0.415547
O O12 0.166348 0.470789 0.417360
O O13 0.030946 0.250000 0.277710
O O14 0.108805 0.457005 0.261550
O O15 0.993905 0.423561 0.160797
O O16 0.555352 0.250000 0.047829
O O17 0.500000 0.000000 0.000000
O O18 0.750000 0.957849 0.718244
O O19 0.824283 0.750000 0.678724
#
# Coordination Sequence:
#
# PCOD9447440 Si02
#       7
#     8   8   8   8   8   8   8
#     4  10  22  40  61  87 119 152 188 232 283 340
#     4  10  20  31  47  70  99 139 182 226 276 328
#     4  10  20  33  50  73 104 144 185 224 272 328
#     4  10  19  29  44  69 104 138 183 234 277 322
#     4   9  20  37  55  78 108 141 181 229 279 336
#     4  11  23  40  64  92 120 148 183 229 283 347
#     4   9  17  31  51  73 102 143 188 233 280 327
#
# _framework density 19.445846
#
# number of rings (size 3 to 8) (size 9 to 14) (size 15 to 20)
#    0.000    2.143    0.000    3.000    0.000    9.429 
#    0.000    2.143    0.000    6.429    0.000    0.000 
#    0.000    0.000    0.000    0.000    0.000    0.000 
#
# Total GULP energy -311957.866966 kJ/mol
# GULP energy per Si atom -5570.676196 kJ/mol
# Density = 1.940159 g / cm^3
# Si number density = 19.445846 Si / 1000 Ang^3
#
#
#
# Elastic Constant Matrix: (Units=GPa)
#
#
# Indices 1 2 3 4 5 6 
#
# 1 110.9736 38.4556 20.6985 0.0000 0.0000 0.0000
# 2 38.4556 122.2106 46.3405 0.0000 0.0000 0.0000
# 3 20.6985 46.3405 51.8395 0.0000 0.0000 0.0000
# 4 0.0000 0.0000 0.0000 24.7406 0.0000 0.0000
# 5 0.0000 0.0000 0.0000 0.0000 30.4473 0.0000
# 6 0.0000 0.0000 0.0000 0.0000 0.0000 57.3873
#
#
#
# Elastic Compliance Matrix: (Units=1/GPa)
#
#
# Indices 1 2 3 4 5 6 
#
# 1 0.010227 -0.002526 -0.001825 0.000000 0.000000 0.000000
# 2 -0.002526 0.013002 -0.010614 0.000000 0.000000 0.000000
# 3 -0.001825 -0.010614 0.029508 0.000000 0.000000 0.000000
# 4 0.000000 0.000000 0.000000 0.040419 0.000000 0.000000
# 5 0.000000 0.000000 0.000000 0.000000 0.032844 0.000000
# 6 0.000000 0.000000 0.000000 0.000000 0.000000 0.017425
#
#
# Mechanical properties :
#
#
# Convention : Reuss Voigt Hill
#
# Bulk Modulus (GPa) = 43.84955 55.11252 49.48103
# Shear Modulus (GPa) = 27.63058 34.48363 31.05711
#
# Velocity S-wave (km/s) = 3.77357 4.21564 4.00072
# Velocity P-wave (km/s) = 6.44864 7.21794 6.84411
#
# Compressibility (1/GPa) = 0.02280525
#
# Stress axis : x y z
#
# Youngs Moduli (GPa) = 97.78113 76.90967 33.88942
#
# Poissons Ratio (x) = 0.19426 0.06186
# Poissons Ratio (y) = 0.24698 0.35972
# Poissons Ratio (z) = 0.17850 0.81636
#
# Static dielectric constant tensor:
#      x y z
#    x 1.749400 0.000000 0.000000 
#    y 0.000000 1.717930 0.000000 
#    z 0.000000 0.000000 1.649990 
# 
# From -- ./inp_files/24179.got.cif
#   From: 2010.05.17/outbox.cif.g08.bks.cpg/sg59_13_cif.got.tgz:24179.got - 2010.06.03 14:40:33.
