data_PCOD9447881
_publ_section_title
;
Structure prediction by ZEFSAII (Michael W. Deem and Ramdas Pophale) SiO2 
 PCOD9447881
Probable space group: P M M N
;
_chemical_formula_sum "Si O2"
_cell_formula_units_Z 48
_cell_length_a 8.961617
_cell_length_b 20.537965
_cell_length_c 15.583718
_cell_angle_alpha 90.000000
_cell_angle_beta 90.000000
_cell_angle_gamma 90.000000
_cell_volume 2868.235913
_symmetry_space_group_name_H-M "P M M N"
_symmetry_group_IT_number 59
_space_group.IT_coordinate_system_code '2'
_symmetry_cell_setting 'orthorhombic'
loop_
_space_group_symop_operation_xyz
x,y,z
1/2-x,1/2-y,z
1/2+x,-y,-z
-x,1/2+y,-z
-x,-y,-z
1/2+x,1/2+y,-z
1/2-x,y,z
x,1/2-y,z
loop_
_atom_site_type_symbol
_atom_site_label
_atom_site_fract_x
_atom_site_fract_y
_atom_site_fract_z
Si Si1 0.072771 0.675370 0.905807
Si Si2 0.921686 0.910089 0.563513
Si Si3 0.572129 0.960729 0.221023
Si Si4 0.920892 0.434607 0.606014
Si Si5 0.428826 0.935996 0.043375
Si Si6 0.570898 0.897111 0.752008
O O1 0.250000 0.668899 0.887242
O O2 0.042743 0.750000 0.929201
O O3 0.981678 0.654254 0.822022
O O4 0.038635 0.625273 0.982262
O O5 0.750000 0.892607 0.545820
O O6 0.970173 0.879038 0.653870
O O7 0.018900 0.899454 0.479059
O O8 0.924710 0.987890 0.583823
O O9 0.750000 0.962676 0.214329
O O10 0.520547 0.926982 0.309436
O O11 0.499351 0.928855 0.137278
O O12 0.507992 0.034481 0.225259
O O13 0.750000 0.417537 0.624381
O O14 0.250000 0.944031 0.049561
O O15 0.500000 0.000000 0.000000
O O16 0.750000 0.906518 0.753890
#
# Coordination Sequence:
#
# PCOD9447881 Si02
#       6
#     8   8   8   8   8   8
#     4  10  22  38  54  74 102 136 172 212 260 313
#     4   8  15  26  40  63  95 129 161 197 243 294
#     4  11  20  30  47  71 101 135 169 210 257 306
#     4   9  16  26  41  65  96 129 164 203 245 295
#     4  11  21  34  53  76 102 133 172 216 261 313
#     4  10  19  31  49  72  99 132 170 209 252 304
#
# _framework density 16.735025
#
# number of rings (size 3 to 8) (size 9 to 14) (size 15 to 20)
#    0.000    2.167    1.667    4.000    0.000    5.667 
#    0.000    0.000    0.000    0.000    0.000    1.167 
#    0.000    6.667    0.000    0.000    0.000    0.000 
#
# Total GULP energy -267671.972028 kJ/mol
# GULP energy per Si atom -5576.499417 kJ/mol
# Density = 1.669693 g / cm^3
# Si number density = 16.735025 Si / 1000 Ang^3
#
#
#
# Elastic Constant Matrix: (Units=GPa)
#
#
# Indices 1 2 3 4 5 6 
#
# 1 89.3904 38.6139 68.5433 0.0000 0.0000 0.0000
# 2 38.6139 57.6339 46.9976 0.0000 0.0000 0.0000
# 3 68.5433 46.9976 141.7785 0.0000 0.0000 0.0000
# 4 0.0000 0.0000 0.0000 13.6933 0.0000 0.0000
# 5 0.0000 0.0000 0.0000 0.0000 34.8681 0.0000
# 6 0.0000 0.0000 0.0000 0.0000 0.0000 13.5127
#
#
#
# Elastic Compliance Matrix: (Units=1/GPa)
#
#
# Indices 1 2 3 4 5 6 
#
# 1 0.019902 -0.007521 -0.007128 0.000000 0.000000 0.000000
# 2 -0.007521 0.026621 -0.005188 0.000000 0.000000 0.000000
# 3 -0.007128 -0.005188 0.012219 0.000000 0.000000 0.000000
# 4 0.000000 0.000000 0.000000 0.073028 0.000000 0.000000
# 5 0.000000 0.000000 0.000000 0.000000 0.028679 0.000000
# 6 0.000000 0.000000 0.000000 0.000000 0.000000 0.074004
#
#
# Mechanical properties :
#
#
# Convention : Reuss Voigt Hill
#
# Bulk Modulus (GPa) = 52.44868 66.34582 59.39725
# Shear Modulus (GPa) = 17.82628 21.39137 19.60883
#
# Velocity S-wave (km/s) = 3.26729 3.57913 3.42676
# Velocity P-wave (km/s) = 6.75591 7.53732 7.15728
#
# Compressibility (1/GPa) = 0.01906626
#
# Stress axis : x y z
#
# Youngs Moduli (GPa) = 50.24689 37.56474 81.83704
#
# Poissons Ratio (x) = 0.28252 0.58337
# Poissons Ratio (y) = 0.37791 0.42460
# Poissons Ratio (z) = 0.35818 0.19490
#
# Static dielectric constant tensor:
#      x y z
#    x 1.562090 0.000000 0.000000 
#    y 0.000000 1.544900 0.000000 
#    z 0.000000 0.000000 1.586000 
# 
# From -- ./inp_files/20450.got.cif
#   From: 2010.05.17/outbox.cif.g08.bks.cpg/sg59_11_cif.got.tgz:20450.got - 2010.06.03 14:40:33.
