data_PCOD9447021
_publ_section_title
;
Structure prediction by ZEFSAII (Michael W. Deem and Ramdas Pophale) SiO2 
 PCOD9447021
Probable space group: P M M N
;
_chemical_formula_sum "Si O2"
_cell_formula_units_Z 48
_cell_length_a 13.762080
_cell_length_b 13.692011
_cell_length_c 11.462541
_cell_angle_alpha 90.000000
_cell_angle_beta 90.000000
_cell_angle_gamma 90.000000
_cell_volume 2159.892914
_symmetry_space_group_name_H-M "P M M N"
_symmetry_group_IT_number 59
_space_group.IT_coordinate_system_code '2'
_symmetry_cell_setting 'orthorhombic'
loop_
_space_group_symop_operation_xyz
x,y,z
1/2-x,1/2-y,z
1/2+x,-y,-z
-x,1/2+y,-z
-x,-y,-z
1/2+x,1/2+y,-z
1/2-x,y,z
x,1/2-y,z
loop_
_atom_site_type_symbol
_atom_site_label
_atom_site_fract_x
_atom_site_fract_y
_atom_site_fract_z
Si Si1 0.858216 0.063949 0.957266
Si Si2 0.061459 0.143427 0.026234
Si Si3 0.135632 0.986622 0.469276
Si Si4 0.928264 0.362032 0.724131
Si Si5 0.636473 0.642628 0.717868
Si Si6 0.140246 0.363822 0.680700
O O1 0.750000 0.094523 0.990131
O O2 0.868726 0.072371 0.815925
O O3 0.879786 0.954835 0.004475
O O4 0.948086 0.128866 0.999754
O O5 0.096770 0.250000 0.984056
O O6 0.074766 0.143824 0.165821
O O7 0.250000 0.967594 0.455674
O O8 0.101549 0.067211 0.376518
O O9 0.128021 0.045429 0.590377
O O10 0.084827 0.892191 0.411937
O O11 0.898187 0.250000 0.739492
O O12 0.042511 0.370906 0.756488
O O13 0.750000 0.624479 0.748902
O O14 0.633920 0.750000 0.663860
O O15 0.250000 0.372945 0.729786
O O16 0.136219 0.250000 0.633882
#
# Coordination Sequence:
#
# PCOD9447021 Si02
#       6
#     8   8   8   8   8   8
#     4  11  23  40  60  84 115 151 189 230 282 342
#     4  10  21  37  59  87 114 143 185 236 284 330
#     4  10  18  31  54  81 108 142 181 224 271 324
#     4  11  22  35  53  80 113 149 188 228 274 334
#     4   9  16  29  53  83 110 135 172 226 279 322
#     4   9  19  36  56  79 108 142 183 231 283 333
#
# _framework density 22.223324999999999
#
# number of rings (size 3 to 8) (size 9 to 14) (size 15 to 20)
#    0.000    2.000    1.667    2.500    0.000    5.333 
#    0.000    4.167    0.000    8.000    0.000    0.000 
#    0.000    0.000    0.000    0.000    0.000    0.000 
#
# Total GULP energy -267457.718903 kJ/mol
# GULP energy per Si atom -5572.035810 kJ/mol
# Density = 2.217274 g / cm^3
# Si number density = 22.223325 Si / 1000 Ang^3
#
#
#
# Elastic Constant Matrix: (Units=GPa)
#
#
# Indices 1 2 3 4 5 6 
#
# 1 83.4198 13.3157 13.0452 0.0000 0.0000 0.0000
# 2 13.3157 104.4410 12.4637 0.0000 0.0000 0.0000
# 3 13.0452 12.4637 22.8787 0.0000 0.0000 0.0000
# 4 0.0000 0.0000 0.0000 21.8020 0.0000 0.0000
# 5 0.0000 0.0000 0.0000 0.0000 25.6986 0.0000
# 6 0.0000 0.0000 0.0000 0.0000 0.0000 19.6669
#
#
#
# Elastic Compliance Matrix: (Units=1/GPa)
#
#
# Indices 1 2 3 4 5 6 
#
# 1 0.013230 -0.000841 -0.007085 0.000000 0.000000 0.000000
# 2 -0.000841 0.010294 -0.005128 0.000000 0.000000 0.000000
# 3 -0.007085 -0.005128 0.050542 0.000000 0.000000 0.000000
# 4 0.000000 0.000000 0.000000 0.045867 0.000000 0.000000
# 5 0.000000 0.000000 0.000000 0.000000 0.038913 0.000000
# 6 0.000000 0.000000 0.000000 0.000000 0.000000 0.050847
#
#
# Mechanical properties :
#
#
# Convention : Reuss Voigt Hill
#
# Bulk Modulus (GPa) = 20.85210 32.04321 26.44766
# Shear Modulus (GPa) = 19.85796 24.89448 22.37622
#
# Velocity S-wave (km/s) = 2.99250 3.35056 3.17658
# Velocity P-wave (km/s) = 4.61989 5.42387 5.03795
#
# Compressibility (1/GPa) = 0.04795679
#
# Stress axis : x y z
#
# Youngs Moduli (GPa) = 75.58678 97.14374 19.78538
#
# Poissons Ratio (x) = 0.08172 0.14018
# Poissons Ratio (y) = 0.06358 0.10146
# Poissons Ratio (z) = 0.53555 0.49818
#
# Static dielectric constant tensor:
#      x y z
#    x 1.810790 0.000000 0.000000 
#    y 0.000000 1.869770 0.000000 
#    z 0.000000 0.000000 1.854950 
# 
# From -- ./inp_files/22403.got.cif
#   From: 2010.05.17/outbox.cif.g08.bks.cpg/sg59_12_cif.got.tgz:22403.got - 2010.06.03 14:40:33.
