data_PCOD9447167
_publ_section_title
;
Structure prediction by ZEFSAII (Michael W. Deem and Ramdas Pophale) SiO2 
 PCOD9447167
Probable space group: P M M N
;
_chemical_formula_sum "Si O2"
_cell_formula_units_Z 64
_cell_length_a 8.716036
_cell_length_b 15.636256
_cell_length_c 24.788643
_cell_angle_alpha 90.000000
_cell_angle_beta 90.000000
_cell_angle_gamma 90.000000
_cell_volume 3378.349219
_symmetry_space_group_name_H-M "P M M N"
_symmetry_group_IT_number 59
_space_group.IT_coordinate_system_code '2'
_symmetry_cell_setting 'orthorhombic'
loop_
_space_group_symop_operation_xyz
x,y,z
1/2-x,1/2-y,z
1/2+x,-y,-z
-x,1/2+y,-z
-x,-y,-z
1/2+x,1/2+y,-z
1/2-x,y,z
x,1/2-y,z
loop_
_atom_site_type_symbol
_atom_site_label
_atom_site_fract_x
_atom_site_fract_y
_atom_site_fract_z
Si Si1 0.435247 0.904766 0.002637
Si Si2 0.434886 0.150645 0.391249
Si Si3 0.934045 0.501588 0.690443
Si Si4 0.565933 0.498967 0.189860
Si Si5 0.935083 0.153508 0.878407
Si Si6 0.933181 0.650036 0.380197
Si Si7 0.563159 0.156533 0.114238
Si Si8 0.075028 0.853863 0.494386
O O1 0.250000 0.907204 0.002117
O O2 0.484508 0.858001 0.947779
O O3 0.481156 0.862739 0.059258
O O4 0.500000 0.000000 0.000000
O O5 0.250000 0.150293 0.394216
O O6 0.482510 0.250000 0.381538
O O7 0.499620 0.120989 0.449079
O O8 0.482811 0.083954 0.345218
O O9 0.750000 0.500527 0.692114
O O10 0.999297 0.507028 0.750447
O O11 0.991952 0.415332 0.661547
O O12 0.750000 0.497382 0.192275
O O13 0.511410 0.584476 0.160024
O O14 0.511790 0.419856 0.152629
O O15 0.750000 0.144592 0.875658
O O16 0.975224 0.250000 0.862968
O O17 0.750000 0.646233 0.375794
O O18 0.979952 0.750000 0.372268
O O19 0.983660 0.622946 0.440517
O O20 0.750000 0.155107 0.114442
O O21 0.513017 0.250000 0.132989
O O22 0.250000 0.884432 0.490674
O O23 0.076518 0.750000 0.495278
#
# Coordination Sequence:
#
# PCOD9447167 Si02
#       8
#     8   8   8   8   8   8   8   8
#     4  10  18  32  57  86 117 149 182 224 276 331
#     4   9  19  37  59  83 113 149 187 228 278 334
#     4  11  24  40  59  82 110 148 191 236 283 334
#     4  11  23  39  58  81 110 146 188 237 284 329
#     4  10  21  37  59  85 113 149 189 229 277 334
#     4  10  21  38  60  85 114 148 186 231 282 335
#     4   9  18  34  57  84 113 147 185 224 273 333
#     4   9  17  31  55  87 119 149 183 226 277 333
#
# _framework density 18.944163
#
# number of rings (size 3 to 8) (size 9 to 14) (size 15 to 20)
#    0.000    2.125    1.250    1.875    0.000    6.500 
#    0.000    0.000    0.000    3.750    0.000    0.000 
#    0.000    0.000    0.000    0.000    0.000    0.000 
#
# Total GULP energy -357331.397999 kJ/mol
# GULP energy per Si atom -5583.303094 kJ/mol
# Density = 1.890105 g / cm^3
# Si number density = 18.944163 Si / 1000 Ang^3
#
#
#
# Elastic Constant Matrix: (Units=GPa)
#
#
# Indices 1 2 3 4 5 6 
#
# 1 22.5913 16.7855 16.4028 0.0000 0.0000 0.0000
# 2 16.7855 94.7260 33.2009 0.0000 0.0000 0.0000
# 3 16.4028 33.2009 102.6828 0.0000 0.0000 0.0000
# 4 0.0000 0.0000 0.0000 -31.5539 0.0000 0.0000
# 5 0.0000 0.0000 0.0000 0.0000 -1.5411 0.0000
# 6 0.0000 0.0000 0.0000 0.0000 0.0000 21.7345
#
#
#
# Elastic Compliance Matrix: (Units=1/GPa)
#
#
# Indices 1 2 3 4 5 6 
#
# 1 0.054344 -0.007429 -0.006279 0.000000 0.000000 0.000000
# 2 -0.007429 0.012922 -0.002991 0.000000 0.000000 0.000000
# 3 -0.006279 -0.002991 0.011709 0.000000 0.000000 0.000000
# 4 0.000000 0.000000 0.000000 -0.031692 0.000000 0.000000
# 5 0.000000 0.000000 0.000000 0.000000 -0.648883 0.000000
# 6 0.000000 0.000000 0.000000 0.000000 0.000000 0.046010
#
#
# Mechanical properties :
#
#
# Convention : Reuss Voigt Hill
#
# Bulk Modulus (GPa) = 21.94151 39.19762 30.56957
# Shear Modulus (GPa) = -9.86192 7.96863 -0.94664
#
# Velocity S-wave (km/s) = -2.28409 2.05317 -0.70766
# Velocity P-wave (km/s) = 2.15667 5.13388 3.93751
#
# Compressibility (1/GPa) = 0.04557572
#
# Stress axis : x y z
#
# Youngs Moduli (GPa) = 18.40142 77.38969 85.40489
#
# Poissons Ratio (x) = 0.57493 0.53625
# Poissons Ratio (y) = 0.13670 0.25547
# Poissons Ratio (z) = 0.11554 0.23149
#
# Static dielectric constant tensor:
#      x y z
#    x 1.644200 0.000000 0.000000 
#    y 0.000000 1.661010 0.000000 
#    z 0.000000 0.000000 1.630840 
# 
# From -- ./inp_files/31543.got.cif
#   From: 2010.05.17/outbox.cif.g08.bks.cpg/sg59_16_cif.got.tgz:31543.got - 2010.06.03 14:40:33.
