data_PCOD9447838
_publ_section_title
;
Structure prediction by ZEFSAII (Michael W. Deem and Ramdas Pophale) SiO2 
 PCOD9447838
Probable space group: P M M N
;
_chemical_formula_sum "Si O2"
_cell_formula_units_Z 64
_cell_length_a 8.719369
_cell_length_b 24.068384
_cell_length_c 19.567835
_cell_angle_alpha 90.000000
_cell_angle_beta 90.000000
_cell_angle_gamma 90.000000
_cell_volume 4106.527795
_symmetry_space_group_name_H-M "P M M N"
_symmetry_group_IT_number 59
_space_group.IT_coordinate_system_code '2'
_symmetry_cell_setting 'orthorhombic'
loop_
_space_group_symop_operation_xyz
x,y,z
1/2-x,1/2-y,z
1/2+x,-y,-z
-x,1/2+y,-z
-x,-y,-z
1/2+x,1/2+y,-z
1/2-x,y,z
x,1/2-y,z
loop_
_atom_site_type_symbol
_atom_site_label
_atom_site_fract_x
_atom_site_fract_y
_atom_site_fract_z
Si Si1 0.432976 0.020605 0.108521
Si Si2 0.431984 0.005137 0.750086
Si Si3 0.435088 0.313435 0.887266
Si Si4 0.436894 0.686693 0.390850
Si Si5 0.565407 0.413996 0.516599
Si Si6 0.067356 0.022323 0.392722
Si Si7 0.065660 0.629712 0.248125
Si Si8 0.565411 0.917101 0.025670
O O1 0.250000 0.019756 0.116820
O O2 0.510818 0.025618 0.181811
O O3 0.486886 0.962606 0.074468
O O4 0.474459 0.067122 0.052103
O O5 0.250000 0.009554 0.750820
O O6 0.502578 0.067182 0.751717
O O7 0.488475 0.976497 0.680643
O O8 0.250000 0.314260 0.880954
O O9 0.483781 0.250000 0.898695
O O10 0.505034 0.337574 0.817633
O O11 0.476067 0.356113 0.947846
O O12 0.250000 0.687151 0.391359
O O13 0.489682 0.750000 0.398867
O O14 0.484603 0.644014 0.450076
O O15 0.481931 0.661223 0.317570
O O16 0.750000 0.413724 0.508325
O O17 0.488966 0.430947 0.445464
O O18 0.529149 0.463362 0.570541
O O19 0.250000 0.024474 0.384549
O O20 0.250000 0.627358 0.246517
O O21 0.750000 0.923844 0.032416
#
# Coordination Sequence:
#
# PCOD9447838 Si02
#       8
#     8   8   8   8   8   8   8   8
#     4  10  19  31  49  70  94 125 161 200 242 289
#     4  12  22  32  48  71  98 129 161 199 250 295
#     4  10  20  33  48  69  99 133 165 198 237 283
#     4   9  17  30  48  69  96 129 164 199 233 275
#     4   9  17  31  48  70  96 124 159 197 239 284
#     4  10  19  32  49  70  95 125 160 199 242 289
#     4  11  20  32  47  69  98 132 172 204 233 276
#     4   9  18  32  48  69  96 127 160 197 239 285
#
# _framework density 15.584943000000001
#
# number of rings (size 3 to 8) (size 9 to 14) (size 15 to 20)
#    0.000    2.000    2.500    2.625    0.000    1.750 
#    0.000    0.000    0.000    1.875    0.000    0.875 
#    0.000    3.000    0.000    0.000    0.000    0.000 
#
# Total GULP energy -357104.155028 kJ/mol
# GULP energy per Si atom -5579.752422 kJ/mol
# Density = 1.554947 g / cm^3
# Si number density = 15.584943 Si / 1000 Ang^3
#
#
#
# Elastic Constant Matrix: (Units=GPa)
#
#
# Indices 1 2 3 4 5 6 
#
# 1 29.5641 27.2442 39.7565 0.0000 0.0000 0.0000
# 2 27.2442 101.6081 73.2304 0.0000 0.0000 0.0000
# 3 39.7565 73.2304 137.7948 0.0000 0.0000 0.0000
# 4 0.0000 0.0000 0.0000 18.4511 0.0000 0.0000
# 5 0.0000 0.0000 0.0000 0.0000 22.3938 0.0000
# 6 0.0000 0.0000 0.0000 0.0000 0.0000 13.5957
#
#
#
# Elastic Compliance Matrix: (Units=1/GPa)
#
#
# Indices 1 2 3 4 5 6 
#
# 1 0.057153 -0.005576 -0.013527 0.000000 0.000000 0.000000
# 2 -0.005576 0.016495 -0.007158 0.000000 0.000000 0.000000
# 3 -0.013527 -0.007158 0.014964 0.000000 0.000000 0.000000
# 4 0.000000 0.000000 0.000000 0.054197 0.000000 0.000000
# 5 0.000000 0.000000 0.000000 0.000000 0.044655 0.000000
# 6 0.000000 0.000000 0.000000 0.000000 0.000000 0.073553
#
#
# Mechanical properties :
#
#
# Convention : Reuss Voigt Hill
#
# Bulk Modulus (GPa) = 27.70685 61.04772 44.37728
# Shear Modulus (GPa) = 15.35778 19.47050 17.41414
#
# Velocity S-wave (km/s) = 3.14255 3.53840 3.34633
# Velocity P-wave (km/s) = 5.56633 7.47995 6.59294
#
# Compressibility (1/GPa) = 0.03609216
#
# Stress axis : x y z
#
# Youngs Moduli (GPa) = 17.49695 60.62292 66.82789
#
# Poissons Ratio (x) = 0.33801 0.90395
# Poissons Ratio (y) = 0.09756 0.47834
# Poissons Ratio (z) = 0.23667 0.43392
#
# Static dielectric constant tensor:
#      x y z
#    x 1.520910 0.000000 0.000000 
#    y 0.000000 1.508530 0.000000 
#    z 0.000000 0.000000 1.514110 
# 
# From -- ./inp_files/26482.got.cif
#   From: 2010.05.17/outbox.cif.g08.bks.cpg/sg59_14_cif.got.tgz:26482.got - 2010.06.03 14:40:33.
