data_PCOD9447539
_publ_section_title
;
Structure prediction by ZEFSAII (Michael W. Deem and Ramdas Pophale) SiO2 
 PCOD9447539
Probable space group: P M M N
;
_chemical_formula_sum "Si O2"
_cell_formula_units_Z 64
_cell_length_a 7.665534
_cell_length_b 18.369451
_cell_length_c 23.996422
_cell_angle_alpha 90.000000
_cell_angle_beta 90.000000
_cell_angle_gamma 90.000000
_cell_volume 3378.975805
_symmetry_space_group_name_H-M "P M M N"
_symmetry_group_IT_number 59
_space_group.IT_coordinate_system_code '2'
_symmetry_cell_setting 'orthorhombic'
loop_
_space_group_symop_operation_xyz
x,y,z
1/2-x,1/2-y,z
1/2+x,-y,-z
-x,1/2+y,-z
-x,-y,-z
1/2+x,1/2+y,-z
1/2-x,y,z
x,1/2-y,z
loop_
_atom_site_type_symbol
_atom_site_label
_atom_site_fract_x
_atom_site_fract_y
_atom_site_fract_z
Si Si1 0.961007 0.025737 0.365055
Si Si2 0.963898 0.540952 0.126082
Si Si3 0.539820 0.832349 0.560957
Si Si4 0.041203 0.070609 0.537270
Si Si5 0.453586 0.329279 0.190075
Si Si6 0.048969 0.519740 0.759477
Si Si7 0.041334 0.168458 0.951374
Si Si8 0.541429 0.111098 0.073733
O O1 0.750000 0.022731 0.363859
O O2 0.029087 0.019320 0.302147
O O3 0.000754 0.103506 0.394481
O O4 0.023704 0.957514 0.402816
O O5 0.750000 0.541044 0.127563
O O6 0.026846 0.526620 0.189087
O O7 0.025177 0.613430 0.095655
O O8 0.014500 0.471075 0.088805
O O9 0.750000 0.829030 0.558413
O O10 0.477054 0.750000 0.573207
O O11 0.476082 0.862162 0.500348
O O12 0.250000 0.079655 0.541846
O O13 0.000000 0.000000 0.500000
O O14 0.250000 0.333135 0.205232
O O15 0.522582 0.250000 0.205953
O O16 0.545472 0.397413 0.218348
O O17 0.468514 0.339444 0.123518
O O18 0.250000 0.496277 0.753840
O O19 0.250000 0.172228 0.944171
O O20 0.969970 0.250000 0.948009
O O21 0.010230 0.136046 0.012634
O O22 0.750000 0.114294 0.077874
#
# Coordination Sequence:
#
# PCOD9447539 Si02
#       8
#     8   8   8   8   8   8   8   8
#     4   9  17  29  46  66  86 113 150 187 218 250
#     4   8  16  31  47  63  85 114 146 178 214 257
#     4   9  17  28  43  65  94 123 146 174 216 262
#     4   8  14  26  43  62  85 114 146 177 210 249
#     4  10  20  32  45  63  89 118 146 178 216 260
#     4   9  18  32  48  64  84 114 151 186 217 252
#     4  10  19  30  46  67  89 112 139 176 222 268
#     4  10  19  31  48  67  88 115 145 178 216 261
#
# _framework density 18.940650000000002
#
# number of rings (size 3 to 8) (size 9 to 14) (size 15 to 20)
#    0.000    2.875    0.000    2.250    0.000    4.000 
#    0.000    5.000    0.000    0.750    0.000    5.250 
#    0.000    0.000    0.000   11.625    0.000   13.750 
#
# Total GULP energy -356535.443383 kJ/mol
# GULP energy per Si atom -5570.866303 kJ/mol
# Density = 1.889754 g / cm^3
# Si number density = 18.940650 Si / 1000 Ang^3
#
#
#
# Elastic Constant Matrix: (Units=GPa)
#
#
# Indices 1 2 3 4 5 6 
#
# 1 36.3942 3.6814 -6.7978 0.0000 0.0000 0.0000
# 2 3.6814 80.1732 60.3644 0.0000 0.0000 0.0000
# 3 -6.7978 60.3644 133.7949 0.0000 0.0000 0.0000
# 4 0.0000 0.0000 0.0000 -4.4840 0.0000 0.0000
# 5 0.0000 0.0000 0.0000 0.0000 19.5167 0.0000
# 6 0.0000 0.0000 0.0000 0.0000 0.0000 5.6339
#
#
#
# Elastic Compliance Matrix: (Units=1/GPa)
#
#
# Indices 1 2 3 4 5 6 
#
# 1 0.028418 -0.003623 0.003078 0.000000 0.000000 0.000000
# 2 -0.003623 0.019352 -0.008915 0.000000 0.000000 0.000000
# 3 0.003078 -0.008915 0.011653 0.000000 0.000000 0.000000
# 4 0.000000 0.000000 0.000000 -0.223015 0.000000 0.000000
# 5 0.000000 0.000000 0.000000 0.000000 0.051238 0.000000
# 6 0.000000 0.000000 0.000000 0.000000 0.000000 0.177497
#
#
# Mechanical properties :
#
#
# Convention : Reuss Voigt Hill
#
# Bulk Modulus (GPa) = 24.68886 40.53980 32.61433
# Shear Modulus (GPa) = 51.24908 17.00760 34.12834
#
# Velocity S-wave (km/s) = 5.20735 2.99982 4.24943
# Velocity P-wave (km/s) = 7.01559 5.78348 6.42912
#
# Compressibility (1/GPa) = 0.04050409
#
# Stress axis : x y z
#
# Youngs Moduli (GPa) = 35.18853 51.67519 85.81704
#
# Poissons Ratio (x) = 0.18720 -0.26417
# Poissons Ratio (y) = 0.12748 0.76506
# Poissons Ratio (z) = -0.10832 0.46068
#
# Static dielectric constant tensor:
#      x y z
#    x 2.445990 0.000000 0.000000 
#    y 0.000000 1.685110 0.000000 
#    z 0.000000 0.000000 1.679340 
# 
# From -- ./inp_files/31725.got.cif
#   From: 2010.05.17/outbox.cif.g08.bks.cpg/sg59_16_cif.got.tgz:31725.got - 2010.06.03 14:40:33.
