data_PCOD9447068
_publ_section_title
;
Structure prediction by ZEFSAII (Michael W. Deem and Ramdas Pophale) SiO2 
 PCOD9447068
Probable space group: P M M N
;
_chemical_formula_sum "Si O2"
_cell_formula_units_Z 48
_cell_length_a 7.347142
_cell_length_b 34.696068
_cell_length_c 8.293433
_cell_angle_alpha 90.000000
_cell_angle_beta 90.000000
_cell_angle_gamma 90.000000
_cell_volume 2114.136549
_symmetry_space_group_name_H-M "P M M N"
_symmetry_group_IT_number 59
_space_group.IT_coordinate_system_code '2'
_symmetry_cell_setting 'orthorhombic'
loop_
_space_group_symop_operation_xyz
x,y,z
1/2-x,1/2-y,z
1/2+x,-y,-z
-x,1/2+y,-z
-x,-y,-z
1/2+x,1/2+y,-z
1/2-x,y,z
x,1/2-y,z
loop_
_atom_site_type_symbol
_atom_site_label
_atom_site_fract_x
_atom_site_fract_y
_atom_site_fract_z
Si Si1 0.528247 0.705628 0.487022
Si Si2 0.028191 0.163844 0.841724
Si Si3 0.535148 0.496286 0.811265
Si Si4 0.472763 0.077558 0.323965
Si Si5 0.959125 0.912733 0.317605
Si Si6 0.971746 0.841411 0.803719
O O1 0.750000 0.704215 0.486858
O O2 0.473908 0.750000 0.502252
O O3 0.470548 0.688353 0.314240
O O4 0.468676 0.681187 0.643234
O O5 0.250000 0.166034 0.847535
O O6 0.969734 0.119904 0.801687
O O7 0.968113 0.174466 0.022388
O O8 0.750000 0.494563 0.781232
O O9 0.464547 0.535271 0.728565
O O10 0.461154 0.455787 0.749492
O O11 0.500000 0.500000 0.000000
O O12 0.250000 0.076006 0.323050
O O13 0.538568 0.086788 0.503806
O O14 0.523245 0.113566 0.212620
O O15 0.750000 0.901028 0.342710
O O16 0.750000 0.840196 0.801370
#
# Coordination Sequence:
#
# PCOD9447068 Si02
#       6
#     8   8   8   8   8   8
#     4   9  16  25  37  58  90 125 161 200 242 292
#     4   9  16  26  43  64  89 126 165 199 243 298
#     4  11  22  34  48  71 100 131 169 211 250 295
#     4   9  17  30  48  68  92 125 167 207 246 296
#     4  10  18  32  52  71  94 129 169 207 250 300
#     4   9  15  25  40  59  86 122 162 198 237 291
#
# _framework density 22.704302999999999
#
# number of rings (size 3 to 8) (size 9 to 14) (size 15 to 20)
#    0.000    2.500    1.667    2.000    0.000    3.333 
#    0.000    4.167    0.000    0.000    0.000    0.000 
#    0.000    0.667    0.000    0.667    0.000    1.833 
#
# Total GULP energy -268059.601115 kJ/mol
# GULP energy per Si atom -5584.575023 kJ/mol
# Density = 2.265263 g / cm^3
# Si number density = 22.704303 Si / 1000 Ang^3
#
#
#
# Elastic Constant Matrix: (Units=GPa)
#
#
# Indices 1 2 3 4 5 6 
#
# 1 79.6774 -8.6863 -8.4343 0.0000 0.0000 0.0000
# 2 -8.6863 125.0340 53.8649 0.0000 0.0000 0.0000
# 3 -8.4343 53.8649 168.2601 0.0000 0.0000 0.0000
# 4 0.0000 0.0000 0.0000 16.9470 0.0000 0.0000
# 5 0.0000 0.0000 0.0000 0.0000 -16.1391 0.0000
# 6 0.0000 0.0000 0.0000 0.0000 0.0000 4.5113
#
#
#
# Elastic Compliance Matrix: (Units=1/GPa)
#
#
# Indices 1 2 3 4 5 6 
#
# 1 0.012671 0.000704 0.000410 0.000000 0.000000 0.000000
# 2 0.000704 0.009316 -0.002947 0.000000 0.000000 0.000000
# 3 0.000410 -0.002947 0.006907 0.000000 0.000000 0.000000
# 4 0.000000 0.000000 0.000000 0.059008 0.000000 0.000000
# 5 0.000000 0.000000 0.000000 0.000000 -0.061961 0.000000
# 6 0.000000 0.000000 0.000000 0.000000 0.000000 0.221667
#
#
# Mechanical properties :
#
#
# Convention : Reuss Voigt Hill
#
# Bulk Modulus (GPa) = 39.64000 49.60668 44.62334
# Shear Modulus (GPa) = 19.25419 23.47897 21.36658
#
# Velocity S-wave (km/s) = 2.91527 3.21926 3.07103
# Velocity P-wave (km/s) = 5.36926 5.97617 5.68083
#
# Compressibility (1/GPa) = 0.02522704
#
# Stress axis : x y z
#
# Youngs Moduli (GPa) = 78.92216 107.33815 144.77651
#
# Poissons Ratio (x) = -0.07553 -0.05934
# Poissons Ratio (y) = -0.05554 0.42668
# Poissons Ratio (z) = -0.03235 0.31634
#
# Static dielectric constant tensor:
#      x y z
#    x 1.892560 0.000000 0.000000 
#    y 0.000000 1.815480 0.000000 
#    z 0.000000 0.000000 1.812920 
# 
# From -- ./inp_files/7872.got.cif
#   From: 2010.05.17/outbox.cif.g08.bks.cpg/sg59_4_cif.got.tgz:7872.got - 2010.06.03 14:40:33.
