data_PCOD9447600
_publ_section_title
;
Structure prediction by ZEFSAII (Michael W. Deem and Ramdas Pophale) SiO2 
 PCOD9447600
Probable space group: P M M N
;
_chemical_formula_sum "Si O2"
_cell_formula_units_Z 48
_cell_length_a 18.236224
_cell_length_b 14.097985
_cell_length_c 9.224725
_cell_angle_alpha 90.000000
_cell_angle_beta 90.000000
_cell_angle_gamma 90.000000
_cell_volume 2371.621564
_symmetry_space_group_name_H-M "P M M N"
_symmetry_group_IT_number 59
_space_group.IT_coordinate_system_code '2'
_symmetry_cell_setting 'orthorhombic'
loop_
_space_group_symop_operation_xyz
x,y,z
1/2-x,1/2-y,z
1/2+x,-y,-z
-x,1/2+y,-z
-x,-y,-z
1/2+x,1/2+y,-z
1/2-x,y,z
x,1/2-y,z
loop_
_atom_site_type_symbol
_atom_site_label
_atom_site_fract_x
_atom_site_fract_y
_atom_site_fract_z
Si Si1 0.543051 0.137762 0.570793
Si Si2 0.092816 0.361589 0.750097
Si Si3 0.037524 0.143542 0.275004
Si Si4 0.585196 0.976480 0.967170
Si Si5 0.167439 0.972289 0.577288
Si Si6 0.126198 0.856587 0.858926
O O1 0.561840 0.250000 0.562735
O O2 0.493394 0.121505 0.711698
O O3 0.487743 0.118022 0.436288
O O4 0.613049 0.074024 0.539586
O O5 0.106749 0.250000 0.732078
O O6 0.106795 0.398309 0.911902
O O7 0.138279 0.428289 0.641633
O O8 0.068415 0.250000 0.276180
O O9 0.959738 0.147383 0.188975
O O10 0.087936 0.070100 0.190232
O O11 0.629924 0.071019 0.007030
O O12 0.500000 0.000000 0.000000
O O13 0.250000 0.980449 0.524977
O O14 0.163807 0.902297 0.717827
O O15 0.150803 0.750000 0.888741
#
# Coordination Sequence:
#
# PCOD9447600 Si02
#       6
#     8   8   8   8   8   8
#     4   9  18  32  50  74 101 127 160 205 251 293
#     4  10  20  33  49  72 102 130 160 205 254 292
#     4   8  13  24  43  67  94 121 151 187 230 284
#     4   9  16  26  43  69  96 123 154 190 235 287
#     4  10  19  30  47  70  97 131 166 201 245 297
#     4   8  15  26  39  60  90 118 148 190 233 274
#
# _framework density 20.239318000000001
#
# number of rings (size 3 to 8) (size 9 to 14) (size 15 to 20)
#    0.000    3.000    0.000    3.500    0.000    2.333 
#    0.000    0.000    0.000    0.000    0.000   42.000 
#    0.000   80.000    0.000    0.000    0.000    0.000 
#
# Total GULP energy -267742.344869 kJ/mol
# GULP energy per Si atom -5577.965518 kJ/mol
# Density = 2.019325 g / cm^3
# Si number density = 20.239318 Si / 1000 Ang^3
#
#
#
# Elastic Constant Matrix: (Units=GPa)
#
#
# Indices 1 2 3 4 5 6 
#
# 1 48.7094 49.6335 15.9195 0.0000 0.0000 0.0000
# 2 49.6335 146.0601 39.2695 0.0000 0.0000 0.0000
# 3 15.9195 39.2695 43.7998 0.0000 0.0000 0.0000
# 4 0.0000 0.0000 0.0000 17.7419 0.0000 0.0000
# 5 0.0000 0.0000 0.0000 0.0000 5.1704 0.0000
# 6 0.0000 0.0000 0.0000 0.0000 0.0000 0.6570
#
#
#
# Elastic Compliance Matrix: (Units=1/GPa)
#
#
# Indices 1 2 3 4 5 6 
#
# 1 0.031602 -0.010081 -0.002448 0.000000 0.000000 0.000000
# 2 -0.010081 0.012237 -0.007307 0.000000 0.000000 0.000000
# 3 -0.002448 -0.007307 0.030272 0.000000 0.000000 0.000000
# 4 0.000000 0.000000 0.000000 0.056364 0.000000 0.000000
# 5 0.000000 0.000000 0.000000 0.000000 0.193408 0.000000
# 6 0.000000 0.000000 0.000000 0.000000 0.000000 1.522076
#
#
# Mechanical properties :
#
#
# Convention : Reuss Voigt Hill
#
# Bulk Modulus (GPa) = 29.03666 49.80159 39.41912
# Shear Modulus (GPa) = 2.63559 13.63032 8.13296
#
# Velocity S-wave (km/s) = 1.14238 2.59792 2.00677
# Velocity P-wave (km/s) = 4.01470 5.80161 4.98882
#
# Compressibility (1/GPa) = 0.03443922
#
# Stress axis : x y z
#
# Youngs Moduli (GPa) = 31.64365 81.72191 33.03363
#
# Poissons Ratio (x) = 0.82381 0.08087
# Poissons Ratio (y) = 0.31899 0.24138
# Poissons Ratio (z) = 0.07747 0.59715
#
# Static dielectric constant tensor:
#      x y z
#    x 1.699200 0.000000 0.000000 
#    y 0.000000 1.762960 0.000000 
#    z 0.000000 0.000000 1.761640 
# 
# From -- ./inp_files/10255.got.cif
#   From: 2010.05.17/outbox.cif.g08.bks.cpg/sg59_6_cif.got.tgz:10255.got - 2010.06.03 14:40:33.
