data_PCOD9447816
_publ_section_title
;
Structure prediction by ZEFSAII (Michael W. Deem and Ramdas Pophale) SiO2 
 PCOD9447816
Probable space group: P M M N
;
_chemical_formula_sum "Si O2"
_cell_formula_units_Z 64
_cell_length_a 26.168720
_cell_length_b 7.663487
_cell_length_c 15.931328
_cell_angle_alpha 90.000000
_cell_angle_beta 90.000000
_cell_angle_gamma 90.000000
_cell_volume 3194.926595
_symmetry_space_group_name_H-M "P M M N"
_symmetry_group_IT_number 59
_space_group.IT_coordinate_system_code '2'
_symmetry_cell_setting 'orthorhombic'
loop_
_space_group_symop_operation_xyz
x,y,z
1/2-x,1/2-y,z
1/2+x,-y,-z
-x,1/2+y,-z
-x,-y,-z
1/2+x,1/2+y,-z
1/2-x,y,z
x,1/2-y,z
loop_
_atom_site_type_symbol
_atom_site_label
_atom_site_fract_x
_atom_site_fract_y
_atom_site_fract_z
Si Si1 0.694930 0.538889 0.476199
Si Si2 0.829085 0.954982 0.289311
Si Si3 0.418940 0.548806 0.938245
Si Si4 0.306478 0.951536 0.895655
Si Si5 0.560414 0.038563 0.352336
Si Si6 0.029834 0.046787 0.106920
Si Si7 0.913073 0.451254 0.537384
Si Si8 0.451289 0.949889 0.289368
O O1 0.750000 0.493722 0.511762
O O2 0.689191 0.750000 0.476446
O O3 0.692633 0.483339 0.378640
O O4 0.647344 0.459288 0.523558
O O5 0.817505 0.750000 0.281106
O O6 0.809778 0.043853 0.205501
O O7 0.889459 0.982720 0.301951
O O8 0.414722 0.750000 0.908770
O O9 0.361950 0.471646 0.924271
O O10 0.470944 0.476630 0.894220
O O11 0.435748 0.541545 0.035664
O O12 0.250000 0.026434 0.918903
O O13 0.306033 0.750000 0.924529
O O14 0.557974 0.250000 0.351819
O O15 0.564491 0.977221 0.449734
O O16 0.511011 0.960107 0.310448
O O17 0.026076 0.250000 0.082812
O O18 0.054169 0.033594 0.198500
O O19 0.930565 0.250000 0.541283
O O20 0.926757 0.532474 0.626816
O O21 0.433769 0.750000 0.281788
#
# Coordination Sequence:
#
# PCOD9447816 Si02
#       8
#     8   8   8   8   8   8   8   8
#     4   9  18  32  49  69  95 129 169 212 254 293
#     4  10  19  31  48  72 103 137 172 207 245 291
#     4   9  19  36  54  74 102 131 163 205 250 299
#     4  10  20  33  51  76 106 139 171 204 247 301
#     4  10  19  32  49  71 102 137 172 207 243 287
#     4  10  20  34  55  79 100 128 166 208 253 300
#     4   9  20  34  48  70  99 132 169 207 246 292
#     4  11  21  33  50  74 103 132 164 202 248 298
#
# _framework density 20.031760999999999
#
# number of rings (size 3 to 8) (size 9 to 14) (size 15 to 20)
#    0.000    2.250    0.000    3.000    0.000    5.000 
#    0.000    0.000    0.000    0.750    0.000    1.750 
#    0.000    0.000    0.000    0.000    0.000    0.000 
#
# Total GULP energy -356903.080519 kJ/mol
# GULP energy per Si atom -5576.610633 kJ/mol
# Density = 1.998617 g / cm^3
# Si number density = 20.031761 Si / 1000 Ang^3
#
#
#
# Elastic Constant Matrix: (Units=GPa)
#
#
# Indices 1 2 3 4 5 6 
#
# 1 100.8902 -5.2908 31.7034 0.0000 0.0000 0.0000
# 2 -5.2908 43.4763 -3.2638 0.0000 0.0000 0.0000
# 3 31.7034 -3.2638 84.3824 0.0000 0.0000 0.0000
# 4 0.0000 0.0000 0.0000 15.4487 0.0000 0.0000
# 5 0.0000 0.0000 0.0000 0.0000 0.4921 0.0000
# 6 0.0000 0.0000 0.0000 0.0000 0.0000 6.0186
#
#
#
# Elastic Compliance Matrix: (Units=1/GPa)
#
#
# Indices 1 2 3 4 5 6 
#
# 1 0.011287 0.001058 -0.004200 0.000000 0.000000 0.000000
# 2 0.001058 0.023167 0.000498 0.000000 0.000000 0.000000
# 3 -0.004200 0.000498 0.013448 0.000000 0.000000 0.000000
# 4 0.000000 0.000000 0.000000 0.064730 0.000000 0.000000
# 5 0.000000 0.000000 0.000000 0.000000 2.031906 0.000000
# 6 0.000000 0.000000 0.000000 0.000000 0.000000 0.166152
#
#
# Mechanical properties :
#
#
# Convention : Reuss Voigt Hill
#
# Bulk Modulus (GPa) = 23.46521 30.56072 27.01297
# Shear Modulus (GPa) = 2.14576 18.09856 10.12216
#
# Velocity S-wave (km/s) = 1.03610 3.00908 2.25034
# Velocity P-wave (km/s) = 3.62916 5.23087 4.50182
#
# Compressibility (1/GPa) = 0.04261628
#
# Stress axis : x y z
#
# Youngs Moduli (GPa) = 88.59778 43.16439 74.36064
#
# Poissons Ratio (x) = -0.04568 0.31229
# Poissons Ratio (y) = -0.09376 -0.03707
# Poissons Ratio (z) = 0.37208 -0.02152
#
# Static dielectric constant tensor:
#      x y z
#    x 1.003010 0.000000 0.000000 
#    y 0.000000 1.783960 0.000000 
#    z 0.000000 0.000000 1.701810 
# 
# From -- ./inp_files/24731.got.cif
#   From: 2010.05.17/outbox.cif.g08.bks.cpg/sg59_13_cif.got.tgz:24731.got - 2010.06.03 14:40:33.
