data_PCOD9447188
_publ_section_title
;
Structure prediction by ZEFSAII (Michael W. Deem and Ramdas Pophale) SiO2 
 PCOD9447188
Probable space group: P M M N
;
_chemical_formula_sum "Si O2"
_cell_formula_units_Z 64
_cell_length_a 11.146787
_cell_length_b 27.271361
_cell_length_c 11.749204
_cell_angle_alpha 90.000000
_cell_angle_beta 90.000000
_cell_angle_gamma 90.000000
_cell_volume 3571.617640
_symmetry_space_group_name_H-M "P M M N"
_symmetry_group_IT_number 59
_space_group.IT_coordinate_system_code '2'
_symmetry_cell_setting 'orthorhombic'
loop_
_space_group_symop_operation_xyz
x,y,z
1/2-x,1/2-y,z
1/2+x,-y,-z
-x,1/2+y,-z
-x,-y,-z
1/2+x,1/2+y,-z
1/2-x,y,z
x,1/2-y,z
loop_
_atom_site_type_symbol
_atom_site_label
_atom_site_fract_x
_atom_site_fract_y
_atom_site_fract_z
Si Si1 0.519596 0.866803 0.645136
Si Si2 0.889328 0.191877 0.164638
Si Si3 0.106951 0.124428 0.758022
Si Si4 0.107286 0.350437 0.014732
Si Si5 0.380073 0.549527 0.520756
Si Si6 0.383525 0.062254 0.171738
Si Si7 0.893507 0.804837 0.442255
Si Si8 0.013146 0.019157 0.696916
O O1 0.419607 0.841259 0.724724
O O2 0.471665 0.909142 0.561629
O O3 0.606440 0.895548 0.731452
O O4 0.578730 0.826256 0.566067
O O5 0.750000 0.181970 0.127356
O O6 0.896364 0.250000 0.189592
O O7 0.000043 0.178851 0.078360
O O8 0.250000 0.118173 0.744811
O O9 0.088089 0.149756 0.879819
O O10 0.061369 0.158729 0.655838
O O11 0.050693 0.070713 0.748302
O O12 0.250000 0.336869 0.038195
O O13 0.094182 0.406790 0.057869
O O14 0.250000 0.572170 0.522134
O O15 0.389270 0.506348 0.614358
O O16 0.409022 0.528535 0.396580
O O17 0.250000 0.041577 0.168934
O O18 0.474448 0.020004 0.208340
O O19 0.750000 0.802864 0.429356
O O20 0.941850 0.750000 0.429370
#
# Coordination Sequence:
#
# PCOD9447188 Si02
#       8
#     8   8   8   8   8   8   8   8
#     4  10  18  33  53  77 107 142 177 218 272 334
#     4  10  21  37  58  83 112 145 182 231 289 340
#     4  10  20  36  55  78 109 143 184 230 279 328
#     4   9  20  38  59  81 108 146 191 238 281 327
#     4  10  19  30  47  74 106 140 178 212 254 324
#     4   9  18  32  51  77 108 138 179 231 277 321
#     4  10  20  33  52  79 108 139 178 228 281 329
#     4  10  19  31  49  76 105 144 176 217 270 327
#
# _framework density 17.919051
#
# number of rings (size 3 to 8) (size 9 to 14) (size 15 to 20)
#    0.000    2.250    1.250    1.875    0.000    1.750 
#    0.000    3.125    0.000    0.000    0.000    0.000 
#    0.000    0.000    0.000    0.000    0.000    0.000 
#
# Total GULP energy -356341.555104 kJ/mol
# GULP energy per Si atom -5567.836798 kJ/mol
# Density = 1.787827 g / cm^3
# Si number density = 17.919051 Si / 1000 Ang^3
#
#
#
# Elastic Constant Matrix: (Units=GPa)
#
#
# Indices 1 2 3 4 5 6 
#
# 1 47.9056 16.4348 8.1318 0.0000 0.0000 0.0000
# 2 16.4348 83.2779 16.1987 0.0000 0.0000 0.0000
# 3 8.1318 16.1987 52.6704 0.0000 0.0000 0.0000
# 4 0.0000 0.0000 0.0000 10.3907 0.0000 0.0000
# 5 0.0000 0.0000 0.0000 0.0000 1.7158 0.0000
# 6 0.0000 0.0000 0.0000 0.0000 0.0000 16.1092
#
#
#
# Elastic Compliance Matrix: (Units=1/GPa)
#
#
# Indices 1 2 3 4 5 6 
#
# 1 0.022640 -0.004029 -0.002256 0.000000 0.000000 0.000000
# 2 -0.004029 0.013489 -0.003526 0.000000 0.000000 0.000000
# 3 -0.002256 -0.003526 0.020419 0.000000 0.000000 0.000000
# 4 0.000000 0.000000 0.000000 0.096240 0.000000 0.000000
# 5 0.000000 0.000000 0.000000 0.000000 0.582825 0.000000
# 6 0.000000 0.000000 0.000000 0.000000 0.000000 0.062076
#
#
# Mechanical properties :
#
#
# Convention : Reuss Voigt Hill
#
# Bulk Modulus (GPa) = 27.08259 29.48717 28.28488
# Shear Modulus (GPa) = 6.02686 15.18239 10.60462
#
# Velocity S-wave (km/s) = 1.83594 2.91396 2.43535
# Velocity P-wave (km/s) = 4.43181 5.27381 4.87103
#
# Compressibility (1/GPa) = 0.03692408
#
# Stress axis : x y z
#
# Youngs Moduli (GPa) = 44.17040 74.13414 48.97423
#
# Poissons Ratio (x) = 0.29869 0.11050
# Poissons Ratio (y) = 0.17796 0.17271
# Poissons Ratio (z) = 0.09966 0.26143
#
# Static dielectric constant tensor:
#      x y z
#    x 1.619960 0.000000 0.000000 
#    y 0.000000 1.608090 0.000000 
#    z 0.000000 0.000000 1.613610 
# 
# From -- ./inp_files/16229.got.cif
#   From: 2010.05.17/outbox.cif.g08.bks.cpg/sg59_9_cif.got.tgz:16229.got - 2010.06.03 14:40:33.
