data_PCOD9447942
_publ_section_title
;
Structure prediction by ZEFSAII (Michael W. Deem and Ramdas Pophale) SiO2 
 PCOD9447942
Probable space group: P M M N
;
_chemical_formula_sum "Si O2"
_cell_formula_units_Z 64
_cell_length_a 8.940392
_cell_length_b 19.534381
_cell_length_c 21.923154
_cell_angle_alpha 90.000000
_cell_angle_beta 90.000000
_cell_angle_gamma 90.000000
_cell_volume 3828.769748
_symmetry_space_group_name_H-M "P M M N"
_symmetry_group_IT_number 59
_space_group.IT_coordinate_system_code '2'
_symmetry_cell_setting 'orthorhombic'
loop_
_space_group_symop_operation_xyz
x,y,z
1/2-x,1/2-y,z
1/2+x,-y,-z
-x,1/2+y,-z
-x,-y,-z
1/2+x,1/2+y,-z
1/2-x,y,z
x,1/2-y,z
loop_
_atom_site_type_symbol
_atom_site_label
_atom_site_fract_x
_atom_site_fract_y
_atom_site_fract_z
Si Si1 0.420583 0.980614 0.318364
Si Si2 0.571168 0.028091 0.438437
Si Si3 0.570347 0.323651 0.392301
Si Si4 0.928020 0.830807 0.962298
Si Si5 0.920726 0.863012 0.730898
Si Si6 0.931077 0.053162 0.811887
Si Si7 0.071469 0.591275 0.850160
Si Si8 0.570921 0.170906 0.907072
O O1 0.250000 0.961073 0.333992
O O2 0.517577 0.985263 0.379268
O O3 0.474398 0.938194 0.259415
O O4 0.417085 0.057746 0.291151
O O5 0.750000 0.026226 0.442350
O O6 0.500000 0.000000 0.500000
O O7 0.522671 0.107249 0.426800
O O8 0.750000 0.327133 0.387095
O O9 0.530621 0.250000 0.420779
O O10 0.501216 0.326108 0.324824
O O11 0.750000 0.841237 0.958660
O O12 0.958903 0.750000 0.951046
O O13 0.010022 0.876860 0.912454
O O14 0.987050 0.846223 0.030170
O O15 0.750000 0.840012 0.739352
O O16 0.009557 0.863033 0.794015
O O17 0.750000 0.043258 0.812259
O O18 0.967448 0.118058 0.853646
O O19 0.006737 0.984938 0.838818
O O20 0.250000 0.589663 0.849287
O O21 0.750000 0.166333 0.917539
O O22 0.536573 0.250000 0.891360
#
# Coordination Sequence:
#
# PCOD9447942 Si02
#       8
#     8   8   8   8   8   8   8   8
#     4   8  15  29  48  70  96 124 154 189 230 278
#     4  10  19  31  50  74 100 132 166 200 239 283
#     4   9  18  32  49  71  99 130 166 205 241 282
#     4  10  21  36  51  67  92 127 165 206 252 301
#     4   9  17  30  47  68  96 127 157 192 237 287
#     4   9  18  33  53  76 102 129 158 200 249 295
#     4  11  21  32  49  72  98 130 167 205 245 290
#     4   9  18  34  55  76  97 124 161 204 252 304
#
# _framework density 16.715551999999999
#
# number of rings (size 3 to 8) (size 9 to 14) (size 15 to 20)
#    0.000    2.625    0.000    3.000    0.000    6.000 
#    0.000    0.000    0.000    0.750    0.000    3.500 
#    0.000    0.000    0.000    0.000    0.000    0.000 
#
# Total GULP energy -356708.943028 kJ/mol
# GULP energy per Si atom -5573.577235 kJ/mol
# Density = 1.667751 g / cm^3
# Si number density = 16.715552 Si / 1000 Ang^3
#
#
#
# Elastic Constant Matrix: (Units=GPa)
#
#
# Indices 1 2 3 4 5 6 
#
# 1 53.7905 37.7965 57.7954 0.0000 0.0000 0.0000
# 2 37.7965 77.1833 74.3223 0.0000 0.0000 0.0000
# 3 57.7954 74.3223 144.2073 0.0000 0.0000 0.0000
# 4 0.0000 0.0000 0.0000 15.8665 0.0000 0.0000
# 5 0.0000 0.0000 0.0000 0.0000 29.9736 0.0000
# 6 0.0000 0.0000 0.0000 0.0000 0.0000 16.7216
#
#
#
# Elastic Compliance Matrix: (Units=1/GPa)
#
#
# Indices 1 2 3 4 5 6 
#
# 1 0.034510 -0.007110 -0.010167 0.000000 0.000000 0.000000
# 2 -0.007110 0.027186 -0.011162 0.000000 0.000000 0.000000
# 3 -0.010167 -0.011162 0.016762 0.000000 0.000000 0.000000
# 4 0.000000 0.000000 0.000000 0.063026 0.000000 0.000000
# 5 0.000000 0.000000 0.000000 0.000000 0.033363 0.000000
# 6 0.000000 0.000000 0.000000 0.000000 0.000000 0.059803
#
#
# Mechanical properties :
#
#
# Convention : Reuss Voigt Hill
#
# Bulk Modulus (GPa) = 46.33655 68.33439 57.33547
# Shear Modulus (GPa) = 16.73816 19.53013 18.13415
#
# Velocity S-wave (km/s) = 3.16785 3.42187 3.29730
# Velocity P-wave (km/s) = 6.41570 7.52208 6.99081
#
# Compressibility (1/GPa) = 0.02158123
#
# Stress axis : x y z
#
# Youngs Moduli (GPa) = 28.97716 36.78410 59.66003
#
# Poissons Ratio (x) = 0.26152 0.60655
# Poissons Ratio (y) = 0.20602 0.66591
# Poissons Ratio (z) = 0.29460 0.41057
#
# Static dielectric constant tensor:
#      x y z
#    x 1.562180 0.000000 0.000000 
#    y 0.000000 1.579700 0.000000 
#    z 0.000000 0.000000 1.547820 
# 
# From -- ./inp_files/29574.got.cif
#   From: 2010.05.17/outbox.cif.g08.bks.cpg/sg59_15_cif.got.tgz:29574.got - 2010.06.03 14:40:33.
