data_PCOD9447718
_publ_section_title
;
Structure prediction by ZEFSAII (Michael W. Deem and Ramdas Pophale) SiO2 
 PCOD9447718
Probable space group: P M M N
;
_chemical_formula_sum "Si O2"
_cell_formula_units_Z 64
_cell_length_a 7.593124
_cell_length_b 16.187458
_cell_length_c 24.259061
_cell_angle_alpha 90.000000
_cell_angle_beta 90.000000
_cell_angle_gamma 90.000000
_cell_volume 2981.763082
_symmetry_space_group_name_H-M "P M M N"
_symmetry_group_IT_number 59
_space_group.IT_coordinate_system_code '2'
_symmetry_cell_setting 'orthorhombic'
loop_
_space_group_symop_operation_xyz
x,y,z
1/2-x,1/2-y,z
1/2+x,-y,-z
-x,1/2+y,-z
-x,-y,-z
1/2+x,1/2+y,-z
1/2-x,y,z
x,1/2-y,z
loop_
_atom_site_type_symbol
_atom_site_label
_atom_site_fract_x
_atom_site_fract_y
_atom_site_fract_z
Si Si1 0.535168 0.843192 0.939030
Si Si2 0.036230 0.090580 0.558887
Si Si3 0.034631 0.340162 0.675630
Si Si4 0.455042 0.000271 0.738226
Si Si5 0.955103 0.896851 0.561990
Si Si6 0.543214 0.994785 0.864264
Si Si7 0.537204 0.657112 0.066308
Si Si8 0.454545 0.660594 0.680443
O O1 0.750000 0.844473 0.938914
O O2 0.482129 0.750000 0.922144
O O3 0.473531 0.917971 0.900604
O O4 0.480997 0.855740 0.002708
O O5 0.250000 0.087565 0.556995
O O6 0.984885 0.142050 0.612328
O O7 0.976156 0.123416 0.499296
O O8 0.973581 0.996289 0.566201
O O9 0.250000 0.339150 0.677342
O O10 0.974132 0.250000 0.693605
O O11 0.970208 0.415497 0.713015
O O12 0.250000 0.000493 0.720734
O O13 0.462710 0.998874 0.803757
O O14 0.535304 0.917881 0.711532
O O15 0.750000 0.874226 0.564315
O O16 0.041568 0.856711 0.615128
O O17 0.750000 0.980340 0.856324
O O18 0.520812 0.081132 0.896262
O O19 0.750000 0.657298 0.066902
O O20 0.480083 0.750000 0.083222
O O21 0.250000 0.664830 0.697564
O O22 0.535283 0.750000 0.692091
#
# Coordination Sequence:
#
# PCOD9447718 Si02
#       8
#     8   8   8   8   8   8   8   8
#     4   8  16  33  56  82 112 145 179 215 262 322
#     4   9  17  32  53  78 107 138 171 212 266 325
#     4   9  17  32  56  78  95 127 177 224 263 309
#     4  10  21  38  55  73 102 141 187 227 261 313
#     4  10  19  30  52  82 110 136 167 214 272 330
#     4  11  22  34  54  83 113 143 177 224 278 318
#     4   9  18  35  59  83 109 145 185 218 254 314
#     4  10  21  38  58  76 101 141 184 225 270 320
#
# _framework density 21.463812000000001
#
# number of rings (size 3 to 8) (size 9 to 14) (size 15 to 20)
#    0.000    2.500    1.250    1.875    0.000    3.000 
#    0.000    3.125    0.000    3.750    0.000    0.000 
#    0.000    0.000    0.000    0.000    0.000    0.000 
#
# Total GULP energy -357281.105001 kJ/mol
# GULP energy per Si atom -5582.517266 kJ/mol
# Density = 2.141496 g / cm^3
# Si number density = 21.463812 Si / 1000 Ang^3
#
#
#
# Elastic Constant Matrix: (Units=GPa)
#
#
# Indices 1 2 3 4 5 6 
#
# 1 45.8130 0.4792 -8.7413 0.0000 0.0000 0.0000
# 2 0.4792 193.4099 98.1175 0.0000 0.0000 0.0000
# 3 -8.7413 98.1175 106.1878 0.0000 0.0000 0.0000
# 4 0.0000 0.0000 0.0000 -5.4067 0.0000 0.0000
# 5 0.0000 0.0000 0.0000 0.0000 26.9210 0.0000
# 6 0.0000 0.0000 0.0000 0.0000 0.0000 3.9241
#
#
#
# Elastic Compliance Matrix: (Units=1/GPa)
#
#
# Indices 1 2 3 4 5 6 
#
# 1 0.022532 -0.001876 0.003589 0.000000 0.000000 0.000000
# 2 -0.001876 0.009889 -0.009292 0.000000 0.000000 0.000000
# 3 0.003589 -0.009292 0.018298 0.000000 0.000000 0.000000
# 4 0.000000 0.000000 0.000000 -0.184955 0.000000 0.000000
# 5 0.000000 0.000000 0.000000 0.000000 0.037146 0.000000
# 6 0.000000 0.000000 0.000000 0.000000 0.000000 0.254834
#
#
# Mechanical properties :
#
#
# Convention : Reuss Voigt Hill
#
# Bulk Modulus (GPa) = 28.12128 58.34685 43.23406
# Shear Modulus (GPa) = 27.06270 22.12470 24.59370
#
# Velocity S-wave (km/s) = 3.55470 3.21408 3.38867
# Velocity P-wave (km/s) = 5.47522 6.40442 5.95796
#
# Compressibility (1/GPa) = 0.03556026
#
# Stress axis : x y z
#
# Youngs Moduli (GPa) = 44.38095 101.12586 54.65045
#
# Poissons Ratio (x) = 0.18974 -0.19611
# Poissons Ratio (y) = 0.08327 0.50779
# Poissons Ratio (z) = -0.15926 0.93962
#
# Static dielectric constant tensor:
#      x y z
#    x 1.813780 0.000000 0.000000 
#    y 0.000000 1.789960 0.000000 
#    z 0.000000 0.000000 1.734090 
# 
# From -- ./inp_files/31605.got.cif
#   From: 2010.05.17/outbox.cif.g08.bks.cpg/sg59_16_cif.got.tgz:31605.got - 2010.06.03 14:40:33.
