data_PCOD9447923
_publ_section_title
;
Structure prediction by ZEFSAII (Michael W. Deem and Ramdas Pophale) SiO2 
 PCOD9447923
Probable space group: P M M N
;
_chemical_formula_sum "Si O2"
_cell_formula_units_Z 64
_cell_length_a 24.406864
_cell_length_b 8.691666
_cell_length_c 16.656801
_cell_angle_alpha 90.000000
_cell_angle_beta 90.000000
_cell_angle_gamma 90.000000
_cell_volume 3533.512300
_symmetry_space_group_name_H-M "P M M N"
_symmetry_group_IT_number 59
_space_group.IT_coordinate_system_code '2'
_symmetry_cell_setting 'orthorhombic'
loop_
_space_group_symop_operation_xyz
x,y,z
1/2-x,1/2-y,z
1/2+x,-y,-z
-x,1/2+y,-z
-x,-y,-z
1/2+x,1/2+y,-z
1/2-x,y,z
x,1/2-y,z
loop_
_atom_site_type_symbol
_atom_site_label
_atom_site_fract_x
_atom_site_fract_y
_atom_site_fract_z
Si Si1 0.121267 0.434814 0.289448
Si Si2 0.813856 0.568095 0.212961
Si Si3 0.581732 0.068309 0.135371
Si Si4 0.023535 0.933210 0.195600
Si Si5 0.583363 0.565155 0.961577
Si Si6 0.313963 0.936283 0.439440
Si Si7 0.683747 0.425815 0.381778
Si Si8 0.311381 0.436514 0.131286
O O1 0.117882 0.250000 0.289377
O O2 0.062205 0.503500 0.266391
O O3 0.147794 0.494378 0.371169
O O4 0.161634 0.482650 0.216015
O O5 0.750000 0.522831 0.201222
O O6 0.818125 0.750000 0.198577
O O7 0.856728 0.480361 0.157499
O O8 0.829189 0.528715 0.305147
O O9 0.574933 0.250000 0.139022
O O10 0.538993 0.988942 0.196125
O O11 0.568684 0.008267 0.046066
O O12 0.026438 0.750000 0.192771
O O13 0.048552 0.003797 0.113372
O O14 0.421827 0.250000 0.034350
O O15 0.646052 0.523227 0.938496
O O16 0.250000 0.983034 0.427710
O O17 0.315205 0.750000 0.436263
O O18 0.332782 0.980430 0.529535
O O19 0.750000 0.419327 0.386177
O O20 0.664403 0.250000 0.368439
O O21 0.250000 0.495877 0.121575
O O22 0.309158 0.250000 0.132431
#
# Coordination Sequence:
#
# PCOD9447923 Si02
#       8
#     8   8   8   8   8   8   8   8
#     4  10  19  31  49  75 106 140 179 219 260 307
#     4  10  21  37  57  82 110 138 171 212 259 311
#     4  12  24  38  57  79 103 134 174 216 261 313
#     4  11  22  38  57  76 102 136 176 220 266 311
#     4  10  20  35  54  78 106 136 175 220 264 308
#     4   9  17  29  48  77 111 145 180 216 256 304
#     4   8  15  30  51  75 106 142 176 212 256 304
#     4   8  15  28  46  69 100 137 171 206 251 300
#
# _framework density 18.112290999999999
#
# number of rings (size 3 to 8) (size 9 to 14) (size 15 to 20)
#    0.000    2.250    0.000    5.625    0.000    2.500 
#    0.000    2.500    0.000    7.875    0.000    0.000 
#    0.000    0.000    0.000    0.000    0.000    0.000 
#
# Total GULP energy -357091.928477 kJ/mol
# GULP energy per Si atom -5579.561382 kJ/mol
# Density = 1.807107 g / cm^3
# Si number density = 18.112291 Si / 1000 Ang^3
#
#
#
# Elastic Constant Matrix: (Units=GPa)
#
#
# Indices 1 2 3 4 5 6 
#
# 1 61.4516 15.9342 2.0609 0.0000 0.0000 0.0000
# 2 15.9342 62.4093 12.8311 0.0000 0.0000 0.0000
# 3 2.0609 12.8311 44.3665 0.0000 0.0000 0.0000
# 4 0.0000 0.0000 0.0000 27.5725 0.0000 0.0000
# 5 0.0000 0.0000 0.0000 0.0000 17.9453 0.0000
# 6 0.0000 0.0000 0.0000 0.0000 0.0000 23.7446
#
#
#
# Elastic Compliance Matrix: (Units=1/GPa)
#
#
# Indices 1 2 3 4 5 6 
#
# 1 0.017437 -0.004556 0.000508 0.000000 0.000000 0.000000
# 2 -0.004556 0.018227 -0.005060 0.000000 0.000000 0.000000
# 3 0.000508 -0.005060 0.023979 0.000000 0.000000 0.000000
# 4 0.000000 0.000000 0.000000 0.036268 0.000000 0.000000
# 5 0.000000 0.000000 0.000000 0.000000 0.055725 0.000000
# 6 0.000000 0.000000 0.000000 0.000000 0.000000 0.042115
#
#
# Mechanical properties :
#
#
# Convention : Reuss Voigt Hill
#
# Bulk Modulus (GPa) = 24.13901 25.54220 24.84061
# Shear Modulus (GPa) = 22.14573 23.01254 22.57914
#
# Velocity S-wave (km/s) = 3.50049 3.56834 3.53458
# Velocity P-wave (km/s) = 5.44925 5.57765 5.51382
#
# Compressibility (1/GPa) = 0.04142672
#
# Stress axis : x y z
#
# Youngs Moduli (GPa) = 57.34792 54.86405 41.70278
#
# Poissons Ratio (x) = 0.24999 -0.02118
# Poissons Ratio (y) = 0.26131 0.21100
# Poissons Ratio (z) = -0.02912 0.27759
#
# Static dielectric constant tensor:
#      x y z
#    x 1.643390 0.000000 0.000000 
#    y 0.000000 1.599420 0.000000 
#    z 0.000000 0.000000 1.614010 
# 
# From -- ./inp_files/28218.got.cif
#   From: 2010.05.17/outbox.cif.g08.bks.cpg/sg59_15_cif.got.tgz:28218.got - 2010.06.03 14:40:33.
