data_PCOD9447333
_publ_section_title
;
Structure prediction by ZEFSAII (Michael W. Deem and Ramdas Pophale) SiO2 
 PCOD9447333
Probable space group: P M M N
;
_chemical_formula_sum "Si O2"
_cell_formula_units_Z 64
_cell_length_a 9.243552
_cell_length_b 25.464520
_cell_length_c 18.692620
_cell_angle_alpha 90.000000
_cell_angle_beta 90.000000
_cell_angle_gamma 90.000000
_cell_volume 4399.917773
_symmetry_space_group_name_H-M "P M M N"
_symmetry_group_IT_number 59
_space_group.IT_coordinate_system_code '2'
_symmetry_cell_setting 'orthorhombic'
loop_
_space_group_symop_operation_xyz
x,y,z
1/2-x,1/2-y,z
1/2+x,-y,-z
-x,1/2+y,-z
-x,-y,-z
1/2+x,1/2+y,-z
1/2-x,y,z
x,1/2-y,z
loop_
_atom_site_type_symbol
_atom_site_label
_atom_site_fract_x
_atom_site_fract_y
_atom_site_fract_z
Si Si1 0.422008 0.994622 0.114327
Si Si2 0.583325 0.578435 0.533175
Si Si3 0.582097 0.116744 0.333187
Si Si4 0.422936 0.418356 0.994738
Si Si5 0.919158 0.500043 0.265905
Si Si6 0.582501 0.687559 0.778592
Si Si7 0.573962 0.690771 0.942774
Si Si8 0.417095 0.539752 0.400159
O O1 0.250000 0.988098 0.123248
O O2 0.500415 0.997623 0.190305
O O3 0.445299 0.047439 0.067113
O O4 0.489868 0.947737 0.067219
O O5 0.750000 0.593461 0.522835
O O6 0.504640 0.613391 0.592624
O O7 0.497664 0.575215 0.458769
O O8 0.582358 0.519178 0.565973
O O9 0.750000 0.127963 0.346633
O O10 0.512413 0.157477 0.278565
O O11 0.572740 0.059396 0.296111
O O12 0.250000 0.419855 0.979725
O O13 0.469194 0.358345 0.008625
O O14 0.750000 0.513787 0.258857
O O15 0.997742 0.535504 0.325693
O O16 0.750000 0.669615 0.773532
O O17 0.580094 0.750000 0.766429
O O18 0.532175 0.679498 0.860435
O O19 0.750000 0.691659 0.942674
O O20 0.525927 0.750000 0.962178
O O21 0.250000 0.554829 0.390209
#
# Coordination Sequence:
#
# PCOD9447333 Si02
#       8
#     8   8   8   8   8   8   8   8
#     4  10  19  29  42  60  83 113 145 176 213 256
#     4   9  16  26  40  57  79 108 139 168 199 237
#     4  10  19  28  40  59  83 111 142 176 211 248
#     4   9  17  29  44  61  83 110 140 176 215 256
#     4  10  19  29  41  59  83 111 143 175 209 250
#     4   9  17  29  44  61  82 109 141 176 212 250
#     4   8  14  26  45  65  82 105 140 178 214 254
#     4   9  16  26  40  58  81 107 135 168 203 238
#
# _framework density 14.545726999999999
#
# number of rings (size 3 to 8) (size 9 to 14) (size 15 to 20)
#    0.000    2.750    0.000    3.375    0.000    6.250 
#    0.000    0.625    0.000    1.125    0.000    0.000 
#    0.000    1.000    0.000    6.000    0.000    4.625 
#
# Total GULP energy -356595.022252 kJ/mol
# GULP energy per Si atom -5571.797223 kJ/mol
# Density = 1.451262 g / cm^3
# Si number density = 14.545727 Si / 1000 Ang^3
#
#
#
# Elastic Constant Matrix: (Units=GPa)
#
#
# Indices 1 2 3 4 5 6 
#
# 1 97.6586 22.9359 55.2509 0.0000 0.0000 0.0000
# 2 22.9359 41.4344 14.6871 0.0000 0.0000 0.0000
# 3 55.2509 14.6871 80.7915 0.0000 0.0000 0.0000
# 4 0.0000 0.0000 0.0000 21.8890 0.0000 0.0000
# 5 0.0000 0.0000 0.0000 0.0000 26.8976 0.0000
# 6 0.0000 0.0000 0.0000 0.0000 0.0000 15.7034
#
#
#
# Elastic Compliance Matrix: (Units=1/GPa)
#
#
# Indices 1 2 3 4 5 6 
#
# 1 0.017990 -0.005983 -0.011215 0.000000 0.000000 0.000000
# 2 -0.005983 0.027787 -0.000960 0.000000 0.000000 0.000000
# 3 -0.011215 -0.000960 0.020222 0.000000 0.000000 0.000000
# 4 0.000000 0.000000 0.000000 0.045685 0.000000 0.000000
# 5 0.000000 0.000000 0.000000 0.000000 0.037178 0.000000
# 6 0.000000 0.000000 0.000000 0.000000 0.000000 0.063680
#
#
# Mechanical properties :
#
#
# Convention : Reuss Voigt Hill
#
# Bulk Modulus (GPa) = 33.68986 45.07027 39.38007
# Shear Modulus (GPa) = 19.32357 21.36539 20.34448
#
# Velocity S-wave (km/s) = 3.64877 3.83671 3.74392
# Velocity P-wave (km/s) = 6.40024 7.11896 6.76914
#
# Compressibility (1/GPa) = 0.02968252
#
# Stress axis : x y z
#
# Youngs Moduli (GPa) = 55.58682 35.98861 49.45183
#
# Poissons Ratio (x) = 0.21532 0.55461
# Poissons Ratio (y) = 0.33257 0.04747
# Poissons Ratio (z) = 0.62341 0.03454
#
# Static dielectric constant tensor:
#      x y z
#    x 1.484990 0.000000 0.000000 
#    y 0.000000 1.469390 0.000000 
#    z 0.000000 0.000000 1.461540 
# 
# From -- ./inp_files/26567.got.cif
#   From: 2010.05.17/outbox.cif.g08.bks.cpg/sg59_14_cif.got.tgz:26567.got - 2010.06.03 14:40:33.
