data_PCOD9447218
_publ_section_title
;
Structure prediction by ZEFSAII (Michael W. Deem and Ramdas Pophale) SiO2 
 PCOD9447218
Probable space group: P M M N
;
_chemical_formula_sum "Si O2"
_cell_formula_units_Z 56
_cell_length_a 19.929193
_cell_length_b 7.565070
_cell_length_c 18.295113
_cell_angle_alpha 90.000000
_cell_angle_beta 90.000000
_cell_angle_gamma 90.000000
_cell_volume 2758.276251
_symmetry_space_group_name_H-M "P M M N"
_symmetry_group_IT_number 59
_space_group.IT_coordinate_system_code '2'
_symmetry_cell_setting 'orthorhombic'
loop_
_space_group_symop_operation_xyz
x,y,z
1/2-x,1/2-y,z
1/2+x,-y,-z
-x,1/2+y,-z
-x,-y,-z
1/2+x,1/2+y,-z
1/2-x,y,z
x,1/2-y,z
loop_
_atom_site_type_symbol
_atom_site_label
_atom_site_fract_x
_atom_site_fract_y
_atom_site_fract_z
Si Si1 0.430630 0.966541 0.685915
Si Si2 0.066957 0.453681 0.100323
Si Si3 0.922669 0.962590 0.739299
Si Si4 0.674396 0.037132 0.191860
Si Si5 0.326175 0.537840 0.393558
Si Si6 0.076637 0.538021 0.521523
Si Si7 0.918550 0.959957 0.060510
O O1 0.431067 0.750000 0.685941
O O2 0.505658 0.024884 0.707599
O O3 0.376985 0.025899 0.745948
O O4 0.412596 0.025655 0.604201
O O5 0.089751 0.250000 0.100464
O O6 0.087536 0.532228 0.178277
O O7 0.985739 0.458678 0.095775
O O8 0.089738 0.530014 0.022207
O O9 0.928176 0.750000 0.745049
O O10 0.864317 0.002150 0.682182
O O11 0.750000 0.971267 0.200939
O O12 0.675960 0.250000 0.197114
O O13 0.643434 0.991684 0.113346
O O14 0.250000 0.470304 0.394706
O O15 0.323024 0.750000 0.401314
O O16 0.372297 0.469040 0.460160
O O17 0.084096 0.750000 0.522987
O O18 0.000000 0.500000 0.500000
O O19 0.931411 0.750000 0.055666
#
# Coordination Sequence:
#
# PCOD9447218 Si02
#       7
#     8   8   8   8   8   8   8
#     4   9  17  31  53  79 102 130 175 223 255 298
#     4   9  18  33  53  77 104 134 173 218 258 306
#     4  10  18  33  57  79 103 134 175 222 258 299
#     4  10  20  35  54  75 105 144 179 216 264 315
#     4  10  22  37  52  76 111 142 168 209 265 318
#     4  10  19  33  54  78 104 135 172 213 257 305
#     4  10  19  31  51  78 106 136 170 215 267 312
#
# _framework density 20.302536
#
# number of rings (size 3 to 8) (size 9 to 14) (size 15 to 20)
#    0.000    2.286    2.857    0.429    0.000    2.286 
#    0.000    4.286    0.000    4.286    0.000    2.000 
#    0.000    0.000    0.000    0.000    0.000    0.000 
#
# Total GULP energy -312579.079138 kJ/mol
# GULP energy per Si atom -5581.769270 kJ/mol
# Density = 2.025633 g / cm^3
# Si number density = 20.302536 Si / 1000 Ang^3
#
#
#
# Elastic Constant Matrix: (Units=GPa)
#
#
# Indices 1 2 3 4 5 6 
#
# 1 152.9266 -2.6026 100.5308 0.0000 0.0000 0.0000
# 2 -2.6026 49.0947 4.4767 0.0000 0.0000 0.0000
# 3 100.5308 4.4767 195.1019 0.0000 0.0000 0.0000
# 4 0.0000 0.0000 0.0000 8.3377 0.0000 0.0000
# 5 0.0000 0.0000 0.0000 0.0000 28.7675 0.0000
# 6 0.0000 0.0000 0.0000 0.0000 0.0000 17.0647
#
#
#
# Elastic Compliance Matrix: (Units=1/GPa)
#
#
# Indices 1 2 3 4 5 6 
#
# 1 0.009937 0.000996 -0.005143 0.000000 0.000000 0.000000
# 2 0.000996 0.020511 -0.000984 0.000000 0.000000 0.000000
# 3 -0.005143 -0.000984 0.007798 0.000000 0.000000 0.000000
# 4 0.000000 0.000000 0.000000 0.119938 0.000000 0.000000
# 5 0.000000 0.000000 0.000000 0.000000 0.034761 0.000000
# 6 0.000000 0.000000 0.000000 0.000000 0.000000 0.058601
#
#
# Mechanical properties :
#
#
# Convention : Reuss Voigt Hill
#
# Bulk Modulus (GPa) = 35.73428 66.88145 51.30787
# Shear Modulus (GPa) = 18.44088 30.48185 24.46136
#
# Velocity S-wave (km/s) = 3.01708 3.87897 3.47485
# Velocity P-wave (km/s) = 5.45675 7.28531 6.43630
#
# Compressibility (1/GPa) = 0.02798433
#
# Stress axis : x y z
#
# Youngs Moduli (GPa) = 100.63383 48.75362 128.23443
#
# Poissons Ratio (x) = -0.04855 0.65953
# Poissons Ratio (y) = -0.10021 0.12615
# Poissons Ratio (z) = 0.51757 0.04796
#
# Static dielectric constant tensor:
#      x y z
#    x 1.673620 0.000000 0.000000 
#    y 0.000000 1.803960 0.000000 
#    z 0.000000 0.000000 1.737450 
# 
# From -- ./inp_files/28108.got.cif
#   From: 2010.05.17/outbox.cif.g08.bks.cpg/sg59_15_cif.got.tgz:28108.got - 2010.06.03 14:40:33.
