data_PCOD9447504
_publ_section_title
;
Structure prediction by ZEFSAII (Michael W. Deem and Ramdas Pophale) SiO2 
 PCOD9447504
Probable space group: P M M N
;
_chemical_formula_sum "Si O2"
_cell_formula_units_Z 64
_cell_length_a 18.290264
_cell_length_b 7.665992
_cell_length_c 23.455849
_cell_angle_alpha 90.000000
_cell_angle_beta 90.000000
_cell_angle_gamma 90.000000
_cell_volume 3288.815366
_symmetry_space_group_name_H-M "P M M N"
_symmetry_group_IT_number 59
_space_group.IT_coordinate_system_code '2'
_symmetry_cell_setting 'orthorhombic'
loop_
_space_group_symop_operation_xyz
x,y,z
1/2-x,1/2-y,z
1/2+x,-y,-z
-x,1/2+y,-z
-x,-y,-z
1/2+x,1/2+y,-z
1/2-x,y,z
x,1/2-y,z
loop_
_atom_site_type_symbol
_atom_site_label
_atom_site_fract_x
_atom_site_fract_y
_atom_site_fract_z
Si Si1 0.670379 0.045821 0.293246
Si Si2 0.171577 0.957338 0.453117
Si Si3 0.491215 0.454105 0.737965
Si Si4 0.430275 0.041136 0.960453
Si Si5 0.527996 0.039528 0.861412
Si Si6 0.832474 0.960446 0.939859
Si Si7 0.469045 0.963835 0.386514
Si Si8 0.628551 0.540898 0.420265
O O1 0.750000 0.973933 0.275958
O O2 0.668758 0.250000 0.279403
O O3 0.596898 0.966064 0.266884
O O4 0.663498 0.026811 0.361800
O O5 0.250000 0.030209 0.435078
O O6 0.172323 0.750000 0.442622
O O7 0.102106 0.028083 0.419236
O O8 0.162696 0.982622 0.520651
O O9 0.510577 0.250000 0.737936
O O10 0.521017 0.528756 0.797140
O O11 0.523083 0.526204 0.678695
O O12 0.421520 0.250000 0.955572
O O13 0.458971 0.974949 0.899483
O O14 0.362149 0.976110 0.998133
O O15 0.500000 0.000000 0.000000
O O16 0.521965 0.250000 0.859669
O O17 0.604544 0.002452 0.893519
O O18 0.750000 0.022945 0.927573
O O19 0.829914 0.750000 0.942274
O O20 0.468530 0.750000 0.385788
O O21 0.543569 0.013862 0.418461
O O22 0.632694 0.750000 0.417423
#
# Coordination Sequence:
#
# PCOD9447504 Si02
#       8
#     8   8   8   8   8   8   8   8
#     4  10  20  33  49  70  95 121 151 189 232 280
#     4  10  19  30  45  65  89 116 147 186 231 279
#     4   9  18  33  51  70  93 123 160 197 231 274
#     4   8  14  26  44  66  92 121 151 185 228 275
#     4   9  17  30  49  72  96 123 159 201 240 279
#     4   9  17  29  46  69  97 128 161 196 234 279
#     4   8  16  31  47  64  88 118 151 185 224 274
#     4  10  19  31  49  69  90 117 148 187 234 283
#
# _framework density 19.459893999999998
#
# number of rings (size 3 to 8) (size 9 to 14) (size 15 to 20)
#    0.000    2.875    0.000    2.250    0.000    3.500 
#    0.000    3.750    0.000    4.500    0.000    0.000 
#    0.000    0.000    0.000    0.000    0.000    0.000 
#
# Total GULP energy -356564.961481 kJ/mol
# GULP energy per Si atom -5571.327523 kJ/mol
# Density = 1.941560 g / cm^3
# Si number density = 19.459894 Si / 1000 Ang^3
#
#
#
# Elastic Constant Matrix: (Units=GPa)
#
#
# Indices 1 2 3 4 5 6 
#
# 1 120.5451 -4.0563 55.1146 0.0000 0.0000 0.0000
# 2 -4.0563 33.3405 -6.6984 0.0000 0.0000 0.0000
# 3 55.1146 -6.6984 77.6884 0.0000 0.0000 0.0000
# 4 0.0000 0.0000 0.0000 4.8254 0.0000 0.0000
# 5 0.0000 0.0000 0.0000 0.0000 18.2105 0.0000
# 6 0.0000 0.0000 0.0000 0.0000 0.0000 14.2995
#
#
#
# Elastic Compliance Matrix: (Units=1/GPa)
#
#
# Indices 1 2 3 4 5 6 
#
# 1 0.012280 -0.000261 -0.008735 0.000000 0.000000 0.000000
# 2 -0.000261 0.030528 0.002817 0.000000 0.000000 0.000000
# 3 -0.008735 0.002817 0.019311 0.000000 0.000000 0.000000
# 4 0.000000 0.000000 0.000000 0.207238 0.000000 0.000000
# 5 0.000000 0.000000 0.000000 0.000000 0.054913 0.000000
# 6 0.000000 0.000000 0.000000 0.000000 0.000000 0.069932
#
#
# Mechanical properties :
#
#
# Convention : Reuss Voigt Hill
#
# Bulk Modulus (GPa) = 20.09517 35.58820 27.84168
# Shear Modulus (GPa) = 11.81620 19.94802 15.88211
#
# Velocity S-wave (km/s) = 2.46683 3.20517 2.85993
# Velocity P-wave (km/s) = 4.29681 5.65907 5.02432
#
# Compressibility (1/GPa) = 0.04976321
#
# Stress axis : x y z
#
# Youngs Moduli (GPa) = 81.43029 32.75700 51.78281
#
# Poissons Ratio (x) = 0.00854 0.45230
# Poissons Ratio (y) = 0.02123 -0.14588
# Poissons Ratio (z) = 0.71126 -0.09228
#
# Static dielectric constant tensor:
#      x y z
#    x 1.693330 0.000000 0.000000 
#    y 0.000000 1.740960 0.000000 
#    z 0.000000 0.000000 1.689000 
# 
# From -- ./inp_files/32329.got.cif
#   From: 2010.05.17/outbox.cif.g08.bks.cpg/sg59_17_cif.got.tgz:32329.got - 2010.06.03 14:40:33.
