data_PCOD9447477
_publ_section_title
;
Structure prediction by ZEFSAII (Michael W. Deem and Ramdas Pophale) SiO2 
 PCOD9447477
Probable space group: P M M N
;
_chemical_formula_sum "Si O2"
_cell_formula_units_Z 64
_cell_length_a 8.838004
_cell_length_b 30.363618
_cell_length_c 15.267332
_cell_angle_alpha 90.000000
_cell_angle_beta 90.000000
_cell_angle_gamma 90.000000
_cell_volume 4097.046212
_symmetry_space_group_name_H-M "P M M N"
_symmetry_group_IT_number 59
_space_group.IT_coordinate_system_code '2'
_symmetry_cell_setting 'orthorhombic'
loop_
_space_group_symop_operation_xyz
x,y,z
1/2-x,1/2-y,z
1/2+x,-y,-z
-x,1/2+y,-z
-x,-y,-z
1/2+x,1/2+y,-z
1/2-x,y,z
x,1/2-y,z
loop_
_atom_site_type_symbol
_atom_site_label
_atom_site_fract_x
_atom_site_fract_y
_atom_site_fract_z
Si Si1 0.430052 0.935339 0.055135
Si Si2 0.068413 0.610063 0.536574
Si Si3 0.068144 0.438162 0.631707
Si Si4 0.567733 0.473953 0.126349
Si Si5 0.570267 0.621414 0.199281
Si Si6 0.430847 0.299976 0.506795
Si Si7 0.933821 0.036852 0.325458
Si Si8 0.573196 0.300765 0.698459
O O1 0.250000 0.932228 0.065314
O O2 0.509439 0.896464 0.107645
O O3 0.488653 0.980633 0.098862
O O4 0.465014 0.939741 0.951800
O O5 0.250000 0.611782 0.535447
O O6 0.017045 0.577232 0.613994
O O7 0.010618 0.588424 0.446051
O O8 0.004185 0.659361 0.544242
O O9 0.250000 0.436682 0.618409
O O10 0.036902 0.414759 0.724697
O O11 0.018795 0.489153 0.636973
O O12 0.750000 0.481518 0.126933
O O13 0.521070 0.460035 0.223724
O O14 0.750000 0.627076 0.196581
O O15 0.490931 0.665764 0.230962
O O16 0.250000 0.302924 0.502125
O O17 0.476474 0.250000 0.480708
O O18 0.482729 0.305806 0.607652
O O19 0.750000 0.036537 0.326790
O O20 0.750000 0.309822 0.681017
O O21 0.558530 0.250000 0.726233
#
# Coordination Sequence:
#
# PCOD9447477 Si02
#       8
#     8   8   8   8   8   8   8   8
#     4  10  19  29  48  73  95 122 160 204 242 280
#     4  11  21  31  48  71  95 125 162 205 240 275
#     4  10  19  32  47  64  94 135 169 192 225 281
#     4   9  17  33  50  66  94 128 161 199 242 287
#     4  11  20  31  50  70  97 134 163 193 234 291
#     4  10  20  34  50  67  92 126 159 192 238 293
#     4   9  18  33  49  66  93 131 168 199 239 281
#     4  10  20  33  50  72  97 122 155 202 243 280
#
# _framework density 15.621010999999999
#
# number of rings (size 3 to 8) (size 9 to 14) (size 15 to 20)
#    0.000    2.000    2.500    2.250    0.000    2.500 
#    0.000    1.875    0.000    0.000    0.000    0.875 
#    0.000    3.000    0.000    0.000    0.000    0.000 
#
# Total GULP energy -357039.452256 kJ/mol
# GULP energy per Si atom -5578.741441 kJ/mol
# Density = 1.558546 g / cm^3
# Si number density = 15.621011 Si / 1000 Ang^3
#
#
#
# Elastic Constant Matrix: (Units=GPa)
#
#
# Indices 1 2 3 4 5 6 
#
# 1 35.5044 33.9700 23.5931 0.0000 0.0000 0.0000
# 2 33.9700 106.4186 42.8297 0.0000 0.0000 0.0000
# 3 23.5931 42.8297 63.2260 0.0000 0.0000 0.0000
# 4 0.0000 0.0000 0.0000 21.8964 0.0000 0.0000
# 5 0.0000 0.0000 0.0000 0.0000 17.3813 0.0000
# 6 0.0000 0.0000 0.0000 0.0000 0.0000 25.5104
#
#
#
# Elastic Compliance Matrix: (Units=1/GPa)
#
#
# Indices 1 2 3 4 5 6 
#
# 1 0.044404 -0.010319 -0.009580 0.000000 0.000000 0.000000
# 2 -0.010319 0.015317 -0.006525 0.000000 0.000000 0.000000
# 3 -0.009580 -0.006525 0.023811 0.000000 0.000000 0.000000
# 4 0.000000 0.000000 0.000000 0.045670 0.000000 0.000000
# 5 0.000000 0.000000 0.000000 0.000000 0.057533 0.000000
# 6 0.000000 0.000000 0.000000 0.000000 0.000000 0.039200
#
#
# Mechanical properties :
#
#
# Convention : Reuss Voigt Hill
#
# Bulk Modulus (GPa) = 32.58933 45.10385 38.84659
# Shear Modulus (GPa) = 17.30042 19.94137 18.62089
#
# Velocity S-wave (km/s) = 3.33154 3.57679 3.45634
# Velocity P-wave (km/s) = 5.97550 6.78192 6.39144
#
# Compressibility (1/GPa) = 0.03068489
#
# Stress axis : x y z
#
# Youngs Moduli (GPa) = 22.52039 65.28719 41.99710
#
# Poissons Ratio (x) = 0.67369 0.40232
# Poissons Ratio (y) = 0.23239 0.27404
# Poissons Ratio (z) = 0.21574 0.42601
#
# Static dielectric constant tensor:
#      x y z
#    x 1.524200 0.000000 0.000000 
#    y 0.000000 1.525960 0.000000 
#    z 0.000000 0.000000 1.509360 
# 
# From -- ./inp_files/21846.got.cif
#   From: 2010.05.17/outbox.cif.g08.bks.cpg/sg59_11_cif.got.tgz:21846.got - 2010.06.03 14:40:33.
