data_PCOD9447525
_publ_section_title
;
Structure prediction by ZEFSAII (Michael W. Deem and Ramdas Pophale) SiO2 
 PCOD9447525
Probable space group: P M M N
;
_chemical_formula_sum "Si O2"
_cell_formula_units_Z 48
_cell_length_a 7.606562
_cell_length_b 13.959880
_cell_length_c 18.418273
_cell_angle_alpha 90.000000
_cell_angle_beta 90.000000
_cell_angle_gamma 90.000000
_cell_volume 1955.775496
_symmetry_space_group_name_H-M "P M M N"
_symmetry_group_IT_number 59
_space_group.IT_coordinate_system_code '2'
_symmetry_cell_setting 'orthorhombic'
loop_
_space_group_symop_operation_xyz
x,y,z
1/2-x,1/2-y,z
1/2+x,-y,-z
-x,1/2+y,-z
-x,-y,-z
1/2+x,1/2+y,-z
1/2-x,y,z
x,1/2-y,z
loop_
_atom_site_type_symbol
_atom_site_label
_atom_site_fract_x
_atom_site_fract_y
_atom_site_fract_z
Si Si1 0.038608 0.148427 0.723264
Si Si2 0.047166 0.145039 0.943519
Si Si3 0.048219 0.388204 0.407795
Si Si4 0.964241 0.605925 0.438418
Si Si5 0.455399 0.427438 0.251560
Si Si6 0.044682 0.935628 0.907088
O O1 0.250000 0.144561 0.731779
O O2 0.978372 0.250000 0.757010
O O3 0.997615 0.154666 0.637662
O O4 0.974150 0.043517 0.745953
O O5 0.250000 0.148605 0.918461
O O6 0.968635 0.250000 0.928831
O O7 0.972930 0.045489 0.911346
O O8 0.043105 0.126568 0.030163
O O9 0.250000 0.355735 0.402641
O O10 0.973313 0.352055 0.484623
O O11 0.968926 0.382946 0.326777
O O12 0.043965 0.501285 0.425337
O O13 0.750000 0.599281 0.442865
O O14 0.250000 0.404882 0.251546
O O15 0.529817 0.396946 0.174210
O O16 0.250000 0.940589 0.926822
#
# Coordination Sequence:
#
# PCOD9447525 Si02
#       6
#     8   8   8   8   8   8
#     4   9  17  28  42  62  90 124 162 207 259 309
#     4   9  19  37  59  80 103 133 168 207 253 304
#     4   8  14  24  39  59  82 110 148 194 239 282
#     4   8  13  23  39  57  78 108 149 194 237 284
#     4  10  19  30  45  67  97 131 165 203 246 295
#     4  10  20  34  54  81 109 136 169 209 252 302
#
# _framework density 24.542695999999999
#
# number of rings (size 3 to 8) (size 9 to 14) (size 15 to 20)
#    0.000    3.000    0.000    1.000    0.000    2.667 
#    0.000    1.667    0.000    1.000    0.000    4.667 
#    0.000    0.000    0.000    0.000    0.000    0.000 
#
# Total GULP energy -267486.003142 kJ/mol
# GULP energy per Si atom -5572.625065 kJ/mol
# Density = 2.448684 g / cm^3
# Si number density = 24.542696 Si / 1000 Ang^3
#
#
#
# Elastic Constant Matrix: (Units=GPa)
#
#
# Indices 1 2 3 4 5 6 
#
# 1 51.8946 1.2751 -3.2814 0.0000 0.0000 0.0000
# 2 1.2751 82.2251 -0.1449 0.0000 0.0000 0.0000
# 3 -3.2814 -0.1449 192.1984 0.0000 0.0000 0.0000
# 4 0.0000 0.0000 0.0000 -9.0620 0.0000 0.0000
# 5 0.0000 0.0000 0.0000 0.0000 15.4783 0.0000
# 6 0.0000 0.0000 0.0000 0.0000 0.0000 -6.8223
#
#
#
# Elastic Compliance Matrix: (Units=1/GPa)
#
#
# Indices 1 2 3 4 5 6 
#
# 1 0.019298 -0.000299 0.000329 0.000000 0.000000 0.000000
# 2 -0.000299 0.012166 0.000004 0.000000 0.000000 0.000000
# 3 0.000329 0.000004 0.005209 0.000000 0.000000 0.000000
# 4 0.000000 0.000000 0.000000 -0.110351 0.000000 0.000000
# 5 0.000000 0.000000 0.000000 0.000000 0.064607 0.000000
# 6 0.000000 0.000000 0.000000 0.000000 0.000000 -0.146579
#
#
# Mechanical properties :
#
#
# Convention : Reuss Voigt Hill
#
# Bulk Modulus (GPa) = 27.21665 35.77952 31.49809
# Shear Modulus (GPa) = -34.85004 21.81675 -6.51665
#
# Velocity S-wave (km/s) = -3.77235 2.98473 -1.63126
# Velocity P-wave (km/s) = 2.80366 5.14668 3.05186
#
# Compressibility (1/GPa) = 0.03674221
#
# Stress axis : x y z
#
# Youngs Moduli (GPa) = 51.81887 82.19379 191.99081
#
# Poissons Ratio (x) = 0.02455 -0.06321
# Poissons Ratio (y) = 0.01548 -0.00078
# Poissons Ratio (z) = -0.01706 -0.00033
#
# Static dielectric constant tensor:
#      x y z
#    x 1.953550 0.000000 0.000000 
#    y 0.000000 1.976240 0.000000 
#    z 0.000000 0.000000 1.994620 
# 
# From -- ./inp_files/25741.got.cif
#   From: 2010.05.17/outbox.cif.g08.bks.cpg/sg59_13_cif.got.tgz:25741.got - 2010.06.03 14:40:33.
