data_PCOD9447929
_publ_section_title
;
Structure prediction by ZEFSAII (Michael W. Deem and Ramdas Pophale) SiO2 
 PCOD9447929
Probable space group: P M M N
;
_chemical_formula_sum "Si O2"
_cell_formula_units_Z 56
_cell_length_a 25.045518
_cell_length_b 8.722482
_cell_length_c 15.147407
_cell_angle_alpha 90.000000
_cell_angle_beta 90.000000
_cell_angle_gamma 90.000000
_cell_volume 3309.088597
_symmetry_space_group_name_H-M "P M M N"
_symmetry_group_IT_number 59
_space_group.IT_coordinate_system_code '2'
_symmetry_cell_setting 'orthorhombic'
loop_
_space_group_symop_operation_xyz
x,y,z
1/2-x,1/2-y,z
1/2+x,-y,-z
-x,1/2+y,-z
-x,-y,-z
1/2+x,1/2+y,-z
1/2-x,y,z
x,1/2-y,z
loop_
_atom_site_type_symbol
_atom_site_label
_atom_site_fract_x
_atom_site_fract_y
_atom_site_fract_z
Si Si1 0.420539 0.432168 0.446506
Si Si2 0.750000 0.066231 0.996515
Si Si3 0.431405 0.433627 0.136468
Si Si4 0.638711 0.433364 0.707717
Si Si5 0.968941 0.934622 0.373069
Si Si6 0.454745 0.434874 0.829443
Si Si7 0.750000 0.436387 0.791845
Si Si8 0.863452 0.565040 0.036242
O O1 0.415286 0.250000 0.438102
O O2 0.374600 0.512769 0.390650
O O3 0.476209 0.485111 0.401908
O O4 0.426408 0.471276 0.550013
O O5 0.750000 0.250000 0.997879
O O6 0.750000 0.013743 0.893680
O O7 0.695343 0.005327 0.038628
O O8 0.432704 0.250000 0.139907
O O9 0.405126 0.498619 0.225474
O O10 0.491409 0.495970 0.129282
O O11 0.394053 0.480328 0.054186
O O12 0.635848 0.250000 0.712549
O O13 0.696353 0.485843 0.742577
O O14 0.977611 0.750000 0.375161
O O15 0.953001 0.977684 0.273963
O O16 0.458814 0.250000 0.834612
O O17 0.402377 0.481020 0.883756
O O18 0.750000 0.250000 0.792276
O O19 0.858876 0.750000 0.036243
#
# Coordination Sequence:
#
# PCOD9447929 Si02
#       8
#     8   4   8   8   8   8   4   8
#     4  10  19  31  49  77 106 131 167 212 258 305
#     4  11  21  37  57  76  99 136 182 221 259 305
#     4  11  21  32  49  78 110 138 169 214 262 307
#     4  11  20  34  53  74 103 139 176 211 259 318
#     4   9  18  32  51  74 103 138 171 205 251 310
#     4  10  20  35  54  76 105 144 178 208 256 317
#     4   9  20  35  53  74  97 132 178 217 253 311
#     4  10  22  37  53  76 107 139 176 219 263 307
#
# _framework density 16.923089000000001
#
# number of rings (size 3 to 8) (size 9 to 14) (size 15 to 20)
#    0.000    1.857    2.857    1.929    0.000    1.714 
#    0.000    1.429    0.000    0.857    0.000    4.000 
#    0.000    0.000    0.000    0.000    0.000    0.000 
#
# Total GULP energy -312562.857855 kJ/mol
# GULP energy per Si atom -5581.479605 kJ/mol
# Density = 1.688457 g / cm^3
# Si number density = 16.923089 Si / 1000 Ang^3
#
#
#
# Elastic Constant Matrix: (Units=GPa)
#
#
# Indices 1 2 3 4 5 6 
#
# 1 134.2853 29.6586 51.2202 0.0000 0.0000 0.0000
# 2 29.6586 22.9762 25.7977 0.0000 0.0000 0.0000
# 3 51.2202 25.7977 80.9814 0.0000 0.0000 0.0000
# 4 0.0000 0.0000 0.0000 20.7032 0.0000 0.0000
# 5 0.0000 0.0000 0.0000 0.0000 22.6726 0.0000
# 6 0.0000 0.0000 0.0000 0.0000 0.0000 22.6968
#
#
#
# Elastic Compliance Matrix: (Units=1/GPa)
#
#
# Indices 1 2 3 4 5 6 
#
# 1 0.011132 -0.010064 -0.003835 0.000000 0.000000 0.000000
# 2 -0.010064 0.076858 -0.018119 0.000000 0.000000 0.000000
# 3 -0.003835 -0.018119 0.020546 0.000000 0.000000 0.000000
# 4 0.000000 0.000000 0.000000 0.048302 0.000000 0.000000
# 5 0.000000 0.000000 0.000000 0.000000 0.044106 0.000000
# 6 0.000000 0.000000 0.000000 0.000000 0.000000 0.044059
#
#
# Mechanical properties :
#
#
# Convention : Reuss Voigt Hill
#
# Bulk Modulus (GPa) = 22.47147 50.17730 36.32439
# Shear Modulus (GPa) = 15.43815 21.98563 18.71189
#
# Velocity S-wave (km/s) = 3.02363 3.60828 3.32882
# Velocity P-wave (km/s) = 5.04948 6.86106 6.02376
#
# Compressibility (1/GPa) = 0.04450087
#
# Stress axis : x y z
#
# Youngs Moduli (GPa) = 89.82757 13.01099 48.67096
#
# Poissons Ratio (x) = 0.13094 0.18666
# Poissons Ratio (y) = 0.90403 0.88185
# Poissons Ratio (z) = 0.34450 0.23574
#
# Static dielectric constant tensor:
#      x y z
#    x 1.552780 0.000000 0.000000 
#    y 0.000000 1.569460 0.000000 
#    z 0.000000 0.000000 1.583310 
# 
# From -- ./inp_files/21121.got.cif
#   From: 2010.05.17/outbox.cif.g08.bks.cpg/sg59_11_cif.got.tgz:21121.got - 2010.06.03 14:40:33.
