data_PCOD9447631
_publ_section_title
;
Structure prediction by ZEFSAII (Michael W. Deem and Ramdas Pophale) SiO2 
 PCOD9447631
Probable space group: P M M N
;
_chemical_formula_sum "Si O2"
_cell_formula_units_Z 48
_cell_length_a 7.572547
_cell_length_b 24.187292
_cell_length_c 12.976464
_cell_angle_alpha 90.000000
_cell_angle_beta 90.000000
_cell_angle_gamma 90.000000
_cell_volume 2376.761431
_symmetry_space_group_name_H-M "P M M N"
_symmetry_group_IT_number 59
_space_group.IT_coordinate_system_code '2'
_symmetry_cell_setting 'orthorhombic'
loop_
_space_group_symop_operation_xyz
x,y,z
1/2-x,1/2-y,z
1/2+x,-y,-z
-x,1/2+y,-z
-x,-y,-z
1/2+x,1/2+y,-z
1/2-x,y,z
x,1/2-y,z
loop_
_atom_site_type_symbol
_atom_site_label
_atom_site_fract_x
_atom_site_fract_y
_atom_site_fract_z
Si Si1 0.961267 0.063562 0.023120
Si Si2 0.036804 0.866436 0.785413
Si Si3 0.545517 0.052268 0.640582
Si Si4 0.465605 0.750000 0.120471
Si Si5 0.458105 0.431745 0.413299
Si Si6 0.465753 0.750000 0.880284
Si Si7 0.966627 0.129983 0.821904
O O1 0.750000 0.069158 0.025859
O O2 0.027307 0.087985 0.131380
O O3 0.023198 0.100910 0.927994
O O4 0.000000 0.000000 0.000000
O O5 0.250000 0.865944 0.787711
O O6 0.977283 0.806080 0.823349
O O7 0.984449 0.884956 0.671511
O O8 0.750000 0.044381 0.670067
O O9 0.537118 0.077606 0.526118
O O10 0.470004 0.093085 0.726300
O O11 0.468773 0.990321 0.630608
O O12 0.250000 0.750000 0.119618
O O13 0.523187 0.806406 0.174892
O O14 0.519614 0.750000 0.000168
O O15 0.250000 0.439276 0.430870
O O16 0.250000 0.750000 0.880614
O O17 0.750000 0.130501 0.820342
#
# Coordination Sequence:
#
# PCOD9447631 Si02
#       7
#     8   8   8   4   8   4   8
#     4  10  19  30  47  74 105 132 159 198 248 299
#     4  10  19  32  52  76 102 132 169 210 251 297
#     4   9  18  33  52  74 101 133 170 210 252 301
#     4   9  14  26  49  75 100 128 163 204 251 294
#     4  10  20  34  52  73 101 136 171 209 255 305
#     4   9  16  30  50  75 102 132 169 208 247 294
#     4   9  16  28  48  74 101 127 160 204 250 294
#
# _framework density 20.195549
#
# number of rings (size 3 to 8) (size 9 to 14) (size 15 to 20)
#    0.000    2.500    1.667    1.500    0.000    2.667 
#    0.000    2.083    0.000    3.000    0.000    1.750 
#    0.000    0.000    0.000    0.000    0.000    0.000 
#
# Total GULP energy -267914.972095 kJ/mol
# GULP energy per Si atom -5581.561919 kJ/mol
# Density = 2.014958 g / cm^3
# Si number density = 20.195549 Si / 1000 Ang^3
#
#
#
# Elastic Constant Matrix: (Units=GPa)
#
#
# Indices 1 2 3 4 5 6 
#
# 1 44.2194 -2.3622 -8.0581 0.0000 0.0000 0.0000
# 2 -2.3622 59.5565 2.9697 0.0000 0.0000 0.0000
# 3 -8.0581 2.9697 60.2417 0.0000 0.0000 0.0000
# 4 0.0000 0.0000 0.0000 30.9188 0.0000 0.0000
# 5 0.0000 0.0000 0.0000 0.0000 5.6471 0.0000
# 6 0.0000 0.0000 0.0000 0.0000 0.0000 3.2059
#
#
#
# Elastic Compliance Matrix: (Units=1/GPa)
#
#
# Indices 1 2 3 4 5 6 
#
# 1 0.023214 0.000768 0.003067 0.000000 0.000000 0.000000
# 2 0.000768 0.016858 -0.000728 0.000000 0.000000 0.000000
# 3 0.003067 -0.000728 0.017046 0.000000 0.000000 0.000000
# 4 0.000000 0.000000 0.000000 0.032343 0.000000 0.000000
# 5 0.000000 0.000000 0.000000 0.000000 0.177081 0.000000
# 6 0.000000 0.000000 0.000000 0.000000 0.000000 0.311922
#
#
# Mechanical properties :
#
#
# Convention : Reuss Voigt Hill
#
# Bulk Modulus (GPa) = 15.78986 16.56850 16.17918
# Shear Modulus (GPa) = 8.42657 19.38557 13.90607
#
# Velocity S-wave (km/s) = 2.04488 3.10158 2.62691
# Velocity P-wave (km/s) = 3.66208 4.58783 4.15085
#
# Compressibility (1/GPa) = 0.06333176
#
# Stress axis : x y z
#
# Youngs Moduli (GPa) = 43.07653 59.32059 58.66478
#
# Poissons Ratio (x) = -0.04555 -0.17995
# Poissons Ratio (y) = -0.03307 0.04273
# Poissons Ratio (z) = -0.13213 0.04320
#
# Static dielectric constant tensor:
#      x y z
#    x 1.791830 0.000000 0.000000 
#    y 0.000000 1.712450 0.000000 
#    z 0.000000 0.000000 1.690360 
# 
# From -- ./inp_files/15953.got.cif
#   From: 2010.05.17/outbox.cif.g08.bks.cpg/sg59_8_cif.got.tgz:15953.got - 2010.06.03 14:40:33.
