data_PCOD9447094
_publ_section_title
;
Structure prediction by ZEFSAII (Michael W. Deem and Ramdas Pophale) SiO2 
 PCOD9447094
Probable space group: P M M N
;
_chemical_formula_sum "Si O2"
_cell_formula_units_Z 56
_cell_length_a 7.783007
_cell_length_b 25.275175
_cell_length_c 14.255172
_cell_angle_alpha 90.000000
_cell_angle_beta 90.000000
_cell_angle_gamma 90.000000
_cell_volume 2804.232731
_symmetry_space_group_name_H-M "P M M N"
_symmetry_group_IT_number 59
_space_group.IT_coordinate_system_code '2'
_symmetry_cell_setting 'orthorhombic'
loop_
_space_group_symop_operation_xyz
x,y,z
1/2-x,1/2-y,z
1/2+x,-y,-z
-x,1/2+y,-z
-x,-y,-z
1/2+x,1/2+y,-z
1/2-x,y,z
x,1/2-y,z
loop_
_atom_site_type_symbol
_atom_site_label
_atom_site_fract_x
_atom_site_fract_y
_atom_site_fract_z
Si Si1 0.549786 0.809369 0.374425
Si Si2 0.460175 0.190587 0.205431
Si Si3 0.449315 0.087737 0.309369
Si Si4 0.960610 0.027360 0.704583
Si Si5 0.542991 0.690431 0.010714
Si Si6 0.047459 0.867986 0.193695
Si Si7 0.551857 0.086692 0.520294
O O1 0.750000 0.810107 0.401635
O O2 0.482712 0.750000 0.387391
O O3 0.537049 0.826658 0.265708
O O4 0.458994 0.855137 0.433474
O O5 0.250000 0.191971 0.209259
O O6 0.517490 0.250000 0.232039
O O7 0.523474 0.142282 0.269145
O O8 0.508841 0.180752 0.096880
O O9 0.250000 0.087758 0.280003
O O10 0.457455 0.086246 0.421784
O O11 0.523788 0.031643 0.275416
O O12 0.750000 0.026203 0.702802
O O13 0.012475 0.073288 0.776942
O O14 0.015294 0.047242 0.601024
O O15 0.750000 0.690453 0.012119
O O16 0.484678 0.750000 0.036471
O O17 0.482667 0.648875 0.087477
O O18 0.250000 0.865857 0.213597
O O19 0.750000 0.073463 0.501920
#
# Coordination Sequence:
#
# PCOD9447094 Si02
#       7
#     8   8   8   8   8   8   8
#     4  10  20  33  49  71  98 128 164 201 237 286
#     4   8  16  31  51  74  96 120 158 206 244 278
#     4  10  18  32  54  72  91 127 170 206 242 283
#     4   8  17  32  48  69  97 129 162 197 239 290
#     4   9  17  31  50  71  96 126 160 196 237 289
#     4  10  19  31  48  72 101 128 157 196 243 292
#     4  10  20  33  48  70 101 131 161 200 247 294
#
# _framework density 19.969812999999998
#
# number of rings (size 3 to 8) (size 9 to 14) (size 15 to 20)
#    0.000    2.714    0.000    3.857    0.000    3.714 
#    0.000    6.429    0.000    0.857    0.000    0.000 
#    0.000    0.000    0.000    0.000    0.000    0.000 
#
# Total GULP energy -312367.481308 kJ/mol
# GULP energy per Si atom -5577.990738 kJ/mol
# Density = 1.992436 g / cm^3
# Si number density = 19.969813 Si / 1000 Ang^3
#
#
#
# Elastic Constant Matrix: (Units=GPa)
#
#
# Indices 1 2 3 4 5 6 
#
# 1 30.0223 1.4844 -2.7205 0.0000 0.0000 0.0000
# 2 1.4844 168.1325 69.5508 0.0000 0.0000 0.0000
# 3 -2.7205 69.5508 67.1572 0.0000 0.0000 0.0000
# 4 0.0000 0.0000 0.0000 19.0264 0.0000 0.0000
# 5 0.0000 0.0000 0.0000 0.0000 10.4834 0.0000
# 6 0.0000 0.0000 0.0000 0.0000 0.0000 6.5888
#
#
#
# Elastic Compliance Matrix: (Units=1/GPa)
#
#
# Indices 1 2 3 4 5 6 
#
# 1 0.033648 -0.001506 0.002923 0.000000 0.000000 0.000000
# 2 -0.001506 0.010473 -0.010907 0.000000 0.000000 0.000000
# 3 0.002923 -0.010907 0.026305 0.000000 0.000000 0.000000
# 4 0.000000 0.000000 0.000000 0.052559 0.000000 0.000000
# 5 0.000000 0.000000 0.000000 0.000000 0.095389 0.000000
# 6 0.000000 0.000000 0.000000 0.000000 0.000000 0.151773
#
#
# Mechanical properties :
#
#
# Convention : Reuss Voigt Hill
#
# Bulk Modulus (GPa) = 19.43839 44.66018 32.04929
# Shear Modulus (GPa) = 12.30692 20.35286 16.32989
#
# Velocity S-wave (km/s) = 2.48518 3.19593 2.86270
# Velocity P-wave (km/s) = 4.24145 6.00258 5.19716
#
# Compressibility (1/GPa) = 0.05144459
#
# Stress axis : x y z
#
# Youngs Moduli (GPa) = 29.71957 95.48412 38.01585
#
# Poissons Ratio (x) = 0.14381 -0.11112
# Poissons Ratio (y) = 0.04476 0.41465
# Poissons Ratio (z) = -0.08687 1.04147
#
# Static dielectric constant tensor:
#      x y z
#    x 1.779440 0.000000 0.000000 
#    y 0.000000 1.732860 0.000000 
#    z 0.000000 0.000000 1.674270 
# 
# From -- ./inp_files/21065.got.cif
#   From: 2010.05.17/outbox.cif.g08.bks.cpg/sg59_11_cif.got.tgz:21065.got - 2010.06.03 14:40:33.
