data_PCOD9447075
_publ_section_title
;
Structure prediction by ZEFSAII (Michael W. Deem and Ramdas Pophale) SiO2 
 PCOD9447075
Probable space group: P M M N
;
_chemical_formula_sum "Si O2"
_cell_formula_units_Z 64
_cell_length_a 8.076421
_cell_length_b 29.711448
_cell_length_c 13.011662
_cell_angle_alpha 90.000000
_cell_angle_beta 90.000000
_cell_angle_gamma 90.000000
_cell_volume 3122.306552
_symmetry_space_group_name_H-M "P M M N"
_symmetry_group_IT_number 59
_space_group.IT_coordinate_system_code '2'
_symmetry_cell_setting 'orthorhombic'
loop_
_space_group_symop_operation_xyz
x,y,z
1/2-x,1/2-y,z
1/2+x,-y,-z
-x,1/2+y,-z
-x,-y,-z
1/2+x,1/2+y,-z
1/2-x,y,z
x,1/2-y,z
loop_
_atom_site_type_symbol
_atom_site_label
_atom_site_fract_x
_atom_site_fract_y
_atom_site_fract_z
Si Si1 0.949002 0.550622 0.020188
Si Si2 0.952796 0.633066 0.885683
Si Si3 0.446561 0.700307 0.500109
Si Si4 0.053324 0.122624 0.344719
Si Si5 0.049700 0.158700 0.710537
Si Si6 0.452273 0.060295 0.747971
Si Si7 0.947428 0.479225 0.391259
Si Si8 0.452240 0.301853 0.931037
O O1 0.750000 0.553359 0.021108
O O2 0.006518 0.563617 0.134080
O O3 0.006694 0.585422 0.934104
O O4 0.000000 0.500000 0.000000
O O5 0.750000 0.634221 0.884336
O O6 0.011962 0.636162 0.768622
O O7 0.005655 0.670754 0.967930
O O8 0.250000 0.701502 0.511162
O O9 0.513999 0.750000 0.527240
O O10 0.508842 0.660015 0.571590
O O11 0.488138 0.689172 0.382089
O O12 0.250000 0.121388 0.337457
O O13 0.000748 0.072106 0.374735
O O14 0.250000 0.159879 0.709707
O O15 0.997772 0.106746 0.693533
O O16 0.995832 0.175438 0.823392
O O17 0.250000 0.059358 0.747309
O O18 0.511280 0.014538 0.694636
O O19 0.750000 0.479802 0.386324
O O20 0.000000 0.500000 0.500000
O O21 0.250000 0.302944 0.930635
O O22 0.504123 0.250000 0.934204
#
# Coordination Sequence:
#
# PCOD9447075 Si02
#       8
#     8   8   8   8   8   8   8   8
#     4  10  18  32  52  77 110 147 185 227 276 330
#     4   9  18  33  53  80 116 151 187 236 290 342
#     4  11  25  43  61  83 114 152 193 245 308 365
#     4  11  23  39  60  86 117 155 200 250 297 350
#     4  10  18  34  61  91 118 147 191 245 295 351
#     4   9  18  32  54  81 114 152 189 229 281 344
#     4  11  22  37  57  84 118 160 204 248 297 352
#     4   9  16  28  52  86 118 148 186 237 297 351
#
# _framework density 20.497667
#
# number of rings (size 3 to 8) (size 9 to 14) (size 15 to 20)
#    0.000    2.000    1.250    3.000    0.000    3.000 
#    0.000    3.750    0.000    1.500    0.000    1.750 
#    0.000    0.000    0.000    0.000    0.000    0.000 
#
# Total GULP energy -357403.092985 kJ/mol
# GULP energy per Si atom -5584.423328 kJ/mol
# Density = 2.045101 g / cm^3
# Si number density = 20.497667 Si / 1000 Ang^3
#
#
#
# Elastic Constant Matrix: (Units=GPa)
#
#
# Indices 1 2 3 4 5 6 
#
# 1 19.8817 13.4759 11.7460 0.0000 0.0000 0.0000
# 2 13.4759 170.2334 68.2556 0.0000 0.0000 0.0000
# 3 11.7460 68.2556 135.6232 0.0000 0.0000 0.0000
# 4 0.0000 0.0000 0.0000 35.3027 0.0000 0.0000
# 5 0.0000 0.0000 0.0000 0.0000 6.1233 0.0000
# 6 0.0000 0.0000 0.0000 0.0000 0.0000 17.6846
#
#
#
# Elastic Compliance Matrix: (Units=1/GPa)
#
#
# Indices 1 2 3 4 5 6 
#
# 1 0.054220 -0.003018 -0.003177 0.000000 0.000000 0.000000
# 2 -0.003018 0.007527 -0.003527 0.000000 0.000000 0.000000
# 3 -0.003177 -0.003527 0.009423 0.000000 0.000000 0.000000
# 4 0.000000 0.000000 0.000000 0.028326 0.000000 0.000000
# 5 0.000000 0.000000 0.000000 0.000000 0.163310 0.000000
# 6 0.000000 0.000000 0.000000 0.000000 0.000000 0.056546
#
#
# Mechanical properties :
#
#
# Convention : Reuss Voigt Hill
#
# Bulk Modulus (GPa) = 19.33233 56.96590 38.14912
# Shear Modulus (GPa) = 14.04335 27.30619 20.67477
#
# Velocity S-wave (km/s) = 2.62032 3.65384 3.17936
# Velocity P-wave (km/s) = 4.31355 6.75666 5.66830
#
# Compressibility (1/GPa) = 0.05172681
#
# Stress axis : x y z
#
# Youngs Moduli (GPa) = 18.44334 132.84890 106.11774
#
# Poissons Ratio (x) = 0.40099 0.33711
# Poissons Ratio (y) = 0.05567 0.37427
# Poissons Ratio (z) = 0.05859 0.46854
#
# Static dielectric constant tensor:
#      x y z
#    x 1.737760 0.000000 0.000000 
#    y 0.000000 1.720370 0.000000 
#    z 0.000000 0.000000 1.730480 
# 
# From -- ./inp_files/15035.got.cif
#   From: 2010.05.17/outbox.cif.g08.bks.cpg/sg59_8_cif.got.tgz:15035.got - 2010.06.03 14:40:33.
