data_PCOD9447635
_publ_section_title
;
Structure prediction by ZEFSAII (Michael W. Deem and Ramdas Pophale) SiO2 
 PCOD9447635
Probable space group: P M M N
;
_chemical_formula_sum "Si O2"
_cell_formula_units_Z 48
_cell_length_a 22.041941
_cell_length_b 26.810753
_cell_length_c 5.005034
_cell_angle_alpha 90.000000
_cell_angle_beta 90.000000
_cell_angle_gamma 90.000000
_cell_volume 2957.780077
_symmetry_space_group_name_H-M "P M M N"
_symmetry_group_IT_number 59
_space_group.IT_coordinate_system_code '2'
_symmetry_cell_setting 'orthorhombic'
loop_
_space_group_symop_operation_xyz
x,y,z
1/2-x,1/2-y,z
1/2+x,-y,-z
-x,1/2+y,-z
-x,-y,-z
1/2+x,1/2+y,-z
1/2-x,y,z
x,1/2-y,z
loop_
_atom_site_type_symbol
_atom_site_label
_atom_site_fract_x
_atom_site_fract_y
_atom_site_fract_z
Si Si1 0.023757 0.405628 0.581680
Si Si2 0.321703 0.904940 0.833518
Si Si3 0.556278 0.537072 0.935286
Si Si4 0.386802 0.947053 0.337901
Si Si5 0.392006 0.693338 0.731763
Si Si6 0.476393 0.693324 0.226675
O O1 0.037735 0.420883 0.279362
O O2 0.022711 0.348142 0.668062
O O3 0.954390 0.424227 0.632154
O O4 0.067086 0.436474 0.782237
O O5 0.250000 0.911061 0.823390
O O6 0.355068 0.941649 0.623759
O O7 0.348015 0.915940 0.125753
O O8 0.341852 0.848923 0.757801
O O9 0.604861 0.501751 0.790209
O O10 0.500000 0.500000 0.000000
O O11 0.371568 0.750000 0.790754
O O12 0.446509 0.681490 0.940269
O O13 0.421246 0.692405 0.439033
O O14 0.500269 0.750000 0.219987
#
# Coordination Sequence:
#
# PCOD9447635 Si02
#       6
#     8   8   8   8   8   8
#     4  11  17  31  50  68  90 114 148 185 228 278
#     4  12  22  33  48  64  85 122 157 197 243 269
#     4  10  20  29  48  71  86 114 144 184 240 272
#     4  11  20  34  46  64  93 110 149 199 228 276
#     4  10  19  33  46  61  84 118 156 200 239 266
#     4  10  19  30  48  67  90 120 148 184 234 272
#
# _framework density 16.228386
#
# number of rings (size 3 to 8) (size 9 to 14) (size 15 to 20)
#    0.000    1.333    3.333    6.500    0.000    0.333 
#    0.000    0.000    0.000    5.000    0.000    0.000 
#    0.000    0.000    0.000    0.000    0.000   58.333 
#
# Total GULP energy -267761.230113 kJ/mol
# GULP energy per Si atom -5578.358961 kJ/mol
# Density = 1.619145 g / cm^3
# Si number density = 16.228386 Si / 1000 Ang^3
#
#
#
# Elastic Constant Matrix: (Units=GPa)
#
#
# Indices 1 2 3 4 5 6 
#
# 1 19.9963 16.2622 -1.2931 0.0000 0.0000 0.0000
# 2 16.2622 46.9578 -7.8561 0.0000 0.0000 0.0000
# 3 -1.2931 -7.8561 68.8363 0.0000 0.0000 0.0000
# 4 0.0000 0.0000 0.0000 24.9825 0.0000 0.0000
# 5 0.0000 0.0000 0.0000 0.0000 7.5071 0.0000
# 6 0.0000 0.0000 0.0000 0.0000 0.0000 11.4472
#
#
#
# Elastic Compliance Matrix: (Units=1/GPa)
#
#
# Indices 1 2 3 4 5 6 
#
# 1 0.069763 -0.024407 -0.001475 0.000000 0.000000 0.000000
# 2 -0.024407 0.030249 0.002994 0.000000 0.000000 0.000000
# 3 -0.001475 0.002994 0.014841 0.000000 0.000000 0.000000
# 4 0.000000 0.000000 0.000000 0.040028 0.000000 0.000000
# 5 0.000000 0.000000 0.000000 0.000000 0.133207 0.000000
# 6 0.000000 0.000000 0.000000 0.000000 0.000000 0.087358
#
#
# Mechanical properties :
#
#
# Convention : Reuss Voigt Hill
#
# Bulk Modulus (GPa) = 14.47654 16.66849 15.57251
# Shear Modulus (GPa) = 11.25500 17.36586 14.31043
#
# Velocity S-wave (km/s) = 2.63637 3.27477 2.97276
# Velocity P-wave (km/s) = 4.26698 4.95907 4.62598
#
# Compressibility (1/GPa) = 0.06907729
#
# Stress axis : x y z
#
# Youngs Moduli (GPa) = 14.33424 33.05900 67.38012
#
# Poissons Ratio (x) = 0.80686 0.09938
# Poissons Ratio (y) = 0.34985 -0.20172
# Poissons Ratio (z) = 0.02114 -0.09897
#
# Static dielectric constant tensor:
#      x y z
#    x 1.521400 0.000000 0.000000 
#    y 0.000000 1.612560 0.000000 
#    z 0.000000 0.000000 1.566910 
# 
# From -- ./inp_files/2989.got.cif
#   From: 2010.05.17/outbox.cif.g08.bks.cpg/sg59_2_cif.got.tgz:2989.got - 2010.06.03 14:40:33.
