data_PCOD9447888
_publ_section_title
;
Structure prediction by ZEFSAII (Michael W. Deem and Ramdas Pophale) SiO2 
 PCOD9447888
Probable space group: P M M N
;
_chemical_formula_sum "Si O2"
_cell_formula_units_Z 64
_cell_length_a 31.972059
_cell_length_b 8.848573
_cell_length_c 12.654225
_cell_angle_alpha 90.000000
_cell_angle_beta 90.000000
_cell_angle_gamma 90.000000
_cell_volume 3579.970072
_symmetry_space_group_name_H-M "P M M N"
_symmetry_group_IT_number 59
_space_group.IT_coordinate_system_code '2'
_symmetry_cell_setting 'orthorhombic'
loop_
_space_group_symop_operation_xyz
x,y,z
1/2-x,1/2-y,z
1/2+x,-y,-z
-x,1/2+y,-z
-x,-y,-z
1/2+x,1/2+y,-z
1/2-x,y,z
x,1/2-y,z
loop_
_atom_site_type_symbol
_atom_site_label
_atom_site_fract_x
_atom_site_fract_y
_atom_site_fract_z
Si Si1 0.114542 0.428240 0.817436
Si Si2 0.931464 0.930330 0.846573
Si Si3 0.519721 0.425081 0.398589
Si Si4 0.797238 0.431744 0.797397
Si Si5 0.982965 0.929040 0.176205
Si Si6 0.394515 0.428278 0.577958
Si Si7 0.857031 0.070397 0.982083
Si Si8 0.129492 0.070420 0.338925
O O1 0.116162 0.250000 0.841931
O O2 0.065712 0.476989 0.837757
O O3 0.126307 0.444022 0.693576
O O4 0.143483 0.518423 0.897382
O O5 0.934801 0.750000 0.849266
O O6 0.911723 0.974446 0.730738
O O7 0.896367 0.988270 0.927209
O O8 0.976749 0.996221 0.878130
O O9 0.500000 0.500000 0.500000
O O10 0.508224 0.250000 0.384410
O O11 0.508381 0.523003 0.296984
O O12 0.568700 0.450456 0.415121
O O13 0.750000 0.488185 0.783617
O O14 0.796568 0.250000 0.790151
O O15 0.816688 0.470629 0.911977
O O16 0.830410 0.492235 0.712657
O O17 0.984317 0.750000 0.160759
O O18 0.409498 0.250000 0.575748
O O19 0.373254 0.454547 0.464735
O O20 0.863056 0.250000 0.974711
O O21 0.133404 0.250000 0.323003
#
# Coordination Sequence:
#
# PCOD9447888 Si02
#       8
#     8   8   8   8   8   8   8   8
#     4   9  19  34  50  69  98 136 174 213 253 291
#     4  10  19  31  49  73 101 132 169 215 263 307
#     4  11  20  29  43  64  92 129 173 216 254 293
#     4   9  19  36  57  81 106 128 153 194 249 302
#     4  10  20  33  47  66  95 132 174 218 261 301
#     4   9  18  33  50  70  99 132 165 204 249 294
#     4  10  20  34  53  74  98 131 170 210 251 300
#     4   9  18  32  52  78 104 130 161 199 247 302
#
# _framework density 17.877246
#
# number of rings (size 3 to 8) (size 9 to 14) (size 15 to 20)
#    0.000    2.375    0.000    3.750    0.000    5.750 
#    0.000    0.000    0.000    0.750    0.000    3.500 
#    0.000    0.000    0.000    0.000    0.000    0.000 
#
# Total GULP energy -356537.341156 kJ/mol
# GULP energy per Si atom -5570.895956 kJ/mol
# Density = 1.783656 g / cm^3
# Si number density = 17.877246 Si / 1000 Ang^3
#
#
#
# Elastic Constant Matrix: (Units=GPa)
#
#
# Indices 1 2 3 4 5 6 
#
# 1 70.9209 20.5258 29.7834 0.0000 0.0000 0.0000
# 2 20.5258 23.5038 22.0448 0.0000 0.0000 0.0000
# 3 29.7834 22.0448 77.5175 0.0000 0.0000 0.0000
# 4 0.0000 0.0000 0.0000 26.3038 0.0000 0.0000
# 5 0.0000 0.0000 0.0000 0.0000 13.0548 0.0000
# 6 0.0000 0.0000 0.0000 0.0000 0.0000 20.1321
#
#
#
# Elastic Compliance Matrix: (Units=1/GPa)
#
#
# Indices 1 2 3 4 5 6 
#
# 1 0.019591 -0.013704 -0.003630 0.000000 0.000000 0.000000
# 2 -0.013704 0.067609 -0.013962 0.000000 0.000000 0.000000
# 3 -0.003630 -0.013962 0.018265 0.000000 0.000000 0.000000
# 4 0.000000 0.000000 0.000000 0.038017 0.000000 0.000000
# 5 0.000000 0.000000 0.000000 0.000000 0.076600 0.000000
# 6 0.000000 0.000000 0.000000 0.000000 0.000000 0.049672
#
#
# Mechanical properties :
#
#
# Convention : Reuss Voigt Hill
#
# Bulk Modulus (GPa) = 23.32408 35.18334 29.25371
# Shear Modulus (GPa) = 14.42429 18.53735 16.48082
#
# Velocity S-wave (km/s) = 2.84360 3.22362 3.03955
# Velocity P-wave (km/s) = 4.88431 5.79473 5.35889
#
# Compressibility (1/GPa) = 0.04287414
#
# Stress axis : x y z
#
# Youngs Moduli (GPa) = 51.04439 14.79092 54.74823
#
# Poissons Ratio (x) = 0.20270 0.19873
# Poissons Ratio (y) = 0.69952 0.76438
# Poissons Ratio (z) = 0.18528 0.20651
#
# Static dielectric constant tensor:
#      x y z
#    x 1.625410 0.000000 0.000000 
#    y 0.000000 1.597490 0.000000 
#    z 0.000000 0.000000 1.624690 
# 
# From -- ./inp_files/19308.got.cif
#   From: 2010.05.17/outbox.cif.g08.bks.cpg/sg59_10_cif.got.tgz:19308.got - 2010.06.03 14:40:33.
