data_PCOD9447812
_publ_section_title
;
Structure prediction by ZEFSAII (Michael W. Deem and Ramdas Pophale) SiO2 
 PCOD9447812
Probable space group: P M M N
;
_chemical_formula_sum "Si O2"
_cell_formula_units_Z 64
_cell_length_a 20.027113
_cell_length_b 7.617649
_cell_length_c 20.997861
_cell_angle_alpha 90.000000
_cell_angle_beta 90.000000
_cell_angle_gamma 90.000000
_cell_volume 3203.423539
_symmetry_space_group_name_H-M "P M M N"
_symmetry_group_IT_number 59
_space_group.IT_coordinate_system_code '2'
_symmetry_cell_setting 'orthorhombic'
loop_
_space_group_symop_operation_xyz
x,y,z
1/2-x,1/2-y,z
1/2+x,-y,-z
-x,1/2+y,-z
-x,-y,-z
1/2+x,1/2+y,-z
1/2-x,y,z
x,1/2-y,z
loop_
_atom_site_type_symbol
_atom_site_label
_atom_site_fract_x
_atom_site_fract_y
_atom_site_fract_z
Si Si1 0.826573 0.958377 0.611988
Si Si2 0.175221 0.035055 0.157123
Si Si3 0.957274 0.535672 0.091726
Si Si4 0.602553 0.955651 0.963731
Si Si5 0.826220 0.540511 0.333387
Si Si6 0.917849 0.962564 0.727362
Si Si7 0.434006 0.458260 0.765361
Si Si8 0.826100 0.041062 0.472512
O O1 0.750000 0.029366 0.615422
O O2 0.821190 0.750000 0.622381
O O3 0.876195 0.026314 0.666177
O O4 0.854251 0.984846 0.540598
O O5 0.250000 0.983094 0.174967
O O6 0.173454 0.250000 0.156432
O O7 0.155200 0.971495 0.086762
O O8 0.121544 0.978196 0.209378
O O9 0.958897 0.750000 0.091148
O O10 0.938948 0.473404 0.162291
O O11 0.030864 0.473783 0.071180
O O12 0.908187 0.474387 0.034983
O O13 0.618059 0.750000 0.971196
O O14 0.750000 0.470174 0.331009
O O15 0.922515 0.750000 0.228441
O O16 0.874987 0.469506 0.278939
O O17 0.855267 0.510864 0.404365
O O18 0.917272 0.750000 0.726892
O O19 0.994447 0.017357 0.732025
O O20 0.321870 0.250000 0.674680
O O21 0.750000 0.968569 0.471961
O O22 0.823277 0.250000 0.473451
#
# Coordination Sequence:
#
# PCOD9447812 Si02
#       8
#     8   8   8   8   8   8   8   8
#     4   9  17  30  49  72  98 130 165 199 236 281
#     4   9  16  27  45  70  99 128 162 204 241 275
#     4   9  17  29  46  68  95 123 155 196 240 284
#     4   9  16  28  47  69  91 122 163 198 233 279
#     4   9  18  34  54  72  92 123 160 197 243 298
#     4  10  19  31  48  71  98 130 167 200 234 283
#     4  10  20  33  49  71  99 128 158 199 247 291
#     4   9  17  30  50  75  99 123 156 200 244 287
#
# _framework density 19.978625000000001
#
# number of rings (size 3 to 8) (size 9 to 14) (size 15 to 20)
#    0.000    2.750    1.250    0.750    0.000    4.000 
#    0.000    1.250    0.000    6.000    0.000    0.000 
#    0.000    3.000    0.000    0.000    0.000    0.000 
#
# Total GULP energy -356744.558107 kJ/mol
# GULP energy per Si atom -5574.133720 kJ/mol
# Density = 1.993315 g / cm^3
# Si number density = 19.978625 Si / 1000 Ang^3
#
#
#
# Elastic Constant Matrix: (Units=GPa)
#
#
# Indices 1 2 3 4 5 6 
#
# 1 74.5374 -5.5984 57.6491 0.0000 0.0000 0.0000
# 2 -5.5984 40.3602 -4.6390 0.0000 0.0000 0.0000
# 3 57.6491 -4.6390 165.9609 0.0000 0.0000 0.0000
# 4 0.0000 0.0000 0.0000 4.2686 0.0000 0.0000
# 5 0.0000 0.0000 0.0000 0.0000 29.4840 0.0000
# 6 0.0000 0.0000 0.0000 0.0000 0.0000 12.4698
#
#
#
# Elastic Compliance Matrix: (Units=1/GPa)
#
#
# Indices 1 2 3 4 5 6 
#
# 1 0.018478 0.001831 -0.006368 0.000000 0.000000 0.000000
# 2 0.001831 0.025038 0.000064 0.000000 0.000000 0.000000
# 3 -0.006368 0.000064 0.008239 0.000000 0.000000 0.000000
# 4 0.000000 0.000000 0.000000 0.234268 0.000000 0.000000
# 5 0.000000 0.000000 0.000000 0.000000 0.033917 0.000000
# 6 0.000000 0.000000 0.000000 0.000000 0.000000 0.080193
#
#
# Mechanical properties :
#
#
# Convention : Reuss Voigt Hill
#
# Bulk Modulus (GPa) = 23.35861 41.74243 32.55052
# Shear Modulus (GPa) = 11.81057 24.80762 18.30909
#
# Velocity S-wave (km/s) = 2.43402 3.52761 3.03055
# Velocity P-wave (km/s) = 4.42904 6.12625 5.34544
#
# Compressibility (1/GPa) = 0.04281077
#
# Stress axis : x y z
#
# Youngs Moduli (GPa) = 54.11700 39.93893 121.37124
#
# Poissons Ratio (x) = -0.07314 0.77284
# Poissons Ratio (y) = -0.09910 -0.00774
# Poissons Ratio (z) = 0.34460 -0.00255
#
# Static dielectric constant tensor:
#      x y z
#    x 1.684000 0.000000 0.000000 
#    y 0.000000 1.804570 0.000000 
#    z 0.000000 0.000000 1.737460 
# 
# From -- ./inp_files/30835.got.cif
#   From: 2010.05.17/outbox.cif.g08.bks.cpg/sg59_16_cif.got.tgz:30835.got - 2010.06.03 14:40:33.
