data_PCOD9447787
_publ_section_title
;
Structure prediction by ZEFSAII (Michael W. Deem and Ramdas Pophale) SiO2 
 PCOD9447787
Probable space group: P M M N
;
_chemical_formula_sum "Si O2"
_cell_formula_units_Z 64
_cell_length_a 8.905178
_cell_length_b 20.019553
_cell_length_c 22.462783
_cell_angle_alpha 90.000000
_cell_angle_beta 90.000000
_cell_angle_gamma 90.000000
_cell_volume 4004.612906
_symmetry_space_group_name_H-M "P M M N"
_symmetry_group_IT_number 59
_space_group.IT_coordinate_system_code '2'
_symmetry_cell_setting 'orthorhombic'
loop_
_space_group_symop_operation_xyz
x,y,z
1/2-x,1/2-y,z
1/2+x,-y,-z
-x,1/2+y,-z
-x,-y,-z
1/2+x,1/2+y,-z
1/2-x,y,z
x,1/2-y,z
loop_
_atom_site_type_symbol
_atom_site_label
_atom_site_fract_x
_atom_site_fract_y
_atom_site_fract_z
Si Si1 0.921444 0.106219 0.981862
Si Si2 0.069369 0.676077 0.517693
Si Si3 0.069493 0.043340 0.678194
Si Si4 0.069265 0.954227 0.194830
Si Si5 0.571479 0.824872 0.388357
Si Si6 0.570054 0.827203 0.128568
Si Si7 0.568542 0.034864 0.441466
Si Si8 0.077535 0.037426 0.085495
O O1 0.750000 0.129739 0.984098
O O2 0.017139 0.153147 0.938237
O O3 0.921789 0.033107 0.950356
O O4 0.986658 0.090989 0.047072
O O5 0.250000 0.677176 0.516833
O O6 0.016111 0.750000 0.536289
O O7 0.023395 0.612630 0.556443
O O8 0.012164 0.664411 0.450611
O O9 0.250000 0.037217 0.686179
O O10 0.033757 0.119211 0.659100
O O11 0.986358 0.029348 0.739355
O O12 0.025426 0.999629 0.620563
O O13 0.250000 0.950090 0.191350
O O14 0.002679 0.883531 0.171351
O O15 0.019639 0.013199 0.149551
O O16 0.750000 0.830110 0.400363
O O17 0.538889 0.750000 0.367369
O O18 0.750000 0.832772 0.132714
O O19 0.528245 0.750000 0.141843
O O20 0.750000 0.029721 0.446017
O O21 0.500000 0.000000 0.500000
O O22 0.250000 0.059746 0.090297
#
# Coordination Sequence:
#
# PCOD9447787 Si02
#       8
#     8   8   8   8   8   8   8   8
#     4   9  16  26  45  71  94 119 152 192 233 269
#     4   9  17  29  46  68  92 117 147 187 236 288
#     4  10  20  32  45  65  93 125 162 201 244 298
#     4  10  21  34  48  67  92 125 163 203 241 281
#     4   9  17  29  44  62  87 119 153 189 231 284
#     4  10  20  33  49  69  97 134 168 196 230 274
#     4  10  19  31  48  70  95 122 155 199 250 299
#     4   8  15  28  44  64  90 117 149 190 235 278
#
# _framework density 15.981569
#
# number of rings (size 3 to 8) (size 9 to 14) (size 15 to 20)
#    0.000    2.625    1.250    1.875    0.000    6.000 
#    0.000    1.250    0.000    0.000    0.000    0.875 
#    0.000    3.000    0.000    0.000    0.000    0.000 
#
# Total GULP energy -356456.066128 kJ/mol
# GULP energy per Si atom -5569.626033 kJ/mol
# Density = 1.594519 g / cm^3
# Si number density = 15.981569 Si / 1000 Ang^3
#
#
#
# Elastic Constant Matrix: (Units=GPa)
#
#
# Indices 1 2 3 4 5 6 
#
# 1 27.6695 16.3016 29.5673 0.0000 0.0000 0.0000
# 2 16.3016 45.7653 46.7222 0.0000 0.0000 0.0000
# 3 29.5673 46.7222 116.0725 0.0000 0.0000 0.0000
# 4 0.0000 0.0000 0.0000 15.9214 0.0000 0.0000
# 5 0.0000 0.0000 0.0000 0.0000 25.7091 0.0000
# 6 0.0000 0.0000 0.0000 0.0000 0.0000 16.0653
#
#
#
# Elastic Compliance Matrix: (Units=1/GPa)
#
#
# Indices 1 2 3 4 5 6 
#
# 1 0.051494 -0.008405 -0.009734 0.000000 0.000000 0.000000
# 2 -0.008405 0.038466 -0.013343 0.000000 0.000000 0.000000
# 3 -0.009734 -0.013343 0.016466 0.000000 0.000000 0.000000
# 4 0.000000 0.000000 0.000000 0.062809 0.000000 0.000000
# 5 0.000000 0.000000 0.000000 0.000000 0.038897 0.000000
# 6 0.000000 0.000000 0.000000 0.000000 0.000000 0.062246
#
#
# Mechanical properties :
#
#
# Convention : Reuss Voigt Hill
#
# Bulk Modulus (GPa) = 23.00800 41.63217 32.32009
# Shear Modulus (GPa) = 14.37494 18.00023 16.18759
#
# Velocity S-wave (km/s) = 3.00237 3.35970 3.18605
# Velocity P-wave (km/s) = 5.14265 6.41535 5.81393
#
# Compressibility (1/GPa) = 0.04346315
#
# Stress axis : x y z
#
# Youngs Moduli (GPa) = 19.41968 25.99704 60.73250
#
# Poissons Ratio (x) = 0.21849 0.59118
# Poissons Ratio (y) = 0.16321 0.81033
# Poissons Ratio (z) = 0.18903 0.34687
#
# Static dielectric constant tensor:
#      x y z
#    x 1.542340 0.000000 0.000000 
#    y 0.000000 1.550410 0.000000 
#    z 0.000000 0.000000 1.529660 
# 
# From -- ./inp_files/29675.got.cif
#   From: 2010.05.17/outbox.cif.g08.bks.cpg/sg59_15_cif.got.tgz:29675.got - 2010.06.03 14:40:33.
