data_PCOD9447174
_publ_section_title
;
Structure prediction by ZEFSAII (Michael W. Deem and Ramdas Pophale) SiO2 
 PCOD9447174
Probable space group: P M M N
;
_chemical_formula_sum "Si O2"
_cell_formula_units_Z 64
_cell_length_a 9.204482
_cell_length_b 29.850017
_cell_length_c 11.944066
_cell_angle_alpha 90.000000
_cell_angle_beta 90.000000
_cell_angle_gamma 90.000000
_cell_volume 3281.679243
_symmetry_space_group_name_H-M "P M M N"
_symmetry_group_IT_number 59
_space_group.IT_coordinate_system_code '2'
_symmetry_cell_setting 'orthorhombic'
loop_
_space_group_symop_operation_xyz
x,y,z
1/2-x,1/2-y,z
1/2+x,-y,-z
-x,1/2+y,-z
-x,-y,-z
1/2+x,1/2+y,-z
1/2-x,y,z
x,1/2-y,z
loop_
_atom_site_type_symbol
_atom_site_label
_atom_site_fract_x
_atom_site_fract_y
_atom_site_fract_z
Si Si1 0.079079 0.619341 0.367904
Si Si2 0.586293 0.800421 0.255507
Si Si3 0.579079 0.119341 0.367904
Si Si4 0.421704 0.452494 0.223312
Si Si5 0.003565 0.200848 0.000000
Si Si6 0.586293 0.800421 0.744493
Si Si7 0.077251 0.393672 0.000000
Si Si8 0.921704 0.547506 0.223312
O O1 0.250000 0.612866 0.347739
O O2 0.055500 0.625465 0.500000
O O3 0.022778 0.663057 0.302347
O O4 0.991240 0.577008 0.321545
O O5 0.750000 0.812635 0.289773
O O6 0.553392 0.750000 0.295263
O O7 0.582278 0.798462 0.120274
O O8 0.750000 0.112866 0.347739
O O9 0.491240 0.077008 0.321545
O O10 0.522778 0.163057 0.302347
O O11 0.250000 0.458588 0.240251
O O12 0.442003 0.423596 0.109984
O O13 0.500000 0.500000 0.213447
O O14 0.923036 0.250000 0.000000
O O15 0.082278 0.201538 0.120274
O O16 0.963521 0.147863 0.000000
O O17 0.750000 0.812635 0.710227
O O18 0.553392 0.750000 0.704737
O O19 0.250000 0.378675 0.000000
O O20 0.057997 0.423596 0.890016
O O21 0.750000 0.541412 0.240251
#
# Coordination Sequence:
#
# PCOD9447174 Si02
#       8
#     8   8   8   8   8   8   8   8
#     4  11  25  43  61  84 118 161 206 252 303 354
#     4  10  20  36  62  93 124 160 201 245 295 355
#     4  11  25  43  61  84 118 161 206 252 303 354
#     4  11  23  41  65  92 122 155 197 246 301 362
#     4  10  18  32  60  97 131 159 191 236 295 359
#     4  10  20  36  62  93 124 160 201 245 295 355
#     4  10  19  34  60  94 127 159 192 236 295 357
#     4  11  23  41  65  92 122 155 197 246 301 362
#
# _framework density 19.502213000000001
#
# number of rings (size 3 to 8) (size 9 to 14) (size 15 to 20)
#    0.000    1.500    2.500    3.000    0.000    6.250 
#    0.000    6.250    0.000    2.250    0.000    0.000 
#    0.000    0.000    0.000    0.000    0.000    0.000 
#
# Total GULP energy -356827.169524 kJ/mol
# GULP energy per Si atom -5575.424524 kJ/mol
# Density = 1.945782 g / cm^3
# Si number density = 19.502213 Si / 1000 Ang^3
#
#
#
# Elastic Constant Matrix: (Units=GPa)
#
#
# Indices 1 2 3 4 5 6 
#
# 1 95.7506 74.4799 56.1962 0.0000 0.0000 0.0000
# 2 74.4799 137.5467 50.6190 0.0000 0.0000 0.0000
# 3 56.1962 50.6190 81.2917 0.0000 0.0000 0.0000
# 4 0.0000 0.0000 0.0000 5.9569 0.0000 0.0000
# 5 0.0000 0.0000 0.0000 0.0000 5.8530 0.0000
# 6 0.0000 0.0000 0.0000 0.0000 0.0000 27.8908
#
#
#
# Elastic Compliance Matrix: (Units=1/GPa)
#
#
# Indices 1 2 3 4 5 6 
#
# 1 0.023699 -0.008826 -0.010887 0.000000 0.000000 0.000000
# 2 -0.008826 0.012719 -0.001818 0.000000 0.000000 0.000000
# 3 -0.010887 -0.001818 0.020960 0.000000 0.000000 0.000000
# 4 0.000000 0.000000 0.000000 0.167873 0.000000 0.000000
# 5 0.000000 0.000000 0.000000 0.000000 0.170852 0.000000
# 6 0.000000 0.000000 0.000000 0.000000 0.000000 0.035854
#
#
# Mechanical properties :
#
#
# Convention : Reuss Voigt Hill
#
# Bulk Modulus (GPa) = 69.85931 75.24212 72.55071
# Shear Modulus (GPa) = 10.42122 16.82639 13.62381
#
# Velocity S-wave (km/s) = 2.31413 2.94052 2.64593
# Velocity P-wave (km/s) = 6.56043 7.08477 6.82764
#
# Compressibility (1/GPa) = 0.01431448
#
# Stress axis : x y z
#
# Youngs Moduli (GPa) = 42.19639 78.62489 47.71081
#
# Poissons Ratio (x) = 0.69395 0.51942
# Poissons Ratio (y) = 0.37243 0.08675
# Poissons Ratio (z) = 0.45939 0.14296
#
# Static dielectric constant tensor:
#      x y z
#    x 1.654700 0.000000 0.000000 
#    y 0.000000 1.699130 0.000000 
#    z 0.000000 0.000000 1.661780 
# 
# From -- ./inp_files/14931.got.cif
#   From: 2010.05.17/outbox.cif.g08.bks.cpg/sg59_8_cif.got.tgz:14931.got - 2010.06.03 14:40:33.
