data_PCOD9447290
_publ_section_title
;
Structure prediction by ZEFSAII (Michael W. Deem and Ramdas Pophale) SiO2 
 PCOD9447290
Probable space group: P M M N
;
_chemical_formula_sum "Si O2"
_cell_formula_units_Z 64
_cell_length_a 17.286021
_cell_length_b 14.560600
_cell_length_c 12.885403
_cell_angle_alpha 90.000000
_cell_angle_beta 90.000000
_cell_angle_gamma 90.000000
_cell_volume 3243.189413
_symmetry_space_group_name_H-M "P M M N"
_symmetry_group_IT_number 59
_space_group.IT_coordinate_system_code '2'
_symmetry_cell_setting 'orthorhombic'
loop_
_space_group_symop_operation_xyz
x,y,z
1/2-x,1/2-y,z
1/2+x,-y,-z
-x,1/2+y,-z
-x,-y,-z
1/2+x,1/2+y,-z
1/2-x,y,z
x,1/2-y,z
loop_
_atom_site_type_symbol
_atom_site_label
_atom_site_fract_x
_atom_site_fract_y
_atom_site_fract_z
Si Si1 0.486830 0.354052 0.765961
Si Si2 0.101226 0.650600 0.814318
Si Si3 0.164750 0.468825 0.724006
Si Si4 0.340449 0.356831 0.151246
Si Si5 0.015744 0.391860 0.006041
Si Si6 0.166993 0.914417 0.515818
Si Si7 0.489186 0.848665 0.598439
Si Si8 0.100840 0.005976 0.329753
O O1 0.497031 0.250000 0.726971
O O2 0.403406 0.396666 0.738276
O O3 0.549180 0.426655 0.722724
O O4 0.490980 0.353911 0.890688
O O5 0.142299 0.750000 0.809196
O O6 0.150240 0.558407 0.797251
O O7 0.042028 0.648955 0.717011
O O8 0.049701 0.645866 0.916780
O O9 0.250000 0.430971 0.744339
O O10 0.162442 0.510245 0.607793
O O11 0.250000 0.371301 0.124018
O O12 0.349063 0.250000 0.184089
O O13 0.400679 0.372966 0.057426
O O14 0.365136 0.425945 0.243047
O O15 0.000000 0.500000 0.000000
O O16 0.250000 0.866319 0.530814
O O17 0.088214 0.858064 0.530674
O O18 0.163274 0.959813 0.403585
O O19 0.526512 0.750000 0.578276
O O20 0.546727 0.933383 0.593641
#
# Coordination Sequence:
#
# PCOD9447290 Si02
#       8
#     8   8   8   8   8   8   8   8
#     4  12  25  39  60  88 119 164 212 246 292 364
#     4  10  18  34  62  90 116 149 192 247 299 351
#     4  10  21  40  59  85 123 157 196 247 306 361
#     4  11  23  39  65  98 127 157 199 253 309 363
#     4  12  20  40  63  88 120 162 203 248 300 357
#     4  10  22  39  60  87 121 158 195 247 310 363
#     4  10  19  34  62  91 115 152 200 250 299 358
#     4  12  21  41  61  90 124 161 201 253 305 361
#
# _framework density 19.733661000000001
#
# number of rings (size 3 to 8) (size 9 to 14) (size 15 to 20)
#    0.000    1.125    6.250    2.250    0.000    1.750 
#    0.000    3.125    0.000    2.625    0.000    0.000 
#    0.000    0.000    0.000    0.000    0.000    0.000 
#
# Total GULP energy -357296.208813 kJ/mol
# GULP energy per Si atom -5582.753263 kJ/mol
# Density = 1.968875 g / cm^3
# Si number density = 19.733661 Si / 1000 Ang^3
#
#
#
# Elastic Constant Matrix: (Units=GPa)
#
#
# Indices 1 2 3 4 5 6 
#
# 1 102.8510 41.3835 41.9656 0.0000 0.0000 0.0000
# 2 41.3835 130.8295 22.4736 0.0000 0.0000 0.0000
# 3 41.9656 22.4736 75.4025 0.0000 0.0000 0.0000
# 4 0.0000 0.0000 0.0000 -5.4140 0.0000 0.0000
# 5 0.0000 0.0000 0.0000 0.0000 14.8088 0.0000
# 6 0.0000 0.0000 0.0000 0.0000 0.0000 2.8124
#
#
#
# Elastic Compliance Matrix: (Units=1/GPa)
#
#
# Indices 1 2 3 4 5 6 
#
# 1 0.013740 -0.003196 -0.006695 0.000000 0.000000 0.000000
# 2 -0.003196 0.008800 -0.000844 0.000000 0.000000 0.000000
# 3 -0.006695 -0.000844 0.017240 0.000000 0.000000 0.000000
# 4 0.000000 0.000000 0.000000 -0.184705 0.000000 0.000000
# 5 0.000000 0.000000 0.000000 0.000000 0.067527 0.000000
# 6 0.000000 0.000000 0.000000 0.000000 0.000000 0.355572
#
#
# Mechanical properties :
#
#
# Convention : Reuss Voigt Hill
#
# Bulk Modulus (GPa) = 54.61470 57.85870 56.23670
# Shear Modulus (GPa) = 16.35343 15.99212 16.17278
#
# Velocity S-wave (km/s) = 2.88185 2.84984 2.86589
# Velocity P-wave (km/s) = 6.22972 6.34131 6.28576
#
# Compressibility (1/GPa) = 0.01831009
#
# Stress axis : x y z
#
# Youngs Moduli (GPa) = 72.77772 113.64247 58.00608
#
# Poissons Ratio (x) = 0.36324 0.38833
# Poissons Ratio (y) = 0.23262 0.04894
# Poissons Ratio (z) = 0.48722 0.09589
#
# Static dielectric constant tensor:
#      x y z
#    x 1.698620 0.000000 0.000000 
#    y 0.000000 1.722220 0.000000 
#    z 0.000000 0.000000 1.687760 
# 
# From -- ./inp_files/17841.got.cif
#   From: 2010.05.17/outbox.cif.g08.bks.cpg/sg59_9_cif.got.tgz:17841.got - 2010.06.03 14:40:33.
