data_PCOD9447207
_publ_section_title
;
Structure prediction by ZEFSAII (Michael W. Deem and Ramdas Pophale) SiO2 
 PCOD9447207
Probable space group: P M M N
;
_chemical_formula_sum "Si O2"
_cell_formula_units_Z 48
_cell_length_a 7.430273
_cell_length_b 16.508933
_cell_length_c 17.174810
_cell_angle_alpha 90.000000
_cell_angle_beta 90.000000
_cell_angle_gamma 90.000000
_cell_volume 2106.763168
_symmetry_space_group_name_H-M "P M M N"
_symmetry_group_IT_number 59
_space_group.IT_coordinate_system_code '2'
_symmetry_cell_setting 'orthorhombic'
loop_
_space_group_symop_operation_xyz
x,y,z
1/2-x,1/2-y,z
1/2+x,-y,-z
-x,1/2+y,-z
-x,-y,-z
1/2+x,1/2+y,-z
1/2-x,y,z
x,1/2-y,z
loop_
_atom_site_type_symbol
_atom_site_label
_atom_site_fract_x
_atom_site_fract_y
_atom_site_fract_z
Si Si1 0.042843 0.614928 0.330977
Si Si2 0.530915 0.342364 0.497381
Si Si3 0.543282 0.662662 0.162357
Si Si4 0.034701 0.503293 0.908589
Si Si5 0.030477 0.659104 0.812972
Si Si6 0.467865 0.571320 0.656925
O O1 0.250000 0.641762 0.329750
O O2 0.967325 0.636410 0.415964
O O3 0.954951 0.653858 0.255644
O O4 0.032807 0.518186 0.323269
O O5 0.750000 0.347664 0.498876
O O6 0.483884 0.250000 0.478552
O O7 0.469556 0.400642 0.428180
O O8 0.750000 0.664433 0.134876
O O9 0.461628 0.750000 0.141451
O O10 0.461712 0.579717 0.129290
O O11 0.250000 0.503520 0.894540
O O12 0.968307 0.586375 0.869131
O O13 0.000000 0.500000 0.000000
O O14 0.250000 0.660454 0.815722
O O15 0.969408 0.750000 0.832070
O O16 0.980418 0.633267 0.725109
O O17 0.250000 0.568438 0.656140
#
# Coordination Sequence:
#
# PCOD9447207 Si02
#       6
#     8   8   8   8   8   8
#     4  11  21  33  52  80 116 150 184 229 279 325
#     4   9  18  31  49  77 109 143 187 235 278 323
#     4  10  21  39  61  83 110 148 191 228 268 325
#     4  10  21  38  58  84 113 141 177 224 275 333
#     4   9  17  32  57  84 107 137 181 229 269 315
#     4  10  18  33  56  78 105 144 190 230 272 328
#
# _framework density 22.783764999999999
#
# number of rings (size 3 to 8) (size 9 to 14) (size 15 to 20)
#    0.000    2.167    1.667    2.000    0.000    4.333 
#    0.000    0.833    0.000    5.000    0.000    0.000 
#    0.000    0.000    0.000    0.000    0.000    0.000 
#
# Total GULP energy -268243.840649 kJ/mol
# GULP energy per Si atom -5588.413347 kJ/mol
# Density = 2.273191 g / cm^3
# Si number density = 22.783765 Si / 1000 Ang^3
#
#
#
# Elastic Constant Matrix: (Units=GPa)
#
#
# Indices 1 2 3 4 5 6 
#
# 1 73.2243 2.2073 -4.4245 0.0000 0.0000 0.0000
# 2 2.2073 182.5853 54.5603 0.0000 0.0000 0.0000
# 3 -4.4245 54.5603 112.0688 0.0000 0.0000 0.0000
# 4 0.0000 0.0000 0.0000 11.0385 0.0000 0.0000
# 5 0.0000 0.0000 0.0000 0.0000 4.7189 0.0000
# 6 0.0000 0.0000 0.0000 0.0000 0.0000 -12.7974
#
#
#
# Elastic Compliance Matrix: (Units=1/GPa)
#
#
# Indices 1 2 3 4 5 6 
#
# 1 0.013712 -0.000383 0.000728 0.000000 0.000000 0.000000
# 2 -0.000383 0.006420 -0.003141 0.000000 0.000000 0.000000
# 3 0.000728 -0.003141 0.010481 0.000000 0.000000 0.000000
# 4 0.000000 0.000000 0.000000 0.090592 0.000000 0.000000
# 5 0.000000 0.000000 0.000000 0.000000 0.211914 0.000000
# 6 0.000000 0.000000 0.000000 0.000000 0.000000 -0.078141
#
#
# Mechanical properties :
#
#
# Convention : Reuss Voigt Hill
#
# Bulk Modulus (GPa) = 39.96636 52.50717 46.23676
# Shear Modulus (GPa) = 18.59356 21.62770 20.11063
#
# Velocity S-wave (km/s) = 2.85982 3.08435 2.97421
# Velocity P-wave (km/s) = 5.33708 5.98165 5.66854
#
# Compressibility (1/GPa) = 0.02502104
#
# Stress axis : x y z
#
# Youngs Moduli (GPa) = 72.92773 155.76248 95.41192
#
# Poissons Ratio (x) = 0.05970 -0.06946
# Poissons Ratio (y) = 0.02795 0.29966
# Poissons Ratio (z) = -0.05309 0.48920
#
# Static dielectric constant tensor:
#      x y z
#    x 1.861960 0.000000 0.000000 
#    y 0.000000 1.838080 0.000000 
#    z 0.000000 0.000000 1.798880 
# 
# From -- ./inp_files/23669.got.cif
#   From: 2010.05.17/outbox.cif.g08.bks.cpg/sg59_12_cif.got.tgz:23669.got - 2010.06.03 14:40:33.
