data_PCOD9447077
_publ_section_title
;
Structure prediction by ZEFSAII (Michael W. Deem and Ramdas Pophale) SiO2 
 PCOD9447077
Probable space group: P M M N
;
_chemical_formula_sum "Si O2"
_cell_formula_units_Z 56
_cell_length_a 8.735419
_cell_length_b 22.093243
_cell_length_c 14.930779
_cell_angle_alpha 90.000000
_cell_angle_beta 90.000000
_cell_angle_gamma 90.000000
_cell_volume 2881.546801
_symmetry_space_group_name_H-M "P M M N"
_symmetry_group_IT_number 59
_space_group.IT_coordinate_system_code '2'
_symmetry_cell_setting 'orthorhombic'
loop_
_space_group_symop_operation_xyz
x,y,z
1/2-x,1/2-y,z
1/2+x,-y,-z
-x,1/2+y,-z
-x,-y,-z
1/2+x,1/2+y,-z
1/2-x,y,z
x,1/2-y,z
loop_
_atom_site_type_symbol
_atom_site_label
_atom_site_fract_x
_atom_site_fract_y
_atom_site_fract_z
Si Si1 0.434419 0.750000 0.230782
Si Si2 0.430797 0.570471 0.635183
Si Si3 0.933960 0.883916 0.457347
Si Si4 0.066032 0.250000 0.569988
Si Si5 0.066774 0.179303 0.256560
Si Si6 0.566353 0.681127 0.951766
Si Si7 0.933927 0.050360 0.713794
Si Si8 0.066374 0.871140 0.122884
O O1 0.250000 0.750000 0.241011
O O2 0.508714 0.750000 0.328074
O O3 0.478285 0.690107 0.176074
O O4 0.250000 0.561029 0.632207
O O5 0.496965 0.574786 0.535060
O O6 0.475037 0.633173 0.682773
O O7 0.508660 0.516155 0.689645
O O8 0.750000 0.887774 0.458979
O O9 0.981756 0.813829 0.472722
O O10 0.995458 0.905530 0.361453
O O11 0.250000 0.250000 0.569571
O O12 0.250000 0.169788 0.269073
O O13 0.036577 0.250000 0.275831
O O14 0.029608 0.168311 0.151799
O O15 0.750000 0.681830 0.958234
O O16 0.510982 0.750000 0.971591
O O17 0.501866 0.634923 0.024268
O O18 0.750000 0.053459 0.707802
O O19 0.979723 0.073795 0.812422
O O20 0.250000 0.871651 0.115459
#
# Coordination Sequence:
#
# PCOD9447077 Si02
#       8
#     4   8   8   4   8   8   8   8
#     4  10  18  32  52  81 120 155 188 235 288 336
#     4  12  26  42  61  86 114 151 198 245 293 346
#     4  11  23  40  61  87 119 156 196 239 289 346
#     4  10  22  36  56  87 118 151 190 235 286 340
#     4   9  20  41  65  88 116 150 191 241 293 345
#     4   9  18  33  57  88 119 152 189 232 287 347
#     4  11  23  41  61  84 117 160 200 240 287 342
#     4  10  20  33  55  86 120 155 190 231 285 342
#
# _framework density 19.434006
#
# number of rings (size 3 to 8) (size 9 to 14) (size 15 to 20)
#    0.000    1.714    2.143    3.429    1.000    3.143 
#    0.000    2.143    0.000    0.000    0.000    0.000 
#    0.000    0.000    0.000    0.000    0.000    0.000 
#
# Total GULP energy -312871.598684 kJ/mol
# GULP energy per Si atom -5586.992834 kJ/mol
# Density = 1.938977 g / cm^3
# Si number density = 19.434006 Si / 1000 Ang^3
#
#
#
# Elastic Constant Matrix: (Units=GPa)
#
#
# Indices 1 2 3 4 5 6 
#
# 1 36.3025 15.7345 18.5095 0.0000 0.0000 0.0000
# 2 15.7345 55.4532 10.0904 0.0000 0.0000 0.0000
# 3 18.5095 10.0904 54.0589 0.0000 0.0000 0.0000
# 4 0.0000 0.0000 0.0000 21.1496 0.0000 0.0000
# 5 0.0000 0.0000 0.0000 0.0000 33.1319 0.0000
# 6 0.0000 0.0000 0.0000 0.0000 0.0000 26.4500
#
#
#
# Elastic Compliance Matrix: (Units=1/GPa)
#
#
# Indices 1 2 3 4 5 6 
#
# 1 0.036832 -0.008443 -0.011035 0.000000 0.000000 0.000000
# 2 -0.008443 0.020603 -0.000955 0.000000 0.000000 0.000000
# 3 -0.011035 -0.000955 0.022455 0.000000 0.000000 0.000000
# 4 0.000000 0.000000 0.000000 0.047282 0.000000 0.000000
# 5 0.000000 0.000000 0.000000 0.000000 0.030182 0.000000
# 6 0.000000 0.000000 0.000000 0.000000 0.000000 0.037807
#
#
# Mechanical properties :
#
#
# Convention : Reuss Voigt Hill
#
# Bulk Modulus (GPa) = 25.62534 26.05373 25.83954
# Shear Modulus (GPa) = 20.07747 22.91163 21.49455
#
# Velocity S-wave (km/s) = 3.21769 3.43730 3.32931
# Velocity P-wave (km/s) = 5.19800 5.40266 5.30132
#
# Compressibility (1/GPa) = 0.03902387
#
# Stress axis : x y z
#
# Youngs Moduli (GPa) = 27.15019 48.53763 44.53361
#
# Poissons Ratio (x) = 0.40980 0.49144
# Poissons Ratio (y) = 0.22923 0.04252
# Poissons Ratio (z) = 0.29961 0.04634
#
# Static dielectric constant tensor:
#      x y z
#    x 1.649830 0.000000 0.000000 
#    y 0.000000 1.695760 0.000000 
#    z 0.000000 0.000000 1.668390 
# 
# From -- ./inp_files/21207.got.cif
#   From: 2010.05.17/outbox.cif.g08.bks.cpg/sg59_11_cif.got.tgz:21207.got - 2010.06.03 14:40:33.
