data_PCOD9447307
_publ_section_title
;
Structure prediction by ZEFSAII (Michael W. Deem and Ramdas Pophale) SiO2 
 PCOD9447307
Probable space group: P M M N
;
_chemical_formula_sum "Si O2"
_cell_formula_units_Z 64
_cell_length_a 31.651931
_cell_length_b 8.640383
_cell_length_c 12.206589
_cell_angle_alpha 90.000000
_cell_angle_beta 90.000000
_cell_angle_gamma 90.000000
_cell_volume 3338.316631
_symmetry_space_group_name_H-M "P M M N"
_symmetry_group_IT_number 59
_space_group.IT_coordinate_system_code '2'
_symmetry_cell_setting 'orthorhombic'
loop_
_space_group_symop_operation_xyz
x,y,z
1/2-x,1/2-y,z
1/2+x,-y,-z
-x,1/2+y,-z
-x,-y,-z
1/2+x,1/2+y,-z
1/2-x,y,z
x,1/2-y,z
loop_
_atom_site_type_symbol
_atom_site_label
_atom_site_fract_x
_atom_site_fract_y
_atom_site_fract_z
Si Si1 0.203465 0.938591 0.993828
Si Si2 0.122320 0.063763 0.379012
Si Si3 0.953792 0.064496 0.475587
Si Si4 0.546751 0.567796 0.012817
Si Si5 0.122011 0.563929 0.133620
Si Si6 0.296296 0.064008 0.516550
Si Si7 0.579811 0.432316 0.235314
Si Si8 0.180719 0.932854 0.750198
O O1 0.250000 0.985491 0.034203
O O2 0.202113 0.750000 0.992618
O O3 0.198035 0.988012 0.867340
O O4 0.163775 0.989228 0.066620
O O5 0.122081 0.250000 0.377874
O O6 0.164166 0.008225 0.444490
O O7 0.081183 0.005050 0.443430
O O8 0.122589 0.001691 0.255796
O O9 0.953394 0.250000 0.486051
O O10 0.940827 0.025861 0.351002
O O11 0.000000 0.000000 0.500000
O O12 0.545978 0.750000 0.992437
O O13 0.580412 0.490530 0.930845
O O14 0.500000 0.500000 0.000000
O O15 0.562440 0.530723 0.135268
O O16 0.122328 0.750000 0.136856
O O17 0.250000 0.008969 0.478631
O O18 0.296684 0.250000 0.510676
O O19 0.302418 0.015951 0.642606
O O20 0.571417 0.250000 0.212684
O O21 0.630137 0.450016 0.245434
O O22 0.190530 0.750000 0.740150
#
# Coordination Sequence:
#
# PCOD9447307 Si02
#       8
#     8   8   8   8   8   8   8   8
#     4   9  18  34  59  90 121 155 196 247 305 362
#     4  11  24  42  62  87 122 164 210 256 306 367
#     4  11  24  42  65  92 125 161 204 254 308 366
#     4  12  26  43  66  93 125 163 206 251 305 367
#     4  11  23  42  64  88 123 162 205 258 310 362
#     4  10  22  39  59  87 125 165 204 251 306 363
#     4  10  21  40  65  93 125 160 201 254 307 359
#     4  10  18  35  62  91 123 157 199 250 304 360
#
# _framework density 19.171337999999999
#
# number of rings (size 3 to 8) (size 9 to 14) (size 15 to 20)
#    0.000    1.500    2.500    2.625    1.750    3.250 
#    0.000    0.000    0.000    1.875    0.000    0.000 
#    0.000    0.000    0.000    0.000    0.000    0.000 
#
# Total GULP energy -357697.964688 kJ/mol
# GULP energy per Si atom -5589.030698 kJ/mol
# Density = 1.912770 g / cm^3
# Si number density = 19.171338 Si / 1000 Ang^3
#
#
#
# Elastic Constant Matrix: (Units=GPa)
#
#
# Indices 1 2 3 4 5 6 
#
# 1 170.6793 37.2676 86.0414 0.0000 0.0000 0.0000
# 2 37.2676 42.3593 39.8048 0.0000 0.0000 0.0000
# 3 86.0414 39.8048 142.0085 0.0000 0.0000 0.0000
# 4 0.0000 0.0000 0.0000 33.1097 0.0000 0.0000
# 5 0.0000 0.0000 0.0000 0.0000 42.1973 0.0000
# 6 0.0000 0.0000 0.0000 0.0000 0.0000 17.1588
#
#
#
# Elastic Compliance Matrix: (Units=1/GPa)
#
#
# Indices 1 2 3 4 5 6 
#
# 1 0.008849 -0.003730 -0.004316 0.000000 0.000000 0.000000
# 2 -0.003730 0.033621 -0.007164 0.000000 0.000000 0.000000
# 3 -0.004316 -0.007164 0.011665 0.000000 0.000000 0.000000
# 4 0.000000 0.000000 0.000000 0.030203 0.000000 0.000000
# 5 0.000000 0.000000 0.000000 0.000000 0.023698 0.000000
# 6 0.000000 0.000000 0.000000 0.000000 0.000000 0.058279
#
#
# Mechanical properties :
#
#
# Convention : Reuss Voigt Hill
#
# Bulk Modulus (GPa) = 42.16694 75.69721 58.93207
# Shear Modulus (GPa) = 24.43312 31.28872 27.86092
#
# Velocity S-wave (km/s) = 3.57383 4.04426 3.81630
# Velocity P-wave (km/s) = 6.25078 7.83443 7.08698
#
# Compressibility (1/GPa) = 0.02371526
#
# Stress axis : x y z
#
# Youngs Moduli (GPa) = 113.00553 29.74332 85.72575
#
# Poissons Ratio (x) = 0.11093 0.37001
# Poissons Ratio (y) = 0.42146 0.61416
# Poissons Ratio (z) = 0.48775 0.21309
#
# Static dielectric constant tensor:
#      x y z
#    x 1.665540 0.000000 0.000000 
#    y 0.000000 1.655820 0.000000 
#    z 0.000000 0.000000 1.632260 
# 
# From -- ./inp_files/19392.got.cif
#   From: 2010.05.17/outbox.cif.g08.bks.cpg/sg59_10_cif.got.tgz:19392.got - 2010.06.03 14:40:33.
