data_PCOD9447559
_publ_section_title
;
Structure prediction by ZEFSAII (Michael W. Deem and Ramdas Pophale) SiO2 
 PCOD9447559
Probable space group: P M M N
;
_chemical_formula_sum "Si O2"
_cell_formula_units_Z 40
_cell_length_a 21.613776
_cell_length_b 7.807134
_cell_length_c 13.141547
_cell_angle_alpha 90.000000
_cell_angle_beta 90.000000
_cell_angle_gamma 90.000000
_cell_volume 2217.526265
_symmetry_space_group_name_H-M "P M M N"
_symmetry_group_IT_number 59
_space_group.IT_coordinate_system_code '2'
_symmetry_cell_setting 'orthorhombic'
loop_
_space_group_symop_operation_xyz
x,y,z
1/2-x,1/2-y,z
1/2+x,-y,-z
-x,1/2+y,-z
-x,-y,-z
1/2+x,1/2+y,-z
1/2-x,y,z
x,1/2-y,z
loop_
_atom_site_type_symbol
_atom_site_label
_atom_site_fract_x
_atom_site_fract_y
_atom_site_fract_z
Si Si1 0.050175 0.957196 0.361460
Si Si2 0.084168 0.541363 0.918930
Si Si3 0.444208 0.546384 0.139083
Si Si4 0.412640 0.452970 0.579195
Si Si5 0.819543 0.046345 0.248083
O O1 0.048034 0.750000 0.358623
O O2 0.072076 0.020833 0.251121
O O3 0.979694 0.020037 0.382092
O O4 0.089876 0.007313 0.459518
O O5 0.083686 0.750000 0.918783
O O6 0.137994 0.479079 0.844299
O O7 0.017522 0.483356 0.877026
O O8 0.087990 0.480609 0.036142
O O9 0.433208 0.750000 0.140874
O O10 0.413496 0.250000 0.592582
O O11 0.357422 0.521131 0.647980
O O12 0.750000 0.975763 0.251473
O O13 0.814960 0.250000 0.231894
#
# Coordination Sequence:
#
# PCOD9447559 Si02
#       5
#     8   8   8   8   8
#     4   9  17  29  46  68  97 125 150 191 242 287
#     4   9  17  28  45  68  93 122 156 191 231 278
#     4   9  16  28  46  69  96 122 148 190 240 283
#     4  10  19  30  46  69  94 123 160 196 235 279
#     4  10  20  33  48  67  95 128 159 192 230 277
#
# _framework density 18.038115999999999
#
# number of rings (size 3 to 8) (size 9 to 14) (size 15 to 20)
#    0.000    2.600    2.000    0.600    0.000    2.000 
#    0.000    0.000    0.000    1.200    0.000    5.600 
#    0.000    0.000    0.000    0.000    0.000    0.000 
#
# Total GULP energy -222919.163110 kJ/mol
# GULP energy per Si atom -5572.979078 kJ/mol
# Density = 1.799706 g / cm^3
# Si number density = 18.038116 Si / 1000 Ang^3
#
#
#
# Elastic Constant Matrix: (Units=GPa)
#
#
# Indices 1 2 3 4 5 6 
#
# 1 88.9571 -6.6754 69.4723 0.0000 0.0000 0.0000
# 2 -6.6754 14.7267 -3.8664 0.0000 0.0000 0.0000
# 3 69.4723 -3.8664 177.4414 0.0000 0.0000 0.0000
# 4 0.0000 0.0000 0.0000 12.2623 0.0000 0.0000
# 5 0.0000 0.0000 0.0000 0.0000 12.3277 0.0000
# 6 0.0000 0.0000 0.0000 0.0000 0.0000 13.3004
#
#
#
# Elastic Compliance Matrix: (Units=1/GPa)
#
#
# Indices 1 2 3 4 5 6 
#
# 1 0.016684 0.005881 -0.006404 0.000000 0.000000 0.000000
# 2 0.005881 0.070368 -0.000769 0.000000 0.000000 0.000000
# 3 -0.006404 -0.000769 0.008126 0.000000 0.000000 0.000000
# 4 0.000000 0.000000 0.000000 0.081550 0.000000 0.000000
# 5 0.000000 0.000000 0.000000 0.000000 0.081118 0.000000
# 6 0.000000 0.000000 0.000000 0.000000 0.000000 0.075185
#
#
# Mechanical properties :
#
#
# Convention : Reuss Voigt Hill
#
# Bulk Modulus (GPa) = 10.79985 44.33181 27.56583
# Shear Modulus (GPa) = 13.64327 22.39107 18.01717
#
# Velocity S-wave (km/s) = 2.75318 3.52706 3.16387
# Velocity P-wave (km/s) = 4.01334 6.42004 5.35368
#
# Compressibility (1/GPa) = 0.09259392
#
# Stress axis : x y z
#
# Youngs Moduli (GPa) = 59.93763 14.21103 123.05853
#
# Poissons Ratio (x) = -0.08358 0.78807
# Poissons Ratio (y) = -0.35251 0.09468
# Poissons Ratio (z) = 0.38384 0.01093
#
# Static dielectric constant tensor:
#      x y z
#    x 1.588850 0.000000 0.000000 
#    y 0.000000 1.646060 0.000000 
#    z 0.000000 0.000000 1.663630 
# 
# From -- ./inp_files/14057.got.cif
#   From: 2010.05.17/outbox.cif.g08.bks.cpg/sg59_8_cif.got.tgz:14057.got - 2010.06.03 14:40:33.
