data_PCOD9447190
_publ_section_title
;
Structure prediction by ZEFSAII (Michael W. Deem and Ramdas Pophale) SiO2 
 PCOD9447190
Probable space group: P M M N
;
_chemical_formula_sum "Si O2"
_cell_formula_units_Z 40
_cell_length_a 10.493065
_cell_length_b 8.511248
_cell_length_c 25.479282
_cell_angle_alpha 90.000000
_cell_angle_beta 90.000000
_cell_angle_gamma 90.000000
_cell_volume 2275.531196
_symmetry_space_group_name_H-M "P M M N"
_symmetry_group_IT_number 59
_space_group.IT_coordinate_system_code '2'
_symmetry_cell_setting 'orthorhombic'
loop_
_space_group_symop_operation_xyz
x,y,z
1/2-x,1/2-y,z
1/2+x,-y,-z
-x,1/2+y,-z
-x,-y,-z
1/2+x,1/2+y,-z
1/2-x,y,z
x,1/2-y,z
loop_
_atom_site_type_symbol
_atom_site_label
_atom_site_fract_x
_atom_site_fract_y
_atom_site_fract_z
Si Si1 0.896235 0.936338 0.459497
Si Si2 0.250000 0.441705 0.063586
Si Si3 0.101825 0.558245 0.767290
Si Si4 0.493342 0.559683 0.878905
Si Si5 0.750000 0.938625 0.057709
Si Si6 0.595525 0.430810 0.347023
O O1 0.750000 0.997550 0.467466
O O2 0.891236 0.750000 0.464924
O O3 0.936108 0.978469 0.399955
O O4 0.000000 0.000000 0.500000
O O5 0.250000 0.250000 0.063600
O O6 0.123556 0.493332 0.093994
O O7 0.250000 0.491751 0.002963
O O8 0.250000 0.511016 0.774515
O O9 0.101476 0.750000 0.765206
O O10 0.053827 0.505663 0.709935
O O11 0.024008 0.508961 0.818430
O O12 0.491000 0.750000 0.879151
O O13 0.373993 0.500603 0.912359
O O14 0.750000 0.750000 0.058538
O O15 0.750000 0.429371 0.343522
O O16 0.553100 0.250000 0.352749
#
# Coordination Sequence:
#
# PCOD9447190 Si02
#       6
#     8   4   8   8   4   8
#     4  10  20  33  51  76 104 135 171 206 244 294
#     4   9  20  33  49  73 101 129 164 207 250 299
#     4   8  13  24  47  74  93 117 162 210 244 284
#     4  10  18  33  54  73  95 130 169 205 247 298
#     4  11  21  33  47  73 103 127 164 211 252 295
#     4   8  14  26  46  71  98 126 159 205 252 288
#
# _framework density 17.578313000000001
#
# number of rings (size 3 to 8) (size 9 to 14) (size 15 to 20)
#    0.000    2.800    1.000    2.700    0.000    1.200 
#    0.000    2.500    2.200    0.000    0.000    0.000 
#    0.000    0.000    0.000    0.000    0.000    0.000 
#
# Total GULP energy -222854.075130 kJ/mol
# GULP energy per Si atom -5571.351878 kJ/mol
# Density = 1.753830 g / cm^3
# Si number density = 17.578313 Si / 1000 Ang^3
#
#
#
# Elastic Constant Matrix: (Units=GPa)
#
#
# Indices 1 2 3 4 5 6 
#
# 1 105.5656 16.9795 85.9452 0.0000 0.0000 0.0000
# 2 16.9795 16.2908 27.3435 0.0000 0.0000 0.0000
# 3 85.9452 27.3435 200.0997 0.0000 0.0000 0.0000
# 4 0.0000 0.0000 0.0000 22.5681 0.0000 0.0000
# 5 0.0000 0.0000 0.0000 0.0000 17.1194 0.0000
# 6 0.0000 0.0000 0.0000 0.0000 0.0000 -1.0517
#
#
#
# Elastic Compliance Matrix: (Units=1/GPa)
#
#
# Indices 1 2 3 4 5 6 
#
# 1 0.015045 -0.006274 -0.005605 0.000000 0.000000 0.000000
# 2 -0.006274 0.082270 -0.008547 0.000000 0.000000 0.000000
# 3 -0.005605 -0.008547 0.008573 0.000000 0.000000 0.000000
# 4 0.000000 0.000000 0.000000 0.044310 0.000000 0.000000
# 5 0.000000 0.000000 0.000000 0.000000 0.058413 0.000000
# 6 0.000000 0.000000 0.000000 0.000000 0.000000 -0.950828
#
#
# Mechanical properties :
#
#
# Convention : Reuss Voigt Hill
#
# Bulk Modulus (GPa) = 15.37615 64.72140 40.04878
# Shear Modulus (GPa) = -7.35633 20.50636 6.57501
#
# Velocity S-wave (km/s) = -2.04792 3.41922 1.93611
# Velocity P-wave (km/s) = 1.78164 7.24478 5.27547
#
# Compressibility (1/GPa) = 0.06503578
#
# Stress axis : x y z
#
# Youngs Moduli (GPa) = 66.46809 12.15512 116.64840
#
# Poissons Ratio (x) = 0.07626 0.65377
# Poissons Ratio (y) = 0.41700 0.99705
# Poissons Ratio (z) = 0.37253 0.10390
#
# Static dielectric constant tensor:
#      x y z
#    x 1.578540 0.000000 0.000000 
#    y 0.000000 1.645420 0.000000 
#    z 0.000000 0.000000 1.620470 
# 
# From -- ./inp_files/32405.got.cif
#   From: 2010.05.17/outbox.cif.g08.bks.cpg/sg59_17_cif.got.tgz:32405.got - 2010.06.03 14:40:33.
