data_PCOD9447825
_publ_section_title
;
Structure prediction by ZEFSAII (Michael W. Deem and Ramdas Pophale) SiO2 
 PCOD9447825
Probable space group: P M M N
;
_chemical_formula_sum "Si O2"
_cell_formula_units_Z 64
_cell_length_a 19.149941
_cell_length_b 12.851645
_cell_length_c 16.492667
_cell_angle_alpha 90.000000
_cell_angle_beta 90.000000
_cell_angle_gamma 90.000000
_cell_volume 4058.981306
_symmetry_space_group_name_H-M "P M M N"
_symmetry_group_IT_number 59
_space_group.IT_coordinate_system_code '2'
_symmetry_cell_setting 'orthorhombic'
loop_
_space_group_symop_operation_xyz
x,y,z
1/2-x,1/2-y,z
1/2+x,-y,-z
-x,1/2+y,-z
-x,-y,-z
1/2+x,1/2+y,-z
1/2-x,y,z
x,1/2-y,z
loop_
_atom_site_type_symbol
_atom_site_label
_atom_site_fract_x
_atom_site_fract_y
_atom_site_fract_z
Si Si1 0.328326 0.870404 0.840151
Si Si2 0.066814 0.998848 0.248258
Si Si3 0.831377 0.125408 0.633578
Si Si4 0.935586 0.374162 0.307008
Si Si5 0.671332 0.376146 0.444782
Si Si6 0.013461 0.874063 0.094345
Si Si7 0.615054 0.993954 0.018314
Si Si8 0.830069 0.873168 0.865628
O O1 0.250000 0.882350 0.806222
O O2 0.335283 0.750000 0.866986
O O3 0.386334 0.888218 0.771772
O O4 0.339803 0.946645 0.915082
O O5 0.115775 0.935297 0.309295
O O6 0.032401 0.922216 0.181679
O O7 0.115478 0.077757 0.197282
O O8 0.005999 0.061915 0.293619
O O9 0.750000 0.103436 0.653728
O O10 0.841107 0.250000 0.641433
O O11 0.841643 0.097604 0.538766
O O12 0.949789 0.250000 0.314472
O O13 0.889225 0.409701 0.383750
O O14 0.750000 0.411869 0.422679
O O15 0.672877 0.250000 0.440055
O O16 0.014552 0.750000 0.095283
O O17 0.069852 0.920530 0.031049
O O18 0.939631 0.918704 0.063656
O O19 0.657134 0.928975 0.951678
O O20 0.750000 0.890808 0.839778
O O21 0.841712 0.750000 0.873465
#
# Coordination Sequence:
#
# PCOD9447825 Si02
#       8
#     8   8   8   8   8   8   8   8
#     4  10  19  31  49  73  99 126 160 205 251 291
#     4  11  20  32  49  73 100 129 160 200 245 292
#     4   9  18  33  53  75  99 127 160 199 242 292
#     4  10  19  31  48  73 103 132 161 198 244 292
#     4   8  15  30  51  74 100 129 160 196 241 290
#     4  10  20  32  47  68  96 126 160 198 247 296
#     4  10  19  33  49  70  91 127 163 206 247 287
#     4  10  21  35  50  68  94 129 167 206 243 286
#
# _framework density 15.767503
#
# number of rings (size 3 to 8) (size 9 to 14) (size 15 to 20)
#    0.000    2.250    1.250    3.375    0.000    2.000 
#    0.000    0.000    0.000    6.000    0.000    0.000 
#    0.000    3.000    0.000    0.000    0.000    0.000 
#
# Total GULP energy -356902.110906 kJ/mol
# GULP energy per Si atom -5576.595483 kJ/mol
# Density = 1.573162 g / cm^3
# Si number density = 15.767503 Si / 1000 Ang^3
#
#
#
# Elastic Constant Matrix: (Units=GPa)
#
#
# Indices 1 2 3 4 5 6 
#
# 1 108.7777 54.4481 60.7259 0.0000 0.0000 0.0000
# 2 54.4481 81.4371 42.9792 0.0000 0.0000 0.0000
# 3 60.7259 42.9792 88.1758 0.0000 0.0000 0.0000
# 4 0.0000 0.0000 0.0000 18.4722 0.0000 0.0000
# 5 0.0000 0.0000 0.0000 0.0000 27.5764 0.0000
# 6 0.0000 0.0000 0.0000 0.0000 0.0000 25.2105
#
#
#
# Elastic Compliance Matrix: (Units=1/GPa)
#
#
# Indices 1 2 3 4 5 6 
#
# 1 0.017622 -0.007239 -0.008607 0.000000 0.000000 0.000000
# 2 -0.007239 0.019506 -0.004522 0.000000 0.000000 0.000000
# 3 -0.008607 -0.004522 0.019473 0.000000 0.000000 0.000000
# 4 0.000000 0.000000 0.000000 0.054135 0.000000 0.000000
# 5 0.000000 0.000000 0.000000 0.000000 0.036263 0.000000
# 6 0.000000 0.000000 0.000000 0.000000 0.000000 0.039666
#
#
# Mechanical properties :
#
#
# Convention : Reuss Voigt Hill
#
# Bulk Modulus (GPa) = 63.03833 66.07745 64.55789
# Shear Modulus (GPa) = 21.48778 22.26764 21.87771
#
# Velocity S-wave (km/s) = 3.69560 3.76207 3.72898
# Velocity P-wave (km/s) = 7.63392 7.80187 7.71835
#
# Compressibility (1/GPa) = 0.01586336
#
# Stress axis : x y z
#
# Youngs Moduli (GPa) = 56.74836 51.26604 51.35291
#
# Poissons Ratio (x) = 0.37112 0.44201
# Poissons Ratio (y) = 0.41081 0.23223
# Poissons Ratio (z) = 0.48845 0.23184
#
# Static dielectric constant tensor:
#      x y z
#    x 1.522260 0.000000 0.000000 
#    y 0.000000 1.495650 0.000000 
#    z 0.000000 0.000000 1.515730 
# 
# From -- ./inp_files/22737.got.cif
#   From: 2010.05.17/outbox.cif.g08.bks.cpg/sg59_12_cif.got.tgz:22737.got - 2010.06.03 14:40:33.
