data_PCOD9447646
_publ_section_title
;
Structure prediction by ZEFSAII (Michael W. Deem and Ramdas Pophale) SiO2 
 PCOD9447646
Probable space group: P M M N
;
_chemical_formula_sum "Si O2"
_cell_formula_units_Z 56
_cell_length_a 7.389596
_cell_length_b 14.660076
_cell_length_c 22.480089
_cell_angle_alpha 90.000000
_cell_angle_beta 90.000000
_cell_angle_gamma 90.000000
_cell_volume 2435.313878
_symmetry_space_group_name_H-M "P M M N"
_symmetry_group_IT_number 59
_space_group.IT_coordinate_system_code '2'
_symmetry_cell_setting 'orthorhombic'
loop_
_space_group_symop_operation_xyz
x,y,z
1/2-x,1/2-y,z
1/2+x,-y,-z
-x,1/2+y,-z
-x,-y,-z
1/2+x,1/2+y,-z
1/2-x,y,z
x,1/2-y,z
loop_
_atom_site_type_symbol
_atom_site_label
_atom_site_fract_x
_atom_site_fract_y
_atom_site_fract_z
Si Si1 0.035664 0.853418 0.893609
Si Si2 0.972108 0.470118 0.218237
Si Si3 0.466555 0.356142 0.977145
Si Si4 0.029407 0.145675 0.846158
Si Si5 0.031204 0.854471 0.404026
Si Si6 0.959065 0.461163 0.348047
Si Si7 0.030581 0.856418 0.537573
O O1 0.250000 0.846715 0.884781
O O2 0.961205 0.750000 0.895252
O O3 0.015290 0.897780 0.959136
O O4 0.966677 0.908978 0.837229
O O5 0.750000 0.468705 0.219309
O O6 0.027127 0.573389 0.202880
O O7 0.035785 0.439812 0.283175
O O8 0.250000 0.356646 0.975412
O O9 0.527801 0.250000 0.979970
O O10 0.528059 0.388160 0.912187
O O11 0.250000 0.146928 0.846502
O O12 0.970685 0.250000 0.837502
O O13 0.250000 0.855343 0.403455
O O14 0.974614 0.750000 0.392711
O O15 0.969482 0.881491 0.470973
O O16 0.965761 0.930426 0.358646
O O17 0.750000 0.431305 0.346432
O O18 0.038879 0.414813 0.407072
O O19 0.250000 0.863873 0.535894
O O20 0.987243 0.750000 0.546533
#
# Coordination Sequence:
#
# PCOD9447646 Si02
#       7
#     8   8   8   8   8   8   8
#     4   9  17  29  44  63  90 119 143 175 222 269
#     4   9  18  29  41  64  94 120 147 177 217 268
#     4   8  14  26  45  65  81 105 147 190 222 256
#     4   8  14  26  43  61  84 114 145 180 223 267
#     4   9  18  33  51  69  93 126 156 184 230 286
#     4  10  19  30  48  73  96 120 156 199 230 259
#     4   8  15  29  49  72  96 123 155 189 229 277
#
# _framework density 22.994982
#
# number of rings (size 3 to 8) (size 9 to 14) (size 15 to 20)
#    0.000    3.286    0.000    2.143    0.000    2.000 
#    0.000    5.000    0.000    2.143    0.000    2.000 
#    0.000    0.000    0.000    0.000    0.000    0.000 
#
# Total GULP energy -312460.042127 kJ/mol
# GULP energy per Si atom -5579.643609 kJ/mol
# Density = 2.294264 g / cm^3
# Si number density = 22.994982 Si / 1000 Ang^3
#
#
#
# Elastic Constant Matrix: (Units=GPa)
#
#
# Indices 1 2 3 4 5 6 
#
# 1 77.8802 -5.9643 -2.8147 0.0000 0.0000 0.0000
# 2 -5.9643 28.5905 4.8097 0.0000 0.0000 0.0000
# 3 -2.8147 4.8097 73.8278 0.0000 0.0000 0.0000
# 4 0.0000 0.0000 0.0000 17.4115 0.0000 0.0000
# 5 0.0000 0.0000 0.0000 0.0000 -17.7441 0.0000
# 6 0.0000 0.0000 0.0000 0.0000 0.0000 2.3291
#
#
#
# Elastic Compliance Matrix: (Units=1/GPa)
#
#
# Indices 1 2 3 4 5 6 
#
# 1 0.013056 0.002669 0.000324 0.000000 0.000000 0.000000
# 2 0.002669 0.035910 -0.002238 0.000000 0.000000 0.000000
# 3 0.000324 -0.002238 0.013703 0.000000 0.000000 0.000000
# 4 0.000000 0.000000 0.000000 0.057433 0.000000 0.000000
# 5 0.000000 0.000000 0.000000 0.000000 -0.056357 0.000000
# 6 0.000000 0.000000 0.000000 0.000000 0.000000 0.429347
#
#
# Mechanical properties :
#
#
# Convention : Reuss Voigt Hill
#
# Bulk Modulus (GPa) = 15.58110 19.15110 17.36610
# Shear Modulus (GPa) = 9.74705 12.68382 11.21543
#
# Velocity S-wave (km/s) = 2.06106 2.35114 2.21087
# Velocity P-wave (km/s) = 3.52910 3.96446 3.75310
#
# Compressibility (1/GPa) = 0.06418032
#
# Stress axis : x y z
#
# Youngs Moduli (GPa) = 76.59106 27.84741 72.97587
#
# Poissons Ratio (x) = -0.07433 -0.02364
# Poissons Ratio (y) = -0.20444 0.16330
# Poissons Ratio (z) = -0.02481 0.06231
#
# Static dielectric constant tensor:
#      x y z
#    x 1.893420 0.000000 0.000000 
#    y 0.000000 1.852480 0.000000 
#    z 0.000000 0.000000 1.857780 
# 
# From -- ./inp_files/29182.got.cif
#   From: 2010.05.17/outbox.cif.g08.bks.cpg/sg59_15_cif.got.tgz:29182.got - 2010.06.03 14:40:33.
