data_PCOD9447002
_publ_section_title
;
Structure prediction by ZEFSAII (Michael W. Deem and Ramdas Pophale) SiO2 
 PCOD9447002
Probable space group: P M M N
;
_chemical_formula_sum "Si O2"
_cell_formula_units_Z 64
_cell_length_a 19.048252
_cell_length_b 7.591871
_cell_length_c 20.750308
_cell_angle_alpha 90.000000
_cell_angle_beta 90.000000
_cell_angle_gamma 90.000000
_cell_volume 3000.740884
_symmetry_space_group_name_H-M "P M M N"
_symmetry_group_IT_number 59
_space_group.IT_coordinate_system_code '2'
_symmetry_cell_setting 'orthorhombic'
loop_
_space_group_symop_operation_xyz
x,y,z
1/2-x,1/2-y,z
1/2+x,-y,-z
-x,1/2+y,-z
-x,-y,-z
1/2+x,1/2+y,-z
1/2-x,y,z
x,1/2-y,z
loop_
_atom_site_type_symbol
_atom_site_label
_atom_site_fract_x
_atom_site_fract_y
_atom_site_fract_z
Si Si1 0.669829 0.965329 0.914060
Si Si2 0.915826 0.542748 0.176147
Si Si3 0.424039 0.038233 0.969121
Si Si4 0.925635 0.963441 0.793591
Si Si5 0.828650 0.534978 0.676859
Si Si6 0.432897 0.953335 0.589338
Si Si7 0.912197 0.963905 0.554603
Si Si8 0.671294 0.959069 0.295700
O O1 0.750000 0.022839 0.905836
O O2 0.670281 0.750000 0.913543
O O3 0.619303 0.020049 0.855732
O O4 0.635212 0.023631 0.981059
O O5 0.899369 0.750000 0.169883
O O6 0.915602 0.468153 0.103497
O O7 0.863855 0.467371 0.230292
O O8 0.995047 0.526727 0.202014
O O9 0.419029 0.250000 0.966072
O O10 0.500000 0.000000 0.000000
O O11 0.927701 0.750000 0.793560
O O12 0.884697 0.022177 0.729956
O O13 0.750000 0.476139 0.691806
O O14 0.828378 0.750000 0.678516
O O15 0.853936 0.483130 0.605992
O O16 0.443341 0.750000 0.605582
O O17 0.511728 0.028553 0.580656
O O18 0.400858 0.971989 0.517875
O O19 0.381646 0.021614 0.644354
O O20 0.914456 0.750000 0.551691
O O21 0.750000 0.028724 0.307842
O O22 0.677478 0.750000 0.286233
#
# Coordination Sequence:
#
# PCOD9447002 Si02
#       8
#     8   8   8   8   8   8   8   8
#     4   9  17  29  49  78 106 134 172 216 259 303
#     4  10  21  35  54  78 105 137 174 217 263 313
#     4  10  19  33  53  78 106 137 174 217 262 313
#     4  10  18  31  53  78 104 136 173 214 257 308
#     4   9  17  29  48  75 104 133 170 214 253 296
#     4  10  20  35  56  81 107 136 175 225 269 314
#     4   9  18  33  53  78 108 142 178 214 261 319
#     4  10  22  39  56  76 105 142 182 224 274 328
#
# _framework density 21.328066
#
# number of rings (size 3 to 8) (size 9 to 14) (size 15 to 20)
#    0.000    2.375    1.250    1.500    0.000    4.750 
#    0.000    4.375    0.000    3.375    0.000    1.750 
#    0.000    0.000    0.000    0.000    0.000    0.000 
#
# Total GULP energy -357357.573487 kJ/mol
# GULP energy per Si atom -5583.712086 kJ/mol
# Density = 2.127952 g / cm^3
# Si number density = 21.328066 Si / 1000 Ang^3
#
#
#
# Elastic Constant Matrix: (Units=GPa)
#
#
# Indices 1 2 3 4 5 6 
#
# 1 63.4914 -0.3489 35.8065 0.0000 0.0000 0.0000
# 2 -0.3489 44.0967 -0.8249 0.0000 0.0000 0.0000
# 3 35.8065 -0.8249 118.2700 0.0000 0.0000 0.0000
# 4 0.0000 0.0000 0.0000 6.4985 0.0000 0.0000
# 5 0.0000 0.0000 0.0000 0.0000 16.3272 0.0000
# 6 0.0000 0.0000 0.0000 0.0000 0.0000 18.3238
#
#
#
# Elastic Compliance Matrix: (Units=1/GPa)
#
#
# Indices 1 2 3 4 5 6 
#
# 1 0.018993 0.000043 -0.005750 0.000000 0.000000 0.000000
# 2 0.000043 0.022680 0.000145 0.000000 0.000000 0.000000
# 3 -0.005750 0.000145 0.010197 0.000000 0.000000 0.000000
# 4 0.000000 0.000000 0.000000 0.153881 0.000000 0.000000
# 5 0.000000 0.000000 0.000000 0.000000 0.061247 0.000000
# 6 0.000000 0.000000 0.000000 0.000000 0.000000 0.054574
#
#
# Mechanical properties :
#
#
# Convention : Reuss Voigt Hill
#
# Bulk Modulus (GPa) = 24.54183 32.79151 28.66667
# Shear Modulus (GPa) = 14.43923 20.97828 17.70876
#
# Velocity S-wave (km/s) = 2.60476 3.13964 2.88462
# Velocity P-wave (km/s) = 4.53631 5.34334 4.95628
#
# Compressibility (1/GPa) = 0.04074675
#
# Stress axis : x y z
#
# Youngs Moduli (GPa) = 52.65061 44.09078 98.06764
#
# Poissons Ratio (x) = -0.00188 0.56388
# Poissons Ratio (y) = -0.00225 -0.01424
# Poissons Ratio (z) = 0.30274 -0.00640
#
# Static dielectric constant tensor:
#      x y z
#    x 1.744980 0.000000 0.000000 
#    y 0.000000 1.692510 0.000000 
#    z 0.000000 0.000000 1.756980 
# 
# From -- ./inp_files/26284.got.cif
#   From: 2010.05.17/outbox.cif.g08.bks.cpg/sg59_14_cif.got.tgz:26284.got - 2010.06.03 14:40:33.
