data_PCOD9447494
_publ_section_title
;
Structure prediction by ZEFSAII (Michael W. Deem and Ramdas Pophale) SiO2 
 PCOD9447494
Probable space group: P M M N
;
_chemical_formula_sum "Si O2"
_cell_formula_units_Z 64
_cell_length_a 7.630690
_cell_length_b 20.832610
_cell_length_c 17.781262
_cell_angle_alpha 90.000000
_cell_angle_beta 90.000000
_cell_angle_gamma 90.000000
_cell_volume 2826.637233
_symmetry_space_group_name_H-M "P M M N"
_symmetry_group_IT_number 59
_space_group.IT_coordinate_system_code '2'
_symmetry_cell_setting 'orthorhombic'
loop_
_space_group_symop_operation_xyz
x,y,z
1/2-x,1/2-y,z
1/2+x,-y,-z
-x,1/2+y,-z
-x,-y,-z
1/2+x,1/2+y,-z
1/2-x,y,z
x,1/2-y,z
loop_
_atom_site_type_symbol
_atom_site_label
_atom_site_fract_x
_atom_site_fract_y
_atom_site_fract_z
Si Si1 0.046621 0.680953 0.746630
Si Si2 0.948489 0.173544 0.769088
Si Si3 0.048351 0.177883 0.602640
Si Si4 0.962395 0.463698 0.280581
Si Si5 0.539086 0.541389 0.426985
Si Si6 0.542632 0.852367 0.910230
Si Si7 0.457650 0.494101 0.113138
Si Si8 0.462125 0.629388 0.069970
O O1 0.250000 0.680890 0.723479
O O2 0.969324 0.750000 0.721607
O O3 0.973871 0.610993 0.722220
O O4 0.038984 0.680475 0.837721
O O5 0.750000 0.147239 0.762219
O O6 0.936710 0.250000 0.772948
O O7 0.024889 0.153109 0.848818
O O8 0.045783 0.160343 0.691524
O O9 0.250000 0.182934 0.578116
O O10 0.970405 0.250000 0.593884
O O11 0.968511 0.114273 0.565673
O O12 0.750000 0.461472 0.281090
O O13 0.023782 0.503373 0.352863
O O14 0.015704 0.498351 0.203030
O O15 0.500000 0.500000 0.500000
O O16 0.750000 0.546713 0.419201
O O17 0.750000 0.852218 0.895566
O O18 0.468376 0.925018 0.908408
O O19 0.515266 0.831743 0.996014
O O20 0.250000 0.492202 0.099266
O O21 0.527267 0.555634 0.069372
O O22 0.250000 0.631039 0.072067
#
# Coordination Sequence:
#
# PCOD9447494 Si02
#       8
#     8   8   8   8   8   8   8   8
#     4   9  18  34  54  71  91 126 168 209 259 314
#     4   9  18  31  47  69  95 124 163 208 248 291
#     4   9  18  34  55  77 104 139 174 206 245 299
#     4   9  18  33  53  76  99 125 163 209 252 299
#     4  10  21  36  55  82 113 140 168 205 249 299
#     4  10  20  31  44  66  95 125 163 213 261 303
#     4   9  18  31  47  68  93 124 164 208 254 303
#     4  10  19  30  44  64  94 131 168 207 254 307
#
# _framework density 22.641743999999999
#
# number of rings (size 3 to 8) (size 9 to 14) (size 15 to 20)
#    0.000    2.625    0.000    1.500    0.000    3.250 
#    0.000    1.875    0.000    0.750    0.000    0.000 
#    0.000    0.000    0.000    0.000    0.000    0.000 
#
# Total GULP energy -356950.959108 kJ/mol
# GULP energy per Si atom -5577.358736 kJ/mol
# Density = 2.259021 g / cm^3
# Si number density = 22.641744 Si / 1000 Ang^3
#
#
#
# Elastic Constant Matrix: (Units=GPa)
#
#
# Indices 1 2 3 4 5 6 
#
# 1 52.1875 6.1802 -12.5979 0.0000 0.0000 0.0000
# 2 6.1802 136.3040 50.7075 0.0000 0.0000 0.0000
# 3 -12.5979 50.7075 75.6706 0.0000 0.0000 0.0000
# 4 0.0000 0.0000 0.0000 9.3388 0.0000 0.0000
# 5 0.0000 0.0000 0.0000 0.0000 21.6244 0.0000
# 6 0.0000 0.0000 0.0000 0.0000 0.0000 5.2047
#
#
#
# Elastic Compliance Matrix: (Units=1/GPa)
#
#
# Indices 1 2 3 4 5 6 
#
# 1 0.020833 -0.002977 0.005463 0.000000 0.000000 0.000000
# 2 -0.002977 0.010198 -0.007330 0.000000 0.000000 0.000000
# 3 0.005463 -0.007330 0.019036 0.000000 0.000000 0.000000
# 4 0.000000 0.000000 0.000000 0.107080 0.000000 0.000000
# 5 0.000000 0.000000 0.000000 0.000000 0.046244 0.000000
# 6 0.000000 0.000000 0.000000 0.000000 0.000000 0.192134
#
#
# Mechanical properties :
#
#
# Convention : Reuss Voigt Hill
#
# Bulk Modulus (GPa) = 24.76411 39.19352 31.97882
# Shear Modulus (GPa) = 11.94251 21.89173 16.91712
#
# Velocity S-wave (km/s) = 2.29913 3.11283 2.73640
# Velocity P-wave (km/s) = 4.24372 5.50159 4.91308
#
# Compressibility (1/GPa) = 0.04038101
#
# Stress axis : x y z
#
# Youngs Moduli (GPa) = 48.00066 98.05598 52.53114
#
# Poissons Ratio (x) = 0.29192 -0.28699
# Poissons Ratio (y) = 0.14290 0.38503
# Poissons Ratio (z) = -0.26224 0.71871
#
# Static dielectric constant tensor:
#      x y z
#    x 1.842520 0.000000 0.000000 
#    y 0.000000 1.920240 0.000000 
#    z 0.000000 0.000000 1.826040 
# 
# From -- ./inp_files/26314.got.cif
#   From: 2010.05.17/outbox.cif.g08.bks.cpg/sg59_14_cif.got.tgz:26314.got - 2010.06.03 14:40:33.
