data_PCOD9447017
_publ_section_title
;
Structure prediction by ZEFSAII (Michael W. Deem and Ramdas Pophale) SiO2 
 PCOD9447017
Probable space group: P M M N
;
_chemical_formula_sum "Si O2"
_cell_formula_units_Z 64
_cell_length_a 14.802579
_cell_length_b 19.692490
_cell_length_c 11.160306
_cell_angle_alpha 90.000000
_cell_angle_beta 90.000000
_cell_angle_gamma 90.000000
_cell_volume 3253.225169
_symmetry_space_group_name_H-M "P M M N"
_symmetry_group_IT_number 59
_space_group.IT_coordinate_system_code '2'
_symmetry_cell_setting 'orthorhombic'
loop_
_space_group_symop_operation_xyz
x,y,z
1/2-x,1/2-y,z
1/2+x,-y,-z
-x,1/2+y,-z
-x,-y,-z
1/2+x,1/2+y,-z
1/2-x,y,z
x,1/2-y,z
loop_
_atom_site_type_symbol
_atom_site_label
_atom_site_fract_x
_atom_site_fract_y
_atom_site_fract_z
Si Si1 0.352966 0.860727 0.244776
Si Si2 0.026618 0.604596 0.454142
Si Si3 0.517203 0.466621 0.310576
Si Si4 0.857407 0.457617 0.094988
Si Si5 0.148373 0.481825 0.158524
Si Si6 0.650227 0.831537 0.367934
Si Si7 0.149644 0.167670 0.910091
Si Si8 0.544750 0.172579 0.993358
O O1 0.250000 0.835428 0.242316
O O2 0.399759 0.856173 0.374285
O O3 0.349183 0.940538 0.208650
O O4 0.414933 0.828125 0.141997
O O5 0.009849 0.533693 0.384184
O O6 0.930895 0.641819 0.446910
O O7 0.049511 0.587305 0.590727
O O8 0.593614 0.482740 0.213762
O O9 0.428674 0.445120 0.234797
O O10 0.750000 0.453294 0.107597
O O11 0.875510 0.506116 0.980858
O O12 0.898450 0.383564 0.064265
O O13 0.250000 0.454375 0.171353
O O14 0.750000 0.855334 0.405602
O O15 0.650039 0.750000 0.369096
O O16 0.636860 0.852542 0.228896
O O17 0.250000 0.143860 0.948087
O O18 0.152429 0.250000 0.910700
O O19 0.060203 0.150962 0.984072
O O20 0.551275 0.250000 0.038920
#
# Coordination Sequence:
#
# PCOD9447017 Si02
#       8
#     8   8   8   8   8   8   8   8
#     4   9  17  29  47  72 101 132 169 217 267 307
#     4  10  20  34  53  78 104 140 179 220 268 324
#     4  10  21  35  53  75 105 141 181 220 264 326
#     4  10  21  36  53  75 106 141 178 224 273 315
#     4   8  16  33  53  71  96 131 168 214 263 306
#     4   9  17  31  52  78 108 137 167 213 270 323
#     4   8  14  26  47  76 107 133 161 208 267 315
#     4  10  18  31  54  78 103 138 181 224 269 323
#
# _framework density 19.672785000000001
#
# number of rings (size 3 to 8) (size 9 to 14) (size 15 to 20)
#    0.000    2.750    1.250    2.250    0.000    2.500 
#    0.000    3.750    0.000    0.000    0.000    3.500 
#    0.000    0.000    0.000    0.000    0.000    0.000 
#
# Total GULP energy -357061.785953 kJ/mol
# GULP energy per Si atom -5579.090406 kJ/mol
# Density = 1.962801 g / cm^3
# Si number density = 19.672785 Si / 1000 Ang^3
#
#
#
# Elastic Constant Matrix: (Units=GPa)
#
#
# Indices 1 2 3 4 5 6 
#
# 1 105.4934 12.5809 41.4004 0.0000 0.0000 0.0000
# 2 12.5809 40.2748 9.5482 0.0000 0.0000 0.0000
# 3 41.4004 9.5482 89.8518 0.0000 0.0000 0.0000
# 4 0.0000 0.0000 0.0000 12.6096 0.0000 0.0000
# 5 0.0000 0.0000 0.0000 0.0000 7.0821 0.0000
# 6 0.0000 0.0000 0.0000 0.0000 0.0000 23.0916
#
#
#
# Elastic Compliance Matrix: (Units=1/GPa)
#
#
# Indices 1 2 3 4 5 6 
#
# 1 0.011805 -0.002460 -0.005178 0.000000 0.000000 0.000000
# 2 -0.002460 0.025984 -0.001628 0.000000 0.000000 0.000000
# 3 -0.005178 -0.001628 0.013688 0.000000 0.000000 0.000000
# 4 0.000000 0.000000 0.000000 0.079305 0.000000 0.000000
# 5 0.000000 0.000000 0.000000 0.000000 0.141201 0.000000
# 6 0.000000 0.000000 0.000000 0.000000 0.000000 0.043306
#
#
# Mechanical properties :
#
#
# Convention : Reuss Voigt Hill
#
# Bulk Modulus (GPa) = 30.35302 40.29767 35.32534
# Shear Modulus (GPa) = 14.50113 20.02935 17.26524
#
# Velocity S-wave (km/s) = 2.71793 3.19427 2.96568
# Velocity P-wave (km/s) = 5.03110 5.84234 5.45183
#
# Compressibility (1/GPa) = 0.03294565
#
# Stress axis : x y z
#
# Youngs Moduli (GPa) = 84.71260 38.48559 73.05605
#
# Poissons Ratio (x) = 0.09467 0.37826
# Poissons Ratio (y) = 0.20839 0.11891
# Poissons Ratio (z) = 0.43862 0.06264
#
# Static dielectric constant tensor:
#      x y z
#    x 1.702480 0.000000 0.000000 
#    y 0.000000 1.727690 0.000000 
#    z 0.000000 0.000000 1.690300 
# 
# From -- ./inp_files/9584.got.cif
#   From: 2010.05.17/outbox.cif.g08.bks.cpg/sg59_5_cif.got.tgz:9584.got - 2010.06.03 14:40:33.
