data_PCOD9447069
_publ_section_title
;
Structure prediction by ZEFSAII (Michael W. Deem and Ramdas Pophale) SiO2 
 PCOD9447069
Probable space group: P M M N
;
_chemical_formula_sum "Si O2"
_cell_formula_units_Z 40
_cell_length_a 7.449526
_cell_length_b 10.373540
_cell_length_c 25.821337
_cell_angle_alpha 90.000000
_cell_angle_beta 90.000000
_cell_angle_gamma 90.000000
_cell_volume 1995.420143
_symmetry_space_group_name_H-M "P M M N"
_symmetry_group_IT_number 59
_space_group.IT_coordinate_system_code '2'
_symmetry_cell_setting 'orthorhombic'
loop_
_space_group_symop_operation_xyz
x,y,z
1/2-x,1/2-y,z
1/2+x,-y,-z
-x,1/2+y,-z
-x,-y,-z
1/2+x,1/2+y,-z
1/2-x,y,z
x,1/2-y,z
loop_
_atom_site_type_symbol
_atom_site_label
_atom_site_fract_x
_atom_site_fract_y
_atom_site_fract_z
Si Si1 0.034648 0.603247 0.544483
Si Si2 0.457594 0.593278 0.657263
Si Si3 0.529661 0.400272 0.229892
Si Si4 0.465522 0.250000 0.061442
Si Si5 0.029582 0.250000 0.942335
Si Si6 0.540481 0.508784 0.123541
O O1 0.250000 0.612034 0.549865
O O2 0.970903 0.750000 0.533290
O O3 0.964092 0.559479 0.601142
O O4 0.000000 0.500000 0.500000
O O5 0.250000 0.549969 0.657335
O O6 0.457660 0.750000 0.657973
O O7 0.533174 0.555059 0.713229
O O8 0.750000 0.401407 0.230604
O O9 0.479122 0.250000 0.222399
O O10 0.466374 0.482071 0.180865
O O11 0.250000 0.250000 0.061664
O O12 0.527101 0.376746 0.091583
O O13 0.528342 0.250000 0.002007
O O14 0.250000 0.250000 0.944062
O O15 0.967209 0.375644 0.911108
O O16 0.750000 0.539351 0.131275
#
# Coordination Sequence:
#
# PCOD9447069 Si02
#       6
#     8   8   8   4   4   8
#     4   9  17  29  46  68  95 126 156 189 230 274
#     4   7  11  21  39  65  92 113 142 188 234 267
#     4   8  12  21  43  71  89 107 144 193 235 268
#     4  11  21  33  47  69  97 125 156 191 228 272
#     4   9  20  33  47  69  99 125 150 189 234 278
#     4  10  18  32  52  72  92 120 156 193 233 276
#
# _framework density 20.045904
#
# number of rings (size 3 to 8) (size 9 to 14) (size 15 to 20)
#    0.000    3.200    1.000    3.300    0.000    0.400 
#    0.000    1.500    2.200    1.200    0.000    0.000 
#    0.000    0.000    0.000    0.000    0.000    0.000 
#
# Total GULP energy -222876.577305 kJ/mol
# GULP energy per Si atom -5571.914433 kJ/mol
# Density = 2.000028 g / cm^3
# Si number density = 20.045904 Si / 1000 Ang^3
#
#
#
# Elastic Constant Matrix: (Units=GPa)
#
#
# Indices 1 2 3 4 5 6 
#
# 1 58.7415 -10.9964 -0.4775 0.0000 0.0000 0.0000
# 2 -10.9964 80.8730 73.1157 0.0000 0.0000 0.0000
# 3 -0.4775 73.1157 236.5616 0.0000 0.0000 0.0000
# 4 0.0000 0.0000 0.0000 37.2325 0.0000 0.0000
# 5 0.0000 0.0000 0.0000 0.0000 8.7506 0.0000
# 6 0.0000 0.0000 0.0000 0.0000 0.0000 18.7767
#
#
#
# Elastic Compliance Matrix: (Units=1/GPa)
#
#
# Indices 1 2 3 4 5 6 
#
# 1 0.017630 0.003282 -0.000979 0.000000 0.000000 0.000000
# 2 0.003282 0.017771 -0.005486 0.000000 0.000000 0.000000
# 3 -0.000979 -0.005486 0.005921 0.000000 0.000000 0.000000
# 4 0.000000 0.000000 0.000000 0.026858 0.000000 0.000000
# 5 0.000000 0.000000 0.000000 0.000000 0.114278 0.000000
# 6 0.000000 0.000000 0.000000 0.000000 0.000000 0.053258
#
#
# Mechanical properties :
#
#
# Convention : Reuss Voigt Hill
#
# Bulk Modulus (GPa) = 28.60675 55.49552 42.05113
# Shear Modulus (GPa) = 19.70570 33.92091 26.81331
#
# Velocity S-wave (km/s) = 3.13873 4.11805 3.66128
# Velocity P-wave (km/s) = 5.23804 7.09616 6.23669
#
# Compressibility (1/GPa) = 0.03495679
#
# Stress axis : x y z
#
# Youngs Moduli (GPa) = 56.72084 56.27096 168.89454
#
# Poissons Ratio (x) = -0.18469 0.16532
# Poissons Ratio (y) = -0.18617 0.92656
# Poissons Ratio (z) = 0.05552 0.30870
#
# Static dielectric constant tensor:
#      x y z
#    x 1.797900 0.000000 0.000000 
#    y 0.000000 1.614880 0.000000 
#    z 0.000000 0.000000 1.754650 
# 
# From -- ./inp_files/32442.got.cif
#   From: 2010.05.17/outbox.cif.g08.bks.cpg/sg59_17_cif.got.tgz:32442.got - 2010.06.03 14:40:33.
