data_PCOD9447776
_publ_section_title
;
Structure prediction by ZEFSAII (Michael W. Deem and Ramdas Pophale) SiO2 
 PCOD9447776
Probable space group: P M M N
;
_chemical_formula_sum "Si O2"
_cell_formula_units_Z 64
_cell_length_a 18.292824
_cell_length_b 8.359732
_cell_length_c 23.391628
_cell_angle_alpha 90.000000
_cell_angle_beta 90.000000
_cell_angle_gamma 90.000000
_cell_volume 3577.120412
_symmetry_space_group_name_H-M "P M M N"
_symmetry_group_IT_number 59
_space_group.IT_coordinate_system_code '2'
_symmetry_cell_setting 'orthorhombic'
loop_
_space_group_symop_operation_xyz
x,y,z
1/2-x,1/2-y,z
1/2+x,-y,-z
-x,1/2+y,-z
-x,-y,-z
1/2+x,1/2+y,-z
1/2-x,y,z
x,1/2-y,z
loop_
_atom_site_type_symbol
_atom_site_label
_atom_site_fract_x
_atom_site_fract_y
_atom_site_fract_z
Si Si1 0.669577 0.440820 0.294995
Si Si2 0.566889 0.442781 0.039382
Si Si3 0.465977 0.555493 0.383068
Si Si4 0.466735 0.441223 0.137203
Si Si5 0.626394 0.941536 0.418852
Si Si6 0.486326 0.440805 0.741279
Si Si7 0.669710 0.056700 0.542981
Si Si8 0.832817 0.443566 0.940820
O O1 0.750000 0.495983 0.275235
O O2 0.666113 0.250000 0.288991
O O3 0.661690 0.484721 0.362031
O O4 0.599165 0.513064 0.263603
O O5 0.569886 0.250000 0.040639
O O6 0.539432 0.496545 0.101772
O O7 0.500000 0.500000 0.000000
O O8 0.638099 0.496240 0.003900
O O9 0.462700 0.750000 0.381536
O O10 0.540557 0.513924 0.416024
O O11 0.476205 0.500576 0.317738
O O12 0.395241 0.496522 0.416571
O O13 0.464158 0.250000 0.134234
O O14 0.475857 0.493453 0.202208
O O15 0.393976 0.503847 0.105158
O O16 0.632781 0.750000 0.414559
O O17 0.658973 0.999693 0.478185
O O18 0.491266 0.250000 0.741990
O O19 0.750000 0.007456 0.563413
O O20 0.666745 0.250000 0.542714
O O21 0.750000 0.499620 0.929756
O O22 0.831973 0.250000 0.940265
#
# Coordination Sequence:
#
# PCOD9447776 Si02
#       8
#     8   8   8   8   8   8   8   8
#     4  10  20  34  52  74  99 126 159 202 252 303
#     4   8  15  28  47  71  98 128 161 197 240 291
#     4   8  17  33  49  67  91 123 163 202 242 289
#     4  10  19  32  51  75 104 137 172 208 250 301
#     4  10  19  31  49  71  96 125 156 194 242 301
#     4  10  20  35  54  73  97 132 174 213 246 290
#     4  10  19  31  48  69  93 120 153 198 249 298
#     4   9  17  31  52  77 103 132 169 212 254 294
#
# _framework density 17.891486
#
# number of rings (size 3 to 8) (size 9 to 14) (size 15 to 20)
#    0.000    2.625    0.000    3.000    0.000    3.500 
#    0.000    4.375    0.000    4.500    0.000    0.000 
#    0.000    0.000    0.000    0.000    0.000    0.000 
#
# Total GULP energy -356590.588095 kJ/mol
# GULP energy per Si atom -5571.727939 kJ/mol
# Density = 1.785076 g / cm^3
# Si number density = 17.891486 Si / 1000 Ang^3
#
#
#
# Elastic Constant Matrix: (Units=GPa)
#
#
# Indices 1 2 3 4 5 6 
#
# 1 116.4608 16.2777 50.0742 0.0000 0.0000 0.0000
# 2 16.2777 14.0094 7.7021 0.0000 0.0000 0.0000
# 3 50.0742 7.7021 69.1521 0.0000 0.0000 0.0000
# 4 0.0000 0.0000 0.0000 19.6060 0.0000 0.0000
# 5 0.0000 0.0000 0.0000 0.0000 16.7395 0.0000
# 6 0.0000 0.0000 0.0000 0.0000 0.0000 20.3772
#
#
#
# Elastic Compliance Matrix: (Units=1/GPa)
#
#
# Indices 1 2 3 4 5 6 
#
# 1 0.013987 -0.011380 -0.008861 0.000000 0.000000 0.000000
# 2 -0.011380 0.085296 -0.001260 0.000000 0.000000 0.000000
# 3 -0.008861 -0.001260 0.021017 0.000000 0.000000 0.000000
# 4 0.000000 0.000000 0.000000 0.051005 0.000000 0.000000
# 5 0.000000 0.000000 0.000000 0.000000 0.059739 0.000000
# 6 0.000000 0.000000 0.000000 0.000000 0.000000 0.049074
#
#
# Mechanical properties :
#
#
# Convention : Reuss Voigt Hill
#
# Bulk Modulus (GPa) = 12.93671 38.63671 25.78671
# Shear Modulus (GPa) = 14.33132 19.71575 17.02354
#
# Velocity S-wave (km/s) = 2.83329 3.32318 3.08797
# Velocity P-wave (km/s) = 4.23671 6.03048 5.21135
#
# Compressibility (1/GPa) = 0.07729939
#
# Stress axis : x y z
#
# Youngs Moduli (GPa) = 71.49494 11.72386 47.57971
#
# Poissons Ratio (x) = 0.13342 0.42159
# Poissons Ratio (y) = 0.81363 0.05993
# Poissons Ratio (z) = 0.63350 0.01477
#
# Static dielectric constant tensor:
#      x y z
#    x 1.630210 0.000000 0.000000 
#    y 0.000000 1.619820 0.000000 
#    z 0.000000 0.000000 1.602470 
# 
# From -- ./inp_files/30711.got.cif
#   From: 2010.05.17/outbox.cif.g08.bks.cpg/sg59_16_cif.got.tgz:30711.got - 2010.06.03 14:40:33.
