data_PCOD9447448
_publ_section_title
;
Structure prediction by ZEFSAII (Michael W. Deem and Ramdas Pophale) SiO2 
 PCOD9447448
Probable space group: P M M N
;
_chemical_formula_sum "Si O2"
_cell_formula_units_Z 48
_cell_length_a 7.665776
_cell_length_b 24.470411
_cell_length_c 14.339244
_cell_angle_alpha 90.000000
_cell_angle_beta 90.000000
_cell_angle_gamma 90.000000
_cell_volume 2689.822631
_symmetry_space_group_name_H-M "P M M N"
_symmetry_group_IT_number 59
_space_group.IT_coordinate_system_code '2'
_symmetry_cell_setting 'orthorhombic'
loop_
_space_group_symop_operation_xyz
x,y,z
1/2-x,1/2-y,z
1/2+x,-y,-z
-x,1/2+y,-z
-x,-y,-z
1/2+x,1/2+y,-z
1/2-x,y,z
x,1/2-y,z
loop_
_atom_site_type_symbol
_atom_site_label
_atom_site_fract_x
_atom_site_fract_y
_atom_site_fract_z
Si Si1 0.041307 0.023763 0.145410
Si Si2 0.037008 0.688507 0.147896
Si Si3 0.547394 0.527990 0.648134
Si Si4 0.960565 0.188542 0.637506
Si Si5 0.455733 0.077254 0.542316
Si Si6 0.960498 0.416241 0.963307
O O1 0.250000 0.017030 0.154387
O O2 0.969920 0.034059 0.248860
O O3 0.008409 0.070722 0.069649
O O4 0.974533 0.967407 0.099009
O O5 0.250000 0.688236 0.147267
O O6 0.981903 0.750000 0.122554
O O7 0.984306 0.678034 0.255253
O O8 0.976845 0.640604 0.079902
O O9 0.750000 0.544473 0.654885
O O10 0.473178 0.561745 0.560334
O O11 0.538101 0.464671 0.616454
O O12 0.750000 0.188649 0.637070
O O13 0.018562 0.250000 0.611788
O O14 0.019145 0.139460 0.572050
O O15 0.250000 0.064704 0.542578
O O16 0.750000 0.416290 0.958333
#
# Coordination Sequence:
#
# PCOD9447448 Si02
#       6
#     8   8   8   8   8   8
#     4   9  17  29  44  61  85 116 145 173 209 258
#     4   8  14  26  45  66  86 112 145 175 208 257
#     4   9  18  32  47  63  87 120 151 176 213 267
#     4   9  17  30  48  67  89 120 151 176 211 264
#     4  10  19  29  45  69  92 114 144 185 224 254
#     4   9  16  26  43  66  87 108 138 178 217 249
#
# _framework density 17.845044000000001
#
# number of rings (size 3 to 8) (size 9 to 14) (size 15 to 20)
#    0.000    3.000    0.000    2.500    0.000    4.333 
#    0.000    4.167    0.000    2.500    0.000    4.667 
#    0.000    0.000    0.000    0.000    0.000    0.000 
#
# Total GULP energy -267520.604332 kJ/mol
# GULP energy per Si atom -5573.345924 kJ/mol
# Density = 1.780443 g / cm^3
# Si number density = 17.845044 Si / 1000 Ang^3
#
#
#
# Elastic Constant Matrix: (Units=GPa)
#
#
# Indices 1 2 3 4 5 6 
#
# 1 29.8055 -5.3251 3.8305 0.0000 0.0000 0.0000
# 2 -5.3251 124.9013 81.6218 0.0000 0.0000 0.0000
# 3 3.8305 81.6218 139.2559 0.0000 0.0000 0.0000
# 4 0.0000 0.0000 0.0000 24.6119 0.0000 0.0000
# 5 0.0000 0.0000 0.0000 0.0000 8.2818 0.0000
# 6 0.0000 0.0000 0.0000 0.0000 0.0000 17.5661
#
#
#
# Elastic Compliance Matrix: (Units=1/GPa)
#
#
# Indices 1 2 3 4 5 6 
#
# 1 0.034535 0.003393 -0.002938 0.000000 0.000000 0.000000
# 2 0.003393 0.013310 -0.007895 0.000000 0.000000 0.000000
# 3 -0.002938 -0.007895 0.011889 0.000000 0.000000 0.000000
# 4 0.000000 0.000000 0.000000 0.040631 0.000000 0.000000
# 5 0.000000 0.000000 0.000000 0.000000 0.120747 0.000000
# 6 0.000000 0.000000 0.000000 0.000000 0.000000 0.056928
#
#
# Mechanical properties :
#
#
# Convention : Reuss Voigt Hill
#
# Bulk Modulus (GPa) = 22.29519 50.46857 36.38188
# Shear Modulus (GPa) = 16.24055 24.34766 20.29410
#
# Velocity S-wave (km/s) = 3.02004 3.69778 3.37596
# Velocity P-wave (km/s) = 4.96807 6.82454 5.96892
#
# Compressibility (1/GPa) = 0.04485271
#
# Stress axis : x y z
#
# Youngs Moduli (GPa) = 28.95647 75.13085 84.11005
#
# Poissons Ratio (x) = -0.25489 0.24715
# Poissons Ratio (y) = -0.09824 0.66403
# Poissons Ratio (z) = 0.08509 0.59314
#
# Static dielectric constant tensor:
#      x y z
#    x 1.676260 0.000000 0.000000 
#    y 0.000000 1.595010 0.000000 
#    z 0.000000 0.000000 1.619980 
# 
# From -- ./inp_files/15930.got.cif
#   From: 2010.05.17/outbox.cif.g08.bks.cpg/sg59_8_cif.got.tgz:15930.got - 2010.06.03 14:40:33.
