data_PCOD9447261
_publ_section_title
;
Structure prediction by ZEFSAII (Michael W. Deem and Ramdas Pophale) SiO2 
 PCOD9447261
Probable space group: P M M N
;
_chemical_formula_sum "Si O2"
_cell_formula_units_Z 40
_cell_length_a 9.653916
_cell_length_b 10.152355
_cell_length_c 22.960046
_cell_angle_alpha 90.000000
_cell_angle_beta 90.000000
_cell_angle_gamma 90.000000
_cell_volume 2250.313704
_symmetry_space_group_name_H-M "P M M N"
_symmetry_group_IT_number 59
_space_group.IT_coordinate_system_code '2'
_symmetry_cell_setting 'orthorhombic'
loop_
_space_group_symop_operation_xyz
x,y,z
1/2-x,1/2-y,z
1/2+x,-y,-z
-x,1/2+y,-z
-x,-y,-z
1/2+x,1/2+y,-z
1/2-x,y,z
x,1/2-y,z
loop_
_atom_site_type_symbol
_atom_site_label
_atom_site_fract_x
_atom_site_fract_y
_atom_site_fract_z
Si Si1 0.093756 0.409315 0.262469
Si Si2 0.750000 0.096320 0.079020
Si Si3 0.042818 0.094359 0.132181
Si Si4 0.750000 0.590021 0.967534
Si Si5 0.417956 0.003831 0.632952
Si Si6 0.919317 0.250000 0.579785
Si Si7 0.915993 0.250000 0.443801
O O1 0.250000 0.438549 0.283998
O O2 0.077645 0.250000 0.262876
O O3 0.083117 0.457586 0.195547
O O4 0.975804 0.469575 0.303088
O O5 0.750000 0.250000 0.058312
O O6 0.882985 0.077180 0.119062
O O7 0.750000 0.994156 0.025999
O O8 0.075755 0.250000 0.135272
O O9 0.122370 0.050505 0.074267
O O10 0.750000 0.750000 0.978037
O O11 0.250000 0.022905 0.632125
O O12 0.456038 0.879744 0.591787
O O13 0.506169 0.125372 0.608944
O O14 0.750000 0.250000 0.585570
O O15 0.957623 0.250000 0.511071
O O16 0.750000 0.250000 0.444221
#
# Coordination Sequence:
#
# PCOD9447261 Si02
#       7
#     8   4   8   4   8   4   4
#     4  10  19  34  57  83 113 146 198 243 285 344
#     4  10  20  32  52  82 110 136 181 227 286 338
#     4   9  18  32  52  80 108 144 184 231 281 333
#     4  10  18  34  56  76 106 146 181 227 278 338
#     4  11  22  38  61  91 119 155 196 245 296 340
#     4  11  23  41  61  83 125 165 194 231 290 361
#     4   9  20  39  61  93 121 149 196 247 290 339
#
# _framework density 17.775300999999999
#
# number of rings (size 3 to 8) (size 9 to 14) (size 15 to 20)
#    0.000    2.000    2.000    2.100    1.400    0.000 
#    0.000    3.000    4.400    0.000    0.000    0.000 
#    0.000    0.000    0.000    0.000    0.000    0.000 
#
# Total GULP energy -222889.719713 kJ/mol
# GULP energy per Si atom -5572.242993 kJ/mol
# Density = 1.773484 g / cm^3
# Si number density = 17.775301 Si / 1000 Ang^3
#
#
#
# Elastic Constant Matrix: (Units=GPa)
#
#
# Indices 1 2 3 4 5 6 
#
# 1 112.2144 40.0184 35.2049 0.0000 0.0000 0.0000
# 2 40.0184 81.4689 39.4464 0.0000 0.0000 0.0000
# 3 35.2049 39.4464 98.9676 0.0000 0.0000 0.0000
# 4 0.0000 0.0000 0.0000 17.4835 0.0000 0.0000
# 5 0.0000 0.0000 0.0000 0.0000 79.0135 0.0000
# 6 0.0000 0.0000 0.0000 0.0000 0.0000 836.8386
#
#
#
# Elastic Compliance Matrix: (Units=1/GPa)
#
#
# Indices 1 2 3 4 5 6 
#
# 1 0.011183 -0.004420 -0.002216 0.000000 0.000000 0.000000
# 2 -0.004420 0.016957 -0.005186 0.000000 0.000000 0.000000
# 3 -0.002216 -0.005186 0.012960 0.000000 0.000000 0.000000
# 4 0.000000 0.000000 0.000000 0.057197 0.000000 0.000000
# 5 0.000000 0.000000 0.000000 0.000000 0.012656 0.000000
# 6 0.000000 0.000000 0.000000 0.000000 0.000000 0.001195
#
#
# Mechanical properties :
#
#
# Convention : Reuss Voigt Hill
#
# Bulk Modulus (GPa) = 57.29216 57.99891 57.64553
# Shear Modulus (GPa) = 35.30779 198.53253 116.92016
#
# Velocity S-wave (km/s) = 4.46167 10.57982 8.11909
# Velocity P-wave (km/s) = 7.67094 13.48863 10.97239
#
# Compressibility (1/GPa) = 0.01745440
#
# Stress axis : x y z
#
# Youngs Moduli (GPa) = 89.41998 58.97256 77.16131
#
# Poissons Ratio (x) = 0.26067 0.17101
# Poissons Ratio (y) = 0.39525 0.40019
# Poissons Ratio (z) = 0.19818 0.30585
#
# Static dielectric constant tensor:
#      x y z
#    x 1.654450 0.000000 0.000000 
#    y 0.000000 1.613370 0.000000 
#    z 0.000000 0.000000 1.610150 
# 
# From -- ./inp_files/28798.got.cif
#   From: 2010.05.17/outbox.cif.g08.bks.cpg/sg59_15_cif.got.tgz:28798.got - 2010.06.03 14:40:33.
