data_PCOD9447569
_publ_section_title
;
Structure prediction by ZEFSAII (Michael W. Deem and Ramdas Pophale) SiO2 
 PCOD9447569
Probable space group: P M M N
;
_chemical_formula_sum "Si O2"
_cell_formula_units_Z 56
_cell_length_a 8.539379
_cell_length_b 23.673979
_cell_length_c 15.175499
_cell_angle_alpha 90.000000
_cell_angle_beta 90.000000
_cell_angle_gamma 90.000000
_cell_volume 3067.895254
_symmetry_space_group_name_H-M "P M M N"
_symmetry_group_IT_number 59
_space_group.IT_coordinate_system_code '2'
_symmetry_cell_setting 'orthorhombic'
loop_
_space_group_symop_operation_xyz
x,y,z
1/2-x,1/2-y,z
1/2+x,-y,-z
-x,1/2+y,-z
-x,-y,-z
1/2+x,1/2+y,-z
1/2-x,y,z
x,1/2-y,z
loop_
_atom_site_type_symbol
_atom_site_label
_atom_site_fract_x
_atom_site_fract_y
_atom_site_fract_z
Si Si1 0.570159 0.183220 0.837657
Si Si2 0.063999 0.995811 0.401576
Si Si3 0.932305 0.515240 0.111254
Si Si4 0.430618 0.098562 0.717718
Si Si5 0.061874 0.685653 0.836152
Si Si6 0.565734 0.618152 0.002447
Si Si7 0.440300 0.925349 0.752624
O O1 0.750000 0.168571 0.860731
O O2 0.555667 0.250000 0.834025
O O3 0.524256 0.153654 0.746602
O O4 0.458631 0.157304 0.911838
O O5 0.250000 0.998940 0.401705
O O6 0.999373 0.043698 0.334673
O O7 0.000000 0.000000 0.500000
O O8 0.007573 0.936853 0.359771
O O9 0.750000 0.504476 0.089353
O O10 0.934223 0.557461 0.196340
O O11 0.997973 0.555757 0.032857
O O12 0.999501 0.459288 0.159292
O O13 0.250000 0.111068 0.698807
O O14 0.250000 0.689121 0.833559
O O15 0.000634 0.750000 0.831384
O O16 0.013640 0.640177 0.761787
O O17 0.016193 0.653387 0.925726
O O18 0.750000 0.611996 0.983788
O O19 0.250000 0.929592 0.754147
#
# Coordination Sequence:
#
# PCOD9447569 Si02
#       7
#     8   8   8   8   8   8   8
#     4  10  19  30  46  70 102 140 180 218 256 300
#     4  11  21  35  58  85 108 128 156 198 252 314
#     4   7  13  27  46  68  94 125 162 208 259 304
#     4   9  17  31  50  74 104 134 166 204 250 303
#     4  10  21  35  50  70 100 140 183 223 261 303
#     4  10  19  30  46  69  98 135 182 229 267 304
#     4   9  18  35  55  74 101 136 172 213 264 318
#
# _framework density 18.253558000000002
#
# number of rings (size 3 to 8) (size 9 to 14) (size 15 to 20)
#    0.000    2.571    0.000    4.714    0.000    4.286 
#    0.000    0.714    0.000    0.857    0.000    2.000 
#    0.000    0.000    0.000    0.000    0.000    0.000 
#
# Total GULP energy -312119.971106 kJ/mol
# GULP energy per Si atom -5573.570913 kJ/mol
# Density = 1.821201 g / cm^3
# Si number density = 18.253558 Si / 1000 Ang^3
#
#
#
# Elastic Constant Matrix: (Units=GPa)
#
#
# Indices 1 2 3 4 5 6 
#
# 1 23.2183 12.2258 -1.7646 0.0000 0.0000 0.0000
# 2 12.2258 112.2960 25.4758 0.0000 0.0000 0.0000
# 3 -1.7646 25.4758 79.5720 0.0000 0.0000 0.0000
# 4 0.0000 0.0000 0.0000 15.2149 0.0000 0.0000
# 5 0.0000 0.0000 0.0000 0.0000 25.8229 0.0000
# 6 0.0000 0.0000 0.0000 0.0000 0.0000 22.0529
#
#
#
# Elastic Compliance Matrix: (Units=1/GPa)
#
#
# Indices 1 2 3 4 5 6 
#
# 1 0.046279 -0.005684 0.002846 0.000000 0.000000 0.000000
# 2 -0.005684 0.010301 -0.003424 0.000000 0.000000 0.000000
# 3 0.002846 -0.003424 0.013727 0.000000 0.000000 0.000000
# 4 0.000000 0.000000 0.000000 0.065725 0.000000 0.000000
# 5 0.000000 0.000000 0.000000 0.000000 0.038725 0.000000
# 6 0.000000 0.000000 0.000000 0.000000 0.000000 0.045346
#
#
# Mechanical properties :
#
#
# Convention : Reuss Voigt Hill
#
# Bulk Modulus (GPa) = 17.30638 31.88448 24.59543
# Shear Modulus (GPa) = 19.85022 24.56143 22.20582
#
# Velocity S-wave (km/s) = 3.30126 3.67218 3.49165
# Velocity P-wave (km/s) = 4.90232 5.95696 5.45519
#
# Compressibility (1/GPa) = 0.05778216
#
# Stress axis : x y z
#
# Youngs Moduli (GPa) = 21.60819 97.08146 72.85154
#
# Poissons Ratio (x) = 0.55182 -0.20734
# Poissons Ratio (y) = 0.12282 0.24944
# Poissons Ratio (z) = -0.06150 0.33240
#
# Static dielectric constant tensor:
#      x y z
#    x 1.505720 0.000000 0.000000 
#    y 0.000000 1.667170 0.000000 
#    z 0.000000 0.000000 1.632150 
# 
# From -- ./inp_files/21050.got.cif
#   From: 2010.05.17/outbox.cif.g08.bks.cpg/sg59_11_cif.got.tgz:21050.got - 2010.06.03 14:40:33.
