data_PCOD9447767
_publ_section_title
;
Structure prediction by ZEFSAII (Michael W. Deem and Ramdas Pophale) SiO2 
 PCOD9447767
Probable space group: P M M N
;
_chemical_formula_sum "Si O2"
_cell_formula_units_Z 64
_cell_length_a 7.828583
_cell_length_b 18.218675
_cell_length_c 24.038664
_cell_angle_alpha 90.000000
_cell_angle_beta 90.000000
_cell_angle_gamma 90.000000
_cell_volume 3428.548333
_symmetry_space_group_name_H-M "P M M N"
_symmetry_group_IT_number 59
_space_group.IT_coordinate_system_code '2'
_symmetry_cell_setting 'orthorhombic'
loop_
_space_group_symop_operation_xyz
x,y,z
1/2-x,1/2-y,z
1/2+x,-y,-z
-x,1/2+y,-z
-x,-y,-z
1/2+x,1/2+y,-z
1/2-x,y,z
x,1/2-y,z
loop_
_atom_site_type_symbol
_atom_site_label
_atom_site_fract_x
_atom_site_fract_y
_atom_site_fract_z
Si Si1 0.044946 0.572562 0.535198
Si Si2 0.543504 0.831301 0.183649
Si Si3 0.540325 0.834330 0.955562
Si Si4 0.549954 0.523253 0.368944
Si Si5 0.454666 0.667906 0.435999
Si Si6 0.543853 0.906704 0.070218
Si Si7 0.950266 0.479325 0.757358
Si Si8 0.047681 0.446541 0.132221
O O1 0.250000 0.582818 0.538312
O O2 0.980100 0.546629 0.595762
O O3 0.979650 0.638868 0.496374
O O4 0.000000 0.500000 0.500000
O O5 0.750000 0.833459 0.187434
O O6 0.485032 0.750000 0.198744
O O7 0.498644 0.850444 0.119805
O O8 0.473263 0.895948 0.221653
O O9 0.750000 0.835533 0.955830
O O10 0.487549 0.750000 0.958258
O O11 0.480281 0.875855 0.900125
O O12 0.484541 0.878303 0.010587
O O13 0.750000 0.525823 0.380860
O O14 0.485127 0.601918 0.392019
O O15 0.524970 0.513094 0.303686
O O16 0.250000 0.673123 0.439935
O O17 0.519637 0.750000 0.422214
O O18 0.750000 0.911796 0.068753
O O19 0.475362 0.984926 0.090302
O O20 0.750000 0.494830 0.752812
O O21 0.024241 0.528902 0.807864
O O22 0.250000 0.436006 0.140175
#
# Coordination Sequence:
#
# PCOD9447767 Si02
#       8
#     8   8   8   8   8   8   8   8
#     4   8  15  28  46  68  91 116 146 176 208 249
#     4   9  17  29  44  63  88 116 146 181 221 267
#     4   9  16  27  46  70  91 112 143 184 229 277
#     4  10  19  31  48  68  90 119 155 189 217 251
#     4   9  17  30  49  73 100 124 143 171 216 265
#     4   9  16  27  46  69  90 114 144 179 223 276
#     4  10  20  32  45  62  86 118 156 191 222 259
#     4   9  18  31  46  65  89 118 151 187 226 267
#
# _framework density 18.666792999999998
#
# number of rings (size 3 to 8) (size 9 to 14) (size 15 to 20)
#    0.000    2.875    0.000    1.500    0.000    3.500 
#    0.000    0.000    0.000    3.000    0.000    0.000 
#    0.000    0.000    0.000    0.000    0.000    0.750 
#
# Total GULP energy -356437.459084 kJ/mol
# GULP energy per Si atom -5569.335298 kJ/mol
# Density = 1.862431 g / cm^3
# Si number density = 18.666793 Si / 1000 Ang^3
#
#
#
# Elastic Constant Matrix: (Units=GPa)
#
#
# Indices 1 2 3 4 5 6 
#
# 1 19.3445 0.2891 0.3682 0.0000 0.0000 0.0000
# 2 0.2891 40.5862 44.3978 0.0000 0.0000 0.0000
# 3 0.3682 44.3978 130.8737 0.0000 0.0000 0.0000
# 4 0.0000 0.0000 0.0000 8.0909 0.0000 0.0000
# 5 0.0000 0.0000 0.0000 0.0000 0.3939 0.0000
# 6 0.0000 0.0000 0.0000 0.0000 0.0000 11.1696
#
#
#
# Elastic Compliance Matrix: (Units=1/GPa)
#
#
# Indices 1 2 3 4 5 6 
#
# 1 0.051700 -0.000333 -0.000033 0.000000 0.000000 0.000000
# 2 -0.000333 0.039180 -0.013291 0.000000 0.000000 0.000000
# 3 -0.000033 -0.013291 0.012150 0.000000 0.000000 0.000000
# 4 0.000000 0.000000 0.000000 0.123596 0.000000 0.000000
# 5 0.000000 0.000000 0.000000 0.000000 2.538869 0.000000
# 6 0.000000 0.000000 0.000000 0.000000 0.000000 0.089529
#
#
# Mechanical properties :
#
#
# Convention : Reuss Voigt Hill
#
# Bulk Modulus (GPa) = 13.20687 31.21271 22.20979
# Shear Modulus (GPa) = 1.71965 13.64749 7.68357
#
# Velocity S-wave (km/s) = 0.96085 2.70684 2.03104
# Velocity P-wave (km/s) = 2.88468 5.15040 4.17421
#
# Compressibility (1/GPa) = 0.07571816
#
# Stress axis : x y z
#
# Youngs Moduli (GPa) = 19.34238 25.52323 82.30620
#
# Poissons Ratio (x) = 0.00849 0.00268
# Poissons Ratio (y) = 0.00643 1.09389
# Poissons Ratio (z) = 0.00063 0.33922
#
# Static dielectric constant tensor:
#      x y z
#    x 1.686220 0.000000 0.000000 
#    y 0.000000 1.651240 0.000000 
#    z 0.000000 0.000000 1.668870 
# 
# From -- ./inp_files/31741.got.cif
#   From: 2010.05.17/outbox.cif.g08.bks.cpg/sg59_16_cif.got.tgz:31741.got - 2010.06.03 14:40:33.
