data_PCOD9447835
_publ_section_title
;
Structure prediction by ZEFSAII (Michael W. Deem and Ramdas Pophale) SiO2 
 PCOD9447835
Probable space group: P M M N
;
_chemical_formula_sum "Si O2"
_cell_formula_units_Z 48
_cell_length_a 14.324645
_cell_length_b 7.543729
_cell_length_c 21.501151
_cell_angle_alpha 90.000000
_cell_angle_beta 90.000000
_cell_angle_gamma 90.000000
_cell_volume 2323.441036
_symmetry_space_group_name_H-M "P M M N"
_symmetry_group_IT_number 59
_space_group.IT_coordinate_system_code '2'
_symmetry_cell_setting 'orthorhombic'
loop_
_space_group_symop_operation_xyz
x,y,z
1/2-x,1/2-y,z
1/2+x,-y,-z
-x,1/2+y,-z
-x,-y,-z
1/2+x,1/2+y,-z
1/2-x,y,z
x,1/2-y,z
loop_
_atom_site_type_symbol
_atom_site_label
_atom_site_fract_x
_atom_site_fract_y
_atom_site_fract_z
Si Si1 0.142856 0.032831 0.090933
Si Si2 0.523342 0.046269 0.167468
Si Si3 0.360285 0.462895 0.952320
Si Si4 0.354086 0.957479 0.458665
Si Si5 0.551578 0.538201 0.413006
Si Si6 0.143887 0.962598 0.719136
O O1 0.250000 0.980492 0.099403
O O2 0.140601 0.250000 0.090420
O O3 0.074243 0.966947 0.144377
O O4 0.111044 0.977401 0.021632
O O5 0.503680 0.250000 0.185113
O O6 0.581353 0.965855 0.224110
O O7 0.585545 0.044255 0.105150
O O8 0.250000 0.500397 0.946785
O O9 0.371869 0.250000 0.948995
O O10 0.250000 0.033516 0.448847
O O11 0.348614 0.750000 0.442179
O O12 0.445458 0.030970 0.422994
O O13 0.383244 0.969558 0.531172
O O14 0.548576 0.750000 0.420552
O O15 0.594701 0.496217 0.346487
O O16 0.250000 0.031594 0.719956
O O17 0.150241 0.750000 0.727292
#
# Coordination Sequence:
#
# PCOD9447835 Si02
#       6
#     8   8   8   8   8   8
#     4   8  15  29  48  69  93 121 154 195 245 294
#     4  10  19  31  49  70  92 123 163 201 234 278
#     4   9  17  29  46  69  96 123 151 191 246 297
#     4   9  18  34  55  77 103 132 157 189 239 286
#     4  10  20  33  52  78 102 127 164 201 229 270
#     4  10  21  35  48  66  98 134 161 191 238 288
#
# _framework density 20.659016000000001
#
# number of rings (size 3 to 8) (size 9 to 14) (size 15 to 20)
#    0.000    2.667    0.000    3.000    0.000    5.000 
#    0.000    0.833    0.000    2.500    0.000    0.000 
#    0.000    0.000    0.000    0.000    0.000    0.000 
#
# Total GULP energy -267836.681779 kJ/mol
# GULP energy per Si atom -5579.930870 kJ/mol
# Density = 2.061200 g / cm^3
# Si number density = 20.659016 Si / 1000 Ang^3
#
#
#
# Elastic Constant Matrix: (Units=GPa)
#
#
# Indices 1 2 3 4 5 6 
#
# 1 134.5485 -4.1363 73.5353 0.0000 0.0000 0.0000
# 2 -4.1363 48.0944 -12.5699 0.0000 0.0000 0.0000
# 3 73.5353 -12.5699 122.8586 0.0000 0.0000 0.0000
# 4 0.0000 0.0000 0.0000 3.4303 0.0000 0.0000
# 5 0.0000 0.0000 0.0000 0.0000 2.3874 0.0000
# 6 0.0000 0.0000 0.0000 0.0000 0.0000 10.8841
#
#
#
# Elastic Compliance Matrix: (Units=1/GPa)
#
#
# Indices 1 2 3 4 5 6 
#
# 1 0.011075 -0.000801 -0.006711 0.000000 0.000000 0.000000
# 2 -0.000801 0.021422 0.002671 0.000000 0.000000 0.000000
# 3 -0.006711 0.002671 0.012430 0.000000 0.000000 0.000000
# 4 0.000000 0.000000 0.000000 0.291517 0.000000 0.000000
# 5 0.000000 0.000000 0.000000 0.000000 0.418866 0.000000
# 6 0.000000 0.000000 0.000000 0.000000 0.000000 0.091877
#
#
# Mechanical properties :
#
#
# Convention : Reuss Voigt Hill
#
# Bulk Modulus (GPa) = 28.37322 46.57330 37.47326
# Shear Modulus (GPa) = 5.75628 19.91854 12.83741
#
# Velocity S-wave (km/s) = 1.67104 3.10846 2.49548
# Velocity P-wave (km/s) = 4.18175 5.95618 5.14602
#
# Compressibility (1/GPa) = 0.03524451
#
# Stress axis : x y z
#
# Youngs Moduli (GPa) = 90.28985 46.68159 80.45339
#
# Poissons Ratio (x) = 0.03741 0.53993
# Poissons Ratio (y) = 0.07236 -0.21492
# Poissons Ratio (z) = 0.60594 -0.12471
#
# Static dielectric constant tensor:
#      x y z
#    x 1.773030 0.000000 0.000000 
#    y 0.000000 1.784930 0.000000 
#    z 0.000000 0.000000 1.694710 
# 
# From -- ./inp_files/27383.got.cif
#   From: 2010.05.17/outbox.cif.g08.bks.cpg/sg59_14_cif.got.tgz:27383.got - 2010.06.03 14:40:33.
