data_PCOD9447529
_publ_section_title
;
Structure prediction by ZEFSAII (Michael W. Deem and Ramdas Pophale) SiO2 
 PCOD9447529
Probable space group: P M M N
;
_chemical_formula_sum "Si O2"
_cell_formula_units_Z 64
_cell_length_a 29.204427
_cell_length_b 7.820098
_cell_length_c 16.341559
_cell_angle_alpha 90.000000
_cell_angle_beta 90.000000
_cell_angle_gamma 90.000000
_cell_volume 3732.109449
_symmetry_space_group_name_H-M "P M M N"
_symmetry_group_IT_number 59
_space_group.IT_coordinate_system_code '2'
_symmetry_cell_setting 'orthorhombic'
loop_
_space_group_symop_operation_xyz
x,y,z
1/2-x,1/2-y,z
1/2+x,-y,-z
-x,1/2+y,-z
-x,-y,-z
1/2+x,1/2+y,-z
1/2-x,y,z
x,1/2-y,z
loop_
_atom_site_type_symbol
_atom_site_label
_atom_site_fract_x
_atom_site_fract_y
_atom_site_fract_z
Si Si1 0.801380 0.541119 0.594818
Si Si2 0.057175 0.548635 0.820641
Si Si3 0.394145 0.049368 0.329087
Si Si4 0.952474 0.049501 0.825521
Si Si5 0.946735 0.454963 0.506765
Si Si6 0.602947 0.046926 0.342848
Si Si7 0.553813 0.044673 0.001699
Si Si8 0.301267 0.043484 0.594593
O O1 0.750000 0.488512 0.619159
O O2 0.802195 0.750000 0.595222
O O3 0.843562 0.480189 0.649530
O O4 0.808732 0.489255 0.500086
O O5 0.068570 0.750000 0.822684
O O6 0.081603 0.474160 0.740575
O O7 0.070521 0.476216 0.910317
O O8 0.002137 0.534516 0.811458
O O9 0.389867 0.250000 0.312022
O O10 0.419775 0.971605 0.251668
O O11 0.424264 0.026965 0.410949
O O12 0.962432 0.250000 0.836255
O O13 0.930474 0.986061 0.911539
O O14 0.941920 0.250000 0.510729
O O15 0.920751 0.521331 0.425642
O O16 0.000000 0.500000 0.500000
O O17 0.593421 0.250000 0.343085
O O18 0.657039 0.020251 0.351184
O O19 0.559507 0.250000 0.005037
O O20 0.500000 0.000000 0.000000
O O21 0.250000 0.988448 0.618639
O O22 0.302028 0.250000 0.595273
#
# Coordination Sequence:
#
# PCOD9447529 Si02
#       8
#     8   8   8   8   8   8   8   8
#     4   8  15  29  48  67  85 110 149 192 229 269
#     4   9  17  31  48  67  92 123 157 189 224 272
#     4  11  20  31  48  67  89 122 157 190 227 269
#     4  10  19  30  45  68  95 122 153 191 231 272
#     4  11  22  33  44  63  94 128 158 186 220 264
#     4  10  20  31  45  67  93 119 150 188 228 266
#     4   8  15  28  46  65  88 118 151 189 230 268
#     4   9  17  31  50  68  87 115 151 189 228 271
#
# _framework density 17.148478999999998
#
# number of rings (size 3 to 8) (size 9 to 14) (size 15 to 20)
#    0.000    2.500    1.250    2.625    0.000    2.750 
#    0.000    0.000    0.000    1.500    0.000    0.875 
#    0.000    5.000    0.000    0.000    0.000    0.000 
#
# Total GULP energy -356634.400107 kJ/mol
# GULP energy per Si atom -5572.412502 kJ/mol
# Density = 1.710945 g / cm^3
# Si number density = 17.148479 Si / 1000 Ang^3
#
#
#
# Elastic Constant Matrix: (Units=GPa)
#
#
# Indices 1 2 3 4 5 6 
#
# 1 87.4744 -14.3730 60.8276 0.0000 0.0000 0.0000
# 2 -14.3730 17.9544 -1.4901 0.0000 0.0000 0.0000
# 3 60.8276 -1.4901 153.9574 0.0000 0.0000 0.0000
# 4 0.0000 0.0000 0.0000 -2.9757 0.0000 0.0000
# 5 0.0000 0.0000 0.0000 0.0000 8.2352 0.0000
# 6 0.0000 0.0000 0.0000 0.0000 0.0000 15.8237
#
#
#
# Elastic Compliance Matrix: (Units=1/GPa)
#
#
# Indices 1 2 3 4 5 6 
#
# 1 0.018921 0.014538 -0.007335 0.000000 0.000000 0.000000
# 2 0.014538 0.066912 -0.005096 0.000000 0.000000 0.000000
# 3 -0.007335 -0.005096 0.009344 0.000000 0.000000 0.000000
# 4 0.000000 0.000000 0.000000 -0.336059 0.000000 0.000000
# 5 0.000000 0.000000 0.000000 0.000000 0.121430 0.000000
# 6 0.000000 0.000000 0.000000 0.000000 0.000000 0.063196
#
#
# Mechanical properties :
#
#
# Convention : Reuss Voigt Hill
#
# Bulk Modulus (GPa) = 10.06127 38.81280 24.43703
# Shear Modulus (GPa) = -182.88899 18.51142 -82.18879
#
# Velocity S-wave (km/s) = -10.33837 3.28911 -6.93050
# Velocity P-wave (km/s) = 11.68885 6.09154 7.05416
#
# Compressibility (1/GPa) = 0.09939108
#
# Stress axis : x y z
#
# Youngs Moduli (GPa) = 52.85056 14.94501 107.02076
#
# Poissons Ratio (x) = -0.21727 0.78499
# Poissons Ratio (y) = -0.76835 0.54541
# Poissons Ratio (z) = 0.38766 0.07616
#
# Static dielectric constant tensor:
#      x y z
#    x 1.562820 0.000000 0.000000 
#    y 0.000000 1.637920 0.000000 
#    z 0.000000 0.000000 1.626610 
# 
# From -- ./inp_files/21840.got.cif
#   From: 2010.05.17/outbox.cif.g08.bks.cpg/sg59_11_cif.got.tgz:21840.got - 2010.06.03 14:40:33.
