data_PCOD9447596
_publ_section_title
;
Structure prediction by ZEFSAII (Michael W. Deem and Ramdas Pophale) SiO2 
 PCOD9447596
Probable space group: P M M N
;
_chemical_formula_sum "Si O2"
_cell_formula_units_Z 64
_cell_length_a 7.929733
_cell_length_b 15.253622
_cell_length_c 28.759289
_cell_angle_alpha 90.000000
_cell_angle_beta 90.000000
_cell_angle_gamma 90.000000
_cell_volume 3478.641626
_symmetry_space_group_name_H-M "P M M N"
_symmetry_group_IT_number 59
_space_group.IT_coordinate_system_code '2'
_symmetry_cell_setting 'orthorhombic'
loop_
_space_group_symop_operation_xyz
x,y,z
1/2-x,1/2-y,z
1/2+x,-y,-z
-x,1/2+y,-z
-x,-y,-z
1/2+x,1/2+y,-z
1/2-x,y,z
x,1/2-y,z
loop_
_atom_site_type_symbol
_atom_site_label
_atom_site_fract_x
_atom_site_fract_y
_atom_site_fract_z
Si Si1 0.548223 0.847781 0.698136
Si Si2 0.043602 0.150859 0.573038
Si Si3 0.947214 0.476434 0.383127
Si Si4 0.546600 0.650986 0.803529
Si Si5 0.546056 0.350475 0.028319
Si Si6 0.047197 0.972002 0.887600
Si Si7 0.046240 0.149381 0.466061
Si Si8 0.951248 0.847939 0.077375
O O1 0.750000 0.841814 0.700890
O O2 0.485794 0.750000 0.684255
O O3 0.511566 0.921523 0.660515
O O4 0.487431 0.866398 0.750646
O O5 0.250000 0.150672 0.573404
O O6 0.990359 0.250000 0.584805
O O7 0.994836 0.132223 0.519393
O O8 0.980928 0.072964 0.605924
O O9 0.750000 0.487923 0.375480
O O10 0.974585 0.418135 0.429188
O O11 0.750000 0.651999 0.803078
O O12 0.489968 0.750000 0.816478
O O13 0.492394 0.579439 0.840674
O O14 0.750000 0.353754 0.026889
O O15 0.496745 0.250000 0.039158
O O16 0.484571 0.415455 0.068305
O O17 0.481272 0.370982 0.976765
O O18 0.250000 0.975421 0.891733
O O19 0.982663 0.071492 0.892027
O O20 0.250000 0.144572 0.463860
O O21 0.998747 0.250000 0.454761
O O22 0.750000 0.842664 0.084397
O O23 0.021922 0.750000 0.085407
#
# Coordination Sequence:
#
# PCOD9447596 Si02
#       8
#     8   8   8   8   8   8   8   8
#     4   9  19  36  53  68  92 124 150 176 222 284
#     4   8  16  31  47  64  91 127 162 191 222 266
#     4  11  20  28  46  74  96 117 152 197 234 263
#     4   9  19  35  53  72  92 116 149 186 224 274
#     4   9  17  28  42  64  94 124 154 189 230 274
#     4  10  19  30  47  70  95 123 153 189 235 276
#     4   9  17  30  47  65  91 130 163 183 218 275
#     4   9  18  31  45  64  93 128 163 194 221 257
#
# _framework density 18.397986
#
# number of rings (size 3 to 8) (size 9 to 14) (size 15 to 20)
#    0.000    2.750    0.000    3.375    0.000    4.250 
#    0.000    3.125    0.000    3.750    0.000    5.250 
#    0.000    0.000    0.000    0.000    0.000    0.000 
#
# Total GULP energy -356908.828495 kJ/mol
# GULP energy per Si atom -5576.700445 kJ/mol
# Density = 1.835611 g / cm^3
# Si number density = 18.397986 Si / 1000 Ang^3
#
#
#
# Elastic Constant Matrix: (Units=GPa)
#
#
# Indices 1 2 3 4 5 6 
#
# 1 10.5820 8.0695 2.7378 0.0000 0.0000 0.0000
# 2 8.0695 154.7931 107.0039 0.0000 0.0000 0.0000
# 3 2.7378 107.0039 100.0638 0.0000 0.0000 0.0000
# 4 0.0000 0.0000 0.0000 30.9203 0.0000 0.0000
# 5 0.0000 0.0000 0.0000 0.0000 21.0977 0.0000
# 6 0.0000 0.0000 0.0000 0.0000 0.0000 13.3292
#
#
#
# Elastic Compliance Matrix: (Units=1/GPa)
#
#
# Indices 1 2 3 4 5 6 
#
# 1 0.101501 -0.012929 0.011048 0.000000 0.000000 0.000000
# 2 -0.012929 0.026419 -0.027897 0.000000 0.000000 0.000000
# 3 0.011048 -0.027897 0.039524 0.000000 0.000000 0.000000
# 4 0.000000 0.000000 0.000000 0.032341 0.000000 0.000000
# 5 0.000000 0.000000 0.000000 0.000000 0.047399 0.000000
# 6 0.000000 0.000000 0.000000 0.000000 0.000000 0.075023
#
#
# Mechanical properties :
#
#
# Convention : Reuss Voigt Hill
#
# Bulk Modulus (GPa) = 9.26892 55.67348 32.47120
# Shear Modulus (GPa) = 11.96960 22.91128 17.44044
#
# Velocity S-wave (km/s) = 2.55344 3.53273 3.08223
# Velocity P-wave (km/s) = 3.70707 6.85322 5.50949
#
# Compressibility (1/GPa) = 0.10788749
#
# Stress axis : x y z
#
# Youngs Moduli (GPa) = 9.85214 37.85167 25.30128
#
# Poissons Ratio (x) = 0.48937 -0.27953
# Poissons Ratio (y) = 0.12737 0.70584
# Poissons Ratio (z) = -0.10885 1.05597
#
# Static dielectric constant tensor:
#      x y z
#    x 1.661440 0.000000 0.000000 
#    y 0.000000 1.673660 0.000000 
#    z 0.000000 0.000000 1.610240 
# 
# From -- ./inp_files/33212.got.cif
#   From: 2010.05.17/outbox.cif.g08.bks.cpg/sg59_17_cif.got.tgz:33212.got - 2010.06.03 14:40:33.
