data_PCOD9447464
_publ_section_title
;
Structure prediction by ZEFSAII (Michael W. Deem and Ramdas Pophale) SiO2 
 PCOD9447464
Probable space group: P M M N
;
_chemical_formula_sum "Si O2"
_cell_formula_units_Z 56
_cell_length_a 7.380976
_cell_length_b 13.919024
_cell_length_c 25.031827
_cell_angle_alpha 90.000000
_cell_angle_beta 90.000000
_cell_angle_gamma 90.000000
_cell_volume 2571.669330
_symmetry_space_group_name_H-M "P M M N"
_symmetry_group_IT_number 59
_space_group.IT_coordinate_system_code '2'
_symmetry_cell_setting 'orthorhombic'
loop_
_space_group_symop_operation_xyz
x,y,z
1/2-x,1/2-y,z
1/2+x,-y,-z
-x,1/2+y,-z
-x,-y,-z
1/2+x,1/2+y,-z
1/2-x,y,z
x,1/2-y,z
loop_
_atom_site_type_symbol
_atom_site_label
_atom_site_fract_x
_atom_site_fract_y
_atom_site_fract_z
Si Si1 0.468794 0.142093 0.029172
Si Si2 0.968868 0.859795 0.644062
Si Si3 0.465546 0.366526 0.472531
Si Si4 0.538922 0.546802 0.302929
Si Si5 0.028569 0.361866 0.806559
Si Si6 0.029719 0.136741 0.587713
Si Si7 0.537354 0.946114 0.082144
O O1 0.250000 0.142993 0.027443
O O2 0.530189 0.250000 0.041013
O O3 0.519493 0.059269 0.070828
O O4 0.535958 0.107406 0.970700
O O5 0.750000 0.859026 0.641910
O O6 0.027884 0.750000 0.651751
O O7 0.036855 0.896130 0.585659
O O8 0.025682 0.932791 0.689764
O O9 0.250000 0.383403 0.472272
O O10 0.488416 0.250000 0.473052
O O11 0.536588 0.401645 0.529928
O O12 0.750000 0.575173 0.303370
O O13 0.464350 0.586919 0.247635
O O14 0.460434 0.588966 0.358109
O O15 0.250000 0.367010 0.806548
O O16 0.979632 0.250000 0.806139
O O17 0.964143 0.411472 0.861184
O O18 0.250000 0.128965 0.586489
O O19 0.987850 0.250000 0.590254
O O20 0.750000 0.922282 0.083019
#
# Coordination Sequence:
#
# PCOD9447464 Si02
#       7
#     8   8   8   8   8   8   8
#     4   9  17  30  49  74 103 131 158 193 237 278
#     4   9  18  33  49  62  82 118 158 190 226 277
#     4   7  11  22  41  62  83 111 147 182 219 272
#     4  10  19  29  46  72  94 114 147 191 233 268
#     4   9  17  31  51  73  97 125 156 188 224 273
#     4   8  13  23  41  66  93 116 141 179 227 277
#     4   9  17  30  50  74  98 128 165 197 227 270
#
# _framework density 21.775738
#
# number of rings (size 3 to 8) (size 9 to 14) (size 15 to 20)
#    0.000    3.286    0.000    2.571    0.000    4.571 
#    0.000    1.429    0.000    8.143    0.000    2.000 
#    0.000    0.000    0.000    0.000    0.000    0.000 
#
# Total GULP energy -312526.827989 kJ/mol
# GULP energy per Si atom -5580.836214 kJ/mol
# Density = 2.172618 g / cm^3
# Si number density = 21.775738 Si / 1000 Ang^3
#
#
#
# Elastic Constant Matrix: (Units=GPa)
#
#
# Indices 1 2 3 4 5 6 
#
# 1 74.9228 -12.8365 7.2301 0.0000 0.0000 0.0000
# 2 -12.8365 115.2177 103.9473 0.0000 0.0000 0.0000
# 3 7.2301 103.9473 195.6423 0.0000 0.0000 0.0000
# 4 0.0000 0.0000 0.0000 32.8336 0.0000 0.0000
# 5 0.0000 0.0000 0.0000 0.0000 -100.2485 0.0000
# 6 0.0000 0.0000 0.0000 0.0000 0.0000 12.1022
#
#
#
# Elastic Compliance Matrix: (Units=1/GPa)
#
#
# Indices 1 2 3 4 5 6 
#
# 1 0.014282 0.003971 -0.002637 0.000000 0.000000 0.000000
# 2 0.003971 0.017774 -0.009590 0.000000 0.000000 0.000000
# 3 -0.002637 -0.009590 0.010304 0.000000 0.000000 0.000000
# 4 0.000000 0.000000 0.000000 0.030457 0.000000 0.000000
# 5 0.000000 0.000000 0.000000 0.000000 -0.009975 0.000000
# 6 0.000000 0.000000 0.000000 0.000000 0.000000 0.082630
#
#
# Mechanical properties :
#
#
# Convention : Reuss Voigt Hill
#
# Bulk Modulus (GPa) = 38.69102 64.71831 51.70467
# Shear Modulus (GPa) = 29.30837 8.10024 18.70430
#
# Velocity S-wave (km/s) = 3.67266 1.93078 2.93397
# Velocity P-wave (km/s) = 5.98256 5.89538 5.93913
#
# Compressibility (1/GPa) = 0.02584579
#
# Stress axis : x y z
#
# Youngs Moduli (GPa) = 70.01888 56.26333 97.04818
#
# Poissons Ratio (x) = -0.22340 0.25596
# Poissons Ratio (y) = -0.27802 0.93070
# Poissons Ratio (z) = 0.18467 0.53957
#
# Static dielectric constant tensor:
#      x y z
#    x 1.815650 0.000000 0.000000 
#    y 0.000000 1.797440 0.000000 
#    z 0.000000 0.000000 1.788550 
# 
# From -- ./inp_files/29171.got.cif
#   From: 2010.05.17/outbox.cif.g08.bks.cpg/sg59_15_cif.got.tgz:29171.got - 2010.06.03 14:40:33.
