data_PCOD9447805
_publ_section_title
;
Structure prediction by ZEFSAII (Michael W. Deem and Ramdas Pophale) SiO2 
 PCOD9447805
Probable space group: P M M N
;
_chemical_formula_sum "Si O2"
_cell_formula_units_Z 40
_cell_length_a 27.931394
_cell_length_b 7.517425
_cell_length_c 8.991708
_cell_angle_alpha 90.000000
_cell_angle_beta 90.000000
_cell_angle_gamma 90.000000
_cell_volume 1888.008347
_symmetry_space_group_name_H-M "P M M N"
_symmetry_group_IT_number 59
_space_group.IT_coordinate_system_code '2'
_symmetry_cell_setting 'orthorhombic'
loop_
_space_group_symop_operation_xyz
x,y,z
1/2-x,1/2-y,z
1/2+x,-y,-z
-x,1/2+y,-z
-x,-y,-z
1/2+x,1/2+y,-z
1/2-x,y,z
x,1/2-y,z
loop_
_atom_site_type_symbol
_atom_site_label
_atom_site_fract_x
_atom_site_fract_y
_atom_site_fract_z
Si Si1 0.049660 0.968346 0.164728
Si Si2 0.250000 0.962237 0.691874
Si Si3 0.347199 0.953889 0.206582
Si Si4 0.750000 0.031163 0.649054
Si Si5 0.653475 0.540408 0.134952
Si Si6 0.052839 0.454730 0.813030
O O1 0.049572 0.750000 0.158967
O O2 0.099621 0.028305 0.237524
O O3 0.999019 0.029140 0.233500
O O4 0.051045 0.034284 0.993861
O O5 0.250000 0.750000 0.691673
O O6 0.250000 0.022250 0.522103
O O7 0.298028 0.019685 0.774965
O O8 0.348933 0.750000 0.258938
O O9 0.299006 0.033141 0.274519
O O10 0.342003 0.955662 0.027769
O O11 0.750000 0.250000 0.660113
O O12 0.645423 0.750000 0.108872
O O13 0.605676 0.469567 0.218454
O O14 0.052848 0.250000 0.763395
#
# Coordination Sequence:
#
# PCOD9447805 Si02
#       6
#     8   4   8   4   8   8
#     4   8  13  22  40  66  92 118 146 177 217 263
#     4  11  22  35  48  62  86 121 158 193 230 272
#     4   9  16  29  50  73  95 120 153 190 226 267
#     4   9  19  33  48  66  88 117 154 195 232 266
#     4  10  19  31  48  71  96 120 149 186 228 273
#     4   8  14  24  39  63  94 120 142 175 219 265
#
# _framework density 21.186346
#
# number of rings (size 3 to 8) (size 9 to 14) (size 15 to 20)
#    0.000    3.000    0.000    1.500    0.000    1.600 
#    0.000    2.000    0.000    1.200    0.000    0.000 
#    0.000    0.000    0.000    0.000    0.000    1.600 
#
# Total GULP energy -222734.595727 kJ/mol
# GULP energy per Si atom -5568.364893 kJ/mol
# Density = 2.113812 g / cm^3
# Si number density = 21.186346 Si / 1000 Ang^3
#
#
#
# Elastic Constant Matrix: (Units=GPa)
#
#
# Indices 1 2 3 4 5 6 
#
# 1 279.6551 -2.2622 53.7481 0.0000 0.0000 0.0000
# 2 -2.2622 64.9306 -6.1992 0.0000 0.0000 0.0000
# 3 53.7481 -6.1992 26.2229 0.0000 0.0000 0.0000
# 4 0.0000 0.0000 0.0000 -31.6835 0.0000 0.0000
# 5 0.0000 0.0000 0.0000 0.0000 -9.9855 0.0000
# 6 0.0000 0.0000 0.0000 0.0000 0.0000 -4.1095
#
#
#
# Elastic Compliance Matrix: (Units=1/GPa)
#
#
# Indices 1 2 3 4 5 6 
#
# 1 0.005961 -0.000981 -0.012449 0.000000 0.000000 0.000000
# 2 -0.000981 0.015918 0.005774 0.000000 0.000000 0.000000
# 3 -0.012449 0.005774 0.065015 0.000000 0.000000 0.000000
# 4 0.000000 0.000000 0.000000 -0.031562 0.000000 0.000000
# 5 0.000000 0.000000 0.000000 0.000000 -0.100145 0.000000
# 6 0.000000 0.000000 0.000000 0.000000 0.000000 -0.243337
#
#
# Mechanical properties :
#
#
# Convention : Reuss Voigt Hill
#
# Bulk Modulus (GPa) = 13.97004 51.26467 32.61735
# Shear Modulus (GPa) = -20.08221 12.54576 -3.76822
#
# Velocity S-wave (km/s) = -3.08211 2.43608 -1.33509
# Velocity P-wave (km/s) = 2.46124 5.67117 3.61279
#
# Compressibility (1/GPa) = 0.07158175
#
# Stress axis : x y z
#
# Youngs Moduli (GPa) = 167.77102 62.82150 15.38095
#
# Poissons Ratio (x) = 0.06162 0.19148
# Poissons Ratio (y) = 0.16456 -0.08880
# Poissons Ratio (z) = 2.08856 -0.36271
#
# Static dielectric constant tensor:
#      x y z
#    x 1.878050 0.000000 0.000000 
#    y 0.000000 1.727990 0.000000 
#    z 0.000000 0.000000 1.682920 
# 
# From -- ./inp_files/12445.got.cif
#   From: 2010.05.17/outbox.cif.g08.bks.cpg/sg59_7_cif.got.tgz:12445.got - 2010.06.03 14:40:33.
