data_PCOD9447931
_publ_section_title
;
Structure prediction by ZEFSAII (Michael W. Deem and Ramdas Pophale) SiO2 
 PCOD9447931
Probable space group: P M M N
;
_chemical_formula_sum "Si O2"
_cell_formula_units_Z 64
_cell_length_a 9.363793
_cell_length_b 19.407212
_cell_length_c 19.280773
_cell_angle_alpha 90.000000
_cell_angle_beta 90.000000
_cell_angle_gamma 90.000000
_cell_volume 3503.800708
_symmetry_space_group_name_H-M "P M M N"
_symmetry_group_IT_number 59
_space_group.IT_coordinate_system_code '2'
_symmetry_cell_setting 'orthorhombic'
loop_
_space_group_symop_operation_xyz
x,y,z
1/2-x,1/2-y,z
1/2+x,-y,-z
-x,1/2+y,-z
-x,-y,-z
1/2+x,1/2+y,-z
1/2-x,y,z
x,1/2-y,z
loop_
_atom_site_type_symbol
_atom_site_label
_atom_site_fract_x
_atom_site_fract_y
_atom_site_fract_z
Si Si1 0.078552 0.977517 0.385925
Si Si2 0.578262 0.054005 0.770681
Si Si3 0.587131 0.911264 0.846812
Si Si4 0.089424 0.667209 0.742991
Si Si5 0.417846 0.594538 0.523395
Si Si6 0.083893 0.072310 0.991806
Si Si7 0.576774 0.167698 0.879954
Si Si8 0.907762 0.829835 0.616410
O O1 0.250000 0.989787 0.382685
O O2 0.026624 0.960610 0.308069
O O3 0.057480 0.916676 0.442085
O O4 0.999286 0.038797 0.427657
O O5 0.750000 0.057468 0.765234
O O6 0.535739 0.124447 0.810207
O O7 0.547449 0.988427 0.820561
O O8 0.750000 0.898432 0.821491
O O9 0.475565 0.859486 0.813724
O O10 0.587433 0.902630 0.928847
O O11 0.250000 0.642611 0.730852
O O12 0.091972 0.750000 0.741670
O O13 0.984651 0.639162 0.683547
O O14 0.250000 0.590189 0.536548
O O15 0.488829 0.663173 0.551428
O O16 0.250000 0.062189 0.969461
O O17 0.002653 0.125987 0.941653
O O18 0.000000 0.000000 0.000000
O O19 0.750000 0.161421 0.888402
O O20 0.543952 0.250000 0.877827
O O21 0.750000 0.857793 0.603584
O O22 0.893135 0.750000 0.632647
#
# Coordination Sequence:
#
# PCOD9447931 Si02
#       8
#     8   8   8   8   8   8   8   8
#     4   9  18  32  53  77 106 142 177 223 275 328
#     4   9  17  34  56  80 107 139 185 229 272 326
#     4  10  20  34  56  81 109 144 181 222 267 329
#     4  10  21  35  51  77 112 143 177 226 278 328
#     4  10  19  31  49  78 109 136 176 226 278 328
#     4  11  22  38  60  86 115 147 188 233 279 333
#     4  10  21  39  62  85 113 150 190 234 286 341
#     4  10  20  34  52  71  97 140 185 219 263 325
#
# _framework density 18.265878000000001
#
# number of rings (size 3 to 8) (size 9 to 14) (size 15 to 20)
#    0.000    2.125    1.250    2.250    0.000    4.750 
#    0.000    3.750    0.000    2.250    0.000    0.000 
#    0.000    0.000    0.000    0.000    0.000    0.000 
#
# Total GULP energy -356374.122291 kJ/mol
# GULP energy per Si atom -5568.345661 kJ/mol
# Density = 1.822430 g / cm^3
# Si number density = 18.265878 Si / 1000 Ang^3
#
#
#
# Elastic Constant Matrix: (Units=GPa)
#
#
# Indices 1 2 3 4 5 6 
#
# 1 63.1477 27.1663 35.1155 0.0000 0.0000 0.0000
# 2 27.1663 55.7820 39.9798 0.0000 0.0000 0.0000
# 3 35.1155 39.9798 120.4436 0.0000 0.0000 0.0000
# 4 0.0000 0.0000 0.0000 28.4620 0.0000 0.0000
# 5 0.0000 0.0000 0.0000 0.0000 25.6943 0.0000
# 6 0.0000 0.0000 0.0000 0.0000 0.0000 26.1718
#
#
#
# Elastic Compliance Matrix: (Units=1/GPa)
#
#
# Indices 1 2 3 4 5 6 
#
# 1 0.021164 -0.007722 -0.003607 0.000000 0.000000 0.000000
# 2 -0.007722 0.026340 -0.006492 0.000000 0.000000 0.000000
# 3 -0.003607 -0.006492 0.011509 0.000000 0.000000 0.000000
# 4 0.000000 0.000000 0.000000 0.035135 0.000000 0.000000
# 5 0.000000 0.000000 0.000000 0.000000 0.038919 0.000000
# 6 0.000000 0.000000 0.000000 0.000000 0.000000 0.038209
#
#
# Mechanical properties :
#
#
# Convention : Reuss Voigt Hill
#
# Bulk Modulus (GPa) = 42.78702 49.32182 46.05442
# Shear Modulus (GPa) = 23.28740 25.20641 24.24690
#
# Velocity S-wave (km/s) = 3.57447 3.71883 3.64736
# Velocity P-wave (km/s) = 6.36484 6.74540 6.55788
#
# Compressibility (1/GPa) = 0.02337157
#
# Stress axis : x y z
#
# Youngs Moduli (GPa) = 47.25085 37.96449 86.88610
#
# Poissons Ratio (x) = 0.29314 0.31342
# Poissons Ratio (y) = 0.36485 0.56408
# Poissons Ratio (z) = 0.17044 0.24647
#
# Static dielectric constant tensor:
#      x y z
#    x 1.646130 0.000000 0.000000 
#    y 0.000000 1.708150 0.000000 
#    z 0.000000 0.000000 1.650490 
# 
# From -- ./inp_files/26193.got.cif
#   From: 2010.05.17/outbox.cif.g08.bks.cpg/sg59_14_cif.got.tgz:26193.got - 2010.06.03 14:40:33.
