data_PCOD9447788
_publ_section_title
;
Structure prediction by ZEFSAII (Michael W. Deem and Ramdas Pophale) SiO2 
 PCOD9447788
Probable space group: P M M N
;
_chemical_formula_sum "Si O2"
_cell_formula_units_Z 64
_cell_length_a 21.191151
_cell_length_b 7.693858
_cell_length_c 20.000011
_cell_angle_alpha 90.000000
_cell_angle_beta 90.000000
_cell_angle_gamma 90.000000
_cell_volume 3260.835926
_symmetry_space_group_name_H-M "P M M N"
_symmetry_group_IT_number 59
_space_group.IT_coordinate_system_code '2'
_symmetry_cell_setting 'orthorhombic'
loop_
_space_group_symop_operation_xyz
x,y,z
1/2-x,1/2-y,z
1/2+x,-y,-z
-x,1/2+y,-z
-x,-y,-z
1/2+x,1/2+y,-z
1/2-x,y,z
x,1/2-y,z
loop_
_atom_site_type_symbol
_atom_site_label
_atom_site_fract_x
_atom_site_fract_y
_atom_site_fract_z
Si Si1 0.043928 0.953960 0.211557
Si Si2 0.319875 0.458313 0.472194
Si Si3 0.951453 0.454491 0.320231
Si Si4 0.457387 0.040349 0.435129
Si Si5 0.683911 0.539294 0.932575
Si Si6 0.318482 0.544781 0.224789
Si Si7 0.450615 0.456558 0.056670
Si Si8 0.680836 0.040071 0.370135
O O1 0.045843 0.750000 0.225162
O O2 0.111290 0.028173 0.239773
O O3 0.038607 0.976837 0.131833
O O4 0.983168 0.027552 0.248466
O O5 0.250000 0.524989 0.450850
O O6 0.318642 0.250000 0.462678
O O7 0.385152 0.525776 0.440100
O O8 0.325813 0.494383 0.551510
O O9 0.946580 0.250000 0.335739
O O10 0.881200 0.525823 0.331770
O O11 0.002507 0.528013 0.372582
O O12 0.452616 0.250000 0.430711
O O13 0.500000 0.000000 0.500000
O O14 0.750000 0.481561 0.963413
O O15 0.683965 0.750000 0.930676
O O16 0.683098 0.476226 0.855795
O O17 0.619046 0.480257 0.964669
O O18 0.250000 0.473017 0.249190
O O19 0.318580 0.750000 0.240873
O O20 0.448947 0.250000 0.063196
O O21 0.500000 0.500000 0.000000
O O22 0.750000 0.975441 0.347936
O O23 0.682389 0.250000 0.365127
#
# Coordination Sequence:
#
# PCOD9447788 Si02
#       8
#     8   8   8   8   8   8   8   8
#     4  10  20  33  50  73  99 130 167 203 243 293
#     4   9  17  29  46  69  97 127 161 203 246 290
#     4  10  20  33  48  70 100 130 161 202 250 296
#     4  10  19  31  48  70  96 126 161 200 245 292
#     4   8  14  25  43  68  95 122 154 191 230 273
#     4   8  14  26  44  65  90 120 154 193 232 272
#     4  10  19  32  52  76 103 132 162 201 245 292
#     4   9  17  30  49  71  94 123 161 204 249 296
#
# _framework density 19.626868999999999
#
# number of rings (size 3 to 8) (size 9 to 14) (size 15 to 20)
#    0.000    2.750    1.250    0.750    0.000    2.000 
#    0.000    0.625    0.000    1.500    0.000    0.000 
#    0.000    0.000    0.000    0.000    0.000    0.000 
#
# Total GULP energy -356349.380547 kJ/mol
# GULP energy per Si atom -5567.959071 kJ/mol
# Density = 1.958220 g / cm^3
# Si number density = 19.626869 Si / 1000 Ang^3
#
#
#
# Elastic Constant Matrix: (Units=GPa)
#
#
# Indices 1 2 3 4 5 6 
#
# 1 225.4880 14.9329 56.1651 0.0000 0.0000 0.0000
# 2 14.9329 31.7983 -5.3715 0.0000 0.0000 0.0000
# 3 56.1651 -5.3715 40.0930 0.0000 0.0000 0.0000
# 4 0.0000 0.0000 0.0000 15.4645 0.0000 0.0000
# 5 0.0000 0.0000 0.0000 0.0000 27.0350 0.0000
# 6 0.0000 0.0000 0.0000 0.0000 0.0000 11.1981
#
#
#
# Elastic Compliance Matrix: (Units=1/GPa)
#
#
# Indices 1 2 3 4 5 6 
#
# 1 0.007658 -0.005534 -0.011469 0.000000 0.000000 0.000000
# 2 -0.005534 0.036175 0.012599 0.000000 0.000000 0.000000
# 3 -0.011469 0.012599 0.042697 0.000000 0.000000 0.000000
# 4 0.000000 0.000000 0.000000 0.064664 0.000000 0.000000
# 5 0.000000 0.000000 0.000000 0.000000 0.036989 0.000000
# 6 0.000000 0.000000 0.000000 0.000000 0.000000 0.089301
#
#
# Mechanical properties :
#
#
# Convention : Reuss Voigt Hill
#
# Bulk Modulus (GPa) = 12.86647 47.64804 30.25725
# Shear Modulus (GPa) = 16.01535 26.18305 21.09920
#
# Velocity S-wave (km/s) = 2.85965 3.65641 3.28230
# Velocity P-wave (km/s) = 4.18010 6.49272 5.46025
#
# Compressibility (1/GPa) = 0.07772141
#
# Stress axis : x y z
#
# Youngs Moduli (GPa) = 130.57998 27.64327 23.42079
#
# Poissons Ratio (x) = 0.15297 0.26862
# Poissons Ratio (y) = 0.72261 -0.29507
# Poissons Ratio (z) = 1.49768 -0.34827
#
# Static dielectric constant tensor:
#      x y z
#    x 1.799710 0.000000 0.000000 
#    y 0.000000 1.751110 0.000000 
#    z 0.000000 0.000000 1.630840 
# 
# From -- ./inp_files/28290.got.cif
#   From: 2010.05.17/outbox.cif.g08.bks.cpg/sg59_15_cif.got.tgz:28290.got - 2010.06.03 14:40:33.
