data_PCOD9447430
_publ_section_title
;
Structure prediction by ZEFSAII (Michael W. Deem and Ramdas Pophale) SiO2 
 PCOD9447430
Probable space group: P M M N
;
_chemical_formula_sum "Si O2"
_cell_formula_units_Z 64
_cell_length_a 14.218849
_cell_length_b 8.933551
_cell_length_c 32.398976
_cell_angle_alpha 90.000000
_cell_angle_beta 90.000000
_cell_angle_gamma 90.000000
_cell_volume 4115.473858
_symmetry_space_group_name_H-M "P M M N"
_symmetry_group_IT_number 59
_space_group.IT_coordinate_system_code '2'
_symmetry_cell_setting 'orthorhombic'
loop_
_space_group_symop_operation_xyz
x,y,z
1/2-x,1/2-y,z
1/2+x,-y,-z
-x,1/2+y,-z
-x,-y,-z
1/2+x,1/2+y,-z
1/2-x,y,z
x,1/2-y,z
loop_
_atom_site_type_symbol
_atom_site_label
_atom_site_fract_x
_atom_site_fract_y
_atom_site_fract_z
Si Si1 0.636520 0.423698 0.470252
Si Si2 0.360994 0.571266 0.685517
Si Si3 0.539260 0.928740 0.392834
Si Si4 0.142342 0.570169 0.016056
Si Si5 0.864135 0.577718 0.228558
Si Si6 0.544575 0.929009 0.063137
Si Si7 0.643487 0.067804 0.562556
Si Si8 0.360991 0.571027 0.857657
O O1 0.750000 0.423794 0.468652
O O2 0.605913 0.250000 0.465350
O O3 0.596747 0.521727 0.433371
O O4 0.612011 0.478651 0.516422
O O5 0.250000 0.533959 0.679856
O O6 0.368618 0.750000 0.686955
O O7 0.418195 0.506187 0.647249
O O8 0.393146 0.502099 0.729097
O O9 0.543631 0.750000 0.388017
O O10 0.432305 0.975024 0.403399
O O11 0.250000 0.530960 0.026523
O O12 0.138331 0.750000 0.009519
O O13 0.062974 0.533644 0.050127
O O14 0.109333 0.490437 0.974078
O O15 0.750000 0.575711 0.228898
O O16 0.894838 0.750000 0.227770
O O17 0.891591 0.493390 0.186699
O O18 0.553057 0.750000 0.065611
O O19 0.578957 0.002082 0.105384
O O20 0.750000 0.016525 0.570077
O O21 0.645451 0.250000 0.560947
O O22 0.250000 0.532380 0.863726
O O23 0.368062 0.750000 0.857644
#
# Coordination Sequence:
#
# PCOD9447430 Si02
#       8
#     8   8   8   8   8   8   8   8
#     4   9  17  30  46  62  85 118 148 174 212 262
#     4  10  20  33  47  64  91 124 149 170 208 266
#     4  11  20  28  44  68  89 112 145 184 219 252
#     4   9  18  32  46  61  88 125 159 193 236 279
#     4   9  17  30  48  69  92 116 145 183 220 255
#     4  10  19  29  44  67  91 118 157 199 232 266
#     4   8  16  31  47  62  83 113 148 183 219 259
#     4  10  19  30  45  66  94 126 154 180 218 269
#
# _framework density 15.551064
#
# number of rings (size 3 to 8) (size 9 to 14) (size 15 to 20)
#    0.000    2.500    0.000    3.750    0.000    7.000 
#    0.000    0.625    0.000    3.000    0.000    0.875 
#    0.000    7.000    0.000    0.000    0.000    0.000 
#
# Total GULP energy -356861.038591 kJ/mol
# GULP energy per Si atom -5575.953728 kJ/mol
# Density = 1.551567 g / cm^3
# Si number density = 15.551064 Si / 1000 Ang^3
#
#
#
# Elastic Constant Matrix: (Units=GPa)
#
#
# Indices 1 2 3 4 5 6 
#
# 1 83.2573 37.3422 70.7972 0.0000 0.0000 0.0000
# 2 37.3422 47.8437 55.8432 0.0000 0.0000 0.0000
# 3 70.7972 55.8432 152.2825 0.0000 0.0000 0.0000
# 4 0.0000 0.0000 0.0000 29.6378 0.0000 0.0000
# 5 0.0000 0.0000 0.0000 0.0000 25.5837 0.0000
# 6 0.0000 0.0000 0.0000 0.0000 0.0000 16.1308
#
#
#
# Elastic Compliance Matrix: (Units=1/GPa)
#
#
# Indices 1 2 3 4 5 6 
#
# 1 0.021925 -0.009118 -0.006849 0.000000 0.000000 0.000000
# 2 -0.009118 0.040334 -0.010552 0.000000 0.000000 0.000000
# 3 -0.006849 -0.010552 0.013621 0.000000 0.000000 0.000000
# 4 0.000000 0.000000 0.000000 0.033741 0.000000 0.000000
# 5 0.000000 0.000000 0.000000 0.000000 0.039087 0.000000
# 6 0.000000 0.000000 0.000000 0.000000 0.000000 0.061993
#
#
# Mechanical properties :
#
#
# Convention : Reuss Voigt Hill
#
# Bulk Modulus (GPa) = 43.78048 67.92761 55.85405
# Shear Modulus (GPa) = 18.42621 22.23052 20.32837
#
# Velocity S-wave (km/s) = 3.44595 3.78500 3.61945
# Velocity P-wave (km/s) = 6.63676 7.92949 7.31175
#
# Compressibility (1/GPa) = 0.02284123
#
# Stress axis : x y z
#
# Youngs Moduli (GPa) = 45.61054 24.79294 73.41841
#
# Poissons Ratio (x) = 0.22606 0.50287
# Poissons Ratio (y) = 0.41586 0.77471
# Poissons Ratio (z) = 0.31241 0.26161
#
# Static dielectric constant tensor:
#      x y z
#    x 1.524580 0.000000 0.000000 
#    y 0.000000 1.522140 0.000000 
#    z 0.000000 0.000000 1.496300 
# 
# From -- ./inp_files/33236.got.cif
#   From: 2010.05.17/outbox.cif.g08.bks.cpg/sg59_17_cif.got.tgz:33236.got - 2010.06.03 14:40:33.
