data_PCOD9447843
_publ_section_title
;
Structure prediction by ZEFSAII (Michael W. Deem and Ramdas Pophale) SiO2 
 PCOD9447843
Probable space group: P M M N
;
_chemical_formula_sum "Si O2"
_cell_formula_units_Z 64
_cell_length_a 9.412432
_cell_length_b 14.844184
_cell_length_c 21.408668
_cell_angle_alpha 90.000000
_cell_angle_beta 90.000000
_cell_angle_gamma 90.000000
_cell_volume 2991.216363
_symmetry_space_group_name_H-M "P M M N"
_symmetry_group_IT_number 59
_space_group.IT_coordinate_system_code '2'
_symmetry_cell_setting 'orthorhombic'
loop_
_space_group_symop_operation_xyz
x,y,z
1/2-x,1/2-y,z
1/2+x,-y,-z
-x,1/2+y,-z
-x,-y,-z
1/2+x,1/2+y,-z
1/2-x,y,z
x,1/2-y,z
loop_
_atom_site_type_symbol
_atom_site_label
_atom_site_fract_x
_atom_site_fract_y
_atom_site_fract_z
Si Si1 0.910506 0.899570 0.127784
Si Si2 0.915050 0.609945 0.370850
Si Si3 0.579032 0.403928 0.507716
Si Si4 0.410810 0.610405 0.630665
Si Si5 0.085712 0.608444 0.247548
Si Si6 0.911376 0.143835 0.992604
Si Si7 0.088517 0.112018 0.250678
Si Si8 0.910296 0.113356 0.132796
O O1 0.750000 0.862717 0.127519
O O2 0.008018 0.862558 0.183747
O O3 0.986724 0.891141 0.061223
O O4 0.900181 0.005985 0.140087
O O5 0.750000 0.637756 0.372935
O O6 0.914410 0.499689 0.370579
O O7 0.004224 0.638457 0.431894
O O8 0.995219 0.637887 0.307716
O O9 0.500000 0.500000 0.500000
O O10 0.750000 0.414515 0.516888
O O11 0.558427 0.358838 0.439980
O O12 0.250000 0.636176 0.646853
O O13 0.515548 0.639754 0.684780
O O14 0.250000 0.637193 0.249911
O O15 0.086904 0.498299 0.249165
O O16 0.750000 0.104924 0.988969
O O17 0.900483 0.250000 0.982323
O O18 0.966152 0.130259 0.063027
O O19 0.250000 0.140788 0.248243
O O20 0.004070 0.145036 0.190182
O O21 0.750000 0.149677 0.135213
#
# Coordination Sequence:
#
# PCOD9447843 Si02
#       8
#     8   8   8   8   8   8   8   8
#     4  10  19  31  49  71  93 118 150 188 229 271
#     4   9  15  22  32  48  72 103 140 181 222 264
#     4   9  15  21  29  43  66 101 142 180 219 264
#     4   8  14  22  31  45  70 104 140 178 219 263
#     4   9  16  26  40  58  81 109 143 183 223 264
#     4  10  21  36  52  70  93 121 151 183 223 272
#     4   9  16  24  38  59  80 105 141 184 224 263
#     4   9  18  32  49  68  91 119 150 186 227 271
#
# _framework density 21.395977999999999
#
# number of rings (size 3 to 8) (size 9 to 14) (size 15 to 20)
#    0.000    2.875    0.000    3.000    0.000    7.750 
#    0.000    0.000    0.000    0.000    0.000    0.000 
#    0.000    0.000    0.000    1.125    0.000   20.250 
#
# Total GULP energy -357200.796338 kJ/mol
# GULP energy per Si atom -5581.262443 kJ/mol
# Density = 2.134728 g / cm^3
# Si number density = 21.395978 Si / 1000 Ang^3
#
#
#
# Elastic Constant Matrix: (Units=GPa)
#
#
# Indices 1 2 3 4 5 6 
#
# 1 183.1297 8.4003 148.3940 0.0000 0.0000 0.0000
# 2 8.4003 58.3818 2.1912 0.0000 0.0000 0.0000
# 3 148.3940 2.1912 215.2232 0.0000 0.0000 0.0000
# 4 0.0000 0.0000 0.0000 -38.8630 0.0000 0.0000
# 5 0.0000 0.0000 0.0000 0.0000 26.1281 0.0000
# 6 0.0000 0.0000 0.0000 0.0000 0.0000 -15.5694
#
#
#
# Elastic Compliance Matrix: (Units=1/GPa)
#
#
# Indices 1 2 3 4 5 6 
#
# 1 0.012500 -0.001476 -0.008604 0.000000 0.000000 0.000000
# 2 -0.001476 0.017309 0.000841 0.000000 0.000000 0.000000
# 3 -0.008604 0.000841 0.010570 0.000000 0.000000 0.000000
# 4 0.000000 0.000000 0.000000 -0.025731 0.000000 0.000000
# 5 0.000000 0.000000 0.000000 0.000000 0.038273 0.000000
# 6 0.000000 0.000000 0.000000 0.000000 0.000000 -0.064228
#
#
# Mechanical properties :
#
#
# Convention : Reuss Voigt Hill
#
# Bulk Modulus (GPa) = 45.65549 86.07842 65.86695
# Shear Modulus (GPa) = 345.55742 14.18907 179.87324
#
# Velocity S-wave (km/s) = 12.72228 2.57799 9.17885
# Velocity P-wave (km/s) = 15.40108 7.01284 11.96606
#
# Compressibility (1/GPa) = 0.02190317
#
# Stress axis : x y z
#
# Youngs Moduli (GPa) = 80.00037 57.77219 94.60891
#
# Poissons Ratio (x) = 0.08525 0.81397
# Poissons Ratio (y) = 0.11805 -0.07959
# Poissons Ratio (z) = 0.68829 -0.04860
#
# Static dielectric constant tensor:
#      x y z
#    x 1.739070 0.000000 0.000000 
#    y 0.000000 1.798650 0.000000 
#    z 0.000000 0.000000 1.752160 
# 
# From -- ./inp_files/29747.got.cif
#   From: 2010.05.17/outbox.cif.g08.bks.cpg/sg59_15_cif.got.tgz:29747.got - 2010.06.03 14:40:33.
