data_PCOD9447924
_publ_section_title
;
Structure prediction by ZEFSAII (Michael W. Deem and Ramdas Pophale) SiO2 
 PCOD9447924
Probable space group: P M M N
;
_chemical_formula_sum "Si O2"
_cell_formula_units_Z 48
_cell_length_a 24.310931
_cell_length_b 13.666943
_cell_length_c 8.275371
_cell_angle_alpha 90.000000
_cell_angle_beta 90.000000
_cell_angle_gamma 90.000000
_cell_volume 2749.542563
_symmetry_space_group_name_H-M "P M M N"
_symmetry_group_IT_number 59
_space_group.IT_coordinate_system_code '2'
_symmetry_cell_setting 'orthorhombic'
loop_
_space_group_symop_operation_xyz
x,y,z
1/2-x,1/2-y,z
1/2+x,-y,-z
-x,1/2+y,-z
-x,-y,-z
1/2+x,1/2+y,-z
1/2-x,y,z
x,1/2-y,z
loop_
_atom_site_type_symbol
_atom_site_label
_atom_site_fract_x
_atom_site_fract_y
_atom_site_fract_z
Si Si1 0.437522 0.854945 0.668879
Si Si2 0.686969 0.632592 0.628493
Si Si3 0.532396 0.550905 0.858298
Si Si4 0.616411 0.561586 0.323897
Si Si5 0.509465 0.140585 0.683167
Si Si6 0.146134 0.365880 0.020813
O O1 0.411381 0.750000 0.703040
O O2 0.489816 0.874566 0.781248
O O3 0.465834 0.852885 0.494586
O O4 0.397234 0.946601 0.682860
O O5 0.750000 0.613086 0.581577
O O6 0.677672 0.750000 0.626851
O O7 0.646625 0.588593 0.491855
O O8 0.679303 0.601386 0.817260
O O9 0.541838 0.454796 0.749079
O O10 0.584872 0.606368 0.922661
O O11 0.500000 0.500000 0.000000
O O12 0.555802 0.613914 0.318361
O O13 0.650152 0.590818 0.161302
O O14 0.515928 0.250000 0.758879
O O15 0.154467 0.250000 0.004485
#
# Coordination Sequence:
#
# PCOD9447924 Si02
#       6
#     8   8   8   8   8   8
#     4  10  20  33  50  74 107 142 181 220 255 305
#     4  10  22  38  57  81 106 134 172 222 275 325
#     4  11  19  30  47  74 109 145 174 210 252 315
#     4  11  20  35  55  76 105 141 179 216 266 315
#     4  10  19  31  49  75 106 143 180 212 253 313
#     4  11  21  34  53  78 109 144 180 216 263 321
#
# _framework density 17.457450000000001
#
# number of rings (size 3 to 8) (size 9 to 14) (size 15 to 20)
#    0.000    1.500    3.333    6.000    0.000    4.000 
#    0.000    1.667    0.000    0.500    0.000    0.000 
#    0.000    0.000    0.000    0.000    0.000    0.000 
#
# Total GULP energy -267235.856221 kJ/mol
# GULP energy per Si atom -5567.413671 kJ/mol
# Density = 1.741772 g / cm^3
# Si number density = 17.457450 Si / 1000 Ang^3
#
#
#
# Elastic Constant Matrix: (Units=GPa)
#
#
# Indices 1 2 3 4 5 6 
#
# 1 23.3390 11.5539 10.0875 0.0000 0.0000 0.0000
# 2 11.5539 94.0206 34.3064 0.0000 0.0000 0.0000
# 3 10.0875 34.3064 92.8456 0.0000 0.0000 0.0000
# 4 0.0000 0.0000 0.0000 481.5529 0.0000 0.0000
# 5 0.0000 0.0000 0.0000 0.0000 18.9375 0.0000
# 6 0.0000 0.0000 0.0000 0.0000 0.0000 8.6076
#
#
#
# Elastic Compliance Matrix: (Units=1/GPa)
#
#
# Indices 1 2 3 4 5 6 
#
# 1 0.046533 -0.004477 -0.003401 0.000000 0.000000 0.000000
# 2 -0.004477 0.012724 -0.004215 0.000000 0.000000 0.000000
# 3 -0.003401 -0.004215 0.012698 0.000000 0.000000 0.000000
# 4 0.000000 0.000000 0.000000 0.002077 0.000000 0.000000
# 5 0.000000 0.000000 0.000000 0.000000 0.052805 0.000000
# 6 0.000000 0.000000 0.000000 0.000000 0.000000 0.116176
#
#
# Mechanical properties :
#
#
# Convention : Reuss Voigt Hill
#
# Bulk Modulus (GPa) = 20.93471 35.78897 28.36184
# Shear Modulus (GPa) = 17.66018 112.10345 64.88182
#
# Velocity S-wave (km/s) = 3.18404 8.02214 6.10298
# Velocity P-wave (km/s) = 5.05325 10.31268 8.12055
#
# Compressibility (1/GPa) = 0.04776757
#
# Stress axis : x y z
#
# Youngs Moduli (GPa) = 21.48999 78.59052 78.75493
#
# Poissons Ratio (x) = 0.35186 0.26788
# Poissons Ratio (y) = 0.09621 0.33196
# Poissons Ratio (z) = 0.07310 0.33127
#
# Static dielectric constant tensor:
#      x y z
#    x 1.581120 0.000000 0.000000 
#    y 0.000000 1.590670 0.000000 
#    z 0.000000 0.000000 1.684830 
# 
# From -- ./inp_files/12090.got.cif
#   From: 2010.05.17/outbox.cif.g08.bks.cpg/sg59_7_cif.got.tgz:12090.got - 2010.06.03 14:40:33.
