data_PCOD9447746
_publ_section_title
;
Structure prediction by ZEFSAII (Michael W. Deem and Ramdas Pophale) SiO2 
 PCOD9447746
Probable space group: P M M N
;
_chemical_formula_sum "Si O2"
_cell_formula_units_Z 64
_cell_length_a 17.187414
_cell_length_b 32.381325
_cell_length_c 6.741183
_cell_angle_alpha 90.000000
_cell_angle_beta 90.000000
_cell_angle_gamma 90.000000
_cell_volume 3751.813749
_symmetry_space_group_name_H-M "P M M N"
_symmetry_group_IT_number 59
_space_group.IT_coordinate_system_code '2'
_symmetry_cell_setting 'orthorhombic'
loop_
_space_group_symop_operation_xyz
x,y,z
1/2-x,1/2-y,z
1/2+x,-y,-z
-x,1/2+y,-z
-x,-y,-z
1/2+x,1/2+y,-z
1/2-x,y,z
x,1/2-y,z
loop_
_atom_site_type_symbol
_atom_site_label
_atom_site_fract_x
_atom_site_fract_y
_atom_site_fract_z
Si Si1 0.340460 0.921925 0.677081
Si Si2 0.944505 0.428074 0.941900
Si Si3 0.540065 0.121569 0.558549
Si Si4 0.073981 0.071635 0.262093
Si Si5 0.660723 0.845058 0.826956
Si Si6 0.343602 0.513062 0.347547
Si Si7 0.335271 0.205193 0.793880
Si Si8 0.542197 0.796694 0.554524
O O1 0.250000 0.917227 0.709268
O O2 0.374527 0.889477 0.520063
O O3 0.354031 0.965677 0.563806
O O4 0.385294 0.916665 0.882372
O O5 0.965746 0.391299 0.788624
O O6 0.898200 0.461356 0.806637
O O7 0.021254 0.440252 0.069504
O O8 0.482714 0.091191 0.431260
O O9 0.519996 0.168136 0.498453
O O10 0.131861 0.108630 0.205260
O O11 0.122595 0.032927 0.340555
O O12 0.750000 0.839556 0.758404
O O13 0.598950 0.815002 0.722094
O O14 0.658704 0.832067 0.055452
O O15 0.250000 0.514980 0.301771
O O16 0.250000 0.203120 0.696501
O O17 0.337929 0.250000 0.900902
O O18 0.402629 0.204745 0.636815
O O19 0.515027 0.750000 0.598190
#
# Coordination Sequence:
#
# PCOD9447746 Si02
#       8
#     8   8   8   8   8   8   8   8
#     4   9  19  35  54  75  97 122 157 200 242 289
#     4  10  19  33  53  72  96 128 165 202 244 292
#     4   9  20  34  50  74  98 124 158 195 240 290
#     4  10  20  32  47  70 102 134 164 202 244 284
#     4  10  19  31  47  68  97 134 170 201 238 283
#     4  10  20  33  49  72 100 131 168 206 243 284
#     4   9  17  28  43  65  92 123 163 206 238 269
#     4  10  19  32  50  71  96 126 160 198 239 285
#
# _framework density 17.058415
#
# number of rings (size 3 to 8) (size 9 to 14) (size 15 to 20)
#    0.000    2.375    0.000    2.625    0.000    7.250 
#    0.000    0.000    0.000    6.375    0.000    0.000 
#    0.000    0.000    0.000    0.000    0.000    0.000 
#
# Total GULP energy -356376.130795 kJ/mol
# GULP energy per Si atom -5568.377044 kJ/mol
# Density = 1.701959 g / cm^3
# Si number density = 17.058415 Si / 1000 Ang^3
#
#
#
# Elastic Constant Matrix: (Units=GPa)
#
#
# Indices 1 2 3 4 5 6 
#
# 1 17.7664 16.7656 3.7246 0.0000 0.0000 0.0000
# 2 16.7656 89.9082 6.2239 0.0000 0.0000 0.0000
# 3 3.7246 6.2239 54.7813 0.0000 0.0000 0.0000
# 4 0.0000 0.0000 0.0000 15.3064 0.0000 0.0000
# 5 0.0000 0.0000 0.0000 0.0000 21.9760 0.0000
# 6 0.0000 0.0000 0.0000 0.0000 0.0000 17.0004
#
#
#
# Elastic Compliance Matrix: (Units=1/GPa)
#
#
# Indices 1 2 3 4 5 6 
#
# 1 0.068875 -0.012618 -0.003249 0.000000 0.000000 0.000000
# 2 -0.012618 0.013522 -0.000678 0.000000 0.000000 0.000000
# 3 -0.003249 -0.000678 0.018552 0.000000 0.000000 0.000000
# 4 0.000000 0.000000 0.000000 0.065332 0.000000 0.000000
# 5 0.000000 0.000000 0.000000 0.000000 0.045504 0.000000
# 6 0.000000 0.000000 0.000000 0.000000 0.000000 0.058822
#
#
# Mechanical properties :
#
#
# Convention : Reuss Voigt Hill
#
# Bulk Modulus (GPa) = 14.73675 23.98712 19.36193
# Shear Modulus (GPa) = 15.32240 19.90601 17.61421
#
# Velocity S-wave (km/s) = 3.00030 3.41974 3.21687
# Velocity P-wave (km/s) = 4.54534 5.44841 5.01724
#
# Compressibility (1/GPa) = 0.06785759
#
# Stress axis : x y z
#
# Youngs Moduli (GPa) = 14.51906 73.95117 53.90138
#
# Poissons Ratio (x) = 0.93315 0.17514
# Poissons Ratio (y) = 0.18321 0.03657
# Poissons Ratio (z) = 0.04718 0.05017
#
# Static dielectric constant tensor:
#      x y z
#    x 1.565450 0.000000 0.000000 
#    y 0.000000 1.633320 0.000000 
#    z 0.000000 0.000000 1.587310 
# 
# From -- ./inp_files/3044.got.cif
#   From: 2010.05.17/outbox.cif.g08.bks.cpg/sg59_2_cif.got.tgz:3044.got - 2010.06.03 14:40:33.
