data_PCOD9447612
_publ_section_title
;
Structure prediction by ZEFSAII (Michael W. Deem and Ramdas Pophale) SiO2 
 PCOD9447612
Probable space group: P M M N
;
_chemical_formula_sum "Si O2"
_cell_formula_units_Z 64
_cell_length_a 30.947822
_cell_length_b 8.789357
_cell_length_c 14.864983
_cell_angle_alpha 90.000000
_cell_angle_beta 90.000000
_cell_angle_gamma 90.000000
_cell_volume 4043.445668
_symmetry_space_group_name_H-M "P M M N"
_symmetry_group_IT_number 59
_space_group.IT_coordinate_system_code '2'
_symmetry_cell_setting 'orthorhombic'
loop_
_space_group_symop_operation_xyz
x,y,z
1/2-x,1/2-y,z
1/2+x,-y,-z
-x,1/2+y,-z
-x,-y,-z
1/2+x,1/2+y,-z
1/2-x,y,z
x,1/2-y,z
loop_
_atom_site_type_symbol
_atom_site_label
_atom_site_fract_x
_atom_site_fract_y
_atom_site_fract_z
Si Si1 0.576600 0.924217 0.741172
Si Si2 0.200360 0.431883 0.354797
Si Si3 0.957417 0.930408 0.451520
Si Si4 0.112155 0.932634 0.078414
Si Si5 0.298869 0.932707 0.156480
Si Si6 0.973166 0.073514 0.262418
Si Si7 0.039475 0.566569 0.941117
Si Si8 0.382422 0.928882 0.430128
O O1 0.591281 0.750000 0.725574
O O2 0.525133 0.927145 0.733180
O O3 0.589952 0.980646 0.839087
O O4 0.596739 0.033526 0.666905
O O5 0.250000 0.474154 0.375644
O O6 0.196786 0.250000 0.355665
O O7 0.191779 0.490854 0.253015
O O8 0.165590 0.503529 0.421875
O O9 0.959870 0.750000 0.461485
O O10 0.957099 0.978919 0.347361
O O11 0.914443 0.991999 0.499609
O O12 0.000000 0.000000 0.500000
O O13 0.107972 0.750000 0.091839
O O14 0.163014 0.969871 0.086530
O O15 0.084738 0.970289 0.989875
O O16 0.250000 0.975819 0.129363
O O17 0.299568 0.750000 0.169871
O O18 0.958893 0.250000 0.271301
O O19 0.961358 0.015943 0.162691
O O20 0.034122 0.750000 0.940071
O O21 0.000000 0.500000 0.000000
O O22 0.381236 0.750000 0.446044
#
# Coordination Sequence:
#
# PCOD9447612 Si02
#       8
#     8   8   8   8   8   8   8   8
#     4  11  20  30  48  71 101 135 170 208 247 295
#     4  10  20  33  50  74 104 135 168 207 252 301
#     4  12  24  37  54  75 100 132 171 213 256 308
#     4  10  19  30  47  71  98 133 171 205 245 296
#     4   9  17  29  45  68  99 132 166 203 245 293
#     4  10  21  36  50  69 100 136 172 213 253 295
#     4  10  20  33  49  70  98 130 169 207 248 295
#     4  12  23  35  52  74 102 137 173 208 251 303
#
# _framework density 15.828085
#
# number of rings (size 3 to 8) (size 9 to 14) (size 15 to 20)
#    0.000    1.500    3.750    3.000    0.000    1.750 
#    0.000    0.000    0.000    0.000    0.000    0.875 
#    0.000    3.000    0.000    0.000    0.000    0.000 
#
# Total GULP energy -357172.325419 kJ/mol
# GULP energy per Si atom -5580.817585 kJ/mol
# Density = 1.579206 g / cm^3
# Si number density = 15.828085 Si / 1000 Ang^3
#
#
#
# Elastic Constant Matrix: (Units=GPa)
#
#
# Indices 1 2 3 4 5 6 
#
# 1 122.4487 44.9755 57.9519 0.0000 0.0000 0.0000
# 2 44.9755 66.0916 37.9439 0.0000 0.0000 0.0000
# 3 57.9519 37.9439 99.7949 0.0000 0.0000 0.0000
# 4 0.0000 0.0000 0.0000 17.5162 0.0000 0.0000
# 5 0.0000 0.0000 0.0000 0.0000 23.7893 0.0000
# 6 0.0000 0.0000 0.0000 0.0000 0.0000 17.5197
#
#
#
# Elastic Compliance Matrix: (Units=1/GPa)
#
#
# Indices 1 2 3 4 5 6 
#
# 1 0.012721 -0.005649 -0.005240 0.000000 0.000000 0.000000
# 2 -0.005649 0.021864 -0.005033 0.000000 0.000000 0.000000
# 3 -0.005240 -0.005033 0.014977 0.000000 0.000000 0.000000
# 4 0.000000 0.000000 0.000000 0.057090 0.000000 0.000000
# 5 0.000000 0.000000 0.000000 0.000000 0.042036 0.000000
# 6 0.000000 0.000000 0.000000 0.000000 0.000000 0.057079
#
#
# Mechanical properties :
#
#
# Convention : Reuss Voigt Hill
#
# Bulk Modulus (GPa) = 56.43441 63.34198 59.88820
# Shear Modulus (GPa) = 20.53263 21.59597 21.06430
#
# Velocity S-wave (km/s) = 3.60561 3.69780 3.65200
# Velocity P-wave (km/s) = 7.28464 7.63788 7.46335
#
# Compressibility (1/GPa) = 0.01771968
#
# Stress axis : x y z
#
# Youngs Moduli (GPa) = 78.60867 45.73761 66.76997
#
# Poissons Ratio (x) = 0.25836 0.34985
# Poissons Ratio (y) = 0.44404 0.33604
# Poissons Ratio (z) = 0.41188 0.23019
#
# Static dielectric constant tensor:
#      x y z
#    x 1.549470 0.000000 0.000000 
#    y 0.000000 1.538680 0.000000 
#    z 0.000000 0.000000 1.510650 
# 
# From -- ./inp_files/25070.got.cif
#   From: 2010.05.17/outbox.cif.g08.bks.cpg/sg59_13_cif.got.tgz:25070.got - 2010.06.03 14:40:33.
