data_PCOD9447140
_publ_section_title
;
Structure prediction by ZEFSAII (Michael W. Deem and Ramdas Pophale) SiO2 
 PCOD9447140
Probable space group: P M M N
;
_chemical_formula_sum "Si O2"
_cell_formula_units_Z 48
_cell_length_a 14.415503
_cell_length_b 14.707280
_cell_length_c 12.668761
_cell_angle_alpha 90.000000
_cell_angle_beta 90.000000
_cell_angle_gamma 90.000000
_cell_volume 2685.939986
_symmetry_space_group_name_H-M "P M M N"
_symmetry_group_IT_number 59
_space_group.IT_coordinate_system_code '2'
_symmetry_cell_setting 'orthorhombic'
loop_
_space_group_symop_operation_xyz
x,y,z
1/2-x,1/2-y,z
1/2+x,-y,-z
-x,1/2+y,-z
-x,-y,-z
1/2+x,1/2+y,-z
1/2-x,y,z
x,1/2-y,z
loop_
_atom_site_type_symbol
_atom_site_label
_atom_site_fract_x
_atom_site_fract_y
_atom_site_fract_z
Si Si1 0.145673 0.645175 0.588028
Si Si2 0.856973 0.641459 0.848810
Si Si3 0.501609 0.091853 0.568570
Si Si4 0.523105 0.464876 0.245931
Si Si5 0.643058 0.750000 0.429930
Si Si6 0.143886 0.250000 0.822858
Si Si7 0.859783 0.562794 0.081490
O O1 0.250000 0.610834 0.577531
O O2 0.146174 0.750000 0.621025
O O3 0.093205 0.639331 0.476154
O O4 0.092839 0.588201 0.676805
O O5 0.750000 0.633658 0.811846
O O6 0.873863 0.750000 0.866626
O O7 0.932954 0.597060 0.772743
O O8 0.864549 0.583692 0.957404
O O9 0.416053 0.159568 0.543083
O O10 0.500000 0.000000 0.500000
O O11 0.501348 0.056762 0.688623
O O12 0.576303 0.487440 0.136729
O O13 0.750000 0.750000 0.468260
O O14 0.645748 0.750000 0.302601
O O15 0.250000 0.250000 0.863965
O O16 0.105248 0.156882 0.866490
O O17 0.750000 0.547669 0.108224
#
# Coordination Sequence:
#
# PCOD9447140 Si02
#       7
#     8   8   8   8   4   4   8
#     4  10  21  38  57  74 104 146 187 227 279 343
#     4  10  21  37  55  77 112 154 189 228 280 343
#     4  10  22  36  55  82 116 145 185 237 291 341
#     4  11  21  34  56  85 111 141 184 238 284 338
#     4  11  20  36  61  88 115 148 189 242 290 340
#     4   9  16  28  52  82 107 136 174 218 271 320
#     4  10  18  32  55  84 113 141 179 225 276 330
#
# _framework density 17.870837999999999
#
# number of rings (size 3 to 8) (size 9 to 14) (size 15 to 20)
#    0.000    1.833    3.333    1.500    0.000    3.333 
#    0.000    2.500    0.000    0.000    0.000    0.000 
#    0.000    0.000    0.000    0.000    0.000    0.000 
#
# Total GULP energy -267292.166751 kJ/mol
# GULP energy per Si atom -5568.586807 kJ/mol
# Density = 1.783016 g / cm^3
# Si number density = 17.870838 Si / 1000 Ang^3
#
#
#
# Elastic Constant Matrix: (Units=GPa)
#
#
# Indices 1 2 3 4 5 6 
#
# 1 145.9162 52.1858 48.4074 0.0000 0.0000 0.0000
# 2 52.1858 71.7716 17.7246 0.0000 0.0000 0.0000
# 3 48.4074 17.7246 37.4652 0.0000 0.0000 0.0000
# 4 0.0000 0.0000 0.0000 23.1715 0.0000 0.0000
# 5 0.0000 0.0000 0.0000 0.0000 28.9059 0.0000
# 6 0.0000 0.0000 0.0000 0.0000 0.0000 25.1971
#
#
#
# Elastic Compliance Matrix: (Units=1/GPa)
#
#
# Indices 1 2 3 4 5 6 
#
# 1 0.014318 -0.006615 -0.015370 0.000000 0.000000 0.000000
# 2 -0.006615 0.018832 -0.000362 0.000000 0.000000 0.000000
# 3 -0.015370 -0.000362 0.046723 0.000000 0.000000 0.000000
# 4 0.000000 0.000000 0.000000 0.043156 0.000000 0.000000
# 5 0.000000 0.000000 0.000000 0.000000 0.034595 0.000000
# 6 0.000000 0.000000 0.000000 0.000000 0.000000 0.039687
#
#
# Mechanical properties :
#
#
# Convention : Reuss Voigt Hill
#
# Bulk Modulus (GPa) = 28.42751 54.64318 41.53535
# Shear Modulus (GPa) = 19.70572 24.57725 22.14149
#
# Velocity S-wave (km/s) = 3.32426 3.71249 3.52372
# Velocity P-wave (km/s) = 5.53859 7.00142 6.31252
#
# Compressibility (1/GPa) = 0.03517720
#
# Stress axis : x y z
#
# Youngs Moduli (GPa) = 69.84126 53.09983 21.40295
#
# Poissons Ratio (x) = 0.35126 0.32897
# Poissons Ratio (y) = 0.46200 0.00776
# Poissons Ratio (z) = 1.07349 0.01925
#
# Static dielectric constant tensor:
#      x y z
#    x 1.625680 0.000000 0.000000 
#    y 0.000000 1.606870 0.000000 
#    z 0.000000 0.000000 1.634200 
# 
# From -- ./inp_files/16878.got.cif
#   From: 2010.05.17/outbox.cif.g08.bks.cpg/sg59_9_cif.got.tgz:16878.got - 2010.06.03 14:40:33.
