data_PCOD9447656
_publ_section_title
;
Structure prediction by ZEFSAII (Michael W. Deem and Ramdas Pophale) SiO2 
 PCOD9447656
Probable space group: P M M N
;
_chemical_formula_sum "Si O2"
_cell_formula_units_Z 64
_cell_length_a 8.728034
_cell_length_b 19.923693
_cell_length_c 20.912840
_cell_angle_alpha 90.000000
_cell_angle_beta 90.000000
_cell_angle_gamma 90.000000
_cell_volume 3636.631409
_symmetry_space_group_name_H-M "P M M N"
_symmetry_group_IT_number 59
_space_group.IT_coordinate_system_code '2'
_symmetry_cell_setting 'orthorhombic'
loop_
_space_group_symop_operation_xyz
x,y,z
1/2-x,1/2-y,z
1/2+x,-y,-z
-x,1/2+y,-z
-x,-y,-z
1/2+x,1/2+y,-z
1/2-x,y,z
x,1/2-y,z
loop_
_atom_site_type_symbol
_atom_site_label
_atom_site_fract_x
_atom_site_fract_y
_atom_site_fract_z
Si Si1 0.572606 0.598057 0.737313
Si Si2 0.926444 0.060258 0.768007
Si Si3 0.063370 0.921501 0.372939
Si Si4 0.432452 0.050019 0.905207
Si Si5 0.936341 0.925765 0.597250
Si Si6 0.068372 0.907818 0.966109
Si Si7 0.573349 0.828509 0.858957
Si Si8 0.564611 0.171977 0.511697
O O1 0.750000 0.621008 0.733439
O O2 0.573066 0.519811 0.755336
O O3 0.509938 0.603314 0.665921
O O4 0.501313 0.637195 0.796291
O O5 0.750000 0.082256 0.774584
O O6 0.990610 0.087822 0.700424
O O7 0.007763 0.070805 0.835622
O O8 0.250000 0.923903 0.369291
O O9 0.019968 0.861941 0.420632
O O10 0.018006 0.995006 0.401317
O O11 0.250000 0.050408 0.903823
O O12 0.483487 0.974582 0.926434
O O13 0.492321 0.093650 0.964448
O O14 0.750000 0.924693 0.595337
O O15 0.000648 0.878754 0.541849
O O16 0.250000 0.912116 0.973930
O O17 0.018739 0.847005 0.921870
O O18 0.750000 0.853089 0.867070
O O19 0.577961 0.750000 0.848408
O O20 0.750000 0.171140 0.508238
O O21 0.515398 0.250000 0.505237
#
# Coordination Sequence:
#
# PCOD9447656 Si02
#       8
#     8   8   8   8   8   8   8   8
#     4   8  15  28  46  69  94 120 155 198 241 286
#     4   9  15  28  51  72  93 121 156 201 247 293
#     4   8  16  31  51  74  97 127 167 207 250 299
#     4  10  19  30  48  74 100 123 153 200 250 288
#     4   9  17  31  52  74  95 125 168 214 248 285
#     4  10  20  32  47  69  97 129 162 197 237 283
#     4  10  19  31  48  68  94 129 164 198 238 287
#     4  10  20  33  48  69 101 135 164 200 250 306
#
# _framework density 17.598704000000001
#
# number of rings (size 3 to 8) (size 9 to 14) (size 15 to 20)
#    0.000    2.750    1.250    2.625    0.000    2.000 
#    0.000    5.000    0.000    0.750    0.000    1.750 
#    0.000    0.000    0.000    0.000    0.000    0.000 
#
# Total GULP energy -356360.258139 kJ/mol
# GULP energy per Si atom -5568.129033 kJ/mol
# Density = 1.755865 g / cm^3
# Si number density = 17.598704 Si / 1000 Ang^3
#
#
#
# Elastic Constant Matrix: (Units=GPa)
#
#
# Indices 1 2 3 4 5 6 
#
# 1 16.1154 8.3610 25.1082 0.0000 0.0000 0.0000
# 2 8.3610 38.6936 34.4069 0.0000 0.0000 0.0000
# 3 25.1082 34.4069 145.1053 0.0000 0.0000 0.0000
# 4 0.0000 0.0000 0.0000 11.7701 0.0000 0.0000
# 5 0.0000 0.0000 0.0000 0.0000 23.8290 0.0000
# 6 0.0000 0.0000 0.0000 0.0000 0.0000 15.2438
#
#
#
# Elastic Compliance Matrix: (Units=1/GPa)
#
#
# Indices 1 2 3 4 5 6 
#
# 1 0.086348 -0.006808 -0.013327 0.000000 0.000000 0.000000
# 2 -0.006808 0.033286 -0.006715 0.000000 0.000000 0.000000
# 3 -0.013327 -0.006715 0.010790 0.000000 0.000000 0.000000
# 4 0.000000 0.000000 0.000000 0.084961 0.000000 0.000000
# 5 0.000000 0.000000 0.000000 0.000000 0.041966 0.000000
# 6 0.000000 0.000000 0.000000 0.000000 0.000000 0.065601
#
#
# Mechanical properties :
#
#
# Convention : Reuss Voigt Hill
#
# Bulk Modulus (GPa) = 13.03358 37.29627 25.16492
# Shear Modulus (GPa) = 12.43086 18.97113 15.70099
#
# Velocity S-wave (km/s) = 2.66061 3.28683 2.99016
# Velocity P-wave (km/s) = 4.10616 5.97017 5.12365
#
# Compressibility (1/GPa) = 0.07672489
#
# Stress axis : x y z
#
# Youngs Moduli (GPa) = 11.58102 30.04273 92.68095
#
# Poissons Ratio (x) = 0.20453 1.23515
# Poissons Ratio (y) = 0.07884 0.62232
# Poissons Ratio (z) = 0.15434 0.20173
#
# Static dielectric constant tensor:
#      x y z
#    x 1.615130 0.000000 0.000000 
#    y 0.000000 1.595850 0.000000 
#    z 0.000000 0.000000 1.626830 
# 
# From -- ./inp_files/29801.got.cif
#   From: 2010.05.17/outbox.cif.g08.bks.cpg/sg59_15_cif.got.tgz:29801.got - 2010.06.03 14:40:33.
