data_PCOD9447314
_publ_section_title
;
Structure prediction by ZEFSAII (Michael W. Deem and Ramdas Pophale) SiO2 
 PCOD9447314
Probable space group: P M M N
;
_chemical_formula_sum "Si O2"
_cell_formula_units_Z 56
_cell_length_a 22.581127
_cell_length_b 8.251486
_cell_length_c 15.187623
_cell_angle_alpha 90.000000
_cell_angle_beta 90.000000
_cell_angle_gamma 90.000000
_cell_volume 2829.877190
_symmetry_space_group_name_H-M "P M M N"
_symmetry_group_IT_number 59
_space_group.IT_coordinate_system_code '2'
_symmetry_cell_setting 'orthorhombic'
loop_
_space_group_symop_operation_xyz
x,y,z
1/2-x,1/2-y,z
1/2+x,-y,-z
-x,1/2+y,-z
-x,-y,-z
1/2+x,1/2+y,-z
1/2-x,y,z
x,1/2-y,z
loop_
_atom_site_type_symbol
_atom_site_label
_atom_site_fract_x
_atom_site_fract_y
_atom_site_fract_z
Si Si1 0.573362 0.058179 0.856236
Si Si2 0.864643 0.443769 0.362708
Si Si3 0.550249 0.055761 0.213863
Si Si4 0.682163 0.945353 0.539509
Si Si5 0.817683 0.945967 0.741546
Si Si6 0.250000 0.560194 0.937401
Si Si7 0.750000 0.938843 0.257926
Si Si8 0.119060 0.550935 0.960068
O O1 0.566012 0.250000 0.860414
O O2 0.516930 0.989387 0.805735
O O3 0.633800 0.017314 0.805918
O O4 0.580423 0.997313 0.956570
O O5 0.859631 0.250000 0.355937
O O6 0.921527 0.498727 0.306247
O O7 0.861223 0.490667 0.464726
O O8 0.807665 0.520261 0.314953
O O9 0.553832 0.250000 0.213105
O O10 0.590811 0.996996 0.132177
O O11 0.750000 0.998155 0.519554
O O12 0.681767 0.750000 0.536429
O O13 0.669383 0.993483 0.640045
O O14 0.750000 0.994954 0.762137
O O15 0.820037 0.750000 0.745607
O O16 0.250000 0.750000 0.960538
O O17 0.250000 0.541313 0.831682
O O18 0.186986 0.493009 0.969481
O O19 0.750000 0.750000 0.234274
O O20 0.120222 0.750000 0.959070
#
# Coordination Sequence:
#
# PCOD9447314 Si02
#       8
#     8   8   8   8   8   4   4   8
#     4  11  23  37  58  86 112 146 193 239 282 329
#     4  11  21  34  57  85 113 151 192 227 276 339
#     4  10  21  39  58  78 111 155 193 227 276 339
#     4   9  18  34  57  85 115 146 181 230 289 337
#     4   9  20  40  62  83 113 151 186 228 286 340
#     4  10  18  36  58  79 112 149 186 229 282 338
#     4  12  22  32  50  81 120 151 182 231 282 328
#     4   9  19  35  58  83 112 149 187 232 285 335
#
# _framework density 19.788844000000001
#
# number of rings (size 3 to 8) (size 9 to 14) (size 15 to 20)
#    0.000    2.000    2.143    2.786    1.000    2.000 
#    0.000    4.286    0.000    0.000    0.000    0.000 
#    0.000    0.000    0.000    0.000    0.000    0.000 
#
# Total GULP energy -312654.256241 kJ/mol
# GULP energy per Si atom -5583.111719 kJ/mol
# Density = 1.974380 g / cm^3
# Si number density = 19.788844 Si / 1000 Ang^3
#
#
#
# Elastic Constant Matrix: (Units=GPa)
#
#
# Indices 1 2 3 4 5 6 
#
# 1 56.6050 -1.7666 4.4876 0.0000 0.0000 0.0000
# 2 -1.7666 11.3223 0.5086 0.0000 0.0000 0.0000
# 3 4.4876 0.5086 53.7667 0.0000 0.0000 0.0000
# 4 0.0000 0.0000 0.0000 20.0382 0.0000 0.0000
# 5 0.0000 0.0000 0.0000 0.0000 15.1504 0.0000
# 6 0.0000 0.0000 0.0000 0.0000 0.0000 13.7912
#
#
#
# Elastic Compliance Matrix: (Units=1/GPa)
#
#
# Indices 1 2 3 4 5 6 
#
# 1 0.017876 0.002857 -0.001519 0.000000 0.000000 0.000000
# 2 0.002857 0.088816 -0.001079 0.000000 0.000000 0.000000
# 3 -0.001519 -0.001079 0.018736 0.000000 0.000000 0.000000
# 4 0.000000 0.000000 0.000000 0.049905 0.000000 0.000000
# 5 0.000000 0.000000 0.000000 0.000000 0.066005 0.000000
# 6 0.000000 0.000000 0.000000 0.000000 0.000000 0.072510
#
#
# Mechanical properties :
#
#
# Convention : Reuss Voigt Hill
#
# Bulk Modulus (GPa) = 7.93985 14.23925 11.08955
# Shear Modulus (GPa) = 14.07222 17.69359 15.88290
#
# Velocity S-wave (km/s) = 2.66957 2.99343 2.83613
# Velocity P-wave (km/s) = 3.67739 4.37706 4.04239
#
# Compressibility (1/GPa) = 0.12594692
#
# Stress axis : x y z
#
# Youngs Moduli (GPa) = 55.94131 11.25927 53.37355
#
# Poissons Ratio (x) = -0.03217 0.08108
# Poissons Ratio (y) = -0.15985 0.05757
# Poissons Ratio (z) = 0.08498 0.01215
#
# Static dielectric constant tensor:
#      x y z
#    x 1.683880 0.000000 0.000000 
#    y 0.000000 1.693320 0.000000 
#    z 0.000000 0.000000 1.702320 
# 
# From -- ./inp_files/21101.got.cif
#   From: 2010.05.17/outbox.cif.g08.bks.cpg/sg59_11_cif.got.tgz:21101.got - 2010.06.03 14:40:33.
