data_PCOD9447195
_publ_section_title
;
Structure prediction by ZEFSAII (Michael W. Deem and Ramdas Pophale) SiO2 
 PCOD9447195
Probable space group: P M M N
;
_chemical_formula_sum "Si O2"
_cell_formula_units_Z 44
_cell_length_a 8.871184
_cell_length_b 28.801106
_cell_length_c 7.232750
_cell_angle_alpha 90.000000
_cell_angle_beta 90.000000
_cell_angle_gamma 90.000000
_cell_volume 1847.966979
_symmetry_space_group_name_H-M "P M M N"
_symmetry_group_IT_number 59
_space_group.IT_coordinate_system_code '2'
_symmetry_cell_setting 'orthorhombic'
loop_
_space_group_symop_operation_xyz
x,y,z
1/2-x,1/2-y,z
1/2+x,-y,-z
-x,1/2+y,-z
-x,-y,-z
1/2+x,1/2+y,-z
1/2-x,y,z
x,1/2-y,z
loop_
_atom_site_type_symbol
_atom_site_label
_atom_site_fract_x
_atom_site_fract_y
_atom_site_fract_z
Si Si1 0.750000 0.463345 0.800812
Si Si2 0.250000 0.551596 0.785826
Si Si3 0.466458 0.400801 0.725199
Si Si4 0.077013 0.697937 0.843965
Si Si5 0.250000 0.034865 0.508456
Si Si6 0.423376 0.105105 0.163636
Si Si7 0.925284 0.301351 0.707276
O O1 0.615904 0.429662 0.751909
O O2 0.750000 0.510258 0.688211
O O3 0.750000 0.473916 0.016556
O O4 0.250000 0.511783 0.634371
O O5 0.415079 0.578526 0.784501
O O6 0.384264 0.432438 0.575488
O O7 0.487835 0.348172 0.656308
O O8 0.410680 0.398948 0.938591
O O9 0.250000 0.687174 0.790212
O O10 0.040974 0.750000 0.782387
O O11 0.076096 0.698094 0.068254
O O12 0.964717 0.658003 0.785885
O O13 0.250000 0.096579 0.230295
O O14 0.750000 0.305312 0.649319
O O15 0.981239 0.250000 0.652018
#
# Coordination Sequence:
#
# PCOD9447195 Si02
#       7
#     4   4   8   8   4   8   8
#     4  10  22  40  65  83 121 171 206 258 317 363
#     4  10  24  42  61  85 123 167 212 268 317 371
#     4  10  19  36  54  86 121 154 203 260 305 367
#     4   8  13  23  44  75 113 156 198 248 315 381
#     4  12  24  40  59  90 125 164 210 260 316 380
#     4  10  18  33  54  81 118 159 206 260 316 376
#     4   8  13  25  50  81 113 154 196 241 309 373
#
# _framework density 23.809947999999999
#
# number of rings (size 3 to 8) (size 9 to 14) (size 15 to 20)
#    0.000    2.545    2.727    1.636    0.000    3.273 
#    1.636    0.455    0.000    0.000    0.000    2.545 
#    0.000    8.727    0.000    1.636    0.000    0.000 
#
# Total GULP energy -245405.496501 kJ/mol
# GULP energy per Si atom -5577.397648 kJ/mol
# Density = 2.375576 g / cm^3
# Si number density = 23.809948 Si / 1000 Ang^3
#
#
#
# Elastic Constant Matrix: (Units=GPa)
#
#
# Indices 1 2 3 4 5 6 
#
# 1 136.2101 80.0243 25.6353 0.0000 0.0000 0.0000
# 2 80.0243 197.9004 18.8236 0.0000 0.0000 0.0000
# 3 25.6353 18.8236 69.5937 0.0000 0.0000 0.0000
# 4 0.0000 0.0000 0.0000 -94.9306 0.0000 0.0000
# 5 0.0000 0.0000 0.0000 0.0000 -14.7422 0.0000
# 6 0.0000 0.0000 0.0000 0.0000 0.0000 32.9937
#
#
#
# Elastic Compliance Matrix: (Units=1/GPa)
#
#
# Indices 1 2 3 4 5 6 
#
# 1 0.010095 -0.003827 -0.002683 0.000000 0.000000 0.000000
# 2 -0.003827 0.006637 -0.000386 0.000000 0.000000 0.000000
# 3 -0.002683 -0.000386 0.015462 0.000000 0.000000 0.000000
# 4 0.000000 0.000000 0.000000 -0.010534 0.000000 0.000000
# 5 0.000000 0.000000 0.000000 0.000000 -0.067832 0.000000
# 6 0.000000 0.000000 0.000000 0.000000 0.000000 0.030309
#
#
# Mechanical properties :
#
#
# Convention : Reuss Voigt Hill
#
# Bulk Modulus (GPa) = 54.34113 72.51894 63.43004
# Shear Modulus (GPa) = 1230.89971 3.27890 617.08930
#
# Velocity S-wave (km/s) = 22.76161 1.17478 16.11631
# Velocity P-wave (km/s) = 26.71442 5.68891 19.31352
#
# Compressibility (1/GPa) = 0.01840227
#
# Stress axis : x y z
#
# Youngs Moduli (GPa) = 99.05985 150.66708 64.67518
#
# Poissons Ratio (x) = 0.57657 0.17355
# Poissons Ratio (y) = 0.37908 0.02494
# Poissons Ratio (z) = 0.26582 0.05809
#
# Static dielectric constant tensor:
#      x y z
#    x 1.903340 0.000000 0.000000 
#    y 0.000000 1.871910 0.000000 
#    z 0.000000 0.000000 1.949080 
# 
# From -- ./inp_files/6161.got.cif
#   From: 2010.05.17/outbox.cif.g08.bks.cpg/sg59_4_cif.got.tgz:6161.got - 2010.06.03 14:40:33.
