data_PCOD9447227
_publ_section_title
;
Structure prediction by ZEFSAII (Michael W. Deem and Ramdas Pophale) SiO2 
 PCOD9447227
Probable space group: P M M N
;
_chemical_formula_sum "Si O2"
_cell_formula_units_Z 56
_cell_length_a 7.921939
_cell_length_b 16.103899
_cell_length_c 20.710006
_cell_angle_alpha 90.000000
_cell_angle_beta 90.000000
_cell_angle_gamma 90.000000
_cell_volume 2642.060491
_symmetry_space_group_name_H-M "P M M N"
_symmetry_group_IT_number 59
_space_group.IT_coordinate_system_code '2'
_symmetry_cell_setting 'orthorhombic'
loop_
_space_group_symop_operation_xyz
x,y,z
1/2-x,1/2-y,z
1/2+x,-y,-z
-x,1/2+y,-z
-x,-y,-z
1/2+x,1/2+y,-z
1/2-x,y,z
x,1/2-y,z
loop_
_atom_site_type_symbol
_atom_site_label
_atom_site_fract_x
_atom_site_fract_y
_atom_site_fract_z
Si Si1 0.548642 0.343556 0.331325
Si Si2 0.553181 0.933225 0.944582
Si Si3 0.557107 0.929716 0.799543
Si Si4 0.045972 0.162460 0.632789
Si Si5 0.545659 0.491088 0.425242
Si Si6 0.059327 0.750000 0.982829
Si Si7 0.549082 0.890644 0.225503
Si Si8 0.047719 0.250000 0.875872
O O1 0.750000 0.339693 0.340772
O O2 0.480240 0.250000 0.339876
O O3 0.521108 0.374863 0.257744
O O4 0.483958 0.411770 0.383416
O O5 0.750000 0.950971 0.936803
O O6 0.477279 0.936228 0.871690
O O7 0.526420 0.837305 0.964554
O O8 0.500000 0.000000 0.000000
O O9 0.750000 0.900494 0.806529
O O10 0.549048 0.023942 0.775097
O O11 0.250000 0.161993 0.623688
O O12 0.981322 0.250000 0.605884
O O13 0.016189 0.158334 0.709002
O O14 0.979962 0.076807 0.605137
O O15 0.500000 0.500000 0.500000
O O16 0.750000 0.489840 0.419819
O O17 0.250000 0.750000 0.956986
O O18 0.056466 0.750000 0.059732
O O19 0.750000 0.910142 0.224601
O O20 0.511061 0.831610 0.165708
O O21 0.250000 0.250000 0.889951
#
# Coordination Sequence:
#
# PCOD9447227 Si02
#       8
#     8   8   8   8   8   4   8   4
#     4  10  22  41  65  91 118 157 206 252 300 363
#     4  11  25  45  65  90 126 167 213 265 322 382
#     4  11  24  39  60  89 123 157 197 258 318 361
#     4   9  16  31  56  85 115 148 191 236 279 338
#     4  10  21  38  60  87 122 159 197 242 290 351
#     4  12  26  42  62  88 124 167 210 257 312 379
#     4  10  18  33  59  88 117 153 198 244 296 363
#     4  10  20  34  60  92 120 157 200 253 312 369
#
# _framework density 21.195578000000001
#
# number of rings (size 3 to 8) (size 9 to 14) (size 15 to 20)
#    0.000    1.714    2.143    2.357    1.000    6.571 
#    0.000    0.000    0.000    0.857    0.000    0.000 
#    0.000    0.000    0.000    0.000    0.000    0.000 
#
# Total GULP energy -312347.051482 kJ/mol
# GULP energy per Si atom -5577.625919 kJ/mol
# Density = 2.114734 g / cm^3
# Si number density = 21.195578 Si / 1000 Ang^3
#
#
#
# Elastic Constant Matrix: (Units=GPa)
#
#
# Indices 1 2 3 4 5 6 
#
# 1 10.8209 8.7827 8.5192 0.0000 0.0000 0.0000
# 2 8.7827 181.0783 77.4038 0.0000 0.0000 0.0000
# 3 8.5192 77.4038 128.0071 0.0000 0.0000 0.0000
# 4 0.0000 0.0000 0.0000 -99.5201 0.0000 0.0000
# 5 0.0000 0.0000 0.0000 0.0000 26.9532 0.0000
# 6 0.0000 0.0000 0.0000 0.0000 0.0000 -0.3323
#
#
#
# Elastic Compliance Matrix: (Units=1/GPa)
#
#
# Indices 1 2 3 4 5 6 
#
# 1 0.098466 -0.002663 -0.004943 0.000000 0.000000 0.000000
# 2 -0.002663 0.007520 -0.004370 0.000000 0.000000 0.000000
# 3 -0.004943 -0.004370 0.010783 0.000000 0.000000 0.000000
# 4 0.000000 0.000000 0.000000 -0.010048 0.000000 0.000000
# 5 0.000000 0.000000 0.000000 0.000000 0.037101 0.000000
# 6 0.000000 0.000000 0.000000 0.000000 0.000000 -3.008919
#
#
# Mechanical properties :
#
#
# Convention : Reuss Voigt Hill
#
# Bulk Modulus (GPa) = 10.77375 56.59085 33.68230
# Shear Modulus (GPa) = -1.77923 0.43352 -0.67286
#
# Velocity S-wave (km/s) = -0.91720 0.45274 -0.56404
# Velocity P-wave (km/s) = 1.99308 5.19910 3.93719
#
# Compressibility (1/GPa) = 0.09281817
#
# Stress axis : x y z
#
# Youngs Moduli (GPa) = 10.15574 132.98746 92.73584
#
# Poissons Ratio (x) = 0.35414 0.45839
# Poissons Ratio (y) = 0.02704 0.40523
# Poissons Ratio (z) = 0.05020 0.58112
#
# Static dielectric constant tensor:
#      x y z
#    x 1.771480 0.000000 0.000000 
#    y 0.000000 1.858340 0.000000 
#    z 0.000000 0.000000 1.790600 
# 
# From -- ./inp_files/29252.got.cif
#   From: 2010.05.17/outbox.cif.g08.bks.cpg/sg59_15_cif.got.tgz:29252.got - 2010.06.03 14:40:33.
