data_PCOD9447211
_publ_section_title
;
Structure prediction by ZEFSAII (Michael W. Deem and Ramdas Pophale) SiO2 
 PCOD9447211
Probable space group: P M M N
;
_chemical_formula_sum "Si O2"
_cell_formula_units_Z 64
_cell_length_a 29.283795
_cell_length_b 7.534211
_cell_length_c 13.349726
_cell_angle_alpha 90.000000
_cell_angle_beta 90.000000
_cell_angle_gamma 90.000000
_cell_volume 2945.353924
_symmetry_space_group_name_H-M "P M M N"
_symmetry_group_IT_number 59
_space_group.IT_coordinate_system_code '2'
_symmetry_cell_setting 'orthorhombic'
loop_
_space_group_symop_operation_xyz
x,y,z
1/2-x,1/2-y,z
1/2+x,-y,-z
-x,1/2+y,-z
-x,-y,-z
1/2+x,1/2+y,-z
1/2-x,y,z
x,1/2-y,z
loop_
_atom_site_type_symbol
_atom_site_label
_atom_site_fract_x
_atom_site_fract_y
_atom_site_fract_z
Si Si1 0.359732 0.463585 0.858169
Si Si2 0.865293 0.039043 0.917137
Si Si3 0.354542 0.035694 0.463739
Si Si4 0.302588 0.033081 0.665742
Si Si5 0.949403 0.537659 0.462443
Si Si6 0.046480 0.032856 0.764349
Si Si7 0.968598 0.462669 0.903749
Si Si8 0.801578 0.039309 0.740143
O O1 0.359846 0.250000 0.854158
O O2 0.327510 0.525455 0.767635
O O3 0.411390 0.524008 0.833940
O O4 0.346904 0.514064 0.970521
O O5 0.868858 0.250000 0.900398
O O6 0.917196 0.966290 0.911761
O O7 0.832146 0.966162 0.831253
O O8 0.354331 0.250000 0.464534
O O9 0.329226 0.976957 0.565659
O O10 0.407125 0.972889 0.470490
O O11 0.327788 0.982512 0.364562
O O12 0.250000 0.977625 0.662632
O O13 0.303473 0.250000 0.666016
O O14 0.944765 0.750000 0.458201
O O15 0.944902 0.472567 0.348488
O O16 0.000000 0.500000 0.500000
O O17 0.046401 0.250000 0.764054
O O18 0.998249 0.973381 0.809170
O O19 0.965389 0.250000 0.895990
O O20 0.000000 0.500000 0.000000
O O21 0.750000 0.966699 0.735537
O O22 0.797571 0.250000 0.757245
#
# Coordination Sequence:
#
# PCOD9447211 Si02
#       8
#     8   8   8   8   8   8   8   8
#     4  10  18  33  56  80 107 142 179 218 272 334
#     4  10  22  37  54  79 110 145 187 232 276 324
#     4  10  20  37  60  86 112 142 185 234 281 330
#     4   9  17  31  55  85 110 134 172 225 280 329
#     4  10  21  36  55  82 115 148 182 222 274 336
#     4   9  17  32  53  74 104 142 177 215 266 327
#     4  10  19  32  52  77 102 136 178 216 259 314
#     4  10  23  42  60  79 109 152 196 236 283 338
#
# _framework density 21.729136
#
# number of rings (size 3 to 8) (size 9 to 14) (size 15 to 20)
#    0.000    2.250    2.500    0.375    1.750    2.250 
#    0.000    1.875    0.000    0.750    0.000    0.000 
#    0.000    0.000    0.000    0.000    0.000    0.000 
#
# Total GULP energy -357475.055538 kJ/mol
# GULP energy per Si atom -5585.547743 kJ/mol
# Density = 2.167968 g / cm^3
# Si number density = 21.729136 Si / 1000 Ang^3
#
#
#
# Elastic Constant Matrix: (Units=GPa)
#
#
# Indices 1 2 3 4 5 6 
#
# 1 189.7072 6.0515 110.9737 0.0000 0.0000 0.0000
# 2 6.0515 53.5814 -2.4248 0.0000 0.0000 0.0000
# 3 110.9737 -2.4248 168.4109 0.0000 0.0000 0.0000
# 4 0.0000 0.0000 0.0000 22.0270 0.0000 0.0000
# 5 0.0000 0.0000 0.0000 0.0000 30.4095 0.0000
# 6 0.0000 0.0000 0.0000 0.0000 0.0000 123.1742
#
#
#
# Elastic Compliance Matrix: (Units=1/GPa)
#
#
# Indices 1 2 3 4 5 6 
#
# 1 0.008659 -0.001237 -0.005724 0.000000 0.000000 0.000000
# 2 -0.001237 0.018852 0.001087 0.000000 0.000000 0.000000
# 3 -0.005724 0.001087 0.009725 0.000000 0.000000 0.000000
# 4 0.000000 0.000000 0.000000 0.045399 0.000000 0.000000
# 5 0.000000 0.000000 0.000000 0.000000 0.032884 0.000000
# 6 0.000000 0.000000 0.000000 0.000000 0.000000 0.008119
#
#
# Mechanical properties :
#
#
# Convention : Reuss Voigt Hill
#
# Bulk Modulus (GPa) = 39.23418 71.21116 55.22267
# Shear Modulus (GPa) = 34.75077 54.92874 44.83975
#
# Velocity S-wave (km/s) = 4.00343 5.03326 4.54759
# Velocity P-wave (km/s) = 6.28213 8.16221 7.28309
#
# Compressibility (1/GPa) = 0.02548798
#
# Stress axis : x y z
#
# Youngs Moduli (GPa) = 115.48869 53.04461 102.82777
#
# Poissons Ratio (x) = 0.06561 0.58854
# Poissons Ratio (y) = 0.14285 -0.11172
# Poissons Ratio (z) = 0.66100 -0.05763
#
# Static dielectric constant tensor:
#      x y z
#    x 1.802150 0.000000 0.000000 
#    y 0.000000 1.834530 0.000000 
#    z 0.000000 0.000000 1.761270 
# 
# From -- ./inp_files/19258.got.cif
#   From: 2010.05.17/outbox.cif.g08.bks.cpg/sg59_10_cif.got.tgz:19258.got - 2010.06.03 14:40:33.
