data_PCOD9447972
_publ_section_title
;
Structure prediction by ZEFSAII (Michael W. Deem and Ramdas Pophale) SiO2 
 PCOD9447972
Probable space group: P M M N
;
_chemical_formula_sum "Si O2"
_cell_formula_units_Z 48
_cell_length_a 7.793138
_cell_length_b 33.095497
_cell_length_c 9.248133
_cell_angle_alpha 90.000000
_cell_angle_beta 90.000000
_cell_angle_gamma 90.000000
_cell_volume 2385.257889
_symmetry_space_group_name_H-M "P M M N"
_symmetry_group_IT_number 59
_space_group.IT_coordinate_system_code '2'
_symmetry_cell_setting 'orthorhombic'
loop_
_space_group_symop_operation_xyz
x,y,z
1/2-x,1/2-y,z
1/2+x,-y,-z
-x,1/2+y,-z
-x,-y,-z
1/2+x,1/2+y,-z
1/2-x,y,z
x,1/2-y,z
loop_
_atom_site_type_symbol
_atom_site_label
_atom_site_fract_x
_atom_site_fract_y
_atom_site_fract_z
Si Si1 0.952077 0.619336 0.924287
Si Si2 0.041258 0.206542 0.101764
Si Si3 0.457306 0.459553 0.913633
Si Si4 0.454692 0.459421 0.585460
Si Si5 0.047300 0.706582 0.558236
Si Si6 0.046647 0.619978 0.590796
O O1 0.750000 0.620226 0.957686
O O2 0.020609 0.664075 0.963571
O O3 0.970301 0.614604 0.751204
O O4 0.025061 0.580502 0.005685
O O5 0.250000 0.205546 0.105803
O O6 0.989967 0.250000 0.036734
O O7 0.977543 0.206641 0.267681
O O8 0.250000 0.457212 0.909799
O O9 0.521255 0.461514 0.749331
O O10 0.500000 0.500000 0.000000
O O11 0.500000 0.500000 0.500000
O O12 0.250000 0.456819 0.591169
O O13 0.516965 0.419457 0.503937
O O14 0.250000 0.707393 0.524704
O O15 0.973818 0.750000 0.506539
O O16 0.979709 0.661919 0.518656
O O17 0.250000 0.625125 0.612104
#
# Coordination Sequence:
#
# PCOD9447972 Si02
#       6
#     8   8   8   8   8   8
#     4   9  17  31  50  72  99 129 159 196 242 285
#     4   8  13  22  40  67  95 122 154 191 231 277
#     4  10  22  37  53  72  95 124 158 197 241 291
#     4  11  23  38  54  73  98 128 163 202 245 294
#     4   8  14  25  42  66  97 130 162 197 235 275
#     4  10  19  31  50  77 104 131 165 202 242 287
#
# _framework density 20.123611
#
# number of rings (size 3 to 8) (size 9 to 14) (size 15 to 20)
#    0.000    2.667    0.000    2.000    0.000    5.333 
#    0.000    0.000    0.000    1.000    0.000    2.333 
#    0.000    5.333    0.000    0.000    0.000    0.000 
#
# Total GULP energy -267407.223782 kJ/mol
# GULP energy per Si atom -5570.983829 kJ/mol
# Density = 2.007781 g / cm^3
# Si number density = 20.123611 Si / 1000 Ang^3
#
#
#
# Elastic Constant Matrix: (Units=GPa)
#
#
# Indices 1 2 3 4 5 6 
#
# 1 28.7083 -2.5267 -8.0600 0.0000 0.0000 0.0000
# 2 -2.5267 256.0266 76.8513 0.0000 0.0000 0.0000
# 3 -8.0600 76.8513 65.8891 0.0000 0.0000 0.0000
# 4 0.0000 0.0000 0.0000 24.7725 0.0000 0.0000
# 5 0.0000 0.0000 0.0000 0.0000 9.2494 0.0000
# 6 0.0000 0.0000 0.0000 0.0000 0.0000 16.0430
#
#
#
# Elastic Compliance Matrix: (Units=1/GPa)
#
#
# Indices 1 2 3 4 5 6 
#
# 1 0.036445 -0.001506 0.006215 0.000000 0.000000 0.000000
# 2 -0.001506 0.006072 -0.007267 0.000000 0.000000 0.000000
# 3 0.006215 -0.007267 0.024413 0.000000 0.000000 0.000000
# 4 0.000000 0.000000 0.000000 0.040367 0.000000 0.000000
# 5 0.000000 0.000000 0.000000 0.000000 0.108115 0.000000
# 6 0.000000 0.000000 0.000000 0.000000 0.000000 0.062332
#
#
# Mechanical properties :
#
#
# Convention : Reuss Voigt Hill
#
# Bulk Modulus (GPa) = 16.17737 53.68368 34.93052
# Shear Modulus (GPa) = 16.47630 28.97026 22.72328
#
# Velocity S-wave (km/s) = 2.86449 3.79834 3.36398
# Velocity P-wave (km/s) = 4.35854 6.78022 5.69949
#
# Compressibility (1/GPa) = 0.06181474
#
# Stress axis : x y z
#
# Youngs Moduli (GPa) = 27.43829 164.68451 40.96199
#
# Poissons Ratio (x) = 0.24797 -0.25456
# Poissons Ratio (y) = 0.04131 0.29766
# Poissons Ratio (z) = -0.17052 1.19671
#
# Static dielectric constant tensor:
#      x y z
#    x 1.762870 0.000000 0.000000 
#    y 0.000000 1.782520 0.000000 
#    z 0.000000 0.000000 1.672010 
# 
# From -- ./inp_files/6308.got.cif
#   From: 2010.05.17/outbox.cif.g08.bks.cpg/sg59_4_cif.got.tgz:6308.got - 2010.06.03 14:40:33.
