data_PCOD9447345
_publ_section_title
;
Structure prediction by ZEFSAII (Michael W. Deem and Ramdas Pophale) SiO2 
 PCOD9447345
Probable space group: P M M N
;
_chemical_formula_sum "Si O2"
_cell_formula_units_Z 64
_cell_length_a 26.690931
_cell_length_b 9.017524
_cell_length_c 18.726085
_cell_angle_alpha 90.000000
_cell_angle_beta 90.000000
_cell_angle_gamma 90.000000
_cell_volume 4507.108571
_symmetry_space_group_name_H-M "P M M N"
_symmetry_group_IT_number 59
_space_group.IT_coordinate_system_code '2'
_symmetry_cell_setting 'orthorhombic'
loop_
_space_group_symop_operation_xyz
x,y,z
1/2-x,1/2-y,z
1/2+x,-y,-z
-x,1/2+y,-z
-x,-y,-z
1/2+x,1/2+y,-z
1/2-x,y,z
x,1/2-y,z
loop_
_atom_site_type_symbol
_atom_site_label
_atom_site_fract_x
_atom_site_fract_y
_atom_site_fract_z
Si Si1 0.452424 0.072574 0.539503
Si Si2 0.392254 0.927074 0.422760
Si Si3 0.690680 0.925994 0.671828
Si Si4 0.506915 0.573441 0.829358
Si Si5 0.510399 0.426226 0.676061
Si Si6 0.890921 0.573345 0.916680
Si Si7 0.308813 0.574352 0.176411
Si Si8 0.044587 0.427535 0.953881
O O1 0.452951 0.250000 0.529642
O O2 0.463811 0.042918 0.622710
O O3 0.500000 0.000000 0.500000
O O4 0.405656 0.001435 0.498628
O O5 0.389371 0.750000 0.430239
O O6 0.438771 0.959397 0.368550
O O7 0.343016 0.993829 0.386880
O O8 0.750000 0.951413 0.660496
O O9 0.681396 0.750000 0.671212
O O10 0.677922 0.991700 0.749761
O O11 0.500665 0.750000 0.832609
O O12 0.508133 0.515852 0.748892
O O13 0.560264 0.538539 0.867641
O O14 0.463450 0.495201 0.875857
O O15 0.510953 0.250000 0.691279
O O16 0.882203 0.750000 0.910879
O O17 0.844162 0.485576 0.885803
O O18 0.906352 0.539841 0.998535
O O19 0.250000 0.546287 0.162095
O O20 0.315717 0.750000 0.186282
O O21 0.038606 0.250000 0.952026
O O22 0.000000 0.500000 0.000000
#
# Coordination Sequence:
#
# PCOD9447345 Si02
#       8
#     8   8   8   8   8   8   8   8
#     4   9  17  29  43  60  84 112 142 175 210 249
#     4  10  19  30  45  63  83 111 145 178 214 252
#     4  10  20  32  45  61  83 112 144 178 214 250
#     4  10  19  28  41  62  85 110 141 173 206 245
#     4   9  18  29  41  60  85 113 142 171 206 246
#     4   9  18  30  43  60  81 110 144 173 206 247
#     4  10  20  31  43  61  84 110 141 177 213 246
#     4   9  17  29  43  59  81 107 137 171 206 246
#
# _framework density 14.199790999999999
#
# number of rings (size 3 to 8) (size 9 to 14) (size 15 to 20)
#    0.000    2.500    0.000    4.500    0.000    9.500 
#    0.000    0.000    0.000    0.000    0.000    0.000 
#    0.000    1.000    0.000    5.500    0.000    4.125 
#
# Total GULP energy -356610.173023 kJ/mol
# GULP energy per Si atom -5572.033953 kJ/mol
# Density = 1.416747 g / cm^3
# Si number density = 14.199791 Si / 1000 Ang^3
#
#
#
# Elastic Constant Matrix: (Units=GPa)
#
#
# Indices 1 2 3 4 5 6 
#
# 1 43.8639 33.5499 26.6889 0.0000 0.0000 0.0000
# 2 33.5499 57.5790 43.3431 0.0000 0.0000 0.0000
# 3 26.6889 43.3431 69.6616 0.0000 0.0000 0.0000
# 4 0.0000 0.0000 0.0000 27.2184 0.0000 0.0000
# 5 0.0000 0.0000 0.0000 0.0000 27.9843 0.0000
# 6 0.0000 0.0000 0.0000 0.0000 0.0000 22.4745
#
#
#
# Elastic Compliance Matrix: (Units=1/GPa)
#
#
# Indices 1 2 3 4 5 6 
#
# 1 0.041221 -0.022817 -0.001596 0.000000 0.000000 0.000000
# 2 -0.022817 0.045298 -0.019442 0.000000 0.000000 0.000000
# 3 -0.001596 -0.019442 0.027064 0.000000 0.000000 0.000000
# 4 0.000000 0.000000 0.000000 0.036740 0.000000 0.000000
# 5 0.000000 0.000000 0.000000 0.000000 0.035734 0.000000
# 6 0.000000 0.000000 0.000000 0.000000 0.000000 0.044495
#
#
# Mechanical properties :
#
#
# Convention : Reuss Voigt Hill
#
# Bulk Modulus (GPa) = 38.65268 42.02979 40.34124
# Shear Modulus (GPa) = 15.29589 20.03695 17.66642
#
# Velocity S-wave (km/s) = 3.28562 3.76050 3.53105
# Velocity P-wave (km/s) = 6.45550 6.96551 6.71534
#
# Compressibility (1/GPa) = 0.02587142
#
# Stress axis : x y z
#
# Youngs Moduli (GPa) = 24.25968 22.07616 36.95007
#
# Poissons Ratio (x) = 0.50371 0.05897
# Poissons Ratio (y) = 0.55353 0.71840
# Poissons Ratio (z) = 0.03872 0.42921
#
# Static dielectric constant tensor:
#      x y z
#    x 1.466560 0.000000 0.000000 
#    y 0.000000 1.468810 0.000000 
#    z 0.000000 0.000000 1.477790 
# 
# From -- ./inp_files/26528.got.cif
#   From: 2010.05.17/outbox.cif.g08.bks.cpg/sg59_14_cif.got.tgz:26528.got - 2010.06.03 14:40:33.
