data_PCOD9447253
_publ_section_title
;
Structure prediction by ZEFSAII (Michael W. Deem and Ramdas Pophale) SiO2 
 PCOD9447253
Probable space group: P M M N
;
_chemical_formula_sum "Si O2"
_cell_formula_units_Z 44
_cell_length_a 8.403581
_cell_length_b 29.186973
_cell_length_c 7.361261
_cell_angle_alpha 90.000000
_cell_angle_beta 90.000000
_cell_angle_gamma 90.000000
_cell_volume 1805.533967
_symmetry_space_group_name_H-M "P M M N"
_symmetry_group_IT_number 59
_space_group.IT_coordinate_system_code '2'
_symmetry_cell_setting 'orthorhombic'
loop_
_space_group_symop_operation_xyz
x,y,z
1/2-x,1/2-y,z
1/2+x,-y,-z
-x,1/2+y,-z
-x,-y,-z
1/2+x,1/2+y,-z
1/2-x,y,z
x,1/2-y,z
loop_
_atom_site_type_symbol
_atom_site_label
_atom_site_fract_x
_atom_site_fract_y
_atom_site_fract_z
Si Si1 0.750000 0.474155 0.807314
Si Si2 0.250000 0.540393 0.792137
Si Si3 0.487268 0.399858 0.730423
Si Si4 0.058829 0.700528 0.846224
Si Si5 0.250000 0.043463 0.508740
Si Si6 0.433647 0.104275 0.161080
Si Si7 0.057975 0.300472 0.737113
O O1 0.609692 0.439913 0.765742
O O2 0.750000 0.516945 0.678988
O O3 0.750000 0.486925 0.017210
O O4 0.250000 0.501340 0.641684
O O5 0.414475 0.570636 0.793240
O O6 0.391398 0.423366 0.568479
O O7 0.524782 0.347630 0.673108
O O8 0.423582 0.394653 0.938404
O O9 0.250000 0.695908 0.852337
O O10 0.018738 0.750000 0.762386
O O11 0.992812 0.702307 0.051907
O O12 0.984812 0.654464 0.768761
O O13 0.250000 0.097784 0.219079
O O14 0.250000 0.306736 0.721613
O O15 0.016992 0.250000 0.660025
#
# Coordination Sequence:
#
# PCOD9447253 Si02
#       7
#     4   4   8   8   4   8   8
#     4  10  24  38  61  87 123 165 204 254 315 365
#     4  10  24  40  61  87 119 161 212 258 307 369
#     4  10  19  36  54  84 120 155 201 256 302 363
#     4   9  15  23  42  74 113 153 194 244 306 370
#     4  12  22  42  61  84 123 162 204 264 308 362
#     4  10  18  34  54  79 118 157 200 256 308 364
#     4   9  16  27  47  76 113 156 197 245 307 363
#
# _framework density 24.369520999999999
#
# number of rings (size 3 to 8) (size 9 to 14) (size 15 to 20)
#    0.000    2.182    2.727    2.182    3.818    4.000 
#    1.636    0.000    0.000    0.000    0.000    2.545 
#    0.000    8.727    0.000    0.182    0.000    0.000 
#
# Total GULP energy -245327.583967 kJ/mol
# GULP energy per Si atom -5575.626908 kJ/mol
# Density = 2.431406 g / cm^3
# Si number density = 24.369521 Si / 1000 Ang^3
#
#
#
# Elastic Constant Matrix: (Units=GPa)
#
#
# Indices 1 2 3 4 5 6 
#
# 1 65.5798 34.0857 19.4533 0.0000 0.0000 0.0000
# 2 34.0857 244.1438 38.8094 0.0000 0.0000 0.0000
# 3 19.4533 38.8094 57.1494 0.0000 0.0000 0.0000
# 4 0.0000 0.0000 0.0000 -87.3049 0.0000 0.0000
# 5 0.0000 0.0000 0.0000 0.0000 13.1355 0.0000
# 6 0.0000 0.0000 0.0000 0.0000 0.0000 39.1937
#
#
#
# Elastic Compliance Matrix: (Units=1/GPa)
#
#
# Indices 1 2 3 4 5 6 
#
# 1 0.017557 -0.001683 -0.004834 0.000000 0.000000 0.000000
# 2 -0.001683 0.004753 -0.002655 0.000000 0.000000 0.000000
# 3 -0.004834 -0.002655 0.020946 0.000000 0.000000 0.000000
# 4 0.000000 0.000000 0.000000 -0.011454 0.000000 0.000000
# 5 0.000000 0.000000 0.000000 0.000000 0.076129 0.000000
# 6 0.000000 0.000000 0.000000 0.000000 0.000000 0.025514
#
#
# Mechanical properties :
#
#
# Convention : Reuss Voigt Hill
#
# Bulk Modulus (GPa) = 40.13843 61.28552 50.71198
# Shear Modulus (GPa) = 31.23191 11.30651 21.26921
#
# Velocity S-wave (km/s) = 3.58382 2.15631 2.95749
# Velocity P-wave (km/s) = 5.79927 5.60380 5.70238
#
# Compressibility (1/GPa) = 0.02491378
#
# Stress axis : x y z
#
# Youngs Moduli (GPa) = 56.95711 210.39765 47.74153
#
# Poissons Ratio (x) = 0.35407 0.23076
# Poissons Ratio (y) = 0.09585 0.12674
# Poissons Ratio (z) = 0.27530 0.55856
#
# Static dielectric constant tensor:
#      x y z
#    x 1.910380 0.000000 0.000000 
#    y 0.000000 2.011080 0.000000 
#    z 0.000000 0.000000 1.971820 
# 
# From -- ./inp_files/6160.got.cif
#   From: 2010.05.17/outbox.cif.g08.bks.cpg/sg59_4_cif.got.tgz:6160.got - 2010.06.03 14:40:33.
