data_PCOD9447434
_publ_section_title
;
Structure prediction by ZEFSAII (Michael W. Deem and Ramdas Pophale) SiO2 
 PCOD9447434
Probable space group: P M M N
;
_chemical_formula_sum "Si O2"
_cell_formula_units_Z 48
_cell_length_a 8.778209
_cell_length_b 24.661368
_cell_length_c 14.003757
_cell_angle_alpha 90.000000
_cell_angle_beta 90.000000
_cell_angle_gamma 90.000000
_cell_volume 3031.570321
_symmetry_space_group_name_H-M "P M M N"
_symmetry_group_IT_number 59
_space_group.IT_coordinate_system_code '2'
_symmetry_cell_setting 'orthorhombic'
loop_
_space_group_symop_operation_xyz
x,y,z
1/2-x,1/2-y,z
1/2+x,-y,-z
-x,1/2+y,-z
-x,-y,-z
1/2+x,1/2+y,-z
1/2-x,y,z
x,1/2-y,z
loop_
_atom_site_type_symbol
_atom_site_label
_atom_site_fract_x
_atom_site_fract_y
_atom_site_fract_z
Si Si1 0.566490 0.688029 0.130706
Si Si2 0.432080 0.520040 0.851829
Si Si3 0.432163 0.476442 0.352339
Si Si4 0.434121 0.419006 0.545658
Si Si5 0.932026 0.082044 0.955987
Si Si6 0.564738 0.689445 0.352906
O O1 0.750000 0.683587 0.125112
O O2 0.525290 0.750000 0.105010
O O3 0.491748 0.641616 0.067599
O O4 0.523127 0.679725 0.242133
O O5 0.250000 0.516908 0.845993
O O6 0.499241 0.536737 0.750336
O O7 0.495907 0.461324 0.882819
O O8 0.473645 0.560768 0.938126
O O9 0.250000 0.478954 0.346064
O O10 0.473692 0.434356 0.436764
O O11 0.495629 0.534373 0.387800
O O12 0.250000 0.421896 0.554126
O O13 0.485526 0.360012 0.580906
O O14 0.750000 0.079981 0.947213
O O15 0.750000 0.690167 0.355414
O O16 0.512777 0.750000 0.380251
#
# Coordination Sequence:
#
# PCOD9447434 Si02
#       6
#     8   8   8   8   8   8
#     4   9  17  29  47  71  97 125 153 182 224 278
#     4  10  20  33  48  66  91 123 154 188 235 284
#     4  10  19  29  44  68  94 120 152 188 225 270
#     4   9  17  29  46  68  93 121 150 184 227 269
#     4  10  20  32  48  70  92 118 154 194 234 276
#     4   8  14  26  45  67  89 115 147 179 215 264
#
# _framework density 15.833377
#
# number of rings (size 3 to 8) (size 9 to 14) (size 15 to 20)
#    0.000    2.667    0.000    3.500    0.000    4.333 
#    0.000    0.000    0.000    2.500    0.000    2.333 
#    0.000    0.000    0.000    0.000    0.000    0.000 
#
# Total GULP energy -267603.149573 kJ/mol
# GULP energy per Si atom -5575.065616 kJ/mol
# Density = 1.579734 g / cm^3
# Si number density = 15.833377 Si / 1000 Ang^3
#
#
#
# Elastic Constant Matrix: (Units=GPa)
#
#
# Indices 1 2 3 4 5 6 
#
# 1 23.3869 30.5497 30.4856 0.0000 0.0000 0.0000
# 2 30.5497 134.2657 66.5085 0.0000 0.0000 0.0000
# 3 30.4856 66.5085 94.9573 0.0000 0.0000 0.0000
# 4 0.0000 0.0000 0.0000 20.0784 0.0000 0.0000
# 5 0.0000 0.0000 0.0000 0.0000 24.2632 0.0000
# 6 0.0000 0.0000 0.0000 0.0000 0.0000 23.4101
#
#
#
# Elastic Compliance Matrix: (Units=1/GPa)
#
#
# Indices 1 2 3 4 5 6 
#
# 1 0.079146 -0.008302 -0.019595 0.000000 0.000000 0.000000
# 2 -0.008302 0.012276 -0.005933 0.000000 0.000000 0.000000
# 3 -0.019595 -0.005933 0.020977 0.000000 0.000000 0.000000
# 4 0.000000 0.000000 0.000000 0.049805 0.000000 0.000000
# 5 0.000000 0.000000 0.000000 0.000000 0.041215 0.000000
# 6 0.000000 0.000000 0.000000 0.000000 0.000000 0.042717
#
#
# Mechanical properties :
#
#
# Convention : Reuss Voigt Hill
#
# Bulk Modulus (GPa) = 22.35136 56.41083 39.38110
# Shear Modulus (GPa) = 15.21116 21.88808 18.54962
#
# Velocity S-wave (km/s) = 3.10288 3.72210 3.42651
# Velocity P-wave (km/s) = 5.19465 7.36051 6.37031
#
# Compressibility (1/GPa) = 0.04474001
#
# Stress axis : x y z
#
# Youngs Moduli (GPa) = 12.63492 81.46260 47.67118
#
# Poissons Ratio (x) = 0.67630 0.93410
# Poissons Ratio (y) = 0.10489 0.28281
# Poissons Ratio (z) = 0.24758 0.48328
#
# Static dielectric constant tensor:
#      x y z
#    x 1.532410 0.000000 0.000000 
#    y 0.000000 1.520340 0.000000 
#    z 0.000000 0.000000 1.522430 
# 
# From -- ./inp_files/14364.got.cif
#   From: 2010.05.17/outbox.cif.g08.bks.cpg/sg59_8_cif.got.tgz:14364.got - 2010.06.03 14:40:33.
