data_PCOD9447241
_publ_section_title
;
Structure prediction by ZEFSAII (Michael W. Deem and Ramdas Pophale) SiO2 
 PCOD9447241
Probable space group: P M M N
;
_chemical_formula_sum "Si O2"
_cell_formula_units_Z 40
_cell_length_a 10.498057
_cell_length_b 7.723382
_cell_length_c 24.398447
_cell_angle_alpha 90.000000
_cell_angle_beta 90.000000
_cell_angle_gamma 90.000000
_cell_volume 1978.238391
_symmetry_space_group_name_H-M "P M M N"
_symmetry_group_IT_number 59
_space_group.IT_coordinate_system_code '2'
_symmetry_cell_setting 'orthorhombic'
loop_
_space_group_symop_operation_xyz
x,y,z
1/2-x,1/2-y,z
1/2+x,-y,-z
-x,1/2+y,-z
-x,-y,-z
1/2+x,1/2+y,-z
1/2-x,y,z
x,1/2-y,z
loop_
_atom_site_type_symbol
_atom_site_label
_atom_site_fract_x
_atom_site_fract_y
_atom_site_fract_z
Si Si1 0.107655 0.457493 0.256078
Si Si2 0.107454 0.042168 0.956213
Si Si3 0.478154 0.037559 0.376412
Si Si4 0.250000 0.040610 0.455480
Si Si5 0.893309 0.958348 0.167925
Si Si6 0.750000 0.454932 0.417147
O O1 0.250000 0.522658 0.242703
O O2 0.115670 0.250000 0.260290
O O3 0.064657 0.520199 0.316115
O O4 0.001977 0.494617 0.210653
O O5 0.250000 0.979892 0.971371
O O6 0.113343 0.250000 0.953490
O O7 0.079257 0.980170 0.894228
O O8 0.000000 0.000000 0.000000
O O9 0.478430 0.250000 0.376513
O O10 0.374691 0.984307 0.421727
O O11 0.618983 0.975463 0.391941
O O12 0.250000 0.250000 0.456460
O O13 0.250000 0.978696 0.517614
O O14 0.750000 0.018825 0.183118
O O15 0.888847 0.750000 0.166327
O O16 0.750000 0.250000 0.405565
#
# Coordination Sequence:
#
# PCOD9447241 Si02
#       6
#     8   8   8   4   8   4
#     4  10  20  35  55  79 105 137 180 223 263 314
#     4   9  19  36  56  79 110 145 179 217 262 310
#     4   9  18  33  52  73  99 132 168 209 258 308
#     4  10  18  34  54  70  98 134 163 202 259 314
#     4   9  20  38  56  77 109 145 177 216 267 315
#     4  10  20  32  50  76 100 126 167 212 253 306
#
# _framework density 20.220009999999998
#
# number of rings (size 3 to 8) (size 9 to 14) (size 15 to 20)
#    0.000    2.600    1.000    1.800    1.400    2.800 
#    0.000    8.000    0.000    0.000    0.000    0.000 
#    0.000    0.000    0.000    0.000    0.000    0.000 
#
# Total GULP energy -223250.310718 kJ/mol
# GULP energy per Si atom -5581.257768 kJ/mol
# Density = 2.017399 g / cm^3
# Si number density = 20.220010 Si / 1000 Ang^3
#
#
#
# Elastic Constant Matrix: (Units=GPa)
#
#
# Indices 1 2 3 4 5 6 
#
# 1 212.6752 7.5102 115.3394 0.0000 0.0000 0.0000
# 2 7.5102 27.5064 0.0354 0.0000 0.0000 0.0000
# 3 115.3394 0.0354 130.3788 0.0000 0.0000 0.0000
# 4 0.0000 0.0000 0.0000 27.8848 0.0000 0.0000
# 5 0.0000 0.0000 0.0000 0.0000 43.3655 0.0000
# 6 0.0000 0.0000 0.0000 0.0000 0.0000 15.2005
#
#
#
# Elastic Compliance Matrix: (Units=1/GPa)
#
#
# Indices 1 2 3 4 5 6 
#
# 1 0.009208 -0.002503 -0.008145 0.000000 0.000000 0.000000
# 2 -0.002503 0.037036 0.002205 0.000000 0.000000 0.000000
# 3 -0.008145 0.002205 0.014875 0.000000 0.000000 0.000000
# 4 0.000000 0.000000 0.000000 0.035862 0.000000 0.000000
# 5 0.000000 0.000000 0.000000 0.000000 0.023060 0.000000
# 6 0.000000 0.000000 0.000000 0.000000 0.000000 0.065787
#
#
# Mechanical properties :
#
#
# Convention : Reuss Voigt Hill
#
# Bulk Modulus (GPa) = 22.60866 68.48116 45.54491
# Shear Modulus (GPa) = 22.99300 33.80187 28.39744
#
# Velocity S-wave (km/s) = 3.37581 4.09308 3.75163
# Velocity P-wave (km/s) = 5.13813 7.50195 6.42961
#
# Compressibility (1/GPa) = 0.04423083
#
# Stress axis : x y z
#
# Youngs Moduli (GPa) = 108.60687 27.00085 67.22874
#
# Poissons Ratio (x) = 0.06760 0.54756
# Poissons Ratio (y) = 0.27190 -0.14822
# Poissons Ratio (z) = 0.88457 -0.05953
#
# Static dielectric constant tensor:
#      x y z
#    x 1.716370 0.000000 0.000000 
#    y 0.000000 1.753550 0.000000 
#    z 0.000000 0.000000 1.677130 
# 
# From -- ./inp_files/32449.got.cif
#   From: 2010.05.17/outbox.cif.g08.bks.cpg/sg59_17_cif.got.tgz:32449.got - 2010.06.03 14:40:33.
