data_PCOD9447913
_publ_section_title
;
Structure prediction by ZEFSAII (Michael W. Deem and Ramdas Pophale) SiO2 
 PCOD9447913
Probable space group: P M M N
;
_chemical_formula_sum "Si O2"
_cell_formula_units_Z 56
_cell_length_a 23.600556
_cell_length_b 7.759775
_cell_length_c 15.141128
_cell_angle_alpha 90.000000
_cell_angle_beta 90.000000
_cell_angle_gamma 90.000000
_cell_volume 2772.870543
_symmetry_space_group_name_H-M "P M M N"
_symmetry_group_IT_number 59
_space_group.IT_coordinate_system_code '2'
_symmetry_cell_setting 'orthorhombic'
loop_
_space_group_symop_operation_xyz
x,y,z
1/2-x,1/2-y,z
1/2+x,-y,-z
-x,1/2+y,-z
-x,-y,-z
1/2+x,1/2+y,-z
1/2-x,y,z
x,1/2-y,z
loop_
_atom_site_type_symbol
_atom_site_label
_atom_site_fract_x
_atom_site_fract_y
_atom_site_fract_z
Si Si1 0.910197 0.454564 0.286037
Si Si2 0.313616 0.458004 0.575994
Si Si3 0.579179 0.546609 0.916482
Si Si4 0.186863 0.461007 0.195407
Si Si5 0.357210 0.460755 0.384265
Si Si6 0.955879 0.548396 0.107689
Si Si7 0.514881 0.957244 0.600657
O O1 0.915884 0.250000 0.278627
O O2 0.856591 0.491845 0.347103
O O3 0.912396 0.525002 0.187311
O O4 0.965307 0.525852 0.337209
O O5 0.250000 0.518630 0.593238
O O6 0.313200 0.250000 0.572359
O O7 0.333654 0.518586 0.479031
O O8 0.590177 0.750000 0.925989
O O9 0.633396 0.477793 0.863210
O O10 0.517846 0.528123 0.869753
O O11 0.567869 0.475058 0.015165
O O12 0.250000 0.513810 0.166092
O O13 0.185786 0.250000 0.194531
O O14 0.176713 0.513365 0.297235
O O15 0.356500 0.250000 0.385725
O O16 0.422317 0.518241 0.376392
O O17 0.966174 0.750000 0.093981
O O18 0.515463 0.750000 0.608576
O O19 0.500000 0.000000 0.500000
#
# Coordination Sequence:
#
# PCOD9447913 Si02
#       7
#     8   8   8   8   8   8   8
#     4  11  22  35  53  78 107 139 174 219 269 315
#     4  10  20  34  52  73 101 140 182 220 255 304
#     4   9  18  34  55  81 110 136 172 220 268 320
#     4   9  16  28  50  79 108 137 170 212 262 316
#     4   9  16  28  48  75 105 134 167 207 255 310
#     4  10  20  34  55  80 106 140 177 219 272 323
#     4  10  19  31  49  74 103 134 168 211 259 307
#
# _framework density 20.195678999999998
#
# number of rings (size 3 to 8) (size 9 to 14) (size 15 to 20)
#    0.000    2.286    1.429    2.143    0.000    5.429 
#    0.000    0.714    0.000    3.000    0.000    0.000 
#    0.000    0.000    0.000    0.000    0.000    0.000 
#
# Total GULP energy -312564.128460 kJ/mol
# GULP energy per Si atom -5581.502294 kJ/mol
# Density = 2.014971 g / cm^3
# Si number density = 20.195679 Si / 1000 Ang^3
#
#
#
# Elastic Constant Matrix: (Units=GPa)
#
#
# Indices 1 2 3 4 5 6 
#
# 1 148.2674 1.8542 74.8831 0.0000 0.0000 0.0000
# 2 1.8542 27.7624 2.1261 0.0000 0.0000 0.0000
# 3 74.8831 2.1261 117.7340 0.0000 0.0000 0.0000
# 4 0.0000 0.0000 0.0000 8.7635 0.0000 0.0000
# 5 0.0000 0.0000 0.0000 0.0000 26.3695 0.0000
# 6 0.0000 0.0000 0.0000 0.0000 0.0000 17.4854
#
#
#
# Elastic Compliance Matrix: (Units=1/GPa)
#
#
# Indices 1 2 3 4 5 6 
#
# 1 0.009937 -0.000180 -0.006317 0.000000 0.000000 0.000000
# 2 -0.000180 0.036073 -0.000537 0.000000 0.000000 0.000000
# 3 -0.006317 -0.000537 0.012521 0.000000 0.000000 0.000000
# 4 0.000000 0.000000 0.000000 0.114110 0.000000 0.000000
# 5 0.000000 0.000000 0.000000 0.000000 0.037923 0.000000
# 6 0.000000 0.000000 0.000000 0.000000 0.000000 0.057190
#
#
# Mechanical properties :
#
#
# Convention : Reuss Voigt Hill
#
# Bulk Modulus (GPa) = 22.49032 50.16562 36.32797
# Shear Modulus (GPa) = 16.85516 24.85036 20.85276
#
# Velocity S-wave (km/s) = 2.89207 3.51162 3.21680
# Velocity P-wave (km/s) = 4.72360 6.42929 5.64128
#
# Compressibility (1/GPa) = 0.04446358
#
# Stress axis : x y z
#
# Youngs Moduli (GPa) = 100.62994 27.72147 79.86292
#
# Poissons Ratio (x) = 0.00499 0.50452
# Poissons Ratio (y) = 0.01810 0.04288
# Poissons Ratio (z) = 0.63571 0.01489
#
# Static dielectric constant tensor:
#      x y z
#    x 1.023680 0.000000 0.000000 
#    y 0.000000 1.758560 0.000000 
#    z 0.000000 0.000000 1.720160 
# 
# From -- ./inp_files/24230.got.cif
#   From: 2010.05.17/outbox.cif.g08.bks.cpg/sg59_13_cif.got.tgz:24230.got - 2010.06.03 14:40:33.
