data_PCOD9447384
_publ_section_title
;
Structure prediction by ZEFSAII (Michael W. Deem and Ramdas Pophale) SiO2 
 PCOD9447384
Probable space group: P M M N
;
_chemical_formula_sum "Si O2"
_cell_formula_units_Z 64
_cell_length_a 7.562317
_cell_length_b 18.551015
_cell_length_c 23.065562
_cell_angle_alpha 90.000000
_cell_angle_beta 90.000000
_cell_angle_gamma 90.000000
_cell_volume 3235.836695
_symmetry_space_group_name_H-M "P M M N"
_symmetry_group_IT_number 59
_space_group.IT_coordinate_system_code '2'
_symmetry_cell_setting 'orthorhombic'
loop_
_space_group_symop_operation_xyz
x,y,z
1/2-x,1/2-y,z
1/2+x,-y,-z
-x,1/2+y,-z
-x,-y,-z
1/2+x,1/2+y,-z
1/2-x,y,z
x,1/2-y,z
loop_
_atom_site_type_symbol
_atom_site_label
_atom_site_fract_x
_atom_site_fract_y
_atom_site_fract_z
Si Si1 0.957053 0.830831 0.561685
Si Si2 0.040575 0.570136 0.460605
Si Si3 0.536596 0.874473 0.076370
Si Si4 0.033765 0.530569 0.886315
Si Si5 0.957650 0.327671 0.050977
Si Si6 0.537212 0.984061 0.240524
Si Si7 0.039732 0.467607 0.366694
Si Si8 0.534300 0.828615 0.204973
O O1 0.750000 0.825338 0.576324
O O2 0.032595 0.750000 0.566517
O O3 0.032345 0.894386 0.603325
O O4 0.967369 0.862354 0.496263
O O5 0.250000 0.582264 0.457515
O O6 0.972662 0.540593 0.398786
O O7 0.000000 0.500000 0.500000
O O8 0.750000 0.871704 0.074774
O O9 0.483306 0.838889 0.137372
O O10 0.480374 0.958057 0.080020
O O11 0.471023 0.838681 0.017945
O O12 0.250000 0.530668 0.887126
O O13 0.967569 0.602697 0.916627
O O14 0.978714 0.521019 0.819480
O O15 0.750000 0.325822 0.065758
O O16 0.035531 0.250000 0.066533
O O17 0.750000 0.982173 0.238613
O O18 0.475153 0.900589 0.238299
O O19 0.486623 0.025173 0.298601
O O20 0.250000 0.466739 0.378261
O O21 0.750000 0.828991 0.206229
O O22 0.475245 0.750000 0.225865
#
# Coordination Sequence:
#
# PCOD9447384 Si02
#       8
#     8   8   8   8   8   8   8   8
#     4   9  18  33  52  74 100 128 158 195 238 278
#     4   9  17  30  49  72  98 127 156 187 228 278
#     4   9  16  28  48  67  83 108 144 187 230 275
#     4   8  16  31  46  62  86 117 152 187 227 271
#     4  10  19  29  42  62  90 119 143 176 228 284
#     4   9  17  30  49  67  85 118 162 196 218 259
#     4   9  18  32  49  70  97 126 153 186 231 275
#     4   8  14  26  44  65  87 111 143 187 235 273
#
# _framework density 19.778502
#
# number of rings (size 3 to 8) (size 9 to 14) (size 15 to 20)
#    0.000    3.125    0.000    3.375    0.000    3.500 
#    0.000    4.375    0.000    4.125    0.000    0.000 
#    0.000    0.000    0.000    0.000    0.000    0.000 
#
# Total GULP energy -356556.951973 kJ/mol
# GULP energy per Si atom -5571.202375 kJ/mol
# Density = 1.973349 g / cm^3
# Si number density = 19.778502 Si / 1000 Ang^3
#
#
#
# Elastic Constant Matrix: (Units=GPa)
#
#
# Indices 1 2 3 4 5 6 
#
# 1 42.9708 6.8013 -4.8800 0.0000 0.0000 0.0000
# 2 6.8013 149.4919 47.4861 0.0000 0.0000 0.0000
# 3 -4.8800 47.4861 59.2210 0.0000 0.0000 0.0000
# 4 0.0000 0.0000 0.0000 17.5896 0.0000 0.0000
# 5 0.0000 0.0000 0.0000 0.0000 20.7384 0.0000
# 6 0.0000 0.0000 0.0000 0.0000 0.0000 7.2595
#
#
#
# Elastic Compliance Matrix: (Units=1/GPa)
#
#
# Indices 1 2 3 4 5 6 
#
# 1 0.024074 -0.002315 0.003840 0.000000 0.000000 0.000000
# 2 -0.002315 0.009198 -0.007566 0.000000 0.000000 0.000000
# 3 0.003840 -0.007566 0.023269 0.000000 0.000000 0.000000
# 4 0.000000 0.000000 0.000000 0.056852 0.000000 0.000000
# 5 0.000000 0.000000 0.000000 0.000000 0.048220 0.000000
# 6 0.000000 0.000000 0.000000 0.000000 0.000000 0.137750
#
#
# Mechanical properties :
#
#
# Convention : Reuss Voigt Hill
#
# Bulk Modulus (GPa) = 22.49254 38.94427 30.71840
# Shear Modulus (GPa) = 15.32495 22.60257 18.96376
#
# Velocity S-wave (km/s) = 2.78659 3.38418 3.09982
# Velocity P-wave (km/s) = 4.66373 5.91635 5.32698
#
# Compressibility (1/GPa) = 0.04445919
#
# Stress axis : x y z
#
# Youngs Moduli (GPa) = 41.53828 108.71864 42.97513
#
# Poissons Ratio (x) = 0.25169 -0.16503
# Poissons Ratio (y) = 0.09617 0.32516
# Poissons Ratio (z) = -0.15951 0.82259
#
# Static dielectric constant tensor:
#      x y z
#    x 1.759740 0.000000 0.000000 
#    y 0.000000 1.726850 0.000000 
#    z 0.000000 0.000000 1.675370 
# 
# From -- ./inp_files/31718.got.cif
#   From: 2010.05.17/outbox.cif.g08.bks.cpg/sg59_16_cif.got.tgz:31718.got - 2010.06.03 14:40:33.
