data_PCOD9447982
_publ_section_title
;
Structure prediction by ZEFSAII (Michael W. Deem and Ramdas Pophale) SiO2 
 PCOD9447982
Probable space group: P M M N
;
_chemical_formula_sum "Si O2"
_cell_formula_units_Z 48
_cell_length_a 14.023514
_cell_length_b 13.689322
_cell_length_c 13.175429
_cell_angle_alpha 90.000000
_cell_angle_beta 90.000000
_cell_angle_gamma 90.000000
_cell_volume 2529.318709
_symmetry_space_group_name_H-M "P M M N"
_symmetry_group_IT_number 59
_space_group.IT_coordinate_system_code '2'
_symmetry_cell_setting 'orthorhombic'
loop_
_space_group_symop_operation_xyz
x,y,z
1/2-x,1/2-y,z
1/2+x,-y,-z
-x,1/2+y,-z
-x,-y,-z
1/2+x,1/2+y,-z
1/2-x,y,z
x,1/2-y,z
loop_
_atom_site_type_symbol
_atom_site_label
_atom_site_fract_x
_atom_site_fract_y
_atom_site_fract_z
Si Si1 0.954478 0.633762 0.991422
Si Si2 0.358770 0.055914 0.206335
Si Si3 0.857055 0.360556 0.896043
Si Si4 0.521215 0.867339 0.397432
Si Si5 0.863619 0.527696 0.570616
Si Si6 0.358383 0.368672 0.800264
O O1 0.942321 0.750000 0.987324
O O2 0.924213 0.594119 0.883239
O O3 0.892432 0.598696 0.088064
O O4 0.063476 0.613865 0.021796
O O5 0.250000 0.088071 0.184906
O O6 0.382733 0.080453 0.321234
O O7 0.360433 0.938393 0.193688
O O8 0.750000 0.364174 0.938379
O O9 0.876416 0.250000 0.860295
O O10 0.508667 0.750000 0.400880
O O11 0.598089 0.905024 0.480080
O O12 0.566674 0.895176 0.287703
O O13 0.425936 0.928350 0.423937
O O14 0.750000 0.510326 0.563842
O O15 0.250000 0.401307 0.779180
O O16 0.357402 0.250000 0.801624
#
# Coordination Sequence:
#
# PCOD9447982 Si02
#       6
#     8   8   8   8   8   8
#     4  10  19  31  50  77 109 141 175 218 265 317
#     4  10  20  33  51  77 109 141 170 208 264 323
#     4   9  18  32  49  70  99 138 183 225 263 308
#     4  10  21  38  59  81 108 144 184 228 277 325
#     4  10  22  38  57  84 112 140 181 227 272 330
#     4   9  17  30  50  76 104 137 181 228 270 314
#
# _framework density 18.977442
#
# number of rings (size 3 to 8) (size 9 to 14) (size 15 to 20)
#    0.000    2.333    0.000    2.500    0.000    5.000 
#    0.000    3.333    0.000    4.000    0.000    4.667 
#    0.000    0.000    0.000    0.000    0.000    0.000 
#
# Total GULP energy -267747.504491 kJ/mol
# GULP energy per Si atom -5578.073010 kJ/mol
# Density = 1.893425 g / cm^3
# Si number density = 18.977442 Si / 1000 Ang^3
#
#
#
# Elastic Constant Matrix: (Units=GPa)
#
#
# Indices 1 2 3 4 5 6 
#
# 1 95.8262 12.9192 39.1366 0.0000 0.0000 0.0000
# 2 12.9192 33.5358 13.8772 0.0000 0.0000 0.0000
# 3 39.1366 13.8772 96.3633 0.0000 0.0000 0.0000
# 4 0.0000 0.0000 0.0000 17.1112 0.0000 0.0000
# 5 0.0000 0.0000 0.0000 0.0000 22.7246 0.0000
# 6 0.0000 0.0000 0.0000 0.0000 0.0000 18.8214
#
#
#
# Elastic Compliance Matrix: (Units=1/GPa)
#
#
# Indices 1 2 3 4 5 6 
#
# 1 0.012780 -0.002951 -0.004765 0.000000 0.000000 0.000000
# 2 -0.002951 0.032390 -0.003466 0.000000 0.000000 0.000000
# 3 -0.004765 -0.003466 0.012812 0.000000 0.000000 0.000000
# 4 0.000000 0.000000 0.000000 0.058441 0.000000 0.000000
# 5 0.000000 0.000000 0.000000 0.000000 0.044005 0.000000
# 6 0.000000 0.000000 0.000000 0.000000 0.000000 0.053131
#
#
# Mechanical properties :
#
#
# Convention : Reuss Voigt Hill
#
# Bulk Modulus (GPa) = 28.07670 39.73236 33.90453
# Shear Modulus (GPa) = 20.17790 22.38426 21.28108
#
# Velocity S-wave (km/s) = 3.26430 3.43814 3.35235
# Velocity P-wave (km/s) = 5.38836 6.06161 5.73487
#
# Compressibility (1/GPa) = 0.03561672
#
# Stress axis : x y z
#
# Youngs Moduli (GPa) = 78.24947 30.87372 78.05281
#
# Poissons Ratio (x) = 0.09112 0.37194
# Poissons Ratio (y) = 0.23094 0.27052
# Poissons Ratio (z) = 0.37288 0.10700
#
# Static dielectric constant tensor:
#      x y z
#    x 1.689990 0.000000 0.000000 
#    y 0.000000 1.688820 0.000000 
#    z 0.000000 0.000000 1.643590 
# 
# From -- ./inp_files/16796.got.cif
#   From: 2010.05.17/outbox.cif.g08.bks.cpg/sg59_9_cif.got.tgz:16796.got - 2010.06.03 14:40:33.
