data_PCOD9447303
_publ_section_title
;
Structure prediction by ZEFSAII (Michael W. Deem and Ramdas Pophale) SiO2 
 PCOD9447303
Probable space group: P M M N
;
_chemical_formula_sum "Si O2"
_cell_formula_units_Z 64
_cell_length_a 8.063194
_cell_length_b 31.712548
_cell_length_c 12.255585
_cell_angle_alpha 90.000000
_cell_angle_beta 90.000000
_cell_angle_gamma 90.000000
_cell_volume 3133.807337
_symmetry_space_group_name_H-M "P M M N"
_symmetry_group_IT_number 59
_space_group.IT_coordinate_system_code '2'
_symmetry_cell_setting 'orthorhombic'
loop_
_space_group_symop_operation_xyz
x,y,z
1/2-x,1/2-y,z
1/2+x,-y,-z
-x,1/2+y,-z
-x,-y,-z
1/2+x,1/2+y,-z
1/2-x,y,z
x,1/2-y,z
loop_
_atom_site_type_symbol
_atom_site_label
_atom_site_fract_x
_atom_site_fract_y
_atom_site_fract_z
Si Si1 0.552830 0.378534 0.863124
Si Si2 0.552586 0.125966 0.109954
Si Si3 0.945673 0.541395 0.274963
Si Si4 0.451024 0.296988 0.729436
Si Si5 0.450174 0.171978 0.492649
Si Si6 0.047693 0.426153 0.494090
Si Si7 0.944977 0.951310 0.745161
Si Si8 0.449183 0.703182 0.743908
O O1 0.750000 0.385968 0.865158
O O2 0.474614 0.416617 0.794702
O O3 0.518164 0.334353 0.803855
O O4 0.487173 0.376927 0.986941
O O5 0.750000 0.132421 0.100712
O O6 0.524211 0.082893 0.175533
O O7 0.484882 0.165431 0.179935
O O8 0.750000 0.533510 0.281963
O O9 0.011792 0.550112 0.397589
O O10 0.025975 0.499751 0.224574
O O11 0.250000 0.299078 0.732082
O O12 0.502108 0.250000 0.763476
O O13 0.502470 0.305323 0.604018
O O14 0.250000 0.173096 0.488798
O O15 0.501145 0.122946 0.498333
O O16 0.513516 0.192542 0.381812
O O17 0.250000 0.427403 0.496875
O O18 0.991349 0.445012 0.378968
O O19 0.750000 0.942200 0.744083
O O20 0.250000 0.703904 0.755701
O O21 0.512929 0.750000 0.770967
#
# Coordination Sequence:
#
# PCOD9447303 Si02
#       8
#     8   8   8   8   8   8   8   8
#     4  11  24  41  61  85 114 152 201 250 290 335
#     4  10  23  42  60  81 113 156 199 239 292 346
#     4  11  22  40  63  87 119 156 190 231 290 352
#     4  10  21  38  61  88 120 157 193 233 288 351
#     4  10  18  35  60  87 118 153 189 229 285 347
#     4   9  18  34  59  88 118 151 185 229 286 346
#     4  11  22  38  61  91 120 148 190 240 287 341
#     4  10  21  37  58  86 118 151 190 237 288 342
#
# _framework density 20.422443000000001
#
# number of rings (size 3 to 8) (size 9 to 14) (size 15 to 20)
#    0.000    1.750    2.500    1.875    0.000    3.500 
#    0.000    3.125    0.000    0.000    0.000    0.000 
#    0.000    0.000    0.000    0.000    0.000    0.000 
#
# Total GULP energy -357617.744262 kJ/mol
# GULP energy per Si atom -5587.777254 kJ/mol
# Density = 2.037596 g / cm^3
# Si number density = 20.422443 Si / 1000 Ang^3
#
#
#
# Elastic Constant Matrix: (Units=GPa)
#
#
# Indices 1 2 3 4 5 6 
#
# 1 9.8993 -16.9376 -5.6654 0.0000 0.0000 0.0000
# 2 -16.9376 111.4356 34.7859 0.0000 0.0000 0.0000
# 3 -5.6654 34.7859 125.0836 0.0000 0.0000 0.0000
# 4 0.0000 0.0000 0.0000 -4.1090 0.0000 0.0000
# 5 0.0000 0.0000 0.0000 0.0000 62.3413 0.0000
# 6 0.0000 0.0000 0.0000 0.0000 0.0000 -89.6344
#
#
#
# Elastic Compliance Matrix: (Units=1/GPa)
#
#
# Indices 1 2 3 4 5 6 
#
# 1 0.136543 0.020613 0.000452 0.000000 0.000000 0.000000
# 2 0.020613 0.012939 -0.002665 0.000000 0.000000 0.000000
# 3 0.000452 -0.002665 0.008756 0.000000 0.000000 0.000000
# 4 0.000000 0.000000 0.000000 -0.243371 0.000000 0.000000
# 5 0.000000 0.000000 0.000000 0.000000 0.016041 0.000000
# 6 0.000000 0.000000 0.000000 0.000000 0.000000 -0.011156
#
#
# Mechanical properties :
#
#
# Convention : Reuss Voigt Hill
#
# Bulk Modulus (GPa) = 5.12720 30.08716 17.60718
# Shear Modulus (GPa) = -96.08780 9.33531 -43.37625
#
# Velocity S-wave (km/s) = -6.86675 2.14033 -4.61363
# Velocity P-wave (km/s) = 7.76876 4.56863 4.44304
#
# Compressibility (1/GPa) = 0.19503810
#
# Stress axis : x y z
#
# Youngs Moduli (GPa) = 7.32369 77.28823 114.20528
#
# Poissons Ratio (x) = -1.59312 -0.05162
# Poissons Ratio (y) = -0.15096 0.30431
# Poissons Ratio (z) = -0.00331 0.20594
#
# Static dielectric constant tensor:
#      x y z
#    x 1.735290 0.000000 0.000000 
#    y 0.000000 1.709590 0.000000 
#    z 0.000000 0.000000 1.711900 
# 
# From -- ./inp_files/14976.got.cif
#   From: 2010.05.17/outbox.cif.g08.bks.cpg/sg59_8_cif.got.tgz:14976.got - 2010.06.03 14:40:33.
