data_PCOD9447059
_publ_section_title
;
Structure prediction by ZEFSAII (Michael W. Deem and Ramdas Pophale) SiO2 
 PCOD9447059
Probable space group: P M M N
;
_chemical_formula_sum "Si O2"
_cell_formula_units_Z 64
_cell_length_a 32.253497
_cell_length_b 8.264023
_cell_length_c 12.594775
_cell_angle_alpha 90.000000
_cell_angle_beta 90.000000
_cell_angle_gamma 90.000000
_cell_volume 3357.057187
_symmetry_space_group_name_H-M "P M M N"
_symmetry_group_IT_number 59
_space_group.IT_coordinate_system_code '2'
_symmetry_cell_setting 'orthorhombic'
loop_
_space_group_symop_operation_xyz
x,y,z
1/2-x,1/2-y,z
1/2+x,-y,-z
-x,1/2+y,-z
-x,-y,-z
1/2+x,1/2+y,-z
1/2-x,y,z
x,1/2-y,z
loop_
_atom_site_type_symbol
_atom_site_label
_atom_site_fract_x
_atom_site_fract_y
_atom_site_fract_z
Si Si1 0.202793 0.054449 0.244605
Si Si2 0.866990 0.945174 0.596848
Si Si3 0.888820 0.947995 0.364783
Si Si4 0.547872 0.443888 0.987418
Si Si5 0.940590 0.054406 0.749603
Si Si6 0.983285 0.944780 0.386446
Si Si7 0.702529 0.442767 0.993011
Si Si8 0.624481 0.556767 0.129473
O O1 0.250000 0.009482 0.268573
O O2 0.200302 0.250000 0.238524
O O3 0.172012 0.996244 0.335397
O O4 0.192441 0.986785 0.128788
O O5 0.865546 0.750000 0.592801
O O6 0.868715 0.003546 0.475441
O O7 0.907100 0.991917 0.665728
O O8 0.887657 0.750000 0.365787
O O9 0.936688 0.000456 0.369338
O O10 0.871597 0.001726 0.251326
O O11 0.547122 0.250000 0.987103
O O12 0.581707 0.497898 0.074442
O O13 0.500000 0.500000 0.000000
O O14 0.564125 0.500272 0.871060
O O15 0.938621 0.250000 0.748797
O O16 0.985413 0.002522 0.705492
O O17 0.982730 0.750000 0.386067
O O18 0.000000 0.000000 0.500000
O O19 0.750000 0.502967 0.014489
O O20 0.703190 0.250000 0.003841
O O21 0.665554 0.508794 0.065078
O O22 0.621708 0.750000 0.131213
#
# Coordination Sequence:
#
# PCOD9447059 Si02
#       8
#     8   8   8   8   8   8   8   8
#     4   9  18  33  55  83 110 135 170 219 273 329
#     4  10  19  33  54  78 104 137 176 217 264 320
#     4   9  19  35  53  75 108 145 180 223 272 322
#     4  11  23  39  57  80 113 151 190 233 282 335
#     4  10  21  34  51  76 106 137 173 222 274 318
#     4  10  18  32  51  72 101 137 175 214 258 310
#     4  10  21  38  60  85 113 145 184 232 285 340
#     4  11  22  38  59  82 113 152 191 234 284 337
#
# _framework density 19.064316999999999
#
# number of rings (size 3 to 8) (size 9 to 14) (size 15 to 20)
#    0.000    2.000    1.250    2.625    0.000    6.250 
#    0.000    4.375    0.000    2.250    0.000    1.750 
#    0.000    0.000    0.000    0.000    0.000    0.000 
#
# Total GULP energy -357182.831491 kJ/mol
# GULP energy per Si atom -5580.981742 kJ/mol
# Density = 1.902093 g / cm^3
# Si number density = 19.064317 Si / 1000 Ang^3
#
#
#
# Elastic Constant Matrix: (Units=GPa)
#
#
# Indices 1 2 3 4 5 6 
#
# 1 121.2222 19.6691 93.5554 0.0000 0.0000 0.0000
# 2 19.6691 18.8889 22.7116 0.0000 0.0000 0.0000
# 3 93.5554 22.7116 164.1292 0.0000 0.0000 0.0000
# 4 0.0000 0.0000 0.0000 14.6048 0.0000 0.0000
# 5 0.0000 0.0000 0.0000 0.0000 38.2505 0.0000
# 6 0.0000 0.0000 0.0000 0.0000 0.0000 24.8249
#
#
#
# Elastic Compliance Matrix: (Units=1/GPa)
#
#
# Indices 1 2 3 4 5 6 
#
# 1 0.015379 -0.006567 -0.007858 0.000000 0.000000 0.000000
# 2 -0.006567 0.066311 -0.005433 0.000000 0.000000 0.000000
# 3 -0.007858 -0.005433 0.011323 0.000000 0.000000 0.000000
# 4 0.000000 0.000000 0.000000 0.068471 0.000000 0.000000
# 5 0.000000 0.000000 0.000000 0.000000 0.026143 0.000000
# 6 0.000000 0.000000 0.000000 0.000000 0.000000 0.040282
#
#
# Mechanical properties :
#
#
# Convention : Reuss Voigt Hill
#
# Bulk Modulus (GPa) = 18.76176 64.01249 41.38712
# Shear Modulus (GPa) = 17.51983 26.75632 22.13808
#
# Velocity S-wave (km/s) = 3.03477 3.75036 3.41138
# Velocity P-wave (km/s) = 4.70557 7.23904 6.10516
#
# Compressibility (1/GPa) = 0.05329992
#
# Stress axis : x y z
#
# Youngs Moduli (GPa) = 65.02391 15.08034 88.31251
#
# Poissons Ratio (x) = 0.09903 0.69392
# Poissons Ratio (y) = 0.42698 0.47980
# Poissons Ratio (z) = 0.51093 0.08193
#
# Static dielectric constant tensor:
#      x y z
#    x 1.666190 0.000000 0.000000 
#    y 0.000000 1.686100 0.000000 
#    z 0.000000 0.000000 1.675750 
# 
# From -- ./inp_files/19215.got.cif
#   From: 2010.05.17/outbox.cif.g08.bks.cpg/sg59_10_cif.got.tgz:19215.got - 2010.06.03 14:40:33.
