data_PCOD9447694
_publ_section_title
;
Structure prediction by ZEFSAII (Michael W. Deem and Ramdas Pophale) SiO2 
 PCOD9447694
Probable space group: P M M N
;
_chemical_formula_sum "Si O2"
_cell_formula_units_Z 64
_cell_length_a 9.283250
_cell_length_b 27.781806
_cell_length_c 12.350378
_cell_angle_alpha 90.000000
_cell_angle_beta 90.000000
_cell_angle_gamma 90.000000
_cell_volume 3185.229803
_symmetry_space_group_name_H-M "P M M N"
_symmetry_group_IT_number 59
_space_group.IT_coordinate_system_code '2'
_symmetry_cell_setting 'orthorhombic'
loop_
_space_group_symop_operation_xyz
x,y,z
1/2-x,1/2-y,z
1/2+x,-y,-z
-x,1/2+y,-z
-x,-y,-z
1/2+x,1/2+y,-z
1/2-x,y,z
x,1/2-y,z
loop_
_atom_site_type_symbol
_atom_site_label
_atom_site_fract_x
_atom_site_fract_y
_atom_site_fract_z
Si Si1 0.916994 0.851511 0.710131
Si Si2 0.423648 0.410797 0.998146
Si Si3 0.420298 0.556544 0.797840
Si Si4 0.909193 0.305916 0.468027
Si Si5 0.577506 0.899722 0.240006
Si Si6 0.077864 0.019645 0.606695
Si Si7 0.582773 0.303610 0.727817
Si Si8 0.421045 0.196912 0.067054
O O1 0.750000 0.866258 0.712459
O O2 0.936080 0.811292 0.803525
O O3 0.018321 0.895370 0.742551
O O4 0.965676 0.832864 0.594126
O O5 0.250000 0.411961 0.013010
O O6 0.457474 0.424618 0.874771
O O7 0.497961 0.444060 0.087547
O O8 0.471365 0.354528 0.017856
O O9 0.250000 0.559051 0.817288
O O10 0.445999 0.515031 0.709895
O O11 0.750000 0.325303 0.438510
O O12 0.913485 0.250000 0.435631
O O13 0.921497 0.306597 0.597171
O O14 0.750000 0.897466 0.245997
O O15 0.513805 0.846734 0.232378
O O16 0.527349 0.928676 0.346348
O O17 0.250000 0.021504 0.585976
O O18 0.000000 0.000000 0.500000
O O19 0.750000 0.309321 0.760218
O O20 0.534602 0.250000 0.759809
O O21 0.250000 0.198355 0.042912
O O22 0.481170 0.250000 0.037025
#
# Coordination Sequence:
#
# PCOD9447694 Si02
#       8
#     8   8   8   8   8   8   8   8
#     4  10  19  30  49  77 110 149 191 240 292 341
#     4   9  19  36  58  85 116 150 192 245 301 351
#     4  10  21  38  58  82 115 153 194 240 292 352
#     4   9  18  32  49  72 107 150 193 238 289 346
#     4  10  22  40  61  88 120 152 195 251 299 346
#     4  10  24  43  62  88 120 154 195 246 301 356
#     4   9  20  38  57  81 117 159 199 237 285 350
#     4   8  14  26  45  72 106 142 180 222 274 336
#
# _framework density 20.092742000000001
#
# number of rings (size 3 to 8) (size 9 to 14) (size 15 to 20)
#    0.000    2.625    0.000    2.625    1.750    4.500 
#    0.000    2.500    0.000    3.375    0.000    0.000 
#    0.000    0.000    0.000    0.000    0.000    0.000 
#
# Total GULP energy -356831.082845 kJ/mol
# GULP energy per Si atom -5575.485669 kJ/mol
# Density = 2.004701 g / cm^3
# Si number density = 20.092742 Si / 1000 Ang^3
#
#
#
# Elastic Constant Matrix: (Units=GPa)
#
#
# Indices 1 2 3 4 5 6 
#
# 1 29.8117 26.0922 42.0304 0.0000 0.0000 0.0000
# 2 26.0922 58.2564 27.7767 0.0000 0.0000 0.0000
# 3 42.0304 27.7767 72.4565 0.0000 0.0000 0.0000
# 4 0.0000 0.0000 0.0000 7.3207 0.0000 0.0000
# 5 0.0000 0.0000 0.0000 0.0000 27.4199 0.0000
# 6 0.0000 0.0000 0.0000 0.0000 0.0000 22.0653
#
#
#
# Elastic Compliance Matrix: (Units=1/GPa)
#
#
# Indices 1 2 3 4 5 6 
#
# 1 0.299501 -0.062781 -0.149667 0.000000 0.000000 0.000000
# 2 -0.062781 0.034165 0.023321 0.000000 0.000000 0.000000
# 3 -0.149667 0.023321 0.091680 0.000000 0.000000 0.000000
# 4 0.000000 0.000000 0.000000 0.136600 0.000000 0.000000
# 5 0.000000 0.000000 0.000000 0.000000 0.036470 0.000000
# 6 0.000000 0.000000 0.000000 0.000000 0.000000 0.045320
#
#
# Mechanical properties :
#
#
# Convention : Reuss Voigt Hill
#
# Bulk Modulus (GPa) = 21.23525 39.14703 30.19114
# Shear Modulus (GPa) = 4.81841 15.66953 10.24397
#
# Velocity S-wave (km/s) = 1.55025 2.79563 2.26040
# Velocity P-wave (km/s) = 3.71429 5.47231 4.67665
#
# Compressibility (1/GPa) = 0.04709150
#
# Stress axis : x y z
#
# Youngs Moduli (GPa) = 3.33888 29.26964 10.90756
#
# Poissons Ratio (x) = 1.83759 1.63250
# Poissons Ratio (y) = 0.20962 -0.25437
# Poissons Ratio (z) = 0.49972 -0.68259
#
# Static dielectric constant tensor:
#      x y z
#    x 1.863270 0.000000 0.000000 
#    y 0.000000 1.769070 0.000000 
#    z 0.000000 0.000000 1.723050 
# 
# From -- ./inp_files/14970.got.cif
#   From: 2010.05.17/outbox.cif.g08.bks.cpg/sg59_8_cif.got.tgz:14970.got - 2010.06.03 14:40:33.
