data_PCOD9447675
_publ_section_title
;
Structure prediction by ZEFSAII (Michael W. Deem and Ramdas Pophale) SiO2 
 PCOD9447675
Probable space group: P M M N
;
_chemical_formula_sum "Si O2"
_cell_formula_units_Z 56
_cell_length_a 20.233192
_cell_length_b 7.694022
_cell_length_c 16.632781
_cell_angle_alpha 90.000000
_cell_angle_beta 90.000000
_cell_angle_gamma 90.000000
_cell_volume 2589.301935
_symmetry_space_group_name_H-M "P M M N"
_symmetry_group_IT_number 59
_space_group.IT_coordinate_system_code '2'
_symmetry_cell_setting 'orthorhombic'
loop_
_space_group_symop_operation_xyz
x,y,z
1/2-x,1/2-y,z
1/2+x,-y,-z
-x,1/2+y,-z
-x,-y,-z
1/2+x,1/2+y,-z
1/2-x,y,z
x,1/2-y,z
loop_
_atom_site_type_symbol
_atom_site_label
_atom_site_fract_x
_atom_site_fract_y
_atom_site_fract_z
Si Si1 0.324373 0.037500 0.154690
Si Si2 0.039181 0.445295 0.420948
Si Si3 0.451082 0.458211 0.247107
Si Si4 0.174874 0.461918 0.970479
Si Si5 0.825338 0.454046 0.509077
Si Si6 0.825875 0.539840 0.324756
Si Si7 0.413970 0.459787 0.824312
O O1 0.250000 0.983041 0.176498
O O2 0.324724 0.250000 0.155199
O O3 0.381742 0.974537 0.213250
O O4 0.337769 0.984349 0.062323
O O5 0.016487 0.250000 0.409392
O O6 0.029561 0.534280 0.334506
O O7 0.117025 0.455594 0.441138
O O8 0.000000 0.500000 0.500000
O O9 0.442952 0.250000 0.255494
O O10 0.510256 0.489606 0.185436
O O11 0.250000 0.512904 0.948756
O O12 0.173793 0.250000 0.970060
O O13 0.122689 0.522601 0.904494
O O14 0.750000 0.518752 0.521213
O O15 0.826881 0.250000 0.528421
O O16 0.841088 0.474944 0.414276
O O17 0.750000 0.490858 0.306152
O O18 0.828766 0.750000 0.327788
O O19 0.874439 0.478427 0.254953
O O20 0.410095 0.250000 0.824374
#
# Coordination Sequence:
#
# PCOD9447675 Si02
#       7
#     8   8   8   8   8   8   8
#     4   8  15  31  54  76  99 129 167 210 251 292
#     4  11  23  38  56  76 102 137 177 221 266 315
#     4  10  22  36  51  75 102 130 167 211 258 305
#     4   8  14  27  50  78 104 132 168 206 241 283
#     4  10  21  36  54  77 104 133 169 215 265 317
#     4   9  17  30  49  73 102 136 173 211 249 293
#     4  10  19  30  48  76 107 136 167 203 245 296
#
# _framework density 21.627448999999999
#
# number of rings (size 3 to 8) (size 9 to 14) (size 15 to 20)
#    0.000    2.571    0.000    3.000    0.000    7.714 
#    0.000    1.429    0.000    1.714    0.000    2.000 
#    0.000    0.000    0.000    0.000    0.000    0.000 
#
# Total GULP energy -312643.696928 kJ/mol
# GULP energy per Si atom -5582.923159 kJ/mol
# Density = 2.157822 g / cm^3
# Si number density = 21.627449 Si / 1000 Ang^3
#
#
#
# Elastic Constant Matrix: (Units=GPa)
#
#
# Indices 1 2 3 4 5 6 
#
# 1 106.7699 0.8870 70.2014 0.0000 0.0000 0.0000
# 2 0.8870 28.0056 8.3685 0.0000 0.0000 0.0000
# 3 70.2014 8.3685 96.7149 0.0000 0.0000 0.0000
# 4 0.0000 0.0000 0.0000 5.8268 0.0000 0.0000
# 5 0.0000 0.0000 0.0000 0.0000 36.2144 0.0000
# 6 0.0000 0.0000 0.0000 0.0000 0.0000 19.8409
#
#
#
# Elastic Compliance Matrix: (Units=1/GPa)
#
#
# Indices 1 2 3 4 5 6 
#
# 1 0.018239 0.003468 -0.013539 0.000000 0.000000 0.000000
# 2 0.003468 0.037314 -0.005746 0.000000 0.000000 0.000000
# 3 -0.013539 -0.005746 0.020664 0.000000 0.000000 0.000000
# 4 0.000000 0.000000 0.000000 0.171621 0.000000 0.000000
# 5 0.000000 0.000000 0.000000 0.000000 0.027613 0.000000
# 6 0.000000 0.000000 0.000000 0.000000 0.000000 0.050401
#
#
# Mechanical properties :
#
#
# Convention : Reuss Voigt Hill
#
# Bulk Modulus (GPa) = 22.42979 43.37825 32.90402
# Shear Modulus (GPa) = 13.42827 22.51199 17.97013
#
# Velocity S-wave (km/s) = 2.49447 3.22980 2.88565
# Velocity P-wave (km/s) = 4.32319 5.83175 5.13319
#
# Compressibility (1/GPa) = 0.04458356
#
# Stress axis : x y z
#
# Youngs Moduli (GPa) = 54.82723 26.79937 48.39255
#
# Poissons Ratio (x) = -0.09294 0.65519
# Poissons Ratio (y) = -0.19014 0.27806
# Poissons Ratio (z) = 0.74231 0.15399
#
# Static dielectric constant tensor:
#      x y z
#    x 1.768860 0.000000 0.000000 
#    y 0.000000 1.656360 0.000000 
#    z 0.000000 0.000000 1.802600 
# 
# From -- ./inp_files/24265.got.cif
#   From: 2010.05.17/outbox.cif.g08.bks.cpg/sg59_13_cif.got.tgz:24265.got - 2010.06.03 14:40:33.
