data_PCOD9447306
_publ_section_title
;
Structure prediction by ZEFSAII (Michael W. Deem and Ramdas Pophale) SiO2 
 PCOD9447306
Probable space group: P M M N
;
_chemical_formula_sum "Si O2"
_cell_formula_units_Z 64
_cell_length_a 29.641072
_cell_length_b 8.184104
_cell_length_c 12.927653
_cell_angle_alpha 90.000000
_cell_angle_beta 90.000000
_cell_angle_gamma 90.000000
_cell_volume 3136.062665
_symmetry_space_group_name_H-M "P M M N"
_symmetry_group_IT_number 59
_space_group.IT_coordinate_system_code '2'
_symmetry_cell_setting 'orthorhombic'
loop_
_space_group_symop_operation_xyz
x,y,z
1/2-x,1/2-y,z
1/2+x,-y,-z
-x,1/2+y,-z
-x,-y,-z
1/2+x,1/2+y,-z
1/2-x,y,z
x,1/2-y,z
loop_
_atom_site_type_symbol
_atom_site_label
_atom_site_fract_x
_atom_site_fract_y
_atom_site_fract_z
Si Si1 0.132867 0.942958 0.380896
Si Si2 0.879359 0.557326 0.848513
Si Si3 0.948798 0.554095 0.487715
Si Si4 0.938116 0.551119 0.252731
Si Si5 0.160586 0.052849 0.785865
Si Si6 0.198376 0.947144 0.563893
Si Si7 0.800137 0.549877 0.998418
Si Si8 0.518759 0.444678 0.889224
O O1 0.140076 0.750000 0.367368
O O2 0.167705 0.006065 0.468150
O O3 0.135143 0.024156 0.269187
O O4 0.083450 0.973359 0.428334
O O5 0.882059 0.750000 0.866238
O O6 0.840714 0.491708 0.925346
O O7 0.929624 0.492305 0.869310
O O8 0.944932 0.750000 0.496154
O O9 0.934649 0.502249 0.372234
O O10 0.000000 0.500000 0.500000
O O11 0.939677 0.750000 0.251797
O O12 0.891516 0.501038 0.198713
O O13 0.983405 0.491050 0.197130
O O14 0.161181 0.250000 0.784322
O O15 0.178447 0.996368 0.674897
O O16 0.189966 0.999046 0.883545
O O17 0.250000 0.004231 0.555160
O O18 0.198132 0.750000 0.559630
O O19 0.750000 0.497864 0.965975
O O20 0.800589 0.750000 0.996489
O O21 0.516630 0.250000 0.885762
O O22 0.500000 0.500000 0.000000
#
# Coordination Sequence:
#
# PCOD9447306 Si02
#       8
#     8   8   8   8   8   8   8   8
#     4  11  23  40  59  83 119 160 203 250 303 364
#     4  11  23  40  62  87 120 159 204 256 308 368
#     4  11  21  36  58  85 117 154 199 246 298 354
#     4   9  19  34  55  82 115 151 190 242 295 348
#     4  10  18  35  62  89 115 147 193 247 304 364
#     4  10  22  39  58  84 121 161 199 248 309 364
#     4   9  19  36  60  89 118 151 194 250 314 371
#     4  11  22  39  61  88 122 161 204 249 302 363
#
# _framework density 20.407755999999999
#
# number of rings (size 3 to 8) (size 9 to 14) (size 15 to 20)
#    0.000    1.750    1.250    3.375    0.000    4.750 
#    0.000    5.625    0.000    2.625    0.000    0.000 
#    0.000    0.000    0.000    0.000    0.000    0.000 
#
# Total GULP energy -357567.174969 kJ/mol
# GULP energy per Si atom -5586.987109 kJ/mol
# Density = 2.036131 g / cm^3
# Si number density = 20.407756 Si / 1000 Ang^3
#
#
#
# Elastic Constant Matrix: (Units=GPa)
#
#
# Indices 1 2 3 4 5 6 
#
# 1 152.1419 3.6324 51.9595 0.0000 0.0000 0.0000
# 2 3.6324 18.2453 -1.4509 0.0000 0.0000 0.0000
# 3 51.9595 -1.4509 106.7150 0.0000 0.0000 0.0000
# 4 0.0000 0.0000 0.0000 23.2795 0.0000 0.0000
# 5 0.0000 0.0000 0.0000 0.0000 36.0299 0.0000
# 6 0.0000 0.0000 0.0000 0.0000 0.0000 20.2752
#
#
#
# Elastic Compliance Matrix: (Units=1/GPa)
#
#
# Indices 1 2 3 4 5 6 
#
# 1 0.007948 -0.001892 -0.003896 0.000000 0.000000 0.000000
# 2 -0.001892 0.055319 0.001673 0.000000 0.000000 0.000000
# 3 -0.003896 0.001673 0.011290 0.000000 0.000000 0.000000
# 4 0.000000 0.000000 0.000000 0.042956 0.000000 0.000000
# 5 0.000000 0.000000 0.000000 0.000000 0.027755 0.000000
# 6 0.000000 0.000000 0.000000 0.000000 0.000000 0.049321
#
#
# Mechanical properties :
#
#
# Convention : Reuss Voigt Hill
#
# Bulk Modulus (GPa) = 15.07657 42.82045 28.94851
# Shear Modulus (GPa) = 22.22930 30.78100 26.50515
#
# Velocity S-wave (km/s) = 3.30397 3.88790 3.60777
# Velocity P-wave (km/s) = 4.68601 6.41734 5.61876
#
# Compressibility (1/GPa) = 0.06632810
#
# Stress axis : x y z
#
# Youngs Moduli (GPa) = 125.80992 18.07713 88.57090
#
# Poissons Ratio (x) = 0.03421 0.34506
# Poissons Ratio (y) = 0.23807 -0.14822
# Poissons Ratio (z) = 0.49014 -0.03025
#
# Static dielectric constant tensor:
#      x y z
#    x 1.720230 0.000000 0.000000 
#    y 0.000000 1.720900 0.000000 
#    z 0.000000 0.000000 1.711500 
# 
# From -- ./inp_files/19373.got.cif
#   From: 2010.05.17/outbox.cif.g08.bks.cpg/sg59_10_cif.got.tgz:19373.got - 2010.06.03 14:40:33.
