data_PCOD9447846
_publ_section_title
;
Structure prediction by ZEFSAII (Michael W. Deem and Ramdas Pophale) SiO2 
 PCOD9447846
Probable space group: P M M N
;
_chemical_formula_sum "Si O2"
_cell_formula_units_Z 64
_cell_length_a 20.070074
_cell_length_b 9.028845
_cell_length_c 22.164373
_cell_angle_alpha 90.000000
_cell_angle_beta 90.000000
_cell_angle_gamma 90.000000
_cell_volume 4016.396884
_symmetry_space_group_name_H-M "P M M N"
_symmetry_group_IT_number 59
_space_group.IT_coordinate_system_code '2'
_symmetry_cell_setting 'orthorhombic'
loop_
_space_group_symop_operation_xyz
x,y,z
1/2-x,1/2-y,z
1/2+x,-y,-z
-x,1/2+y,-z
-x,-y,-z
1/2+x,1/2+y,-z
1/2-x,y,z
x,1/2-y,z
loop_
_atom_site_type_symbol
_atom_site_label
_atom_site_fract_x
_atom_site_fract_y
_atom_site_fract_z
Si Si1 0.951481 0.926515 0.822917
Si Si2 0.894529 0.919797 0.513832
Si Si3 0.674536 0.071702 0.623796
Si Si4 0.033394 0.580230 0.589178
Si Si5 0.827133 0.074746 0.878779
Si Si6 0.458749 0.927257 0.304606
Si Si7 0.676762 0.429369 0.020516
Si Si8 0.465375 0.570681 0.941470
O O1 0.954754 0.750000 0.816385
O O2 0.997464 0.970760 0.879886
O O3 0.877483 0.979049 0.840331
O O4 0.970318 0.003946 0.760678
O O5 0.874935 0.750000 0.503069
O O6 0.965494 0.918031 0.549210
O O7 0.844276 0.000345 0.559439
O O8 0.910127 0.005614 0.452064
O O9 0.750000 0.030662 0.642033
O O10 0.671873 0.250000 0.618146
O O11 0.615193 0.029446 0.670037
O O12 0.049806 0.750000 0.603809
O O13 0.012564 0.488235 0.647852
O O14 0.750000 0.054624 0.861936
O O15 0.842843 0.250000 0.872539
O O16 0.833558 0.035298 0.949702
O O17 0.461008 0.750000 0.302419
O O18 0.750000 0.484686 0.039021
O O19 0.679026 0.250000 0.023306
O O20 0.612034 0.476619 0.057174
O O21 0.468483 0.750000 0.947104
O O22 0.500000 0.500000 0.000000
#
# Coordination Sequence:
#
# PCOD9447846 Si02
#       8
#     8   8   8   8   8   8   8   8
#     4  11  22  32  44  68  98 127 158 200 253 305
#     4   9  16  26  44  70  95 120 151 186 230 280
#     4   9  18  32  48  67  93 126 165 203 234 267
#     4   9  16  28  46  67  92 119 150 194 239 275
#     4   9  17  30  48  66  86 119 161 197 230 280
#     4  10  20  33  48  65  90 128 169 205 237 284
#     4   8  14  27  48  70  89 113 149 190 232 283
#     4  10  19  31  49  71  95 121 153 197 250 299
#
# _framework density 15.934678999999999
#
# number of rings (size 3 to 8) (size 9 to 14) (size 15 to 20)
#    0.000    2.625    1.250    2.250    0.000    5.000 
#    0.000    1.250    0.000    0.375    0.000    0.875 
#    0.000    5.000    0.000    0.000    0.000    0.000 
#
# Total GULP energy -356604.183863 kJ/mol
# GULP energy per Si atom -5571.940373 kJ/mol
# Density = 1.589841 g / cm^3
# Si number density = 15.934679 Si / 1000 Ang^3
#
#
#
# Elastic Constant Matrix: (Units=GPa)
#
#
# Indices 1 2 3 4 5 6 
#
# 1 46.9448 18.9681 43.2747 0.0000 0.0000 0.0000
# 2 18.9681 44.5919 45.9416 0.0000 0.0000 0.0000
# 3 43.2747 45.9416 112.9701 0.0000 0.0000 0.0000
# 4 0.0000 0.0000 0.0000 25.5690 0.0000 0.0000
# 5 0.0000 0.0000 0.0000 0.0000 13.9989 0.0000
# 6 0.0000 0.0000 0.0000 0.0000 0.0000 17.9508
#
#
#
# Elastic Compliance Matrix: (Units=1/GPa)
#
#
# Indices 1 2 3 4 5 6 
#
# 1 0.033008 -0.001745 -0.011935 0.000000 0.000000 0.000000
# 2 -0.001745 0.038689 -0.015065 0.000000 0.000000 0.000000
# 3 -0.011935 -0.015065 0.019550 0.000000 0.000000 0.000000
# 4 0.000000 0.000000 0.000000 0.039110 0.000000 0.000000
# 5 0.000000 0.000000 0.000000 0.000000 0.071434 0.000000
# 6 0.000000 0.000000 0.000000 0.000000 0.000000 0.055708
#
#
# Mechanical properties :
#
#
# Convention : Reuss Voigt Hill
#
# Bulk Modulus (GPa) = 29.62267 46.76397 38.19332
# Shear Modulus (GPa) = 15.32604 17.92522 16.62563
#
# Velocity S-wave (km/s) = 3.10466 3.35762 3.23361
# Velocity P-wave (km/s) = 5.61091 6.66652 6.16136
#
# Compressibility (1/GPa) = 0.03375793
#
# Stress axis : x y z
#
# Youngs Moduli (GPa) = 30.29544 25.84705 51.15015
#
# Poissons Ratio (x) = 0.04510 0.61046
# Poissons Ratio (y) = 0.05286 0.77060
# Poissons Ratio (z) = 0.36157 0.38940
#
# Static dielectric constant tensor:
#      x y z
#    x 1.543360 0.000000 0.000000 
#    y 0.000000 1.535080 0.000000 
#    z 0.000000 0.000000 1.519210 
# 
# From -- ./inp_files/30998.got.cif
#   From: 2010.05.17/outbox.cif.g08.bks.cpg/sg59_16_cif.got.tgz:30998.got - 2010.06.03 14:40:33.
