data_PCOD9447673
_publ_section_title
;
Structure prediction by ZEFSAII (Michael W. Deem and Ramdas Pophale) SiO2 
 PCOD9447673
Probable space group: P M M N
;
_chemical_formula_sum "Si O2"
_cell_formula_units_Z 64
_cell_length_a 28.689706
_cell_length_b 7.526187
_cell_length_c 12.747981
_cell_angle_alpha 90.000000
_cell_angle_beta 90.000000
_cell_angle_gamma 90.000000
_cell_volume 2752.596226
_symmetry_space_group_name_H-M "P M M N"
_symmetry_group_IT_number 59
_space_group.IT_coordinate_system_code '2'
_symmetry_cell_setting 'orthorhombic'
loop_
_space_group_symop_operation_xyz
x,y,z
1/2-x,1/2-y,z
1/2+x,-y,-z
-x,1/2+y,-z
-x,-y,-z
1/2+x,1/2+y,-z
1/2-x,y,z
x,1/2-y,z
loop_
_atom_site_type_symbol
_atom_site_label
_atom_site_fract_x
_atom_site_fract_y
_atom_site_fract_z
Si Si1 0.332873 0.459387 0.991324
Si Si2 0.836652 0.036924 0.779591
Si Si3 0.942715 0.464246 0.806482
Si Si4 0.622276 0.046798 0.395540
Si Si5 0.460853 0.538486 0.735382
Si Si6 0.800373 0.965098 0.232306
Si Si7 0.561337 0.452867 0.035447
Si Si8 0.198456 0.531989 0.443750
O O1 0.341289 0.250000 0.981737
O O2 0.314562 0.491808 0.108082
O O3 0.383047 0.549691 0.981002
O O4 0.303533 0.512522 0.890345
O O5 0.838418 0.250000 0.774123
O O6 0.890636 0.972723 0.779724
O O7 0.810172 0.977062 0.676160
O O8 0.940945 0.250000 0.811831
O O9 0.955802 0.530949 0.924301
O O10 0.983847 0.512728 0.727026
O O11 0.612762 0.250000 0.428818
O O12 0.573563 0.967218 0.354535
O O13 0.655326 0.967429 0.485509
O O14 0.656383 0.043890 0.294649
O O15 0.451333 0.750000 0.738905
O O16 0.448041 0.463254 0.851073
O O17 0.750000 0.023080 0.273884
O O18 0.803094 0.750000 0.241023
O O19 0.544871 0.250000 0.039308
O O20 0.250000 0.474158 0.478268
O O21 0.198204 0.750000 0.448817
#
# Coordination Sequence:
#
# PCOD9447673 Si02
#       8
#     8   8   8   8   8   8   8   8
#     4  10  19  31  50  76 105 139 174 210 257 315
#     4   9  19  36  55  76 106 137 173 222 267 308
#     4   9  18  30  47  71 102 142 180 212 253 311
#     4  10  20  35  56  81 106 134 175 224 266 309
#     4  10  19  30  48  75 108 140 174 217 260 307
#     4  10  21  35  50  73 108 143 171 208 264 324
#     4   9  17  31  48  71 105 141 176 214 255 302
#     4   9  18  35  60  84 102 129 175 225 270 315
#
# _framework density 23.250775999999998
#
# number of rings (size 3 to 8) (size 9 to 14) (size 15 to 20)
#    0.000    2.500    1.250    1.875    0.000    4.750 
#    0.000    1.250    0.000    0.750    0.000    0.000 
#    0.000    0.000    0.000    0.000    0.000    0.000 
#
# Total GULP energy -357229.989759 kJ/mol
# GULP energy per Si atom -5581.718590 kJ/mol
# Density = 2.319786 g / cm^3
# Si number density = 23.250776 Si / 1000 Ang^3
#
#
#
# Elastic Constant Matrix: (Units=GPa)
#
#
# Indices 1 2 3 4 5 6 
#
# 1 43.4943 3.3790 3.3526 0.0000 0.0000 0.0000
# 2 3.3790 63.4901 -1.5971 0.0000 0.0000 0.0000
# 3 3.3526 -1.5971 85.6938 0.0000 0.0000 0.0000
# 4 0.0000 0.0000 0.0000 1668.6341 0.0000 0.0000
# 5 0.0000 0.0000 0.0000 0.0000 63.2628 0.0000
# 6 0.0000 0.0000 0.0000 0.0000 0.0000 179.0249
#
#
#
# Elastic Compliance Matrix: (Units=1/GPa)
#
#
# Indices 1 2 3 4 5 6 
#
# 1 0.023161 -0.001256 -0.000930 0.000000 0.000000 0.000000
# 2 -0.001256 0.015826 0.000344 0.000000 0.000000 0.000000
# 3 -0.000930 0.000344 0.011712 0.000000 0.000000 0.000000
# 4 0.000000 0.000000 0.000000 0.000599 0.000000 0.000000
# 5 0.000000 0.000000 0.000000 0.000000 0.015807 0.000000
# 6 0.000000 0.000000 0.000000 0.000000 0.000000 0.005586
#
#
# Mechanical properties :
#
#
# Convention : Reuss Voigt Hill
#
# Bulk Modulus (GPa) = 21.26935 22.54970 21.90952
# Shear Modulus (GPa) = 54.32061 394.68727 224.50394
#
# Velocity S-wave (km/s) = 4.83876 13.04304 9.83703
# Velocity P-wave (km/s) = 6.35499 15.38009 11.76718
#
# Compressibility (1/GPa) = 0.04701602
#
# Stress axis : x y z
#
# Youngs Moduli (GPa) = 43.17653 63.18718 85.38079
#
# Poissons Ratio (x) = 0.07937 0.07936
# Poissons Ratio (y) = 0.05423 -0.02938
# Poissons Ratio (z) = 0.04013 -0.02174
#
# Static dielectric constant tensor:
#      x y z
#    x 1.854220 0.000000 0.000000 
#    y 0.000000 2.119780 0.000000 
#    z 0.000000 0.000000 1.889410 
# 
# From -- ./inp_files/19387.got.cif
#   From: 2010.05.17/outbox.cif.g08.bks.cpg/sg59_10_cif.got.tgz:19387.got - 2010.06.03 14:40:33.
