data_PCOD9447640
_publ_section_title
;
Structure prediction by ZEFSAII (Michael W. Deem and Ramdas Pophale) SiO2 
 PCOD9447640
Probable space group: P M M N
;
_chemical_formula_sum "Si O2"
_cell_formula_units_Z 64
_cell_length_a 14.261235
_cell_length_b 9.065020
_cell_length_c 29.885977
_cell_angle_alpha 90.000000
_cell_angle_beta 90.000000
_cell_angle_gamma 90.000000
_cell_volume 3863.610706
_symmetry_space_group_name_H-M "P M M N"
_symmetry_group_IT_number 59
_space_group.IT_coordinate_system_code '2'
_symmetry_cell_setting 'orthorhombic'
loop_
_space_group_symop_operation_xyz
x,y,z
1/2-x,1/2-y,z
1/2+x,-y,-z
-x,1/2+y,-z
-x,-y,-z
1/2+x,1/2+y,-z
1/2-x,y,z
x,1/2-y,z
loop_
_atom_site_type_symbol
_atom_site_label
_atom_site_fract_x
_atom_site_fract_y
_atom_site_fract_z
Si Si1 0.360644 0.424641 0.611769
Si Si2 0.142049 0.429654 0.154484
Si Si3 0.860905 0.574462 0.571698
Si Si4 0.978440 0.927900 0.659907
Si Si5 0.857728 0.570375 0.744234
Si Si6 0.641903 0.572647 0.020487
Si Si7 0.473096 0.427590 0.068931
Si Si8 0.635628 0.418459 0.480803
O O1 0.250000 0.452919 0.617737
O O2 0.375587 0.250000 0.610551
O O3 0.422100 0.499171 0.650120
O O4 0.389448 0.494336 0.564042
O O5 0.250000 0.473729 0.145316
O O6 0.141460 0.250000 0.153938
O O7 0.117796 0.475694 0.205143
O O8 0.072009 0.478355 0.115624
O O9 0.750000 0.543977 0.577314
O O10 0.870972 0.750000 0.564948
O O11 0.914183 0.533574 0.616984
O O12 0.894966 0.492878 0.527046
O O13 0.987076 0.750000 0.660883
O O14 0.927599 0.977638 0.705290
O O15 0.750000 0.525763 0.735004
O O16 0.858096 0.750000 0.743768
O O17 0.750000 0.525622 0.024119
O O18 0.638587 0.750000 0.025120
O O19 0.571829 0.499558 0.055981
O O20 0.599046 0.537199 0.971519
O O21 0.483219 0.250000 0.070045
O O22 0.750000 0.418572 0.482121
O O23 0.603306 0.250000 0.477637
#
# Coordination Sequence:
#
# PCOD9447640 Si02
#       8
#     8   8   8   8   8   8   8   8
#     4  10  21  36  51  65  84 113 148 185 224 263
#     4   8  13  23  43  70  96 120 147 183 226 268
#     4   9  17  29  45  67  96 124 144 165 202 257
#     4  10  19  30  48  72  93 115 144 178 216 259
#     4   8  14  26  46  73 100 120 141 175 221 271
#     4   9  17  28  41  60  91 128 160 191 231 277
#     4   9  16  26  43  67  91 118 157 199 232 266
#     4   9  17  30  48  68  89 114 146 182 215 250
#
# _framework density 16.564817000000001
#
# number of rings (size 3 to 8) (size 9 to 14) (size 15 to 20)
#    0.000    3.000    0.000    2.250    0.000    6.500 
#    0.000    0.000    0.000    3.750    0.000    7.000 
#    0.000    0.000    0.000    0.000    0.000    0.000 
#
# Total GULP energy -356795.381709 kJ/mol
# GULP energy per Si atom -5574.927839 kJ/mol
# Density = 1.652711 g / cm^3
# Si number density = 16.564817 Si / 1000 Ang^3
#
#
#
# Elastic Constant Matrix: (Units=GPa)
#
#
# Indices 1 2 3 4 5 6 
#
# 1 108.3836 36.1144 79.6294 0.0000 0.0000 0.0000
# 2 36.1144 17.5164 37.0423 0.0000 0.0000 0.0000
# 3 79.6294 37.0423 134.7748 0.0000 0.0000 0.0000
# 4 0.0000 0.0000 0.0000 16.6230 0.0000 0.0000
# 5 0.0000 0.0000 0.0000 0.0000 31.6752 0.0000
# 6 0.0000 0.0000 0.0000 0.0000 0.0000 20.0907
#
#
#
# Elastic Compliance Matrix: (Units=1/GPa)
#
#
# Indices 1 2 3 4 5 6 
#
# 1 0.029641 -0.057495 -0.001711 0.000000 0.000000 0.000000
# 2 -0.057495 0.247847 -0.034150 0.000000 0.000000 0.000000
# 3 -0.001711 -0.034150 0.017816 0.000000 0.000000 0.000000
# 4 0.000000 0.000000 0.000000 0.060158 0.000000 0.000000
# 5 0.000000 0.000000 0.000000 0.000000 0.031570 0.000000
# 6 0.000000 0.000000 0.000000 0.000000 0.000000 0.049774
#
#
# Mechanical properties :
#
#
# Convention : Reuss Voigt Hill
#
# Bulk Modulus (GPa) = 9.20865 62.91634 36.06249
# Shear Modulus (GPa) = 7.57902 20.87036 14.22469
#
# Velocity S-wave (km/s) = 2.14133 3.55339 2.93359
# Velocity P-wave (km/s) = 3.41833 7.40944 5.76995
#
# Compressibility (1/GPa) = 0.10859350
#
# Stress axis : x y z
#
# Youngs Moduli (GPa) = 33.73667 4.03475 56.12795
#
# Poissons Ratio (x) = 0.23198 0.09602
# Poissons Ratio (y) = 1.93970 1.91675
# Poissons Ratio (z) = 0.05772 0.13778
#
# Static dielectric constant tensor:
#      x y z
#    x 1.574020 0.000000 0.000000 
#    y 0.000000 1.558310 0.000000 
#    z 0.000000 0.000000 1.545970 
# 
# From -- ./inp_files/33346.got.cif
#   From: 2010.05.17/outbox.cif.g08.bks.cpg/sg59_17_cif.got.tgz:33346.got - 2010.06.03 14:40:33.
