data_PCOD9447102
_publ_section_title
;
Structure prediction by ZEFSAII (Michael W. Deem and Ramdas Pophale) SiO2 
 PCOD9447102
Probable space group: P M M N
;
_chemical_formula_sum "Si O2"
_cell_formula_units_Z 56
_cell_length_a 19.384734
_cell_length_b 15.973945
_cell_length_c 8.841709
_cell_angle_alpha 90.000000
_cell_angle_beta 90.000000
_cell_angle_gamma 90.000000
_cell_volume 2737.841158
_symmetry_space_group_name_H-M "P M M N"
_symmetry_group_IT_number 59
_space_group.IT_coordinate_system_code '2'
_symmetry_cell_setting 'orthorhombic'
loop_
_space_group_symop_operation_xyz
x,y,z
1/2-x,1/2-y,z
1/2+x,-y,-z
-x,1/2+y,-z
-x,-y,-z
1/2+x,1/2+y,-z
1/2-x,y,z
x,1/2-y,z
loop_
_atom_site_type_symbol
_atom_site_label
_atom_site_fract_x
_atom_site_fract_y
_atom_site_fract_z
Si Si1 0.462778 0.096516 0.658178
Si Si2 0.535372 0.581244 0.687892
Si Si3 0.671868 0.108192 0.351180
Si Si4 0.825369 0.930958 0.198305
Si Si5 0.066662 0.659191 0.898266
Si Si6 0.382338 0.654458 0.322416
Si Si7 0.373024 0.522399 0.095719
O O1 0.446742 0.109176 0.480776
O O2 0.396396 0.116621 0.761172
O O3 0.534667 0.142682 0.695251
O O4 0.482278 0.997735 0.675337
O O5 0.497668 0.650620 0.786643
O O6 0.596999 0.543790 0.786214
O O7 0.750000 0.138620 0.362671
O O8 0.632730 0.150641 0.211319
O O9 0.633570 0.125308 0.507481
O O10 0.673736 0.009434 0.314322
O O11 0.750000 0.889086 0.210598
O O12 0.831723 0.974154 0.033268
O O13 0.067268 0.750000 0.974966
O O14 0.069533 0.577296 0.004163
O O15 0.362455 0.750000 0.305614
O O16 0.343040 0.595419 0.202459
#
# Coordination Sequence:
#
# PCOD9447102 Si02
#       7
#     8   8   8   8   8   8   8
#     4  10  18  34  56  78 101 138 186 230 275 313
#     4  10  18  32  54  77 101 136 176 230 269 311
#     4  10  20  35  53  74 107 149 185 216 263 324
#     4  10  20  36  56  78 103 142 187 229 271 327
#     4  11  20  32  49  76 106 139 177 215 264 323
#     4  11  22  34  53  82 114 143 182 228 273 323
#     4  10  21  34  50  75 107 141 175 217 272 319
#
# _framework density 20.454072
#
# number of rings (size 3 to 8) (size 9 to 14) (size 15 to 20)
#    0.000    1.714    4.286    3.000    2.000    1.714 
#    0.000    0.714    0.000    3.000    0.000    0.000 
#    0.000    1.143    0.000    0.000    0.000    0.000 
#
# Total GULP energy -312370.537391 kJ/mol
# GULP energy per Si atom -5578.045311 kJ/mol
# Density = 2.040752 g / cm^3
# Si number density = 20.454072 Si / 1000 Ang^3
#
#
#
# Elastic Constant Matrix: (Units=GPa)
#
#
# Indices 1 2 3 4 5 6 
#
# 1 73.8907 -4.7857 18.5371 0.0000 0.0000 0.0000
# 2 -4.7857 13.9671 -5.6878 0.0000 0.0000 0.0000
# 3 18.5371 -5.6878 105.5762 0.0000 0.0000 0.0000
# 4 0.0000 0.0000 0.0000 11.9546 0.0000 0.0000
# 5 0.0000 0.0000 0.0000 0.0000 8.9781 0.0000
# 6 0.0000 0.0000 0.0000 0.0000 0.0000 16.5808
#
#
#
# Elastic Compliance Matrix: (Units=1/GPa)
#
#
# Indices 1 2 3 4 5 6 
#
# 1 0.014371 0.003984 -0.002309 0.000000 0.000000 0.000000
# 2 0.003984 0.074307 0.003304 0.000000 0.000000 0.000000
# 3 -0.002309 0.003304 0.010055 0.000000 0.000000 0.000000
# 4 0.000000 0.000000 0.000000 0.083649 0.000000 0.000000
# 5 0.000000 0.000000 0.000000 0.000000 0.111382 0.000000
# 6 0.000000 0.000000 0.000000 0.000000 0.000000 0.060311
#
#
# Mechanical properties :
#
#
# Convention : Reuss Voigt Hill
#
# Bulk Modulus (GPa) = 9.20038 23.28457 16.24248
# Shear Modulus (GPa) = 13.14586 19.86073 16.50330
#
# Velocity S-wave (km/s) = 2.53791 3.11945 2.84359
# Velocity P-wave (km/s) = 3.61881 4.93794 4.32891
#
# Compressibility (1/GPa) = 0.10869111
#
# Stress axis : x y z
#
# Youngs Moduli (GPa) = 69.58612 13.45765 99.45144
#
# Poissons Ratio (x) = -0.05361 0.22959
# Poissons Ratio (y) = -0.27722 -0.32856
# Poissons Ratio (z) = 0.16065 -0.04446
#
# Static dielectric constant tensor:
#      x y z
#    x 1.768200 0.000000 0.000000 
#    y 0.000000 1.730290 0.000000 
#    z 0.000000 0.000000 1.761540 
# 
# From -- ./inp_files/11543.got.cif
#   From: 2010.05.17/outbox.cif.g08.bks.cpg/sg59_6_cif.got.tgz:11543.got - 2010.06.03 14:40:33.
