data_PCOD9447789
_publ_section_title
;
Structure prediction by ZEFSAII (Michael W. Deem and Ramdas Pophale) SiO2 
 PCOD9447789
Probable space group: P M M N
;
_chemical_formula_sum "Si O2"
_cell_formula_units_Z 64
_cell_length_a 9.095879
_cell_length_b 22.048405
_cell_length_c 15.819633
_cell_angle_alpha 90.000000
_cell_angle_beta 90.000000
_cell_angle_gamma 90.000000
_cell_volume 3172.621450
_symmetry_space_group_name_H-M "P M M N"
_symmetry_group_IT_number 59
_space_group.IT_coordinate_system_code '2'
_symmetry_cell_setting 'orthorhombic'
loop_
_space_group_symop_operation_xyz
x,y,z
1/2-x,1/2-y,z
1/2+x,-y,-z
-x,1/2+y,-z
-x,-y,-z
1/2+x,1/2+y,-z
1/2-x,y,z
x,1/2-y,z
loop_
_atom_site_type_symbol
_atom_site_label
_atom_site_fract_x
_atom_site_fract_y
_atom_site_fract_z
Si Si1 0.920727 0.817021 0.492750
Si Si2 0.074786 0.184968 0.059145
Si Si3 0.579527 0.682562 0.286581
Si Si4 0.913597 0.435955 0.708117
Si Si5 0.073672 0.553959 0.765017
Si Si6 0.586666 0.063012 0.507294
Si Si7 0.074362 0.053612 0.050840
Si Si8 0.572893 0.185158 0.243824
O O1 0.750000 0.821088 0.518272
O O2 0.978914 0.750000 0.516619
O O3 0.921998 0.818220 0.389646
O O4 0.007023 0.875990 0.524007
O O5 0.250000 0.183341 0.078353
O O6 0.044747 0.250000 0.016158
O O7 0.042202 0.121250 0.014409
O O8 0.987180 0.185213 0.147575
O O9 0.750000 0.675520 0.261250
O O10 0.528558 0.750000 0.260861
O O11 0.485429 0.625487 0.256420
O O12 0.750000 0.446833 0.743018
O O13 0.900105 0.427110 0.607785
O O14 0.015319 0.494350 0.719605
O O15 0.250000 0.551812 0.773857
O O16 0.030881 0.618572 0.722615
O O17 0.995323 0.553010 0.856015
O O18 0.750000 0.057120 0.469641
O O19 0.500000 0.000000 0.500000
O O20 0.250000 0.045678 0.053887
O O21 0.000000 0.000000 0.000000
O O22 0.750000 0.186078 0.243150
O O23 0.522197 0.250000 0.281640
#
# Coordination Sequence:
#
# PCOD9447789 Si02
#       8
#     8   8   8   8   8   8   8   8
#     4   8  14  26  45  68  93 120 151 190 235 281
#     4   8  14  25  42  64  88 115 148 185 224 265
#     4   8  14  26  45  68  92 119 153 191 231 277
#     4  10  20  32  47  70  98 126 157 195 237 280
#     4  10  19  31  49  71  95 125 158 192 234 283
#     4  10  20  32  48  70  96 126 160 198 239 283
#     4  10  19  31  48  70  97 125 154 191 232 278
#     4   8  14  25  42  65  90 114 145 187 230 270
#
# _framework density 20.172592999999999
#
# number of rings (size 3 to 8) (size 9 to 14) (size 15 to 20)
#    0.000    3.000    0.000    2.250    0.000    3.000 
#    0.000    2.500    0.000    1.500    0.000    5.250 
#    0.000    0.000    0.000    0.000    0.000    0.000 
#
# Total GULP energy -356361.044977 kJ/mol
# GULP energy per Si atom -5568.141328 kJ/mol
# Density = 2.012668 g / cm^3
# Si number density = 20.172593 Si / 1000 Ang^3
#
#
#
# Elastic Constant Matrix: (Units=GPa)
#
#
# Indices 1 2 3 4 5 6 
#
# 1 79.7963 78.5792 6.6605 0.0000 0.0000 0.0000
# 2 78.5792 219.3471 24.5440 0.0000 0.0000 0.0000
# 3 6.6605 24.5440 20.0808 0.0000 0.0000 0.0000
# 4 0.0000 0.0000 0.0000 16.3370 0.0000 0.0000
# 5 0.0000 0.0000 0.0000 0.0000 12.9590 0.0000
# 6 0.0000 0.0000 0.0000 0.0000 0.0000 30.3915
#
#
#
# Elastic Compliance Matrix: (Units=1/GPa)
#
#
# Indices 1 2 3 4 5 6 
#
# 1 0.019461 -0.007240 0.002394 0.000000 0.000000 0.000000
# 2 -0.007240 0.007975 -0.007346 0.000000 0.000000 0.000000
# 3 0.002394 -0.007346 0.057983 0.000000 0.000000 0.000000
# 4 0.000000 0.000000 0.000000 0.061211 0.000000 0.000000
# 5 0.000000 0.000000 0.000000 0.000000 0.077167 0.000000
# 6 0.000000 0.000000 0.000000 0.000000 0.000000 0.032904
#
#
# Mechanical properties :
#
#
# Convention : Reuss Voigt Hill
#
# Bulk Modulus (GPa) = 16.38377 59.86574 38.12476
# Shear Modulus (GPa) = 16.58765 25.90019 21.24392
#
# Velocity S-wave (km/s) = 2.87067 3.58708 3.24868
# Velocity P-wave (km/s) = 4.37345 6.84817 5.74563
#
# Compressibility (1/GPa) = 0.06103600
#
# Stress axis : x y z
#
# Youngs Moduli (GPa) = 51.38370 125.39951 17.24639
#
# Poissons Ratio (x) = 0.90786 -0.04129
# Poissons Ratio (y) = 0.37201 0.12669
# Poissons Ratio (z) = -0.12301 0.92114
#
# Static dielectric constant tensor:
#      x y z
#    x 1.702070 0.000000 0.000000 
#    y 0.000000 1.776220 0.000000 
#    z 0.000000 0.000000 1.738660 
# 
# From -- ./inp_files/26317.got.cif
#   From: 2010.05.17/outbox.cif.g08.bks.cpg/sg59_14_cif.got.tgz:26317.got - 2010.06.03 14:40:33.
