data_PCOD9447351
_publ_section_title
;
Structure prediction by ZEFSAII (Michael W. Deem and Ramdas Pophale) SiO2 
 PCOD9447351
Probable space group: P M M N
;
_chemical_formula_sum "Si O2"
_cell_formula_units_Z 64
_cell_length_a 9.148975
_cell_length_b 17.441369
_cell_length_c 22.124961
_cell_angle_alpha 90.000000
_cell_angle_beta 90.000000
_cell_angle_gamma 90.000000
_cell_volume 3530.494385
_symmetry_space_group_name_H-M "P M M N"
_symmetry_group_IT_number 59
_space_group.IT_coordinate_system_code '2'
_symmetry_cell_setting 'orthorhombic'
loop_
_space_group_symop_operation_xyz
x,y,z
1/2-x,1/2-y,z
1/2+x,-y,-z
-x,1/2+y,-z
-x,-y,-z
1/2+x,1/2+y,-z
1/2-x,y,z
x,1/2-y,z
loop_
_atom_site_type_symbol
_atom_site_label
_atom_site_fract_x
_atom_site_fract_y
_atom_site_fract_z
Si Si1 0.917580 0.157802 0.268910
Si Si2 0.418128 0.343645 0.390680
Si Si3 0.580716 0.099346 0.751345
Si Si4 0.575076 0.518443 0.063585
Si Si5 0.077396 0.158507 0.635247
Si Si6 0.081643 0.843555 0.487770
Si Si7 0.577746 0.337606 0.880376
Si Si8 0.078424 0.441532 0.175535
O O1 0.750000 0.130802 0.265828
O O2 0.916769 0.250000 0.269537
O O3 0.993393 0.131936 0.331318
O O4 0.008687 0.127965 0.212172
O O5 0.250000 0.368560 0.387408
O O6 0.418468 0.250000 0.391026
O O7 0.494556 0.368896 0.452649
O O8 0.750000 0.111437 0.733800
O O9 0.480766 0.115990 0.694378
O O10 0.547893 0.153690 0.808765
O O11 0.565793 0.014739 0.779560
O O12 0.750000 0.513073 0.060435
O O13 0.522692 0.602870 0.084444
O O14 0.509839 0.462575 0.115231
O O15 0.500000 0.500000 0.000000
O O16 0.250000 0.148086 0.627496
O O17 0.049707 0.250000 0.643137
O O18 0.994552 0.132953 0.574553
O O19 0.250000 0.867745 0.490235
O O20 0.079371 0.750000 0.488469
O O21 0.750000 0.359137 0.888219
O O22 0.558467 0.250000 0.899241
O O23 0.250000 0.430698 0.162287
#
# Coordination Sequence:
#
# PCOD9447351 Si02
#       8
#     8   8   8   8   8   8   8   8
#     4  10  20  34  54  81 109 135 168 212 262 314
#     4   9  16  27  45  69  97 129 166 210 259 309
#     4   9  18  32  50  72 100 136 173 209 253 305
#     4  11  22  38  60  84 113 147 182 218 259 310
#     4  10  19  28  41  66  99 133 171 215 259 304
#     4   9  16  26  41  62  91 128 169 213 260 309
#     4   9  18  34  56  82 112 144 180 222 264 307
#     4  10  21  38  58  80 106 137 174 212 255 308
#
# _framework density 18.127772
#
# number of rings (size 3 to 8) (size 9 to 14) (size 15 to 20)
#    0.000    2.375    0.000    4.125    0.000    7.750 
#    0.000    0.625    0.000    4.500    0.000    0.000 
#    0.000    0.000    0.000    0.000    0.000    0.000 
#
# Total GULP energy -357177.868381 kJ/mol
# GULP energy per Si atom -5580.904193 kJ/mol
# Density = 1.808651 g / cm^3
# Si number density = 18.127772 Si / 1000 Ang^3
#
#
#
# Elastic Constant Matrix: (Units=GPa)
#
#
# Indices 1 2 3 4 5 6 
#
# 1 146.9717 28.0418 86.2229 0.0000 0.0000 0.0000
# 2 28.0418 13.1522 25.0641 0.0000 0.0000 0.0000
# 3 86.2229 25.0641 134.1998 0.0000 0.0000 0.0000
# 4 0.0000 0.0000 0.0000 5.5454 0.0000 0.0000
# 5 0.0000 0.0000 0.0000 0.0000 36.6528 0.0000
# 6 0.0000 0.0000 0.0000 0.0000 0.0000 22.1816
#
#
#
# Elastic Compliance Matrix: (Units=1/GPa)
#
#
# Indices 1 2 3 4 5 6 
#
# 1 0.013378 -0.018854 -0.005074 0.000000 0.000000 0.000000
# 2 -0.018854 0.144619 -0.014897 0.000000 0.000000 0.000000
# 3 -0.005074 -0.014897 0.013494 0.000000 0.000000 0.000000
# 4 0.000000 0.000000 0.000000 0.180329 0.000000 0.000000
# 5 0.000000 0.000000 0.000000 0.000000 0.027283 0.000000
# 6 0.000000 0.000000 0.000000 0.000000 0.000000 0.045082
#
#
# Mechanical properties :
#
#
# Convention : Reuss Voigt Hill
#
# Bulk Modulus (GPa) = 10.65616 63.66457 37.16036
# Shear Modulus (GPa) = 9.37884 23.20896 16.29390
#
# Velocity S-wave (km/s) = 2.27705 3.58201 3.00131
# Velocity P-wave (km/s) = 3.57833 7.23214 5.70562
#
# Compressibility (1/GPa) = 0.09384243
#
# Stress axis : x y z
#
# Youngs Moduli (GPa) = 74.74934 6.91471 74.10755
#
# Poissons Ratio (x) = 0.13037 0.37603
# Poissons Ratio (y) = 1.40929 1.10396
# Poissons Ratio (z) = 0.37929 0.10301
#
# Static dielectric constant tensor:
#      x y z
#    x 1.618240 0.000000 0.000000 
#    y 0.000000 1.639270 0.000000 
#    z 0.000000 0.000000 1.592720 
# 
# From -- ./inp_files/26200.got.cif
#   From: 2010.05.17/outbox.cif.g08.bks.cpg/sg59_14_cif.got.tgz:26200.got - 2010.06.03 14:40:33.
