data_PCOD9447894
_publ_section_title
;
Structure prediction by ZEFSAII (Michael W. Deem and Ramdas Pophale) SiO2 
 PCOD9447894
Probable space group: P M M N
;
_chemical_formula_sum "Si O2"
_cell_formula_units_Z 64
_cell_length_a 19.766630
_cell_length_b 7.453875
_cell_length_c 19.658727
_cell_angle_alpha 90.000000
_cell_angle_beta 90.000000
_cell_angle_gamma 90.000000
_cell_volume 2896.477306
_symmetry_space_group_name_H-M "P M M N"
_symmetry_group_IT_number 59
_space_group.IT_coordinate_system_code '2'
_symmetry_cell_setting 'orthorhombic'
loop_
_space_group_symop_operation_xyz
x,y,z
1/2-x,1/2-y,z
1/2+x,-y,-z
-x,1/2+y,-z
-x,-y,-z
1/2+x,1/2+y,-z
1/2-x,y,z
x,1/2-y,z
loop_
_atom_site_type_symbol
_atom_site_label
_atom_site_fract_x
_atom_site_fract_y
_atom_site_fract_z
Si Si1 0.961563 0.529406 0.628492
Si Si2 0.671981 0.967404 0.283268
Si Si3 0.674522 0.956529 0.559282
Si Si4 0.101266 0.957202 0.574821
Si Si5 0.673216 0.969245 0.866234
Si Si6 0.591097 0.534702 0.150331
Si Si7 0.172362 0.468518 0.979063
Si Si8 0.047605 0.037016 0.218011
O O1 0.963491 0.750000 0.626196
O O2 0.888920 0.467528 0.601106
O O3 0.970281 0.470058 0.706626
O O4 0.025249 0.468758 0.583266
O O5 0.750000 0.023312 0.283434
O O6 0.670255 0.750000 0.283954
O O7 0.634358 0.029846 0.215114
O O8 0.634413 0.030776 0.350847
O O9 0.750000 0.035463 0.565270
O O10 0.679658 0.750000 0.581859
O O11 0.649241 0.956192 0.481318
O O12 0.096500 0.750000 0.554568
O O13 0.750000 0.023957 0.850483
O O14 0.672489 0.750000 0.865815
O O15 0.617119 0.033434 0.813596
O O16 0.656938 0.024784 0.943770
O O17 0.597655 0.750000 0.149249
O O18 0.621746 0.468218 0.079370
O O19 0.513620 0.492633 0.166118
O O20 0.250000 0.519801 0.963216
O O21 0.171033 0.250000 0.979329
O O22 0.056083 0.250000 0.225965
#
# Coordination Sequence:
#
# PCOD9447894 Si02
#       8
#     8   8   8   8   8   8   8   8
#     4   9  19  35  53  74 102 135 167 201 249 302
#     4  10  20  33  50  73 100 133 173 210 243 286
#     4  10  21  37  56  77 100 128 167 212 251 292
#     4  11  21  35  54  76 104 135 163 198 251 309
#     4   8  15  28  49  76 101 130 171 215 255 294
#     4  10  19  31  49  73 102 135 171 208 250 299
#     4   8  14  27  47  72 102 134 171 214 254 292
#     4  10  19  33  52  75 105 134 166 209 253 299
#
# _framework density 22.095804000000001
#
# number of rings (size 3 to 8) (size 9 to 14) (size 15 to 20)
#    0.000    2.500    1.250    2.250    0.000    4.500 
#    0.000    3.750    0.000    1.500    0.000    1.750 
#    0.000    0.000    0.000    0.000    0.000    0.000 
#
# Total GULP energy -357472.561829 kJ/mol
# GULP energy per Si atom -5585.508779 kJ/mol
# Density = 2.204551 g / cm^3
# Si number density = 22.095804 Si / 1000 Ang^3
#
#
#
# Elastic Constant Matrix: (Units=GPa)
#
#
# Indices 1 2 3 4 5 6 
#
# 1 134.6444 -1.3936 15.6220 0.0000 0.0000 0.0000
# 2 -1.3936 65.5490 -4.8632 0.0000 0.0000 0.0000
# 3 15.6220 -4.8632 25.7466 0.0000 0.0000 0.0000
# 4 0.0000 0.0000 0.0000 4.7934 0.0000 0.0000
# 5 0.0000 0.0000 0.0000 0.0000 25.6752 0.0000
# 6 0.0000 0.0000 0.0000 0.0000 0.0000 5.1647
#
#
#
# Elastic Compliance Matrix: (Units=1/GPa)
#
#
# Indices 1 2 3 4 5 6 
#
# 1 0.007992 -0.000193 -0.004885 0.000000 0.000000 0.000000
# 2 -0.000193 0.015477 0.003040 0.000000 0.000000 0.000000
# 3 -0.004885 0.003040 0.042379 0.000000 0.000000 0.000000
# 4 0.000000 0.000000 0.000000 0.208620 0.000000 0.000000
# 5 0.000000 0.000000 0.000000 0.000000 0.038948 0.000000
# 6 0.000000 0.000000 0.000000 0.000000 0.000000 0.193623
#
#
# Mechanical properties :
#
#
# Convention : Reuss Voigt Hill
#
# Bulk Modulus (GPa) = 16.18852 27.18562 21.68707
# Shear Modulus (GPa) = 9.40370 21.56497 15.48434
#
# Velocity S-wave (km/s) = 2.06522 3.12745 2.65010
# Velocity P-wave (km/s) = 3.60960 5.03701 4.38182
#
# Compressibility (1/GPa) = 0.06177217
#
# Stress axis : x y z
#
# Youngs Moduli (GPa) = 125.12808 64.61105 23.59679
#
# Poissons Ratio (x) = 0.01244 0.11528
# Poissons Ratio (y) = 0.02409 -0.07174
# Poissons Ratio (z) = 0.61131 -0.19644
#
# Static dielectric constant tensor:
#      x y z
#    x 1.789070 0.000000 0.000000 
#    y 0.000000 1.883550 0.000000 
#    z 0.000000 0.000000 1.781100 
# 
# From -- ./inp_files/30813.got.cif
#   From: 2010.05.17/outbox.cif.g08.bks.cpg/sg59_16_cif.got.tgz:30813.got - 2010.06.03 14:40:33.
