data_PCOD9447274
_publ_section_title
;
Structure prediction by ZEFSAII (Michael W. Deem and Ramdas Pophale) SiO2 
 PCOD9447274
Probable space group: P M M N
;
_chemical_formula_sum "Si O2"
_cell_formula_units_Z 56
_cell_length_a 8.164566
_cell_length_b 22.067394
_cell_length_c 15.262665
_cell_angle_alpha 90.000000
_cell_angle_beta 90.000000
_cell_angle_gamma 90.000000
_cell_volume 2749.884957
_symmetry_space_group_name_H-M "P M M N"
_symmetry_group_IT_number 59
_space_group.IT_coordinate_system_code '2'
_symmetry_cell_setting 'orthorhombic'
loop_
_space_group_symop_operation_xyz
x,y,z
1/2-x,1/2-y,z
1/2+x,-y,-z
-x,1/2+y,-z
-x,-y,-z
1/2+x,1/2+y,-z
1/2-x,y,z
x,1/2-y,z
loop_
_atom_site_type_symbol
_atom_site_label
_atom_site_fract_x
_atom_site_fract_y
_atom_site_fract_z
Si Si1 0.554757 0.092375 0.771192
Si Si2 0.052186 0.964770 0.696368
Si Si3 0.443944 0.320107 0.629155
Si Si4 0.946849 0.121828 0.457997
Si Si5 0.446808 0.565578 0.032835
Si Si6 0.431598 0.250000 0.217848
Si Si7 0.935570 0.250000 0.397239
Si Si8 0.052041 0.871997 0.854963
O O1 0.750000 0.099815 0.773787
O O2 0.482057 0.151104 0.723347
O O3 0.491170 0.082155 0.870440
O O4 0.515494 0.031090 0.717163
O O5 0.250000 0.969514 0.693159
O O6 0.994877 0.932430 0.605490
O O7 0.010875 0.920867 0.778794
O O8 0.250000 0.318033 0.615860
O O9 0.505863 0.250000 0.618136
O O10 0.514560 0.369405 0.560025
O O11 0.750000 0.121270 0.447660
O O12 0.013985 0.186494 0.423231
O O13 0.250000 0.566106 0.038206
O O14 0.500000 0.500000 0.000000
O O15 0.494657 0.607922 0.952235
O O16 0.250000 0.250000 0.257306
O O17 0.565617 0.250000 0.293627
O O18 0.461160 0.189727 0.164671
O O19 0.750000 0.250000 0.432945
O O20 0.250000 0.864412 0.851056
#
# Coordination Sequence:
#
# PCOD9447274 Si02
#       8
#     8   8   8   8   8   4   4   8
#     4  11  24  41  63  92 122 155 199 250 300 355
#     4  10  20  36  62  93 124 160 196 239 299 360
#     4  11  25  44  65  88 117 159 205 251 302 353
#     4  10  20  36  62  91 119 156 201 243 291 353
#     4  10  21  38  64  92 117 153 199 246 301 360
#     4  12  24  34  52  87 126 161 202 255 302 350
#     4  10  18  34  58  85 118 161 202 237 294 366
#     4  10  20  38  60  84 121 165 202 243 302 371
#
# _framework density 20.36449
#
# number of rings (size 3 to 8) (size 9 to 14) (size 15 to 20)
#    0.000    1.571    3.571    1.500    0.000    4.286 
#    1.286    0.000    0.000    0.000    0.000    0.000 
#    0.000    0.000    0.000    0.000    0.000    0.000 
#
# Total GULP energy -312420.856039 kJ/mol
# GULP energy per Si atom -5578.943858 kJ/mol
# Density = 2.031814 g / cm^3
# Si number density = 20.364490 Si / 1000 Ang^3
#
#
#
# Elastic Constant Matrix: (Units=GPa)
#
#
# Indices 1 2 3 4 5 6 
#
# 1 18.6423 12.6633 6.8793 0.0000 0.0000 0.0000
# 2 12.6633 63.0089 31.1013 0.0000 0.0000 0.0000
# 3 6.8793 31.1013 123.0004 0.0000 0.0000 0.0000
# 4 0.0000 0.0000 0.0000 -6.5421 0.0000 0.0000
# 5 0.0000 0.0000 0.0000 0.0000 16.8142 0.0000
# 6 0.0000 0.0000 0.0000 0.0000 0.0000 102.0097
#
#
#
# Elastic Compliance Matrix: (Units=1/GPa)
#
#
# Indices 1 2 3 4 5 6 
#
# 1 0.062137 -0.012309 -0.000363 0.000000 0.000000 0.000000
# 2 -0.012309 0.020572 -0.004513 0.000000 0.000000 0.000000
# 3 -0.000363 -0.004513 0.009292 0.000000 0.000000 0.000000
# 4 0.000000 0.000000 0.000000 -0.152855 0.000000 0.000000
# 5 0.000000 0.000000 0.000000 0.000000 0.059474 0.000000
# 6 0.000000 0.000000 0.000000 0.000000 0.000000 0.009803
#
#
# Mechanical properties :
#
#
# Convention : Reuss Voigt Hill
#
# Bulk Modulus (GPa) = 17.35202 33.99329 25.67266
# Shear Modulus (GPa) = 80.64181 32.72352 56.68266
#
# Velocity S-wave (km/s) = 6.29962 4.01295 5.28152
# Velocity P-wave (km/s) = 7.83918 6.18065 7.05880
#
# Compressibility (1/GPa) = 0.05763016
#
# Stress axis : x y z
#
# Youngs Moduli (GPa) = 16.09359 48.60884 107.62413
#
# Poissons Ratio (x) = 0.59832 0.03906
# Poissons Ratio (y) = 0.19809 0.48575
# Poissons Ratio (z) = 0.00584 0.21939
#
# Static dielectric constant tensor:
#      x y z
#    x 1.736510 0.000000 0.000000 
#    y 0.000000 1.684510 0.000000 
#    z 0.000000 0.000000 1.777620 
# 
# From -- ./inp_files/21111.got.cif
#   From: 2010.05.17/outbox.cif.g08.bks.cpg/sg59_11_cif.got.tgz:21111.got - 2010.06.03 14:40:33.
