data_PCOD9447660
_publ_section_title
;
Structure prediction by ZEFSAII (Michael W. Deem and Ramdas Pophale) SiO2 
 PCOD9447660
Probable space group: P M M N
;
_chemical_formula_sum "Si O2"
_cell_formula_units_Z 56
_cell_length_a 20.480614
_cell_length_b 7.494041
_cell_length_c 18.027516
_cell_angle_alpha 90.000000
_cell_angle_beta 90.000000
_cell_angle_gamma 90.000000
_cell_volume 2766.909325
_symmetry_space_group_name_H-M "P M M N"
_symmetry_group_IT_number 59
_space_group.IT_coordinate_system_code '2'
_symmetry_cell_setting 'orthorhombic'
loop_
_space_group_symop_operation_xyz
x,y,z
1/2-x,1/2-y,z
1/2+x,-y,-z
-x,1/2+y,-z
-x,-y,-z
1/2+x,1/2+y,-z
1/2-x,y,z
x,1/2-y,z
loop_
_atom_site_type_symbol
_atom_site_label
_atom_site_fract_x
_atom_site_fract_y
_atom_site_fract_z
Si Si1 0.823276 0.964198 0.318893
Si Si2 0.323501 0.536677 0.117368
Si Si3 0.176049 0.036074 0.945868
Si Si4 0.556083 0.044771 0.608730
Si Si5 0.061899 0.530644 0.225040
Si Si6 0.084623 0.961751 0.551383
Si Si7 0.583742 0.968245 0.185675
O O1 0.750000 0.032041 0.308069
O O2 0.821100 0.750000 0.311948
O O3 0.873790 0.027635 0.256487
O O4 0.852100 0.006378 0.399457
O O5 0.250000 0.466533 0.130528
O O6 0.320850 0.750000 0.126953
O O7 0.379094 0.470549 0.172773
O O8 0.339884 0.503048 0.031283
O O9 0.250000 0.969031 0.930753
O O10 0.178653 0.250000 0.937763
O O11 0.122125 0.971831 0.887789
O O12 0.578183 0.250000 0.612357
O O13 0.569104 0.968171 0.689854
O O14 0.586222 0.967392 0.532912
O O15 0.478197 0.041162 0.593493
O O16 0.061437 0.750000 0.226075
O O17 0.991119 0.475266 0.194152
O O18 0.072329 0.750000 0.547088
O O19 0.583127 0.750000 0.185678
#
# Coordination Sequence:
#
# PCOD9447660 Si02
#       7
#     8   8   8   8   8   8   8
#     4  10  19  32  51  72  97 133 171 203 238 287
#     4   9  18  32  49  69  93 123 158 195 241 293
#     4   9  17  30  48  69  93 122 157 196 238 285
#     4   9  17  32  52  71  93 126 165 200 238 289
#     4   9  16  29  51  73  93 121 161 204 237 274
#     4  10  19  30  48  74 101 128 159 199 248 291
#     4   9  16  28  49  73  93 120 164 205 233 276
#
# _framework density 20.239187999999999
#
# number of rings (size 3 to 8) (size 9 to 14) (size 15 to 20)
#    0.000    2.714    1.429    0.857    0.000    3.143 
#    0.000    2.143    0.000    4.286    0.000    2.000 
#    0.000    0.000    0.000    0.000    0.000    0.000 
#
# Total GULP energy -312441.271041 kJ/mol
# GULP energy per Si atom -5579.308411 kJ/mol
# Density = 2.019312 g / cm^3
# Si number density = 20.239188 Si / 1000 Ang^3
#
#
#
# Elastic Constant Matrix: (Units=GPa)
#
#
# Indices 1 2 3 4 5 6 
#
# 1 145.5799 4.2780 120.5574 0.0000 0.0000 0.0000
# 2 4.2780 56.6919 1.4466 0.0000 0.0000 0.0000
# 3 120.5574 1.4466 183.7715 0.0000 0.0000 0.0000
# 4 0.0000 0.0000 0.0000 9.3836 0.0000 0.0000
# 5 0.0000 0.0000 0.0000 0.0000 19.8818 0.0000
# 6 0.0000 0.0000 0.0000 0.0000 0.0000 5.6027
#
#
#
# Elastic Compliance Matrix: (Units=1/GPa)
#
#
# Indices 1 2 3 4 5 6 
#
# 1 0.015084 -0.000886 -0.009888 0.000000 0.000000 0.000000
# 2 -0.000886 0.017695 0.000442 0.000000 0.000000 0.000000
# 3 -0.009888 0.000442 0.011925 0.000000 0.000000 0.000000
# 4 0.000000 0.000000 0.000000 0.106569 0.000000 0.000000
# 5 0.000000 0.000000 0.000000 0.000000 0.050297 0.000000
# 6 0.000000 0.000000 0.000000 0.000000 0.000000 0.178485
#
#
# Mechanical properties :
#
#
# Convention : Reuss Voigt Hill
#
# Bulk Modulus (GPa) = 41.59916 70.95633 56.27775
# Shear Modulus (GPa) = 12.23296 24.29105 18.26200
#
# Velocity S-wave (km/s) = 2.46116 3.46815 3.00710
# Velocity P-wave (km/s) = 5.35489 7.15349 6.31851
#
# Compressibility (1/GPa) = 0.02403895
#
# Stress axis : x y z
#
# Youngs Moduli (GPa) = 66.29657 56.51381 83.85805
#
# Poissons Ratio (x) = 0.05007 0.82921
# Poissons Ratio (y) = 0.05873 -0.03706
# Poissons Ratio (z) = 0.65556 -0.02497
#
# Static dielectric constant tensor:
#      x y z
#    x 1.685790 0.000000 0.000000 
#    y 0.000000 1.804440 0.000000 
#    z 0.000000 0.000000 1.710510 
# 
# From -- ./inp_files/28046.got.cif
#   From: 2010.05.17/outbox.cif.g08.bks.cpg/sg59_15_cif.got.tgz:28046.got - 2010.06.03 14:40:33.
