data_PCOD9447489
_publ_section_title
;
Structure prediction by ZEFSAII (Michael W. Deem and Ramdas Pophale) SiO2 
 PCOD9447489
Probable space group: P M M N
;
_chemical_formula_sum "Si O2"
_cell_formula_units_Z 48
_cell_length_a 7.697917
_cell_length_b 22.019645
_cell_length_c 15.986562
_cell_angle_alpha 90.000000
_cell_angle_beta 90.000000
_cell_angle_gamma 90.000000
_cell_volume 2709.808580
_symmetry_space_group_name_H-M "P M M N"
_symmetry_group_IT_number 59
_space_group.IT_coordinate_system_code '2'
_symmetry_cell_setting 'orthorhombic'
loop_
_space_group_symop_operation_xyz
x,y,z
1/2-x,1/2-y,z
1/2+x,-y,-z
-x,1/2+y,-z
-x,-y,-z
1/2+x,1/2+y,-z
1/2-x,y,z
x,1/2-y,z
loop_
_atom_site_type_symbol
_atom_site_label
_atom_site_fract_x
_atom_site_fract_y
_atom_site_fract_z
Si Si1 0.961400 0.091743 0.660529
Si Si2 0.543720 0.048635 0.302236
Si Si3 0.043960 0.818200 0.196138
Si Si4 0.455972 0.087750 0.941890
Si Si5 0.041397 0.929597 0.519307
Si Si6 0.959447 0.455889 0.119103
O O1 0.750000 0.090908 0.661359
O O2 0.025583 0.140167 0.728187
O O3 0.019112 0.104221 0.564745
O O4 0.019488 0.023964 0.685988
O O5 0.750000 0.060674 0.301124
O O6 0.472639 0.080415 0.386566
O O7 0.474185 0.063918 0.210155
O O8 0.250000 0.813521 0.210778
O O9 0.972236 0.750000 0.193077
O O10 0.021398 0.855455 0.110635
O O11 0.250000 0.086594 0.932061
O O12 0.525253 0.023949 0.903445
O O13 0.496874 0.085897 0.040153
O O14 0.250000 0.922667 0.522443
O O15 0.000000 0.000000 0.500000
O O16 0.750000 0.459405 0.123754
#
# Coordination Sequence:
#
# PCOD9447489 Si02
#       6
#     8   8   8   8   8   8
#     4   9  16  26  40  59  84 112 143 176 209 250
#     4   9  15  25  41  62  87 113 139 168 212 262
#     4  10  20  32  45  61  85 118 150 180 217 259
#     4  10  19  30  44  63  85 112 147 185 221 261
#     4   8  14  23  37  58  83 110 137 166 203 247
#     4   9  17  28  43  63  88 116 142 174 222 272
#
# _framework density 17.713429000000001
#
# number of rings (size 3 to 8) (size 9 to 14) (size 15 to 20)
#    0.000    2.833    1.667    0.500    0.000    1.667 
#    0.000    0.000    0.000    0.000    0.000    1.167 
#    0.000    6.667    0.000    0.000    0.000    0.167 
#
# Total GULP energy -267233.700166 kJ/mol
# GULP energy per Si atom -5567.368753 kJ/mol
# Density = 1.767311 g / cm^3
# Si number density = 17.713429 Si / 1000 Ang^3
#
#
#
# Elastic Constant Matrix: (Units=GPa)
#
#
# Indices 1 2 3 4 5 6 
#
# 1 27.7708 -7.4399 -3.9602 0.0000 0.0000 0.0000
# 2 -7.4399 52.0379 47.6467 0.0000 0.0000 0.0000
# 3 -3.9602 47.6467 174.5179 0.0000 0.0000 0.0000
# 4 0.0000 0.0000 0.0000 6.9728 0.0000 0.0000
# 5 0.0000 0.0000 0.0000 0.0000 8.7146 0.0000
# 6 0.0000 0.0000 0.0000 0.0000 0.0000 10.2099
#
#
#
# Elastic Compliance Matrix: (Units=1/GPa)
#
#
# Indices 1 2 3 4 5 6 
#
# 1 0.037530 0.006114 -0.000818 0.000000 0.000000 0.000000
# 2 0.006114 0.026618 -0.007128 0.000000 0.000000 0.000000
# 3 -0.000818 -0.007128 0.007658 0.000000 0.000000 0.000000
# 4 0.000000 0.000000 0.000000 0.143415 0.000000 0.000000
# 5 0.000000 0.000000 0.000000 0.000000 0.114750 0.000000
# 6 0.000000 0.000000 0.000000 0.000000 0.000000 0.097944
#
#
# Mechanical properties :
#
#
# Convention : Reuss Voigt Hill
#
# Bulk Modulus (GPa) = 14.67509 36.31333 25.49421
# Shear Modulus (GPa) = 11.00612 19.71812 15.36212
#
# Velocity S-wave (km/s) = 2.49538 3.34004 2.94812
# Velocity P-wave (km/s) = 4.07496 5.95143 5.10023
#
# Compressibility (1/GPa) = 0.06814267
#
# Stress axis : x y z
#
# Youngs Moduli (GPa) = 26.64500 37.56878 130.58727
#
# Poissons Ratio (x) = -0.22971 0.10678
# Poissons Ratio (y) = -0.16292 0.93088
# Poissons Ratio (z) = 0.02179 0.26781
#
# Static dielectric constant tensor:
#      x y z
#    x 1.642910 0.000000 0.000000 
#    y 0.000000 1.563390 0.000000 
#    z 0.000000 0.000000 1.682330 
# 
# From -- ./inp_files/20712.got.cif
#   From: 2010.05.17/outbox.cif.g08.bks.cpg/sg59_11_cif.got.tgz:20712.got - 2010.06.03 14:40:33.
