data_PCOD9447403
_publ_section_title
;
Structure prediction by ZEFSAII (Michael W. Deem and Ramdas Pophale) SiO2 
 PCOD9447403
Probable space group: P M M N
;
_chemical_formula_sum "Si O2"
_cell_formula_units_Z 56
_cell_length_a 24.065299
_cell_length_b 7.927389
_cell_length_c 15.245948
_cell_angle_alpha 90.000000
_cell_angle_beta 90.000000
_cell_angle_gamma 90.000000
_cell_volume 2908.545525
_symmetry_space_group_name_H-M "P M M N"
_symmetry_group_IT_number 59
_space_group.IT_coordinate_system_code '2'
_symmetry_cell_setting 'orthorhombic'
loop_
_space_group_symop_operation_xyz
x,y,z
1/2-x,1/2-y,z
1/2+x,-y,-z
-x,1/2+y,-z
-x,-y,-z
1/2+x,1/2+y,-z
1/2-x,y,z
x,1/2-y,z
loop_
_atom_site_type_symbol
_atom_site_label
_atom_site_fract_x
_atom_site_fract_y
_atom_site_fract_z
Si Si1 0.988160 0.554384 0.394091
Si Si2 0.687737 0.453326 0.335132
Si Si3 0.423340 0.957391 0.257163
Si Si4 0.087238 0.552383 0.764986
Si Si5 0.384753 0.447937 0.499065
Si Si6 0.186821 0.550542 0.332675
Si Si7 0.496243 0.049389 0.899235
O O1 0.997489 0.750000 0.413988
O O2 0.947610 0.546922 0.308261
O O3 0.946687 0.484938 0.471379
O O4 0.043418 0.482524 0.345475
O O5 0.750000 0.516833 0.332008
O O6 0.689112 0.250000 0.347479
O O7 0.651526 0.487844 0.248804
O O8 0.653333 0.528300 0.415243
O O9 0.424614 0.750000 0.260351
O O10 0.359317 0.013975 0.263390
O O11 0.456086 0.011943 0.169588
O O12 0.079215 0.750000 0.744190
O O13 0.061184 0.514914 0.858119
O O14 0.390919 0.250000 0.480839
O O15 0.347249 0.529559 0.423386
O O16 0.250000 0.480282 0.334626
O O17 0.192373 0.750000 0.317475
O O18 0.497513 0.250000 0.893781
O O19 0.500000 0.000000 0.000000
#
# Coordination Sequence:
#
# PCOD9447403 Si02
#       7
#     8   8   8   8   8   8   8
#     4   8  15  29  46  64  91 124 155 192 238 282
#     4   9  17  29  45  65  92 128 165 196 227 268
#     4   8  16  32  51  69  91 120 152 188 233 282
#     4   9  16  27  45  70  97 121 149 187 229 272
#     4  10  19  29  43  66  94 125 163 203 239 272
#     4  10  20  33  48  65  89 125 166 200 228 265
#     4  10  19  33  54  76  96 116 142 182 234 292
#
# _framework density 19.253609999999998
#
# number of rings (size 3 to 8) (size 9 to 14) (size 15 to 20)
#    0.000    2.857    0.000    2.571    0.000    4.000 
#    0.000    3.571    0.000    0.857    0.000    4.000 
#    0.000    0.000    0.000    0.000    0.000    0.000 
#
# Total GULP energy -311894.436876 kJ/mol
# GULP energy per Si atom -5569.543516 kJ/mol
# Density = 1.920979 g / cm^3
# Si number density = 19.253610 Si / 1000 Ang^3
#
#
#
# Elastic Constant Matrix: (Units=GPa)
#
#
# Indices 1 2 3 4 5 6 
#
# 1 176.7719 23.3010 40.9685 0.0000 0.0000 0.0000
# 2 23.3010 36.7236 14.7940 0.0000 0.0000 0.0000
# 3 40.9685 14.7940 86.4840 0.0000 0.0000 0.0000
# 4 0.0000 0.0000 0.0000 22.0266 0.0000 0.0000
# 5 0.0000 0.0000 0.0000 0.0000 16.1714 0.0000
# 6 0.0000 0.0000 0.0000 0.0000 0.0000 19.1540
#
#
#
# Elastic Compliance Matrix: (Units=1/GPa)
#
#
# Indices 1 2 3 4 5 6 
#
# 1 0.006684 -0.003185 -0.002622 0.000000 0.000000 0.000000
# 2 -0.003185 0.030764 -0.003754 0.000000 0.000000 0.000000
# 3 -0.002622 -0.003754 0.013447 0.000000 0.000000 0.000000
# 4 0.000000 0.000000 0.000000 0.045400 0.000000 0.000000
# 5 0.000000 0.000000 0.000000 0.000000 0.061838 0.000000
# 6 0.000000 0.000000 0.000000 0.000000 0.000000 0.052208
#
#
# Mechanical properties :
#
#
# Convention : Reuss Voigt Hill
#
# Bulk Modulus (GPa) = 31.47225 50.90075 41.18650
# Shear Modulus (GPa) = 20.82878 26.19814 23.51346
#
# Velocity S-wave (km/s) = 3.29266 3.69275 3.49843
# Velocity P-wave (km/s) = 5.55312 6.68403 6.14465
#
# Compressibility (1/GPa) = 0.03177402
#
# Stress axis : x y z
#
# Youngs Moduli (GPa) = 149.60104 32.50605 74.36697
#
# Poissons Ratio (x) = 0.10354 0.19496
# Poissons Ratio (y) = 0.47650 0.27914
# Poissons Ratio (z) = 0.39220 0.12201
#
# Static dielectric constant tensor:
#      x y z
#    x 1.744050 0.000000 0.000000 
#    y 0.000000 1.721000 0.000000 
#    z 0.000000 0.000000 1.684450 
# 
# From -- ./inp_files/28357.got.cif
#   From: 2010.05.17/outbox.cif.g08.bks.cpg/sg59_15_cif.got.tgz:28357.got - 2010.06.03 14:40:33.
