data_PCOD9447123
_publ_section_title
;
Structure prediction by ZEFSAII (Michael W. Deem and Ramdas Pophale) SiO2 
 PCOD9447123
Probable space group: P M M N
;
_chemical_formula_sum "Si O2"
_cell_formula_units_Z 56
_cell_length_a 20.206547
_cell_length_b 17.055940
_cell_length_c 9.398649
_cell_angle_alpha 90.000000
_cell_angle_beta 90.000000
_cell_angle_gamma 90.000000
_cell_volume 3239.165930
_symmetry_space_group_name_H-M "P M M N"
_symmetry_group_IT_number 59
_space_group.IT_coordinate_system_code '2'
_symmetry_cell_setting 'orthorhombic'
loop_
_space_group_symop_operation_xyz
x,y,z
1/2-x,1/2-y,z
1/2+x,-y,-z
-x,1/2+y,-z
-x,-y,-z
1/2+x,1/2+y,-z
1/2-x,y,z
x,1/2-y,z
loop_
_atom_site_type_symbol
_atom_site_label
_atom_site_fract_x
_atom_site_fract_y
_atom_site_fract_z
Si Si1 0.173140 0.439987 0.532637
Si Si2 0.577571 0.951680 0.735345
Si Si3 0.489858 0.576078 0.102447
Si Si4 0.381375 0.340248 0.777713
Si Si5 0.458336 0.658570 0.820027
Si Si6 0.676749 0.567138 0.987884
Si Si7 0.674669 0.069217 0.220272
O O1 0.250000 0.432137 0.487608
O O2 0.121463 0.448316 0.405135
O O3 0.150284 0.367336 0.630082
O O4 0.169598 0.513751 0.641059
O O5 0.512292 0.896546 0.739400
O O6 0.623107 0.923923 0.866332
O O7 0.557235 0.040679 0.776290
O O8 0.555564 0.606650 0.179310
O O9 0.500000 0.500000 0.000000
O O10 0.466156 0.640627 0.989466
O O11 0.399639 0.250000 0.777544
O O12 0.329723 0.361764 0.901674
O O13 0.469557 0.750000 0.791592
O O14 0.384565 0.630785 0.780115
O O15 0.750000 0.562521 0.926525
O O16 0.665927 0.489108 0.084271
O O17 0.750000 0.100446 0.213982
#
# Coordination Sequence:
#
# PCOD9447123 Si02
#       7
#     8   8   8   8   8   8   8
#     4  10  22  38  56  80 112 150 190 231 272 323
#     4  11  20  35  57  83 110 143 185 235 279 321
#     4  10  18  34  57  80 108 139 183 238 277 313
#     4  11  21  35  54  79 112 150 185 221 274 338
#     4  11  21  34  56  86 116 143 178 235 291 333
#     4  10  18  32  55  79 104 142 191 230 267 321
#     4   9  19  37  58  81 107 144 190 229 272 335
#
# _framework density 17.288402000000001
#
# number of rings (size 3 to 8) (size 9 to 14) (size 15 to 20)
#    0.000    1.714    4.286    4.714    0.000    4.286 
#    0.000    0.000    0.000    3.429    0.000    0.000 
#    0.000    0.000    0.000    0.000    0.000    0.000 
#
# Total GULP energy -312164.150623 kJ/mol
# GULP energy per Si atom -5574.359833 kJ/mol
# Density = 1.724905 g / cm^3
# Si number density = 17.288402 Si / 1000 Ang^3
#
#
#
# Elastic Constant Matrix: (Units=GPa)
#
#
# Indices 1 2 3 4 5 6 
#
# 1 124.7771 27.5386 35.1150 0.0000 0.0000 0.0000
# 2 27.5386 48.7876 5.6041 0.0000 0.0000 0.0000
# 3 35.1150 5.6041 45.3715 0.0000 0.0000 0.0000
# 4 0.0000 0.0000 0.0000 7.5142 0.0000 0.0000
# 5 0.0000 0.0000 0.0000 0.0000 31.1111 0.0000
# 6 0.0000 0.0000 0.0000 0.0000 0.0000 13.6692
#
#
#
# Elastic Compliance Matrix: (Units=1/GPa)
#
#
# Indices 1 2 3 4 5 6 
#
# 1 0.011573 -0.005583 -0.008267 0.000000 0.000000 0.000000
# 2 -0.005583 0.023485 0.001420 0.000000 0.000000 0.000000
# 3 -0.008267 0.001420 0.028263 0.000000 0.000000 0.000000
# 4 0.000000 0.000000 0.000000 0.133082 0.000000 0.000000
# 5 0.000000 0.000000 0.000000 0.000000 0.032143 0.000000
# 6 0.000000 0.000000 0.000000 0.000000 0.000000 0.073157
#
#
# Mechanical properties :
#
#
# Convention : Reuss Voigt Hill
#
# Bulk Modulus (GPa) = 26.00017 39.49462 32.74740
# Shear Modulus (GPa) = 14.73257 20.50413 17.61835
#
# Velocity S-wave (km/s) = 2.92235 3.44758 3.19577
# Velocity P-wave (km/s) = 5.14379 6.22430 5.70966
#
# Compressibility (1/GPa) = 0.03846129
#
# Stress axis : x y z
#
# Youngs Moduli (GPa) = 86.40761 42.58003 35.38152
#
# Poissons Ratio (x) = 0.23772 0.29251
# Poissons Ratio (y) = 0.48240 -0.05024
# Poissons Ratio (z) = 0.71436 -0.06047
#
# Static dielectric constant tensor:
#      x y z
#    x 1.632990 0.000000 0.000000 
#    y 0.000000 1.578860 0.000000 
#    z 0.000000 0.000000 1.592930 
# 
# From -- ./inp_files/11559.got.cif
#   From: 2010.05.17/outbox.cif.g08.bks.cpg/sg59_6_cif.got.tgz:11559.got - 2010.06.03 14:40:33.
