data_PCOD9447112
_publ_section_title
;
Structure prediction by ZEFSAII (Michael W. Deem and Ramdas Pophale) SiO2 
 PCOD9447112
Probable space group: P M M N
;
_chemical_formula_sum "Si O2"
_cell_formula_units_Z 64
_cell_length_a 17.736373
_cell_length_b 15.782762
_cell_length_c 10.983957
_cell_angle_alpha 90.000000
_cell_angle_beta 90.000000
_cell_angle_gamma 90.000000
_cell_volume 3074.727592
_symmetry_space_group_name_H-M "P M M N"
_symmetry_group_IT_number 59
_space_group.IT_coordinate_system_code '2'
_symmetry_cell_setting 'orthorhombic'
loop_
_space_group_symop_operation_xyz
x,y,z
1/2-x,1/2-y,z
1/2+x,-y,-z
-x,1/2+y,-z
-x,-y,-z
1/2+x,1/2+y,-z
1/2-x,y,z
x,1/2-y,z
loop_
_atom_site_type_symbol
_atom_site_label
_atom_site_fract_x
_atom_site_fract_y
_atom_site_fract_z
Si Si1 0.577838 0.846494 0.794695
Si Si2 0.661649 0.451757 0.316493
Si Si3 0.951131 0.918645 0.044076
Si Si4 0.069559 0.439360 0.544246
Si Si5 0.917941 0.149358 0.817562
Si Si6 0.338600 0.003341 0.316802
Si Si7 0.960681 0.345078 0.419807
Si Si8 0.662361 0.060552 0.044317
O O1 0.602572 0.750000 0.767021
O O2 0.509831 0.868054 0.700994
O O3 0.637984 0.921801 0.776717
O O4 0.550451 0.853559 0.932498
O O5 0.750000 0.464473 0.339019
O O6 0.610844 0.536340 0.331944
O O7 0.617064 0.396194 0.415758
O O8 0.653528 0.409449 0.184183
O O9 0.995429 0.876060 0.155109
O O10 0.870986 0.965246 0.054181
O O11 0.000000 0.000000 0.000000
O O12 0.133485 0.454490 0.442707
O O13 0.000000 0.500000 0.500000
O O14 0.022207 0.354196 0.527733
O O15 0.908205 0.250000 0.793967
O O16 0.883261 0.082706 0.719697
O O17 0.876997 0.120036 0.944298
O O18 0.250000 0.987004 0.316459
O O19 0.937310 0.250000 0.409677
O O20 0.750000 0.057251 0.013518
#
# Coordination Sequence:
#
# PCOD9447112 Si02
#       8
#     8   8   8   8   8   8   8   8
#     4  10  19  33  56  84 114 150 193 242 291 342
#     4  10  20  34  56  84 111 149 191 232 283 343
#     4  10  18  32  54  79 114 152 194 234 280 341
#     4   9  20  37  61  80 109 149 196 235 284 344
#     4  11  23  37  59  89 121 161 200 239 291 354
#     4  11  22  37  58  87 121 153 188 244 305 357
#     4   9  18  33  55  84 111 140 183 238 291 340
#     4  10  21  35  57  85 117 155 195 240 290 343
#
# _framework density 20.814852999999999
#
# number of rings (size 3 to 8) (size 9 to 14) (size 15 to 20)
#    0.000    2.000    2.500    2.625    3.500    3.000 
#    0.000    3.750    0.000    5.250    0.000    3.500 
#    0.000    0.000    0.000    0.000    0.000    0.000 
#
# Total GULP energy -356318.539610 kJ/mol
# GULP energy per Si atom -5567.477181 kJ/mol
# Density = 2.076748 g / cm^3
# Si number density = 20.814853 Si / 1000 Ang^3
#
#
#
# Elastic Constant Matrix: (Units=GPa)
#
#
# Indices 1 2 3 4 5 6 
#
# 1 76.3517 32.4166 8.2200 0.0000 0.0000 0.0000
# 2 32.4166 84.3381 5.8777 0.0000 0.0000 0.0000
# 3 8.2200 5.8777 48.0337 0.0000 0.0000 0.0000
# 4 0.0000 0.0000 0.0000 18.5975 0.0000 0.0000
# 5 0.0000 0.0000 0.0000 0.0000 26.1816 0.0000
# 6 0.0000 0.0000 0.0000 0.0000 0.0000 16.4934
#
#
#
# Elastic Compliance Matrix: (Units=1/GPa)
#
#
# Indices 1 2 3 4 5 6 
#
# 1 0.015836 -0.005949 -0.001982 0.000000 0.000000 0.000000
# 2 -0.005949 0.014194 -0.000719 0.000000 0.000000 0.000000
# 3 -0.001982 -0.000719 0.021246 0.000000 0.000000 0.000000
# 4 0.000000 0.000000 0.000000 0.053771 0.000000 0.000000
# 5 0.000000 0.000000 0.000000 0.000000 0.038195 0.000000
# 6 0.000000 0.000000 0.000000 0.000000 0.000000 0.060630
#
#
# Mechanical properties :
#
#
# Convention : Reuss Voigt Hill
#
# Bulk Modulus (GPa) = 29.43220 33.52800 31.48010
# Shear Modulus (GPa) = 21.50569 23.06844 22.28707
#
# Velocity S-wave (km/s) = 3.21781 3.33268 3.27575
# Velocity P-wave (km/s) = 5.28928 5.56342 5.42808
#
# Compressibility (1/GPa) = 0.03397640
#
# Stress axis : x y z
#
# Youngs Moduli (GPa) = 63.14583 70.45409 47.06797
#
# Poissons Ratio (x) = 0.41912 0.09329
# Poissons Ratio (y) = 0.37564 0.03383
# Poissons Ratio (z) = 0.12516 0.05064
#
# Static dielectric constant tensor:
#      x y z
#    x 1.752430 0.000000 0.000000 
#    y 0.000000 -2.973500 0.000000 
#    z 0.000000 0.000000 1.887910 
# 
# From -- ./inp_files/17868.got.cif
#   From: 2010.05.17/outbox.cif.g08.bks.cpg/sg59_9_cif.got.tgz:17868.got - 2010.06.03 14:40:33.
