data_PCOD9447824
_publ_section_title
;
Structure prediction by ZEFSAII (Michael W. Deem and Ramdas Pophale) SiO2 
 PCOD9447824
Probable space group: P M M N
;
_chemical_formula_sum "Si O2"
_cell_formula_units_Z 64
_cell_length_a 20.366137
_cell_length_b 9.973573
_cell_length_c 17.692175
_cell_angle_alpha 90.000000
_cell_angle_beta 90.000000
_cell_angle_gamma 90.000000
_cell_volume 3593.690389
_symmetry_space_group_name_H-M "P M M N"
_symmetry_group_IT_number 59
_space_group.IT_coordinate_system_code '2'
_symmetry_cell_setting 'orthorhombic'
loop_
_space_group_symop_operation_xyz
x,y,z
1/2-x,1/2-y,z
1/2+x,-y,-z
-x,1/2+y,-z
-x,-y,-z
1/2+x,1/2+y,-z
1/2-x,y,z
x,1/2-y,z
loop_
_atom_site_type_symbol
_atom_site_label
_atom_site_fract_x
_atom_site_fract_y
_atom_site_fract_z
Si Si1 0.824726 0.608176 0.941368
Si Si2 0.436482 0.906230 0.488366
Si Si3 0.063624 0.907862 0.310337
Si Si4 0.325845 0.403209 0.240902
Si Si5 0.011146 0.604171 0.883217
Si Si6 0.325824 0.587996 0.608895
Si Si7 0.576430 0.396766 0.952982
Si Si8 0.563250 0.408610 0.274153
O O1 0.750000 0.609690 0.965073
O O2 0.856287 0.750000 0.964381
O O3 0.826036 0.598873 0.850461
O O4 0.860610 0.481778 0.973488
O O5 0.451465 0.750000 0.508773
O O6 0.420970 0.909271 0.399704
O O7 0.373996 0.950082 0.539143
O O8 0.500000 0.000000 0.500000
O O9 0.057160 0.750000 0.287798
O O10 0.122378 0.988371 0.269763
O O11 0.996588 0.994044 0.298305
O O12 0.250000 0.431003 0.263768
O O13 0.342370 0.250000 0.265391
O O14 0.980099 0.750000 0.865301
O O15 0.063690 0.582569 0.817167
O O16 0.961537 0.481442 0.889498
O O17 0.037581 0.612228 0.968325
O O18 0.250000 0.538045 0.607268
O O19 0.321318 0.750000 0.606751
O O20 0.369426 0.554177 0.683213
O O21 0.591339 0.250000 0.924622
O O22 0.549899 0.250000 0.292520
#
# Coordination Sequence:
#
# PCOD9447824 Si02
#       8
#     8   8   8   8   8   8   8   8
#     4   9  18  33  51  69  94 132 174 210 248 303
#     4  10  20  35  55  79 106 137 173 213 255 308
#     4  11  22  32  50  81 111 137 167 214 266 311
#     4   9  19  35  52  72 102 141 181 217 255 308
#     4   9  19  33  49  72 101 132 168 209 257 309
#     4   9  18  34  57  81 102 132 176 219 258 303
#     4  10  19  31  48  73 102 130 166 213 262 307
#     4  10  19  34  56  77 100 137 179 217 257 311
#
# _framework density 17.808990999999999
#
# number of rings (size 3 to 8) (size 9 to 14) (size 15 to 20)
#    0.000    2.375    1.250    2.250    0.000    6.000 
#    0.000    3.125    0.000    3.750    0.000    0.000 
#    0.000    0.000    0.000    0.000    0.000    0.000 
#
# Total GULP energy -356286.681422 kJ/mol
# GULP energy per Si atom -5566.979397 kJ/mol
# Density = 1.776846 g / cm^3
# Si number density = 17.808991 Si / 1000 Ang^3
#
#
#
# Elastic Constant Matrix: (Units=GPa)
#
#
# Indices 1 2 3 4 5 6 
#
# 1 114.7024 55.6326 13.4329 0.0000 0.0000 0.0000
# 2 55.6326 120.3701 12.4493 0.0000 0.0000 0.0000
# 3 13.4329 12.4493 42.1220 0.0000 0.0000 0.0000
# 4 0.0000 0.0000 0.0000 13.0993 0.0000 0.0000
# 5 0.0000 0.0000 0.0000 0.0000 18.9852 0.0000
# 6 0.0000 0.0000 0.0000 0.0000 0.0000 249.9876
#
#
#
# Elastic Compliance Matrix: (Units=1/GPa)
#
#
# Indices 1 2 3 4 5 6 
#
# 1 0.011423 -0.005057 -0.002148 0.000000 0.000000 0.000000
# 2 -0.005057 0.010809 -0.001582 0.000000 0.000000 0.000000
# 3 -0.002148 -0.001582 0.024893 0.000000 0.000000 0.000000
# 4 0.000000 0.000000 0.000000 0.076340 0.000000 0.000000
# 5 0.000000 0.000000 0.000000 0.000000 0.052673 0.000000
# 6 0.000000 0.000000 0.000000 0.000000 0.000000 0.004000
#
#
# Mechanical properties :
#
#
# Convention : Reuss Voigt Hill
#
# Bulk Modulus (GPa) = 33.84053 48.91378 41.37716
# Shear Modulus (GPa) = 24.08931 69.45974 46.77453
#
# Velocity S-wave (km/s) = 3.68183 6.25198 5.13046
# Velocity P-wave (km/s) = 6.09243 8.92423 7.64066
#
# Compressibility (1/GPa) = 0.02955036
#
# Stress axis : x y z
#
# Youngs Moduli (GPa) = 87.54608 92.51895 40.17175
#
# Poissons Ratio (x) = 0.46788 0.08629
# Poissons Ratio (y) = 0.44273 0.06354
# Poissons Ratio (z) = 0.18805 0.14635
#
# Static dielectric constant tensor:
#      x y z
#    x 1.629080 0.000000 0.000000 
#    y 0.000000 1.659030 0.000000 
#    z 0.000000 0.000000 1.626720 
# 
# From -- ./inp_files/28161.got.cif
#   From: 2010.05.17/outbox.cif.g08.bks.cpg/sg59_15_cif.got.tgz:28161.got - 2010.06.03 14:40:33.
