data_PCOD9447379
_publ_section_title
;
Structure prediction by ZEFSAII (Michael W. Deem and Ramdas Pophale) SiO2 
 PCOD9447379
Probable space group: P M M N
;
_chemical_formula_sum "Si O2"
_cell_formula_units_Z 64
_cell_length_a 25.387844
_cell_length_b 9.037660
_cell_length_c 18.831773
_cell_angle_alpha 90.000000
_cell_angle_beta 90.000000
_cell_angle_gamma 90.000000
_cell_volume 4320.888212
_symmetry_space_group_name_H-M "P M M N"
_symmetry_group_IT_number 59
_space_group.IT_coordinate_system_code '2'
_symmetry_cell_setting 'orthorhombic'
loop_
_space_group_symop_operation_xyz
x,y,z
1/2-x,1/2-y,z
1/2+x,-y,-z
-x,1/2+y,-z
-x,-y,-z
1/2+x,1/2+y,-z
1/2-x,y,z
x,1/2-y,z
loop_
_atom_site_type_symbol
_atom_site_label
_atom_site_fract_x
_atom_site_fract_y
_atom_site_fract_z
Si Si1 0.989448 0.572987 0.112155
Si Si2 0.189698 0.426509 0.053273
Si Si3 0.311610 0.079883 0.222205
Si Si4 0.502907 0.073489 0.264360
Si Si5 0.923029 0.079374 0.533672
Si Si6 0.041550 0.079615 0.599863
Si Si7 0.416732 0.573316 0.006808
Si Si8 0.395064 0.925855 0.315517
O O1 0.983901 0.750000 0.117867
O O2 0.984120 0.497348 0.188428
O O3 0.046835 0.542588 0.076445
O O4 0.946791 0.506909 0.057631
O O5 0.250000 0.469789 0.034278
O O6 0.184799 0.250000 0.040273
O O7 0.183535 0.448598 0.138090
O O8 0.142109 0.512595 0.016565
O O9 0.250000 0.069522 0.239641
O O10 0.328853 0.250000 0.235027
O O11 0.345732 0.969300 0.268289
O O12 0.503612 0.250000 0.260945
O O13 0.539843 0.015431 0.328431
O O14 0.444928 0.014117 0.285068
O O15 0.912779 0.250000 0.515033
O O16 0.888022 0.034813 0.601290
O O17 0.982320 0.072873 0.566632
O O18 0.922104 0.982352 0.463109
O O19 0.052865 0.250000 0.616102
O O20 0.416794 0.750000 0.996131
O O21 0.406319 0.750000 0.312501
#
# Coordination Sequence:
#
# PCOD9447379 Si02
#       8
#     8   8   8   8   8   8   8   8
#     4  10  20  33  47  64  89 119 150 184 222 268
#     4   9  18  32  48  65  87 117 150 184 224 266
#     4   9  18  31  45  62  85 113 146 183 220 257
#     4  11  20  29  43  62  86 115 146 179 216 258
#     4   8  15  26  38  55  80 109 140 172 206 244
#     4   9  16  26  40  58  81 108 139 173 207 245
#     4  10  20  32  47  67  89 115 148 185 225 267
#     4  10  19  29  42  61  85 114 148 182 216 258
#
# _framework density 14.811769
#
# number of rings (size 3 to 8) (size 9 to 14) (size 15 to 20)
#    0.000    2.500    0.000    4.875    0.000    8.000 
#    0.000    1.250    0.000    0.000    0.000    0.000 
#    0.000    1.000    0.000    7.250    0.000    6.125 
#
# Total GULP energy -356678.966411 kJ/mol
# GULP energy per Si atom -5573.108850 kJ/mol
# Density = 1.477806 g / cm^3
# Si number density = 14.811769 Si / 1000 Ang^3
#
#
#
# Elastic Constant Matrix: (Units=GPa)
#
#
# Indices 1 2 3 4 5 6 
#
# 1 59.9690 36.3968 30.7352 0.0000 0.0000 0.0000
# 2 36.3968 90.4144 60.8353 0.0000 0.0000 0.0000
# 3 30.7352 60.8353 93.5282 0.0000 0.0000 0.0000
# 4 0.0000 0.0000 0.0000 28.5339 0.0000 0.0000
# 5 0.0000 0.0000 0.0000 0.0000 14.4520 0.0000
# 6 0.0000 0.0000 0.0000 0.0000 0.0000 21.3036
#
#
#
# Elastic Compliance Matrix: (Units=1/GPa)
#
#
# Indices 1 2 3 4 5 6 
#
# 1 0.022434 -0.007238 -0.002664 0.000000 0.000000 0.000000
# 2 -0.007238 0.022003 -0.011933 0.000000 0.000000 0.000000
# 3 -0.002664 -0.011933 0.019330 0.000000 0.000000 0.000000
# 4 0.000000 0.000000 0.000000 0.035046 0.000000 0.000000
# 5 0.000000 0.000000 0.000000 0.000000 0.069195 0.000000
# 6 0.000000 0.000000 0.000000 0.000000 0.000000 0.046940
#
#
# Mechanical properties :
#
#
# Convention : Reuss Voigt Hill
#
# Bulk Modulus (GPa) = 49.76334 55.53847 52.65091
# Shear Modulus (GPa) = 18.84532 20.58752 19.71642
#
# Velocity S-wave (km/s) = 3.57083 3.73224 3.65243
# Velocity P-wave (km/s) = 7.11837 7.49336 7.30827
#
# Compressibility (1/GPa) = 0.02009511
#
# Stress axis : x y z
#
# Youngs Moduli (GPa) = 44.57569 45.44744 51.73438
#
# Poissons Ratio (x) = 0.32896 0.13782
# Poissons Ratio (y) = 0.32265 0.61737
# Poissons Ratio (z) = 0.11875 0.54235
#
# Static dielectric constant tensor:
#      x y z
#    x 1.478130 0.000000 0.000000 
#    y 0.000000 1.497550 0.000000 
#    z 0.000000 0.000000 1.492050 
# 
# From -- ./inp_files/28448.got.cif
#   From: 2010.05.17/outbox.cif.g08.bks.cpg/sg59_15_cif.got.tgz:28448.got - 2010.06.03 14:40:33.
