data_PCOD9447637
_publ_section_title
;
Structure prediction by ZEFSAII (Michael W. Deem and Ramdas Pophale) SiO2 
 PCOD9447637
Probable space group: P M M N
;
_chemical_formula_sum "Si O2"
_cell_formula_units_Z 64
_cell_length_a 8.998724
_cell_length_b 23.711356
_cell_length_c 19.535109
_cell_angle_alpha 90.000000
_cell_angle_beta 90.000000
_cell_angle_gamma 90.000000
_cell_volume 4168.244268
_symmetry_space_group_name_H-M "P M M N"
_symmetry_group_IT_number 59
_space_group.IT_coordinate_system_code '2'
_symmetry_cell_setting 'orthorhombic'
loop_
_space_group_symop_operation_xyz
x,y,z
1/2-x,1/2-y,z
1/2+x,-y,-z
-x,1/2+y,-z
-x,-y,-z
1/2+x,1/2+y,-z
1/2-x,y,z
x,1/2-y,z
loop_
_atom_site_type_symbol
_atom_site_label
_atom_site_fract_x
_atom_site_fract_y
_atom_site_fract_z
Si Si1 0.926977 0.974503 0.894618
Si Si2 0.427980 0.684561 0.116995
Si Si3 0.428166 0.134935 0.746858
Si Si4 0.927778 0.474349 0.398564
Si Si5 0.426775 0.089865 0.519670
Si Si6 0.071465 0.001944 0.753558
Si Si7 0.427748 0.914280 0.016897
Si Si8 0.927772 0.315967 0.609306
O O1 0.750000 0.970300 0.890927
O O2 0.964649 0.034619 0.930720
O O3 0.996419 0.974696 0.819532
O O4 0.991889 0.927822 0.945951
O O5 0.250000 0.677904 0.128394
O O6 0.457897 0.750000 0.103054
O O7 0.511976 0.664616 0.184939
O O8 0.468763 0.643634 0.054318
O O9 0.250000 0.139602 0.741963
O O10 0.466661 0.068501 0.750416
O O11 0.501657 0.162877 0.680481
O O12 0.750000 0.465477 0.403778
O O13 0.957329 0.536801 0.429504
O O14 0.971039 0.474691 0.319097
O O15 0.011653 0.430088 0.446468
O O16 0.250000 0.098075 0.517819
O O17 0.506276 0.144451 0.550144
O O18 0.250000 0.998293 0.760039
O O19 0.250000 0.915459 0.006114
O O20 0.750000 0.322316 0.612402
O O21 0.962326 0.250000 0.599140
#
# Coordination Sequence:
#
# PCOD9447637 Si02
#       8
#     8   8   8   8   8   8   8   8
#     4  10  19  30  48  71  94 124 161 201 245 290
#     4  10  20  34  50  69  96 131 169 203 239 287
#     4  11  21  33  48  70 100 133 170 205 239 282
#     4   9  18  33  50  71  99 130 161 197 246 298
#     4  10  19  33  51  74  98 126 164 206 248 289
#     4  10  19  32  49  71 100 132 162 196 240 292
#     4   9  18  32  47  67  94 127 161 199 244 288
#     4  11  23  36  50  69  97 136 175 207 242 286
#
# _framework density 15.354187
#
# number of rings (size 3 to 8) (size 9 to 14) (size 15 to 20)
#    0.000    2.000    2.500    1.875    0.000    5.250 
#    0.000    0.000    0.000    0.000    0.000    0.875 
#    0.000    3.000    0.000    0.000    0.000    0.000 
#
# Total GULP energy -357182.677270 kJ/mol
# GULP energy per Si atom -5580.979332 kJ/mol
# Density = 1.531924 g / cm^3
# Si number density = 15.354187 Si / 1000 Ang^3
#
#
#
# Elastic Constant Matrix: (Units=GPa)
#
#
# Indices 1 2 3 4 5 6 
#
# 1 40.8572 46.6618 56.2827 0.0000 0.0000 0.0000
# 2 46.6618 96.5512 73.1634 0.0000 0.0000 0.0000
# 3 56.2827 73.1634 149.1993 0.0000 0.0000 0.0000
# 4 0.0000 0.0000 0.0000 16.9580 0.0000 0.0000
# 5 0.0000 0.0000 0.0000 0.0000 25.6467 0.0000
# 6 0.0000 0.0000 0.0000 0.0000 0.0000 20.8592
#
#
#
# Elastic Compliance Matrix: (Units=1/GPa)
#
#
# Indices 1 2 3 4 5 6 
#
# 1 0.073332 -0.023039 -0.016365 0.000000 0.000000 0.000000
# 2 -0.023039 0.023720 -0.002941 0.000000 0.000000 0.000000
# 3 -0.016365 -0.002941 0.014318 0.000000 0.000000 0.000000
# 4 0.000000 0.000000 0.000000 0.058969 0.000000 0.000000
# 5 0.000000 0.000000 0.000000 0.000000 0.038991 0.000000
# 6 0.000000 0.000000 0.000000 0.000000 0.000000 0.047940
#
#
# Mechanical properties :
#
#
# Convention : Reuss Voigt Hill
#
# Bulk Modulus (GPa) = 37.48167 70.98038 54.23103
# Shear Modulus (GPa) = 14.25097 20.05944 17.15521
#
# Velocity S-wave (km/s) = 3.04986 3.61840 3.34623
# Velocity P-wave (km/s) = 6.07178 7.98662 7.09411
#
# Compressibility (1/GPa) = 0.02667971
#
# Stress axis : x y z
#
# Youngs Moduli (GPa) = 13.63669 42.15872 69.84256
#
# Poissons Ratio (x) = 0.97129 1.14299
# Poissons Ratio (y) = 0.31418 0.20538
# Poissons Ratio (z) = 0.22317 0.12397
#
# Static dielectric constant tensor:
#      x y z
#    x 1.508730 0.000000 0.000000 
#    y 0.000000 1.494410 0.000000 
#    z 0.000000 0.000000 1.493900 
# 
# From -- ./inp_files/26481.got.cif
#   From: 2010.05.17/outbox.cif.g08.bks.cpg/sg59_14_cif.got.tgz:26481.got - 2010.06.03 14:40:33.
