data_PCOD9447793
_publ_section_title
;
Structure prediction by ZEFSAII (Michael W. Deem and Ramdas Pophale) SiO2 
 PCOD9447793
Probable space group: P M M N
;
_chemical_formula_sum "Si O2"
_cell_formula_units_Z 40
_cell_length_a 19.003309
_cell_length_b 8.270975
_cell_length_c 13.926903
_cell_angle_alpha 90.000000
_cell_angle_beta 90.000000
_cell_angle_gamma 90.000000
_cell_volume 2188.973425
_symmetry_space_group_name_H-M "P M M N"
_symmetry_group_IT_number 59
_space_group.IT_coordinate_system_code '2'
_symmetry_cell_setting 'orthorhombic'
loop_
_space_group_symop_operation_xyz
x,y,z
1/2-x,1/2-y,z
1/2+x,-y,-z
-x,1/2+y,-z
-x,-y,-z
1/2+x,1/2+y,-z
1/2-x,y,z
x,1/2-y,z
loop_
_atom_site_type_symbol
_atom_site_label
_atom_site_fract_x
_atom_site_fract_y
_atom_site_fract_z
Si Si1 0.171025 0.056635 0.091358
Si Si2 0.607832 0.058256 0.106822
Si Si3 0.170766 0.056941 0.693841
Si Si4 0.035491 0.447461 0.200753
Si Si5 0.467555 0.556480 0.599628
O O1 0.250000 0.991076 0.104254
O O2 0.174432 0.250000 0.104424
O O3 0.110720 0.994363 0.163321
O O4 0.143439 0.023980 0.984063
O O5 0.606768 0.250000 0.090090
O O6 0.527941 0.002568 0.129496
O O7 0.650260 0.022353 0.204448
O O8 0.250000 0.010372 0.666224
O O9 0.168285 0.250000 0.706265
O O10 0.111120 0.006688 0.618552
O O11 0.035735 0.250000 0.200078
O O12 0.013418 0.498507 0.307832
O O13 0.500000 0.500000 0.500000
O O14 0.465769 0.750000 0.601890
#
# Coordination Sequence:
#
# PCOD9447793 Si02
#       5
#     8   8   8   8   8
#     4  10  19  31  48  70  98 132 168 205 243 288
#     4  10  19  31  49  72 101 135 167 204 250 301
#     4  10  20  34  53  78 105 132 167 212 259 306
#     4   8  17  33  50  70  96 129 169 206 244 296
#     4  10  20  36  57  78 102 133 170 212 259 311
#
# _framework density 18.273406999999999
#
# number of rings (size 3 to 8) (size 9 to 14) (size 15 to 20)
#    0.000    2.400    0.000    4.200    0.000    4.400 
#    0.000    6.000    0.000    3.600    0.000    0.000 
#    0.000    0.000    0.000    0.000    0.000    0.000 
#
# Total GULP energy -223189.514666 kJ/mol
# GULP energy per Si atom -5579.737867 kJ/mol
# Density = 1.823182 g / cm^3
# Si number density = 18.273407 Si / 1000 Ang^3
#
#
#
# Elastic Constant Matrix: (Units=GPa)
#
#
# Indices 1 2 3 4 5 6 
#
# 1 194.0027 12.6768 78.6317 0.0000 0.0000 0.0000
# 2 12.6768 13.1122 -6.5801 0.0000 0.0000 0.0000
# 3 78.6317 -6.5801 69.7530 0.0000 0.0000 0.0000
# 4 0.0000 0.0000 0.0000 22.9906 0.0000 0.0000
# 5 0.0000 0.0000 0.0000 0.0000 18.3600 0.0000
# 6 0.0000 0.0000 0.0000 0.0000 0.0000 21.1581
#
#
#
# Elastic Compliance Matrix: (Units=1/GPa)
#
#
# Indices 1 2 3 4 5 6 
#
# 1 0.013692 -0.022025 -0.017512 0.000000 0.000000 0.000000
# 2 -0.022025 0.115486 0.035723 0.000000 0.000000 0.000000
# 3 -0.017512 0.035723 0.037448 0.000000 0.000000 0.000000
# 4 0.000000 0.000000 0.000000 0.043496 0.000000 0.000000
# 5 0.000000 0.000000 0.000000 0.000000 0.054466 0.000000
# 6 0.000000 0.000000 0.000000 0.000000 0.000000 0.047263
#
#
# Mechanical properties :
#
#
# Convention : Reuss Voigt Hill
#
# Bulk Modulus (GPa) = 6.28944 49.59162 27.94053
# Shear Modulus (GPa) = 13.42360 25.31104 19.36732
#
# Velocity S-wave (km/s) = 2.71329 3.72577 3.25909
# Velocity P-wave (km/s) = 3.64214 6.76063 5.43007
#
# Compressibility (1/GPa) = 0.15899673
#
# Stress axis : x y z
#
# Youngs Moduli (GPa) = 73.03699 8.65905 26.70401
#
# Poissons Ratio (x) = 0.19072 0.46765
# Poissons Ratio (y) = 1.60866 -0.95395
# Poissons Ratio (z) = 1.27904 -0.30933
#
# Static dielectric constant tensor:
#      x y z
#    x 1.653150 0.000000 0.000000 
#    y 0.000000 1.641410 0.000000 
#    z 0.000000 0.000000 1.599510 
# 
# From -- ./inp_files/18138.got.cif
#   From: 2010.05.17/outbox.cif.g08.bks.cpg/sg59_10_cif.got.tgz:18138.got - 2010.06.03 14:40:33.
