data_PCOD9447377
_publ_section_title
;
Structure prediction by ZEFSAII (Michael W. Deem and Ramdas Pophale) SiO2 
 PCOD9447377
Probable space group: P M M N
;
_chemical_formula_sum "Si O2"
_cell_formula_units_Z 56
_cell_length_a 25.082368
_cell_length_b 7.536362
_cell_length_c 16.999707
_cell_angle_alpha 90.000000
_cell_angle_beta 90.000000
_cell_angle_gamma 90.000000
_cell_volume 3213.451300
_symmetry_space_group_name_H-M "P M M N"
_symmetry_group_IT_number 59
_space_group.IT_coordinate_system_code '2'
_symmetry_cell_setting 'orthorhombic'
loop_
_space_group_symop_operation_xyz
x,y,z
1/2-x,1/2-y,z
1/2+x,-y,-z
-x,1/2+y,-z
-x,-y,-z
1/2+x,1/2+y,-z
1/2-x,y,z
x,1/2-y,z
loop_
_atom_site_type_symbol
_atom_site_label
_atom_site_fract_x
_atom_site_fract_y
_atom_site_fract_z
Si Si1 0.481418 0.541373 0.695900
Si Si2 0.689871 0.463835 0.919899
Si Si3 0.058408 0.537468 0.536193
Si Si4 0.189528 0.966361 0.259558
Si Si5 0.005756 0.955420 0.868708
Si Si6 0.920761 0.958689 0.991890
Si Si7 0.597197 0.465806 0.624584
O O1 0.467714 0.750000 0.701819
O O2 0.444374 0.466666 0.625380
O O3 0.480885 0.464326 0.783806
O O4 0.541932 0.524655 0.664507
O O5 0.750000 0.524049 0.940452
O O6 0.691040 0.250000 0.919083
O O7 0.677997 0.522893 0.830177
O O8 0.641391 0.517468 0.975403
O O9 0.064806 0.750000 0.541493
O O10 0.097377 0.474262 0.466691
O O11 0.000000 0.500000 0.500000
O O12 0.250000 0.019713 0.278532
O O13 0.188431 0.750000 0.259359
O O14 0.146176 0.027017 0.322192
O O15 0.991566 0.750000 0.853213
O O16 0.955836 0.031603 0.918360
O O17 0.055455 0.961900 0.928336
O O18 0.932451 0.750000 0.997197
O O19 0.596834 0.250000 0.624583
#
# Coordination Sequence:
#
# PCOD9447377 Si02
#       7
#     8   8   8   8   8   8   8
#     4   9  16  26  39  55  78 106 132 158 193 237
#     4   9  17  29  44  60  80 108 137 162 194 240
#     4   8  14  23  35  54  77 100 127 156 187 223
#     4   8  14  24  38  57  79 103 131 158 185 223
#     4   9  18  30  42  57  80 111 139 164 202 250
#     4  10  19  29  42  61  82 103 133 172 208 242
#     4   9  15  23  38  58  79 103 130 161 193 225
#
# _framework density 17.426746000000001
#
# number of rings (size 3 to 8) (size 9 to 14) (size 15 to 20)
#    0.000    3.143    0.000    2.143    0.000    1.429 
#    0.000    0.000    0.000    1.286    0.000    1.000 
#    0.000    5.714    0.000    0.000    0.000    0.143 
#
# Total GULP energy -311797.338776 kJ/mol
# GULP energy per Si atom -5567.809621 kJ/mol
# Density = 1.738708 g / cm^3
# Si number density = 17.426746 Si / 1000 Ang^3
#
#
#
# Elastic Constant Matrix: (Units=GPa)
#
#
# Indices 1 2 3 4 5 6 
#
# 1 72.0713 -11.1587 41.6354 0.0000 0.0000 0.0000
# 2 -11.1587 44.0136 -3.2398 0.0000 0.0000 0.0000
# 3 41.6354 -3.2398 135.8103 0.0000 0.0000 0.0000
# 4 0.0000 0.0000 0.0000 -4.9967 0.0000 0.0000
# 5 0.0000 0.0000 0.0000 0.0000 28.5644 0.0000
# 6 0.0000 0.0000 0.0000 0.0000 0.0000 12.0611
#
#
#
# Elastic Compliance Matrix: (Units=1/GPa)
#
#
# Indices 1 2 3 4 5 6 
#
# 1 0.017558 0.004062 -0.005286 0.000000 0.000000 0.000000
# 2 0.004062 0.023700 -0.000680 0.000000 0.000000 0.000000
# 3 -0.005286 -0.000680 0.008967 0.000000 0.000000 0.000000
# 4 0.000000 0.000000 0.000000 -0.200131 0.000000 0.000000
# 5 0.000000 0.000000 0.000000 0.000000 0.035009 0.000000
# 6 0.000000 0.000000 0.000000 0.000000 0.000000 0.082911
#
#
# Mechanical properties :
#
#
# Convention : Reuss Voigt Hill
#
# Bulk Modulus (GPa) = 21.54325 34.04101 27.79213
# Shear Modulus (GPa) = -393.50284 22.10298 -185.69993
#
# Velocity S-wave (km/s) = -15.04308 3.56523 -10.33400
# Velocity P-wave (km/s) = 17.00990 6.04351 11.24305
#
# Compressibility (1/GPa) = 0.04641825
#
# Stress axis : x y z
#
# Youngs Moduli (GPa) = 56.95520 42.19393 111.51448
#
# Poissons Ratio (x) = -0.17140 0.58944
# Poissons Ratio (y) = -0.23137 0.07583
# Poissons Ratio (z) = 0.30105 0.02869
#
# Static dielectric constant tensor:
#      x y z
#    x 1.570060 0.000000 0.000000 
#    y 0.000000 1.669870 0.000000 
#    z 0.000000 0.000000 1.637830 
# 
# From -- ./inp_files/28378.got.cif
#   From: 2010.05.17/outbox.cif.g08.bks.cpg/sg59_15_cif.got.tgz:28378.got - 2010.06.03 14:40:33.
