data_PCOD9447143
_publ_section_title
;
Structure prediction by ZEFSAII (Michael W. Deem and Ramdas Pophale) SiO2 
 PCOD9447143
Probable space group: P M M N
;
_chemical_formula_sum "Si O2"
_cell_formula_units_Z 64
_cell_length_a 7.493230
_cell_length_b 18.840608
_cell_length_c 20.482665
_cell_angle_alpha 90.000000
_cell_angle_beta 90.000000
_cell_angle_gamma 90.000000
_cell_volume 2891.681383
_symmetry_space_group_name_H-M "P M M N"
_symmetry_group_IT_number 59
_space_group.IT_coordinate_system_code '2'
_symmetry_cell_setting 'orthorhombic'
loop_
_space_group_symop_operation_xyz
x,y,z
1/2-x,1/2-y,z
1/2+x,-y,-z
-x,1/2+y,-z
-x,-y,-z
1/2+x,1/2+y,-z
1/2-x,y,z
x,1/2-y,z
loop_
_atom_site_type_symbol
_atom_site_label
_atom_site_fract_x
_atom_site_fract_y
_atom_site_fract_z
Si Si1 0.955338 0.439497 0.594444
Si Si2 0.466766 0.406934 0.451965
Si Si3 0.032505 0.328620 0.325914
Si Si4 0.468012 0.330905 0.091380
Si Si5 0.543207 0.909518 0.176269
Si Si6 0.035960 0.077863 0.970622
Si Si7 0.533781 0.930708 0.788619
Si Si8 0.042276 0.828993 0.302925
O O1 0.750000 0.454001 0.613979
O O2 0.030334 0.517290 0.577591
O O3 0.037110 0.389990 0.650214
O O4 0.962387 0.399501 0.524986
O O5 0.250000 0.408970 0.456681
O O6 0.517869 0.347887 0.399612
O O7 0.250000 0.328775 0.323595
O O8 0.973552 0.250000 0.306415
O O9 0.974322 0.389469 0.276053
O O10 0.250000 0.330582 0.091803
O O11 0.525902 0.250000 0.101050
O O12 0.522585 0.383549 0.149336
O O13 0.527317 0.364095 0.022723
O O14 0.750000 0.889650 0.171332
O O15 0.466353 0.912247 0.102862
O O16 0.462464 0.856232 0.228765
O O17 0.529640 0.989223 0.204219
O O18 0.250000 0.083862 0.967009
O O19 0.000000 0.000000 0.000000
O O20 0.750000 0.933436 0.788167
O O21 0.250000 0.824130 0.322432
O O22 0.964955 0.750000 0.309311
#
# Coordination Sequence:
#
# PCOD9447143 Si02
#       8
#     8   8   8   8   8   8   8   8
#     4   9  18  34  54  76 103 136 178 226 268 315
#     4   9  17  30  50  76 106 139 175 217 268 322
#     4   9  17  29  48  77 108 136 174 222 266 311
#     4   9  17  30  52  81 106 134 177 224 267 312
#     4  11  23  36  55  82 112 145 178 221 275 326
#     4  10  20  35  55  80 109 142 180 224 268 321
#     4  10  18  32  56  79 103 141 183 224 262 314
#     4  10  22  40  60  81 107 143 188 233 275 324
#
# _framework density 22.132452000000001
#
# number of rings (size 3 to 8) (size 9 to 14) (size 15 to 20)
#    0.000    2.375    1.250    1.500    0.000    5.750 
#    0.000    4.375    0.000    3.375    0.000    0.000 
#    0.000    0.000    0.000    0.000    0.000    0.000 
#
# Total GULP energy -357458.301172 kJ/mol
# GULP energy per Si atom -5585.285956 kJ/mol
# Density = 2.208208 g / cm^3
# Si number density = 22.132452 Si / 1000 Ang^3
#
#
#
# Elastic Constant Matrix: (Units=GPa)
#
#
# Indices 1 2 3 4 5 6 
#
# 1 60.0755 -5.5915 -6.9807 0.0000 0.0000 0.0000
# 2 -5.5915 57.7807 12.5570 0.0000 0.0000 0.0000
# 3 -6.9807 12.5570 94.6065 0.0000 0.0000 0.0000
# 4 0.0000 0.0000 0.0000 17.0045 0.0000 0.0000
# 5 0.0000 0.0000 0.0000 0.0000 11.9923 0.0000
# 6 0.0000 0.0000 0.0000 0.0000 0.0000 0.8622
#
#
#
# Elastic Compliance Matrix: (Units=1/GPa)
#
#
# Indices 1 2 3 4 5 6 
#
# 1 0.016900 0.001405 0.001060 0.000000 0.000000 0.000000
# 2 0.001405 0.017938 -0.002277 0.000000 0.000000 0.000000
# 3 0.001060 -0.002277 0.010951 0.000000 0.000000 0.000000
# 4 0.000000 0.000000 0.000000 0.058808 0.000000 0.000000
# 5 0.000000 0.000000 0.000000 0.000000 0.083387 0.000000
# 6 0.000000 0.000000 0.000000 0.000000 0.000000 1.159796
#
#
# Mechanical properties :
#
#
# Convention : Reuss Voigt Hill
#
# Bulk Modulus (GPa) = 21.66169 23.60361 22.63265
# Shear Modulus (GPa) = 3.66894 20.13700 11.90297
#
# Velocity S-wave (km/s) = 1.28892 3.01963 2.32158
# Velocity P-wave (km/s) = 3.46751 4.77969 4.17547
#
# Compressibility (1/GPa) = 0.04616444
#
# Stress axis : x y z
#
# Youngs Moduli (GPa) = 59.17259 55.74867 91.31928
#
# Poissons Ratio (x) = -0.07832 -0.09684
# Poissons Ratio (y) = -0.08313 0.20795
# Poissons Ratio (z) = -0.06275 0.12695
#
# Static dielectric constant tensor:
#      x y z
#    x 1.890100 0.000000 0.000000 
#    y 0.000000 1.784500 0.000000 
#    z 0.000000 0.000000 1.802910 
# 
# From -- ./inp_files/29542.got.cif
#   From: 2010.05.17/outbox.cif.g08.bks.cpg/sg59_15_cif.got.tgz:29542.got - 2010.06.03 14:40:33.
