data_PCOD9447975
_publ_section_title
;
Structure prediction by ZEFSAII (Michael W. Deem and Ramdas Pophale) SiO2 
 PCOD9447975
Probable space group: P M M N
;
_chemical_formula_sum "Si O2"
_cell_formula_units_Z 48
_cell_length_a 18.841226
_cell_length_b 8.965316
_cell_length_c 16.654053
_cell_angle_alpha 90.000000
_cell_angle_beta 90.000000
_cell_angle_gamma 90.000000
_cell_volume 2813.161746
_symmetry_space_group_name_H-M "P M M N"
_symmetry_group_IT_number 59
_space_group.IT_coordinate_system_code '2'
_symmetry_cell_setting 'orthorhombic'
loop_
_space_group_symop_operation_xyz
x,y,z
1/2-x,1/2-y,z
1/2+x,-y,-z
-x,1/2+y,-z
-x,-y,-z
1/2+x,1/2+y,-z
1/2-x,y,z
x,1/2-y,z
loop_
_atom_site_type_symbol
_atom_site_label
_atom_site_fract_x
_atom_site_fract_y
_atom_site_fract_z
Si Si1 0.458164 0.428350 0.251139
Si Si2 0.833319 0.072664 0.839131
Si Si3 0.668942 0.070244 0.327813
Si Si4 0.405253 0.429248 0.824326
Si Si5 0.333945 0.427083 0.991753
Si Si6 0.529253 0.428458 0.419414
O O1 0.460809 0.250000 0.242823
O O2 0.382726 0.491222 0.224823
O O3 0.518189 0.501944 0.194992
O O4 0.480577 0.466170 0.342281
O O5 0.750000 0.037593 0.828006
O O6 0.842563 0.250000 0.833990
O O7 0.853501 0.015792 0.928134
O O8 0.750000 0.034220 0.349364
O O9 0.663466 0.250000 0.317339
O O10 0.609330 0.026955 0.393255
O O11 0.646706 0.993439 0.244380
O O12 0.407435 0.250000 0.818625
O O13 0.377225 0.469818 0.912559
O O14 0.250000 0.451178 0.976308
O O15 0.343938 0.250000 0.006207
O O16 0.500000 0.500000 0.500000
O O17 0.528800 0.250000 0.428524
#
# Coordination Sequence:
#
# PCOD9447975 Si02
#       6
#     8   8   8   8   8   8
#     4  10  21  37  55  75 101 134 169 204 253 312
#     4  10  21  36  54  76 100 130 173 219 257 295
#     4   9  18  33  52  75 105 138 170 206 253 309
#     4  10  19  31  50  77 106 135 171 213 253 297
#     4   9  18  32  49  71 102 139 174 209 253 300
#     4   9  19  35  55  78 102 131 166 205 253 307
#
# _framework density 17.062653000000001
#
# number of rings (size 3 to 8) (size 9 to 14) (size 15 to 20)
#    0.000    2.500    0.000    3.000    0.000    7.333 
#    0.000    2.500    0.000    3.000    0.000    0.000 
#    0.000    0.000    0.000    0.000    0.000    0.000 
#
# Total GULP energy -267776.029712 kJ/mol
# GULP energy per Si atom -5578.667286 kJ/mol
# Density = 1.702382 g / cm^3
# Si number density = 17.062653 Si / 1000 Ang^3
#
#
#
# Elastic Constant Matrix: (Units=GPa)
#
#
# Indices 1 2 3 4 5 6 
#
# 1 110.6335 49.5943 84.6845 0.0000 0.0000 0.0000
# 2 49.5943 39.5716 48.2596 0.0000 0.0000 0.0000
# 3 84.6845 48.2596 105.3105 0.0000 0.0000 0.0000
# 4 0.0000 0.0000 0.0000 32.7713 0.0000 0.0000
# 5 0.0000 0.0000 0.0000 0.0000 21.7202 0.0000
# 6 0.0000 0.0000 0.0000 0.0000 0.0000 29.4562
#
#
#
# Elastic Compliance Matrix: (Units=1/GPa)
#
#
# Indices 1 2 3 4 5 6 
#
# 1 0.027879 -0.017227 -0.014524 0.000000 0.000000 0.000000
# 2 -0.017227 0.067932 -0.017277 0.000000 0.000000 0.000000
# 3 -0.014524 -0.017277 0.029092 0.000000 0.000000 0.000000
# 4 0.000000 0.000000 0.000000 0.030515 0.000000 0.000000
# 5 0.000000 0.000000 0.000000 0.000000 0.046040 0.000000
# 6 0.000000 0.000000 0.000000 0.000000 0.000000 0.033949
#
#
# Mechanical properties :
#
#
# Convention : Reuss Voigt Hill
#
# Bulk Modulus (GPa) = 37.24923 68.95472 53.10197
# Shear Modulus (GPa) = 14.60229 21.65468 18.12848
#
# Velocity S-wave (km/s) = 2.92859 3.56635 3.26308
# Velocity P-wave (km/s) = 5.77181 7.58016 6.73693
#
# Compressibility (1/GPa) = 0.02684619
#
# Stress axis : x y z
#
# Youngs Moduli (GPa) = 35.86972 14.72061 34.37317
#
# Poissons Ratio (x) = 0.25360 0.49923
# Poissons Ratio (y) = 0.61794 0.59388
# Poissons Ratio (z) = 0.52096 0.25433
#
# Static dielectric constant tensor:
#      x y z
#    x 1.585320 0.000000 0.000000 
#    y 0.000000 1.564260 0.000000 
#    z 0.000000 0.000000 1.546010 
# 
# From -- ./inp_files/20704.got.cif
#   From: 2010.05.17/outbox.cif.g08.bks.cpg/sg59_11_cif.got.tgz:20704.got - 2010.06.03 14:40:33.
