data_PCOD9447056
_publ_section_title
;
Structure prediction by ZEFSAII (Michael W. Deem and Ramdas Pophale) SiO2 
 PCOD9447056
Probable space group: P M M N
;
_chemical_formula_sum "Si O2"
_cell_formula_units_Z 34
_cell_length_a 19.270977
_cell_length_b 10.171091
_cell_length_c 7.250881
_cell_angle_alpha 90.000000
_cell_angle_beta 90.000000
_cell_angle_gamma 90.000000
_cell_volume 1421.222422
_symmetry_space_group_name_H-M "P M M N"
_symmetry_group_IT_number 59
_space_group.IT_coordinate_system_code '2'
_symmetry_cell_setting 'orthorhombic'
loop_
_space_group_symop_operation_xyz
x,y,z
1/2-x,1/2-y,z
1/2+x,-y,-z
-x,1/2+y,-z
-x,-y,-z
1/2+x,1/2+y,-z
1/2-x,y,z
x,1/2-y,z
loop_
_atom_site_type_symbol
_atom_site_label
_atom_site_fract_x
_atom_site_fract_y
_atom_site_fract_z
Si Si1 0.571848 0.750000 0.878308
Si Si2 0.037936 0.250000 0.551954
Si Si3 0.330048 0.007620 0.021600
Si Si4 0.084205 0.750000 0.980429
Si Si5 0.853448 0.963301 0.406800
Si Si6 0.250000 0.250000 0.450844
Si Si7 0.886866 0.250000 0.464268
O O1 0.547687 0.750000 0.668265
O O2 0.499860 0.750000 0.996609
O O3 0.621552 0.626527 0.913835
O O4 0.073366 0.386025 0.617414
O O5 0.956598 0.250000 0.582986
O O6 0.250000 0.008140 0.089969
O O7 0.324900 0.025546 0.799922
O O8 0.374504 0.876375 0.054000
O O9 0.097355 0.750000 0.757173
O O10 0.809326 0.863705 0.526604
O O11 0.852769 0.108191 0.492298
#
# Coordination Sequence:
#
# PCOD9447056 Si02
#       7
#     4   4   8   4   8   2   4
#     4  11  22  37  57  89 118 156 196 231 294 357
#     4  10  21  37  54  85 119 151 189 228 287 350
#     4  11  21  38  61  88 112 151 201 247 288 345
#     4   9  21  38  59  84 120 151 191 248 299 338
#     4  10  20  36  60  84 115 144 191 237 286 342
#     4  10  18  32  50  84 108 136 180 224 280 324
#     4   9  19  35  59  87 111 149 186 237 286 342
#
# _framework density 23.923068000000001
#
# number of rings (size 3 to 8) (size 9 to 14) (size 15 to 20)
#    0.000    1.882    1.176    3.529    0.000    0.471 
#    8.471    3.529    0.000    0.000    0.000    0.000 
#    0.000    0.000    0.000    0.000    0.000    0.000 
#
# Total GULP energy -189605.800243 kJ/mol
# GULP energy per Si atom -5576.641184 kJ/mol
# Density = 2.386862 g / cm^3
# Si number density = 23.923068 Si / 1000 Ang^3
#
#
#
# Elastic Constant Matrix: (Units=GPa)
#
#
# Indices 1 2 3 4 5 6 
#
# 1 177.3181 107.7975 24.2726 0.0000 0.0000 0.0000
# 2 107.7975 276.5117 18.2182 0.0000 0.0000 0.0000
# 3 24.2726 18.2182 66.4665 0.0000 0.0000 0.0000
# 4 0.0000 0.0000 0.0000 30.8635 0.0000 0.0000
# 5 0.0000 0.0000 0.0000 0.0000 26.5430 0.0000
# 6 0.0000 0.0000 0.0000 0.0000 0.0000 22.9691
#
#
#
# Elastic Compliance Matrix: (Units=1/GPa)
#
#
# Indices 1 2 3 4 5 6 
#
# 1 0.007647 -0.002848 -0.002012 0.000000 0.000000 0.000000
# 2 -0.002848 0.004744 -0.000260 0.000000 0.000000 0.000000
# 3 -0.002012 -0.000260 0.015851 0.000000 0.000000 0.000000
# 4 0.000000 0.000000 0.000000 0.032401 0.000000 0.000000
# 5 0.000000 0.000000 0.000000 0.000000 0.037675 0.000000
# 6 0.000000 0.000000 0.000000 0.000000 0.000000 0.043537
#
#
# Mechanical properties :
#
#
# Convention : Reuss Voigt Hill
#
# Bulk Modulus (GPa) = 55.55161 91.20811 73.37986
# Shear Modulus (GPa) = 31.62654 40.74231 36.18443
#
# Velocity S-wave (km/s) = 3.63989 4.13129 3.89335
# Velocity P-wave (km/s) = 6.39816 7.80801 7.13798
#
# Compressibility (1/GPa) = 0.01800128
#
# Stress axis : x y z
#
# Youngs Moduli (GPa) = 130.77633 210.78833 63.08707
#
# Poissons Ratio (x) = 0.60043 0.12691
# Poissons Ratio (y) = 0.37251 0.01641
# Poissons Ratio (z) = 0.26308 0.05483
#
# Static dielectric constant tensor:
#      x y z
#    x 1.924810 0.000000 0.000000 
#    y 0.000000 1.875250 0.000000 
#    z 0.000000 0.000000 1.969360 
# 
# From -- ./inp_files/5514.got.cif
#   From: 2010.05.17/outbox.cif.g08.bks.cpg/sg59_3_cif.got.tgz:5514.got - 2010.06.03 14:40:33.
