data_PCOD9447276
_publ_section_title
;
Structure prediction by ZEFSAII (Michael W. Deem and Ramdas Pophale) SiO2 
 PCOD9447276
Probable space group: P M M N
;
_chemical_formula_sum "Si O2"
_cell_formula_units_Z 64
_cell_length_a 19.278550
_cell_length_b 7.540217
_cell_length_c 20.795967
_cell_angle_alpha 90.000000
_cell_angle_beta 90.000000
_cell_angle_gamma 90.000000
_cell_volume 3022.994314
_symmetry_space_group_name_H-M "P M M N"
_symmetry_group_IT_number 59
_space_group.IT_coordinate_system_code '2'
_symmetry_cell_setting 'orthorhombic'
loop_
_space_group_symop_operation_xyz
x,y,z
1/2-x,1/2-y,z
1/2+x,-y,-z
-x,1/2+y,-z
-x,-y,-z
1/2+x,1/2+y,-z
1/2-x,y,z
x,1/2-y,z
loop_
_atom_site_type_symbol
_atom_site_label
_atom_site_fract_x
_atom_site_fract_y
_atom_site_fract_z
Si Si1 0.581148 0.962717 0.100622
Si Si2 0.169787 0.532370 0.399046
Si Si3 0.328204 0.537825 0.024687
Si Si4 0.428090 0.959598 0.662793
Si Si5 0.927879 0.032104 0.864321
Si Si6 0.171305 0.463972 0.778865
Si Si7 0.077261 0.544174 0.281521
Si Si8 0.579156 0.037713 0.480847
O O1 0.578185 0.750000 0.105937
O O2 0.501959 0.025553 0.106355
O O3 0.625476 0.029550 0.161372
O O4 0.621648 0.003320 0.035469
O O5 0.250000 0.480682 0.398282
O O6 0.167276 0.750000 0.399025
O O7 0.128067 0.469371 0.336041
O O8 0.130065 0.471255 0.463365
O O9 0.250000 0.468365 0.015118
O O10 0.323139 0.750000 0.030340
O O11 0.365970 0.473428 0.089291
O O12 0.440893 0.750000 0.657223
O O13 0.410803 0.029733 0.591711
O O14 0.366674 0.989669 0.712881
O O15 0.499061 0.037422 0.691367
O O16 0.928391 0.250000 0.863715
O O17 0.921277 0.970002 0.790668
O O18 0.250000 0.529125 0.781956
O O19 0.173109 0.250000 0.783055
O O20 0.097156 0.750000 0.274625
O O21 0.588718 0.250000 0.479087
O O22 0.500000 0.000000 0.500000
#
# Coordination Sequence:
#
# PCOD9447276 Si02
#       8
#     8   8   8   8   8   8   8   8
#     4  10  19  35  58  79 102 138 184 225 261 316
#     4   9  18  32  54  84 110 138 181 229 273 316
#     4  10  21  35  51  77 113 143 170 216 276 328
#     4  11  22  34  53  82 112 144 180 223 276 327
#     4   9  18  33  55  80 104 136 180 222 264 315
#     4  10  21  37  57  80 107 142 183 223 265 320
#     4  10  18  34  59  80 105 144 185 227 268 321
#     4  10  20  34  55  80 109 145 183 225 267 321
#
# _framework density 21.171061000000002
#
# number of rings (size 3 to 8) (size 9 to 14) (size 15 to 20)
#    0.000    2.125    2.500    1.125    0.000    3.000 
#    0.000    4.375    0.000    1.500    0.000    0.000 
#    0.000    0.000    0.000    0.000    0.000    0.000 
#
# Total GULP energy -357519.880123 kJ/mol
# GULP energy per Si atom -5586.248127 kJ/mol
# Density = 2.112288 g / cm^3
# Si number density = 21.171061 Si / 1000 Ang^3
#
#
#
# Elastic Constant Matrix: (Units=GPa)
#
#
# Indices 1 2 3 4 5 6 
#
# 1 83.5115 0.5151 49.4560 0.0000 0.0000 0.0000
# 2 0.5151 48.6074 7.7092 0.0000 0.0000 0.0000
# 3 49.4560 7.7092 164.3750 0.0000 0.0000 0.0000
# 4 0.0000 0.0000 0.0000 15.7336 0.0000 0.0000
# 5 0.0000 0.0000 0.0000 0.0000 33.2977 0.0000
# 6 0.0000 0.0000 0.0000 0.0000 0.0000 10.0300
#
#
#
# Elastic Compliance Matrix: (Units=1/GPa)
#
#
# Indices 1 2 3 4 5 6 
#
# 1 0.014585 0.000545 -0.004414 0.000000 0.000000 0.000000
# 2 0.000545 0.020748 -0.001137 0.000000 0.000000 0.000000
# 3 -0.004414 -0.001137 0.007465 0.000000 0.000000 0.000000
# 4 0.000000 0.000000 0.000000 0.063558 0.000000 0.000000
# 5 0.000000 0.000000 0.000000 0.000000 0.030032 0.000000
# 6 0.000000 0.000000 0.000000 0.000000 0.000000 0.099701
#
#
# Mechanical properties :
#
#
# Convention : Reuss Voigt Hill
#
# Bulk Modulus (GPa) = 30.50041 45.76162 38.13101
# Shear Modulus (GPa) = 19.45308 27.73317 23.59312
#
# Velocity S-wave (km/s) = 3.03455 3.62326 3.34189
# Velocity P-wave (km/s) = 5.16874 6.25828 5.73942
#
# Compressibility (1/GPa) = 0.03278645
#
# Stress axis : x y z
#
# Youngs Moduli (GPa) = 68.56409 48.19838 133.95897
#
# Poissons Ratio (x) = -0.02629 0.59127
# Poissons Ratio (y) = -0.03740 0.15233
# Poissons Ratio (z) = 0.30263 0.05481
#
# Static dielectric constant tensor:
#      x y z
#    x 1.713820 0.000000 0.000000 
#    y 0.000000 1.823720 0.000000 
#    z 0.000000 0.000000 1.746700 
# 
# From -- ./inp_files/30749.got.cif
#   From: 2010.05.17/outbox.cif.g08.bks.cpg/sg59_16_cif.got.tgz:30749.got - 2010.06.03 14:40:33.
