data_PCOD9447277
_publ_section_title
;
Structure prediction by ZEFSAII (Michael W. Deem and Ramdas Pophale) SiO2 
 PCOD9447277
Probable space group: P M M N
;
_chemical_formula_sum "Si O2"
_cell_formula_units_Z 48
_cell_length_a 8.428676
_cell_length_b 18.781230
_cell_length_c 16.084494
_cell_angle_alpha 90.000000
_cell_angle_beta 90.000000
_cell_angle_gamma 90.000000
_cell_volume 2546.189917
_symmetry_space_group_name_H-M "P M M N"
_symmetry_group_IT_number 59
_space_group.IT_coordinate_system_code '2'
_symmetry_cell_setting 'orthorhombic'
loop_
_space_group_symop_operation_xyz
x,y,z
1/2-x,1/2-y,z
1/2+x,-y,-z
-x,1/2+y,-z
-x,-y,-z
1/2+x,1/2+y,-z
1/2-x,y,z
x,1/2-y,z
loop_
_atom_site_type_symbol
_atom_site_label
_atom_site_fract_x
_atom_site_fract_y
_atom_site_fract_z
Si Si1 0.438679 0.034846 0.322353
Si Si2 0.941478 0.882220 0.384069
Si Si3 0.056652 0.250000 0.728782
Si Si4 0.061678 0.980807 0.861983
Si Si5 0.560969 0.100887 0.972185
Si Si6 0.559290 0.750000 0.078609
Si Si7 0.556314 0.668416 0.568509
O O1 0.250000 0.033244 0.331948
O O2 0.481777 0.035404 0.225259
O O3 0.497365 0.106828 0.367948
O O4 0.503507 0.961559 0.361780
O O5 0.750000 0.882646 0.382229
O O6 0.995788 0.821663 0.318814
O O7 0.990409 0.856624 0.475918
O O8 0.250000 0.250000 0.726218
O O9 0.009057 0.250000 0.824637
O O10 0.250000 0.974261 0.851539
O O11 0.009036 0.931519 0.939228
O O12 0.019991 0.058921 0.896268
O O13 0.750000 0.091403 0.965893
O O14 0.510279 0.181347 0.965315
O O15 0.750000 0.750000 0.075567
O O16 0.750000 0.669816 0.570416
O O17 0.503852 0.750000 0.584645
#
# Coordination Sequence:
#
# PCOD9447277 Si02
#       7
#     8   8   4   8   8   4   8
#     4  11  22  34  54  85 116 145 187 237 285 339
#     4  10  18  34  59  81 108 147 191 232 280 335
#     4   9  18  31  53  82 107 140 184 229 267 323
#     4  10  21  39  60  81 109 148 192 235 286 346
#     4  10  21  38  60  83 113 148 186 238 290 335
#     4  11  21  33  53  86 121 152 186 221 275 351
#     4   9  18  35  57  80 110 150 192 235 279 330
#
# _framework density 18.851696
#
# number of rings (size 3 to 8) (size 9 to 14) (size 15 to 20)
#    0.000    2.000    0.833    3.250    0.000    3.333 
#    1.500    2.083    0.000    3.500    0.000    0.000 
#    0.000    0.000    0.000    0.000    0.000    0.000 
#
# Total GULP energy -267991.851828 kJ/mol
# GULP energy per Si atom -5583.163580 kJ/mol
# Density = 1.880879 g / cm^3
# Si number density = 18.851696 Si / 1000 Ang^3
#
#
#
# Elastic Constant Matrix: (Units=GPa)
#
#
# Indices 1 2 3 4 5 6 
#
# 1 7.3271 6.0310 2.3029 0.0000 0.0000 0.0000
# 2 6.0310 159.8219 55.7940 0.0000 0.0000 0.0000
# 3 2.3029 55.7940 53.1547 0.0000 0.0000 0.0000
# 4 0.0000 0.0000 0.0000 19.0971 0.0000 0.0000
# 5 0.0000 0.0000 0.0000 0.0000 11.8170 0.0000
# 6 0.0000 0.0000 0.0000 0.0000 0.0000 27.0702
#
#
#
# Elastic Compliance Matrix: (Units=1/GPa)
#
#
# Indices 1 2 3 4 5 6 
#
# 1 0.140879 -0.005028 -0.000826 0.000000 0.000000 0.000000
# 2 -0.005028 0.010055 -0.010337 0.000000 0.000000 0.000000
# 3 -0.000826 -0.010337 0.029699 0.000000 0.000000 0.000000
# 4 0.000000 0.000000 0.000000 0.052364 0.000000 0.000000
# 5 0.000000 0.000000 0.000000 0.000000 0.084624 0.000000
# 6 0.000000 0.000000 0.000000 0.000000 0.000000 0.036941
#
#
# Mechanical properties :
#
#
# Convention : Reuss Voigt Hill
#
# Bulk Modulus (GPa) = 6.74531 38.72883 22.73707
# Shear Modulus (GPa) = 11.45843 22.00859 16.73351
#
# Velocity S-wave (km/s) = 2.46807 3.42052 2.98256
# Velocity P-wave (km/s) = 3.42165 6.01568 4.89368
#
# Compressibility (1/GPa) = 0.14825125
#
# Stress axis : x y z
#
# Youngs Moduli (GPa) = 7.09831 99.45081 33.67151
#
# Poissons Ratio (x) = 0.50001 0.02782
# Poissons Ratio (y) = 0.03569 0.34805
# Poissons Ratio (z) = 0.00587 1.02799
#
# Static dielectric constant tensor:
#      x y z
#    x 1.654210 0.000000 0.000000 
#    y 0.000000 1.629590 0.000000 
#    z 0.000000 0.000000 1.634230 
# 
# From -- ./inp_files/20520.got.cif
#   From: 2010.05.17/outbox.cif.g08.bks.cpg/sg59_11_cif.got.tgz:20520.got - 2010.06.03 14:40:33.
