data_PCOD9447079
_publ_section_title
;
Structure prediction by ZEFSAII (Michael W. Deem and Ramdas Pophale) SiO2 
 PCOD9447079
Probable space group: P M M N
;
_chemical_formula_sum "Si O2"
_cell_formula_units_Z 56
_cell_length_a 22.260564
_cell_length_b 7.650805
_cell_length_c 17.441404
_cell_angle_alpha 90.000000
_cell_angle_beta 90.000000
_cell_angle_gamma 90.000000
_cell_volume 2970.467044
_symmetry_space_group_name_H-M "P M M N"
_symmetry_group_IT_number 59
_space_group.IT_coordinate_system_code '2'
_symmetry_cell_setting 'orthorhombic'
loop_
_space_group_symop_operation_xyz
x,y,z
1/2-x,1/2-y,z
1/2+x,-y,-z
-x,1/2+y,-z
-x,-y,-z
1/2+x,1/2+y,-z
1/2-x,y,z
x,1/2-y,z
loop_
_atom_site_type_symbol
_atom_site_label
_atom_site_fract_x
_atom_site_fract_y
_atom_site_fract_z
Si Si1 0.182029 0.463944 0.959818
Si Si2 0.124252 0.463328 0.801174
Si Si3 0.987620 0.459730 0.792524
Si Si4 0.465316 0.548425 0.375163
Si Si5 0.938079 0.956617 0.954782
Si Si6 0.318061 0.038623 0.641891
Si Si7 0.580329 0.455632 0.466826
O O1 0.250000 0.520710 0.980314
O O2 0.182652 0.250000 0.962689
O O3 0.165334 0.515023 0.872673
O O4 0.124531 0.526226 0.009680
O O5 0.123943 0.250000 0.801303
O O6 0.149595 0.521626 0.719634
O O7 0.055405 0.522702 0.809680
O O8 0.992227 0.250000 0.784229
O O9 0.965291 0.529247 0.710087
O O10 0.947188 0.495693 0.866113
O O11 0.445911 0.750000 0.367353
O O12 0.533317 0.542460 0.408001
O O13 0.428406 0.472766 0.447154
O O14 0.933188 0.750000 0.960980
O O15 0.000000 0.000000 0.000000
O O16 0.250000 0.978519 0.641142
O O17 0.318672 0.250000 0.643102
O O18 0.354690 0.979243 0.568209
O O19 0.564674 0.250000 0.468492
#
# Coordination Sequence:
#
# PCOD9447079 Si02
#       7
#     8   8   8   8   8   8   8
#     4   9  17  30  49  72  97 128 168 207 242 291
#     4   9  15  27  48  73  98 127 164 200 240 294
#     4  10  18  32  53  74 100 132 166 207 252 298
#     4   9  18  33  51  70  96 130 165 201 247 302
#     4  11  21  33  51  77 104 133 169 210 258 305
#     4  10  19  31  49  72 100 136 172 203 241 298
#     4  10  19  30  48  73  99 129 164 204 249 294
#
# _framework density 18.852256000000001
#
# number of rings (size 3 to 8) (size 9 to 14) (size 15 to 20)
#    0.000    2.286    2.857    1.286    0.000    3.143 
#    0.000    0.000    0.000    2.571    0.000    4.000 
#    0.000    0.000    0.000    0.000    0.000    0.000 
#
# Total GULP energy -312282.839809 kJ/mol
# GULP energy per Si atom -5576.479282 kJ/mol
# Density = 1.880935 g / cm^3
# Si number density = 18.852256 Si / 1000 Ang^3
#
#
#
# Elastic Constant Matrix: (Units=GPa)
#
#
# Indices 1 2 3 4 5 6 
#
# 1 132.0370 1.7512 78.7683 0.0000 0.0000 0.0000
# 2 1.7512 33.6231 4.5214 0.0000 0.0000 0.0000
# 3 78.7683 4.5214 149.5093 0.0000 0.0000 0.0000
# 4 0.0000 0.0000 0.0000 11.4359 0.0000 0.0000
# 5 0.0000 0.0000 0.0000 0.0000 22.9452 0.0000
# 6 0.0000 0.0000 0.0000 0.0000 0.0000 15.4490
#
#
#
# Elastic Compliance Matrix: (Units=1/GPa)
#
#
# Indices 1 2 3 4 5 6 
#
# 1 0.011046 0.000208 -0.005826 0.000000 0.000000 0.000000
# 2 0.000208 0.029867 -0.001013 0.000000 0.000000 0.000000
# 3 -0.005826 -0.001013 0.009789 0.000000 0.000000 0.000000
# 4 0.000000 0.000000 0.000000 0.087444 0.000000 0.000000
# 5 0.000000 0.000000 0.000000 0.000000 0.043582 0.000000
# 6 0.000000 0.000000 0.000000 0.000000 0.000000 0.064729
#
#
# Mechanical properties :
#
#
# Convention : Reuss Voigt Hill
#
# Bulk Modulus (GPa) = 26.70925 53.91682 40.31303
# Shear Modulus (GPa) = 18.36893 25.30793 21.83843
#
# Velocity S-wave (km/s) = 3.12486 3.66790 3.40722
# Velocity P-wave (km/s) = 5.21710 6.82640 6.07527
#
# Compressibility (1/GPa) = 0.03744021
#
# Stress axis : x y z
#
# Youngs Moduli (GPa) = 90.52645 33.48202 102.15942
#
# Poissons Ratio (x) = -0.00697 0.59519
# Poissons Ratio (y) = -0.01884 0.10347
# Poissons Ratio (z) = 0.52742 0.03391
#
# Static dielectric constant tensor:
#      x y z
#    x 1.645080 0.000000 0.000000 
#    y 0.000000 1.735880 0.000000 
#    z 0.000000 0.000000 1.648160 
# 
# From -- ./inp_files/28049.got.cif
#   From: 2010.05.17/outbox.cif.g08.bks.cpg/sg59_15_cif.got.tgz:28049.got - 2010.06.03 14:40:33.
