data_PCOD9447256
_publ_section_title
;
Structure prediction by ZEFSAII (Michael W. Deem and Ramdas Pophale) SiO2 
 PCOD9447256
Probable space group: P M M N
;
_chemical_formula_sum "Si O2"
_cell_formula_units_Z 64
_cell_length_a 20.189925
_cell_length_b 18.793861
_cell_length_c 9.613185
_cell_angle_alpha 90.000000
_cell_angle_beta 90.000000
_cell_angle_gamma 90.000000
_cell_volume 3647.690787
_symmetry_space_group_name_H-M "P M M N"
_symmetry_group_IT_number 59
_space_group.IT_coordinate_system_code '2'
_symmetry_cell_setting 'orthorhombic'
loop_
_space_group_symop_operation_xyz
x,y,z
1/2-x,1/2-y,z
1/2+x,-y,-z
-x,1/2+y,-z
-x,-y,-z
1/2+x,1/2+y,-z
1/2-x,y,z
x,1/2-y,z
loop_
_atom_site_type_symbol
_atom_site_label
_atom_site_fract_x
_atom_site_fract_y
_atom_site_fract_z
Si Si1 0.880737 0.831324 0.158707
Si Si2 0.936666 0.456390 0.114614
Si Si3 0.826815 0.548687 0.597424
Si Si4 0.570314 0.031340 0.799033
Si Si5 0.073463 0.168887 0.420095
Si Si6 0.824588 0.520692 0.277088
Si Si7 0.965720 0.830050 0.901710
Si Si8 0.483477 0.831545 0.333195
O O1 0.852299 0.750000 0.167186
O O2 0.842926 0.898867 0.224065
O O3 0.950952 0.829090 0.238036
O O4 0.902935 0.847072 0.999648
O O5 0.874431 0.463948 0.212506
O O6 0.973662 0.383111 0.081394
O O7 0.994299 0.502224 0.192100
O O8 0.912450 0.479532 0.961362
O O9 0.750000 0.550305 0.644124
O O10 0.877999 0.510911 0.702892
O O11 0.859051 0.625742 0.570053
O O12 0.828729 0.515376 0.443587
O O13 0.564611 0.111051 0.737477
O O14 0.084032 0.250000 0.465217
O O15 0.053029 0.167416 0.259628
O O16 0.013460 0.142107 0.518324
O O17 0.750000 0.506740 0.232720
O O18 0.985346 0.750000 0.939492
O O19 0.458057 0.750000 0.345966
#
# Coordination Sequence:
#
# PCOD9447256 Si02
#       8
#     8   8   8   8   8   8   8   8
#     4  10  18  34  55  79 111 143 178 223 270 321
#     4  11  20  35  57  83 108 142 185 231 281 328
#     4  11  24  38  53  78 113 152 189 227 273 330
#     4  11  21  35  58  83 108 144 184 231 283 328
#     4  10  20  34  53  82 114 145 181 219 268 329
#     4  11  24  38  53  79 113 151 191 228 272 333
#     4  10  20  34  56  85 113 138 177 230 279 327
#     4  10  19  33  56  84 109 136 179 230 275 320
#
# _framework density 17.545348000000001
#
# number of rings (size 3 to 8) (size 9 to 14) (size 15 to 20)
#    0.000    1.500    5.000    0.750    1.750    2.000 
#    0.000    1.250    0.000    3.000    0.000    3.500 
#    0.000    0.000    0.000    0.000    0.000    0.000 
#
# Total GULP energy -356453.157067 kJ/mol
# GULP energy per Si atom -5569.580579 kJ/mol
# Density = 1.750541 g / cm^3
# Si number density = 17.545348 Si / 1000 Ang^3
#
#
#
# Elastic Constant Matrix: (Units=GPa)
#
#
# Indices 1 2 3 4 5 6 
#
# 1 63.7640 23.6892 28.9765 0.0000 0.0000 0.0000
# 2 23.6892 63.7925 12.9189 0.0000 0.0000 0.0000
# 3 28.9765 12.9189 77.7763 0.0000 0.0000 0.0000
# 4 0.0000 0.0000 0.0000 18.9060 0.0000 0.0000
# 5 0.0000 0.0000 0.0000 0.0000 20.2385 0.0000
# 6 0.0000 0.0000 0.0000 0.0000 0.0000 17.4293
#
#
#
# Elastic Compliance Matrix: (Units=1/GPa)
#
#
# Indices 1 2 3 4 5 6 
#
# 1 0.021192 -0.006489 -0.006817 0.000000 0.000000 0.000000
# 2 -0.006489 0.018208 -0.000607 0.000000 0.000000 0.000000
# 3 -0.006817 -0.000607 0.015498 0.000000 0.000000 0.000000
# 4 0.000000 0.000000 0.000000 0.052893 0.000000 0.000000
# 5 0.000000 0.000000 0.000000 0.000000 0.049411 0.000000
# 6 0.000000 0.000000 0.000000 0.000000 0.000000 0.057374
#
#
# Mechanical properties :
#
#
# Convention : Reuss Voigt Hill
#
# Bulk Modulus (GPa) = 36.93895 37.38911 37.16403
# Shear Modulus (GPa) = 19.88652 20.63132 20.25892
#
# Velocity S-wave (km/s) = 3.37031 3.43284 3.40172
# Velocity P-wave (km/s) = 6.02033 6.08841 6.05447
#
# Compressibility (1/GPa) = 0.02707170
#
# Stress axis : x y z
#
# Youngs Moduli (GPa) = 47.18864 54.91987 64.52403
#
# Poissons Ratio (x) = 0.35636 0.43988
# Poissons Ratio (y) = 0.30620 0.03916
# Poissons Ratio (z) = 0.32170 0.03333
#
# Static dielectric constant tensor:
#      x y z
#    x 1.560560 0.000000 0.000000 
#    y 0.000000 1.658660 0.000000 
#    z 0.000000 0.000000 1.667600 
# 
# From -- ./inp_files/10720.got.cif
#   From: 2010.05.17/outbox.cif.g08.bks.cpg/sg59_6_cif.got.tgz:10720.got - 2010.06.03 14:40:33.
