data_PCOD9447320
_publ_section_title
;
Structure prediction by ZEFSAII (Michael W. Deem and Ramdas Pophale) SiO2 
 PCOD9447320
Probable space group: P M M N
;
_chemical_formula_sum "Si O2"
_cell_formula_units_Z 56
_cell_length_a 20.885620
_cell_length_b 8.488037
_cell_length_c 16.530857
_cell_angle_alpha 90.000000
_cell_angle_beta 90.000000
_cell_angle_gamma 90.000000
_cell_volume 2930.555868
_symmetry_space_group_name_H-M "P M M N"
_symmetry_group_IT_number 59
_space_group.IT_coordinate_system_code '2'
_symmetry_cell_setting 'orthorhombic'
loop_
_space_group_symop_operation_xyz
x,y,z
1/2-x,1/2-y,z
1/2+x,-y,-z
-x,1/2+y,-z
-x,-y,-z
1/2+x,1/2+y,-z
1/2-x,y,z
x,1/2-y,z
loop_
_atom_site_type_symbol
_atom_site_label
_atom_site_fract_x
_atom_site_fract_y
_atom_site_fract_z
Si Si1 0.995122 0.439425 0.591288
Si Si2 0.448190 0.061630 0.119124
Si Si3 0.416933 0.934928 0.951958
Si Si4 0.250000 0.562328 0.344193
Si Si5 0.250000 0.441476 0.527980
Si Si6 0.112853 0.439544 0.288221
Si Si7 0.674275 0.567472 0.175349
Si Si8 0.364502 0.441578 0.646257
O O1 0.991371 0.250000 0.591953
O O2 0.934780 0.506259 0.640260
O O3 0.000000 0.500000 0.500000
O O4 0.062609 0.489429 0.631104
O O5 0.451612 0.250000 0.126922
O O6 0.519848 0.004316 0.096302
O O7 0.417542 0.002936 0.202752
O O8 0.409611 0.018070 0.038301
O O9 0.426068 0.750000 0.967051
O O10 0.358305 0.967011 0.893724
O O11 0.250000 0.750000 0.341642
O O12 0.250000 0.505993 0.437551
O O13 0.184642 0.500429 0.303227
O O14 0.250000 0.250000 0.524102
O O15 0.313204 0.491791 0.578368
O O16 0.114766 0.250000 0.287757
O O17 0.750000 0.566737 0.167803
O O18 0.652116 0.750000 0.168265
O O19 0.656694 0.508356 0.264716
O O20 0.362352 0.250000 0.645053
#
# Coordination Sequence:
#
# PCOD9447320 Si02
#       8
#     8   8   8   4   4   8   8   8
#     4  11  22  36  57  88 123 157 198 250 302 352
#     4   9  20  39  62  86 112 148 193 236 286 349
#     4  10  20  35  58  88 119 148 183 233 288 340
#     4  12  26  42  60  85 116 149 192 245 302 359
#     4  10  18  36  62  85 114 157 204 243 288 349
#     4  11  23  42  64  86 114 154 201 247 298 354
#     4  10  19  34  55  81 114 153 195 232 274 336
#     4   9  18  33  57  85 114 153 199 241 283 338
#
# _framework density 19.109002
#
# number of rings (size 3 to 8) (size 9 to 14) (size 15 to 20)
#    0.000    1.857    0.714    3.643    0.000    3.143 
#    1.286    2.143    0.000    0.000    0.000    0.000 
#    0.000    0.000    0.000    0.000    0.000    0.000 
#
# Total GULP energy -312685.805434 kJ/mol
# GULP energy per Si atom -5583.675097 kJ/mol
# Density = 1.906551 g / cm^3
# Si number density = 19.109002 Si / 1000 Ang^3
#
#
#
# Elastic Constant Matrix: (Units=GPa)
#
#
# Indices 1 2 3 4 5 6 
#
# 1 115.9055 25.2937 63.5655 0.0000 0.0000 0.0000
# 2 25.2937 32.5614 18.1590 0.0000 0.0000 0.0000
# 3 63.5655 18.1590 137.5449 0.0000 0.0000 0.0000
# 4 0.0000 0.0000 0.0000 14.9635 0.0000 0.0000
# 5 0.0000 0.0000 0.0000 0.0000 34.0766 0.0000
# 6 0.0000 0.0000 0.0000 0.0000 0.0000 23.4834
#
#
#
# Elastic Compliance Matrix: (Units=1/GPa)
#
#
# Indices 1 2 3 4 5 6 
#
# 1 0.012977 -0.007271 -0.005037 0.000000 0.000000 0.000000
# 2 -0.007271 0.037226 -0.001554 0.000000 0.000000 0.000000
# 3 -0.005037 -0.001554 0.009804 0.000000 0.000000 0.000000
# 4 0.000000 0.000000 0.000000 0.066829 0.000000 0.000000
# 5 0.000000 0.000000 0.000000 0.000000 0.029346 0.000000
# 6 0.000000 0.000000 0.000000 0.000000 0.000000 0.042583
#
#
# Mechanical properties :
#
#
# Convention : Reuss Voigt Hill
#
# Bulk Modulus (GPa) = 30.97792 55.56090 43.26941
# Shear Modulus (GPa) = 21.07467 26.43761 23.75614
#
# Velocity S-wave (km/s) = 3.32455 3.72360 3.52972
# Velocity P-wave (km/s) = 5.56625 6.90115 6.26933
#
# Compressibility (1/GPa) = 0.03228106
#
# Stress axis : x y z
#
# Youngs Moduli (GPa) = 77.05873 26.86268 102.00422
#
# Poissons Ratio (x) = 0.19533 0.51383
# Poissons Ratio (y) = 0.56032 0.15854
# Poissons Ratio (z) = 0.38817 0.04175
#
# Static dielectric constant tensor:
#      x y z
#    x 1.659210 0.000000 0.000000 
#    y 0.000000 1.480100 0.000000 
#    z 0.000000 0.000000 1.635370 
# 
# From -- ./inp_files/24338.got.cif
#   From: 2010.05.17/outbox.cif.g08.bks.cpg/sg59_13_cif.got.tgz:24338.got - 2010.06.03 14:40:33.
