data_PCOD9447685
_publ_section_title
;
Structure prediction by ZEFSAII (Michael W. Deem and Ramdas Pophale) SiO2 
 PCOD9447685
Probable space group: P M M N
;
_chemical_formula_sum "Si O2"
_cell_formula_units_Z 40
_cell_length_a 29.236321
_cell_length_b 7.295134
_cell_length_c 7.842746
_cell_angle_alpha 90.000000
_cell_angle_beta 90.000000
_cell_angle_gamma 90.000000
_cell_volume 1672.723449
_symmetry_space_group_name_H-M "P M M N"
_symmetry_group_IT_number 59
_space_group.IT_coordinate_system_code '2'
_symmetry_cell_setting 'orthorhombic'
loop_
_space_group_symop_operation_xyz
x,y,z
1/2-x,1/2-y,z
1/2+x,-y,-z
-x,1/2+y,-z
-x,-y,-z
1/2+x,1/2+y,-z
1/2-x,y,z
x,1/2-y,z
loop_
_atom_site_type_symbol
_atom_site_label
_atom_site_fract_x
_atom_site_fract_y
_atom_site_fract_z
Si Si1 0.964265 0.538772 0.745376
Si Si2 0.631218 0.524796 0.631818
Si Si3 0.300896 0.473622 0.072391
Si Si4 0.940707 0.028366 0.139931
Si Si5 0.659695 0.958707 0.273369
O O1 0.968675 0.750000 0.693546
O O2 0.921361 0.460699 0.642569
O O3 0.015647 0.462775 0.749419
O O4 0.948839 0.531236 0.944542
O O5 0.629875 0.750000 0.629705
O O6 0.659786 0.468770 0.797318
O O7 0.656639 0.461378 0.461623
O O8 0.250000 0.525677 0.127114
O O9 0.302732 0.250000 0.068798
O O10 0.311453 0.539398 0.881363
O O11 0.940162 0.250000 0.141033
O O12 0.892655 0.958772 0.207559
O O13 0.676098 0.750000 0.294438
#
# Coordination Sequence:
#
# PCOD9447685 Si02
#       5
#     8   8   8   8   8
#     4   9  17  32  51  72 101 135 172 209 246 292
#     4   9  17  30  50  74 100 131 164 202 248 296
#     4   9  17  30  50  76 102 126 160 209 254 292
#     4  10  19  30  49  75 102 134 171 208 245 293
#     4  10  19  32  52  75 102 134 164 200 251 302
#
# _framework density 23.913098000000002
#
# number of rings (size 3 to 8) (size 9 to 14) (size 15 to 20)
#    0.000    2.600    2.000    0.600    0.000    2.400 
#    0.000    5.000    0.000    0.600    0.000    0.000 
#    0.000    0.000    0.000    0.000    0.000    0.000 
#
# Total GULP energy -223477.782456 kJ/mol
# GULP energy per Si atom -5586.944561 kJ/mol
# Density = 2.385867 g / cm^3
# Si number density = 23.913098 Si / 1000 Ang^3
#
#
#
# Elastic Constant Matrix: (Units=GPa)
#
#
# Indices 1 2 3 4 5 6 
#
# 1 69.9296 -11.0585 -4.1988 0.0000 0.0000 0.0000
# 2 -11.0585 106.5484 -12.1637 0.0000 0.0000 0.0000
# 3 -4.1988 -12.1637 66.3851 0.0000 0.0000 0.0000
# 4 0.0000 0.0000 0.0000 -8.4614 0.0000 0.0000
# 5 0.0000 0.0000 0.0000 0.0000 18.6138 0.0000
# 6 0.0000 0.0000 0.0000 0.0000 0.0000 2.1924
#
#
#
# Elastic Compliance Matrix: (Units=1/GPa)
#
#
# Indices 1 2 3 4 5 6 
#
# 1 0.014636 0.001659 0.001230 0.000000 0.000000 0.000000
# 2 0.001659 0.009774 0.001896 0.000000 0.000000 0.000000
# 3 0.001230 0.001896 0.015489 0.000000 0.000000 0.000000
# 4 0.000000 0.000000 0.000000 -0.118184 0.000000 0.000000
# 5 0.000000 0.000000 0.000000 0.000000 0.053724 0.000000
# 6 0.000000 0.000000 0.000000 0.000000 0.000000 0.456118
#
#
# Mechanical properties :
#
#
# Convention : Reuss Voigt Hill
#
# Bulk Modulus (GPa) = 20.21447 20.89123 20.55285
# Shear Modulus (GPa) = 11.40311 20.48790 15.94551
#
# Velocity S-wave (km/s) = 2.18607 2.93023 2.58507
# Velocity P-wave (km/s) = 3.85273 4.49484 4.18612
#
# Compressibility (1/GPa) = 0.04946951
#
# Stress axis : x y z
#
# Youngs Moduli (GPa) = 68.32295 102.31147 64.56291
#
# Poissons Ratio (x) = -0.16978 -0.07940
# Poissons Ratio (y) = -0.11338 -0.12240
# Poissons Ratio (z) = -0.08402 -0.19397
#
# Static dielectric constant tensor:
#      x y z
#    x 1.880350 0.000000 0.000000 
#    y 0.000000 1.913620 0.000000 
#    z 0.000000 0.000000 1.891300 
# 
# From -- ./inp_files/5832.got.cif
#   From: 2010.05.17/outbox.cif.g08.bks.cpg/sg59_3_cif.got.tgz:5832.got - 2010.06.03 14:40:33.
