data_PCOD9447534
_publ_section_title
;
Structure prediction by ZEFSAII (Michael W. Deem and Ramdas Pophale) SiO2 
 PCOD9447534
Probable space group: P M M N
;
_chemical_formula_sum "Si O2"
_cell_formula_units_Z 40
_cell_length_a 13.588026
_cell_length_b 20.619929
_cell_length_c 5.623227
_cell_angle_alpha 90.000000
_cell_angle_beta 90.000000
_cell_angle_gamma 90.000000
_cell_volume 1575.538972
_symmetry_space_group_name_H-M "P M M N"
_symmetry_group_IT_number 59
_space_group.IT_coordinate_system_code '2'
_symmetry_cell_setting 'orthorhombic'
loop_
_space_group_symop_operation_xyz
x,y,z
1/2-x,1/2-y,z
1/2+x,-y,-z
-x,1/2+y,-z
-x,-y,-z
1/2+x,1/2+y,-z
1/2-x,y,z
x,1/2-y,z
loop_
_atom_site_type_symbol
_atom_site_label
_atom_site_fract_x
_atom_site_fract_y
_atom_site_fract_z
Si Si1 0.371897 0.136514 0.542590
Si Si2 0.866975 0.173045 0.764700
Si Si3 0.908277 0.978270 0.160403
Si Si4 0.138515 0.622252 0.737379
Si Si5 0.360917 0.344401 0.036538
O O1 0.250000 0.131575 0.540767
O O2 0.414605 0.064575 0.597458
O O3 0.401036 0.175788 0.779839
O O4 0.403468 0.167066 0.295098
O O5 0.750000 0.155394 0.774111
O O6 0.874578 0.250000 0.751354
O O7 0.904009 0.141483 0.519375
O O8 0.908899 0.148061 0.016961
O O9 0.857839 0.923137 0.996064
O O10 0.858170 0.045099 0.231324
O O11 0.000000 0.000000 0.000000
O O12 0.250000 0.649720 0.732895
O O13 0.250000 0.320190 0.045936
#
# Coordination Sequence:
#
# PCOD9447534 Si02
#       5
#     8   8   8   8   8
#     4   8  15  27  40  51  69 101 144 175 196 228
#     4   9  18  32  49  66  82 102 140 197 236 255
#     4  10  20  29  39  60  90 117 145 175 208 253
#     4  10  19  30  46  65  85 114 151 180 218 265
#     4   8  15  27  40  51  69 101 144 175 196 228
#
# _framework density 25.388135999999999
#
# number of rings (size 3 to 8) (size 9 to 14) (size 15 to 20)
#    1.200    1.800    0.000    1.800    2.800    3.200 
#    0.000    0.000    0.000    0.000    0.000    0.000 
#    0.000    0.000    0.000    0.000    0.000   54.000 
#
# Total GULP energy -222962.870999 kJ/mol
# GULP energy per Si atom -5574.071775 kJ/mol
# Density = 2.533035 g / cm^3
# Si number density = 25.388136 Si / 1000 Ang^3
#
#
#
# Elastic Constant Matrix: (Units=GPa)
#
#
# Indices 1 2 3 4 5 6 
#
# 1 81.1410 14.4880 39.4712 0.0000 0.0000 0.0000
# 2 14.4880 107.6161 52.2741 0.0000 0.0000 0.0000
# 3 39.4712 52.2741 294.6921 0.0000 0.0000 0.0000
# 4 0.0000 0.0000 0.0000 -28.6328 0.0000 0.0000
# 5 0.0000 0.0000 0.0000 0.0000 40.4705 0.0000
# 6 0.0000 0.0000 0.0000 0.0000 0.0000 -5.7258
#
#
#
# Elastic Compliance Matrix: (Units=1/GPa)
#
#
# Indices 1 2 3 4 5 6 
#
# 1 0.013283 -0.001011 -0.001600 0.000000 0.000000 0.000000
# 2 -0.001011 0.010245 -0.001682 0.000000 0.000000 0.000000
# 3 -0.001600 -0.001682 0.003906 0.000000 0.000000 0.000000
# 4 0.000000 0.000000 0.000000 -0.034925 0.000000 0.000000
# 5 0.000000 0.000000 0.000000 0.000000 0.024709 0.000000
# 6 0.000000 0.000000 0.000000 0.000000 0.000000 -0.174648
#
#
# Mechanical properties :
#
#
# Convention : Reuss Voigt Hill
#
# Bulk Modulus (GPa) = 53.05426 77.32400 65.18913
# Shear Modulus (GPa) = -35.07281 26.37011 -4.35135
#
# Velocity S-wave (km/s) = -3.72084 3.22635 -1.31059
# Velocity P-wave (km/s) = 1.57579 6.66348 4.84175
#
# Compressibility (1/GPa) = 0.01884863
#
# Stress axis : x y z
#
# Youngs Moduli (GPa) = 75.28435 97.60460 256.01647
#
# Poissons Ratio (x) = 0.09869 0.40957
# Poissons Ratio (y) = 0.07613 0.43061
# Poissons Ratio (z) = 0.12044 0.16417
#
# Static dielectric constant tensor:
#      x y z
#    x 2.083050 0.000000 0.000000 
#    y 0.000000 1.884960 0.000000 
#    z 0.000000 0.000000 2.038150 
# 
# From -- ./inp_files/3303.got.cif
#   From: 2010.05.17/outbox.cif.g08.bks.cpg/sg59_2_cif.got.tgz:3303.got - 2010.06.03 14:40:33.
