data_PCOD9447599
_publ_section_title
;
Structure prediction by ZEFSAII (Michael W. Deem and Ramdas Pophale) SiO2 
 PCOD9447599
Probable space group: P M M N
;
_chemical_formula_sum "Si O2"
_cell_formula_units_Z 64
_cell_length_a 9.412061
_cell_length_b 24.010292
_cell_length_c 15.765622
_cell_angle_alpha 90.000000
_cell_angle_beta 90.000000
_cell_angle_gamma 90.000000
_cell_volume 3562.815102
_symmetry_space_group_name_H-M "P M M N"
_symmetry_group_IT_number 59
_space_group.IT_coordinate_system_code '2'
_symmetry_cell_setting 'orthorhombic'
loop_
_space_group_symop_operation_xyz
x,y,z
1/2-x,1/2-y,z
1/2+x,-y,-z
-x,1/2+y,-z
-x,-y,-z
1/2+x,1/2+y,-z
1/2-x,y,z
x,1/2-y,z
loop_
_atom_site_type_symbol
_atom_site_label
_atom_site_fract_x
_atom_site_fract_y
_atom_site_fract_z
Si Si1 0.083402 0.869486 0.778554
Si Si2 0.903462 0.022574 0.928136
Si Si3 0.587029 0.683112 0.627412
Si Si4 0.586883 0.152418 0.899374
Si Si5 0.910728 0.001823 0.228459
Si Si6 0.081828 0.122314 0.727860
Si Si7 0.919191 0.814770 0.933874
Si Si8 0.077144 0.314048 0.559252
O O1 0.250000 0.856854 0.792834
O O2 0.076179 0.933805 0.746001
O O3 0.013219 0.834337 0.703563
O O4 0.997854 0.854577 0.865187
O O5 0.750000 0.997885 0.939092
O O6 0.899942 0.088834 0.930596
O O7 0.968998 0.005349 0.840250
O O8 0.000000 0.000000 0.000000
O O9 0.750000 0.663664 0.642231
O O10 0.592244 0.750000 0.622393
O O11 0.535830 0.664104 0.533977
O O12 0.750000 0.174190 0.891190
O O13 0.506131 0.145924 0.808659
O O14 0.494060 0.180802 0.973549
O O15 0.750000 0.997028 0.191802
O O16 0.927825 0.945110 0.282528
O O17 0.250000 0.134650 0.741956
O O18 0.033444 0.150915 0.640861
O O19 0.750000 0.827466 0.939511
O O20 0.932737 0.750000 0.905242
O O21 0.250000 0.313767 0.557824
O O22 0.030299 0.250000 0.568817
#
# Coordination Sequence:
#
# PCOD9447599 Si02
#       8
#     8   8   8   8   8   8   8   8
#     4  11  22  35  52  75 104 137 173 214 261 311
#     4  10  19  30  47  70  95 126 166 209 248 291
#     4   9  18  34  55  78 103 131 168 214 261 311
#     4  10  21  35  50  73 105 136 166 204 254 306
#     4   9  19  33  48  70 101 136 172 208 250 303
#     4   9  17  33  56  78 105 141 176 212 254 300
#     4  11  24  39  54  74 100 133 176 220 260 309
#     4   8  15  30  55  83 104 127 167 215 256 299
#
# _framework density 17.963322999999999
#
# number of rings (size 3 to 8) (size 9 to 14) (size 15 to 20)
#    0.000    2.375    0.000    3.375    0.000    8.750 
#    0.000    2.500    0.000    0.750    0.000    0.000 
#    0.000    0.000    0.000    0.000    0.000    0.000 
#
# Total GULP energy -356284.453716 kJ/mol
# GULP energy per Si atom -5566.944589 kJ/mol
# Density = 1.792244 g / cm^3
# Si number density = 17.963323 Si / 1000 Ang^3
#
#
#
# Elastic Constant Matrix: (Units=GPa)
#
#
# Indices 1 2 3 4 5 6 
#
# 1 91.0748 30.2435 38.4060 0.0000 0.0000 0.0000
# 2 30.2435 44.8066 33.9157 0.0000 0.0000 0.0000
# 3 38.4060 33.9157 83.0674 0.0000 0.0000 0.0000
# 4 0.0000 0.0000 0.0000 18.3524 0.0000 0.0000
# 5 0.0000 0.0000 0.0000 0.0000 11.1578 0.0000
# 6 0.0000 0.0000 0.0000 0.0000 0.0000 14.4405
#
#
#
# Elastic Compliance Matrix: (Units=1/GPa)
#
#
# Indices 1 2 3 4 5 6 
#
# 1 0.015045 -0.007077 -0.004067 0.000000 0.000000 0.000000
# 2 -0.007077 0.035629 -0.011275 0.000000 0.000000 0.000000
# 3 -0.004067 -0.011275 0.018522 0.000000 0.000000 0.000000
# 4 0.000000 0.000000 0.000000 0.054489 0.000000 0.000000
# 5 0.000000 0.000000 0.000000 0.000000 0.089623 0.000000
# 6 0.000000 0.000000 0.000000 0.000000 0.000000 0.069249
#
#
# Mechanical properties :
#
#
# Convention : Reuss Voigt Hill
#
# Bulk Modulus (GPa) = 41.05219 47.11990 44.08605
# Shear Modulus (GPa) = 14.90246 16.54906 15.72576
#
# Velocity S-wave (km/s) = 2.88341 3.03854 2.96199
# Velocity P-wave (km/s) = 5.82995 6.21276 6.02440
#
# Compressibility (1/GPa) = 0.02435924
#
# Stress axis : x y z
#
# Youngs Moduli (GPa) = 66.46790 28.06667 53.98944
#
# Poissons Ratio (x) = 0.19862 0.21955
# Poissons Ratio (y) = 0.47038 0.60874
# Poissons Ratio (z) = 0.27029 0.31646
#
# Static dielectric constant tensor:
#      x y z
#    x 2.235770 0.000000 0.000000 
#    y 0.000000 1.644690 0.000000 
#    z 0.000000 0.000000 1.592790 
# 
# From -- ./inp_files/21567.got.cif
#   From: 2010.05.17/outbox.cif.g08.bks.cpg/sg59_11_cif.got.tgz:21567.got - 2010.06.03 14:40:33.
