data_PCOD9447329
_publ_section_title
;
Structure prediction by ZEFSAII (Michael W. Deem and Ramdas Pophale) SiO2 
 PCOD9447329
Probable space group: P M M N
;
_chemical_formula_sum "Si O2"
_cell_formula_units_Z 64
_cell_length_a 7.450250
_cell_length_b 25.019631
_cell_length_c 16.939691
_cell_angle_alpha 90.000000
_cell_angle_beta 90.000000
_cell_angle_gamma 90.000000
_cell_volume 3157.600851
_symmetry_space_group_name_H-M "P M M N"
_symmetry_group_IT_number 59
_space_group.IT_coordinate_system_code '2'
_symmetry_cell_setting 'orthorhombic'
loop_
_space_group_symop_operation_xyz
x,y,z
1/2-x,1/2-y,z
1/2+x,-y,-z
-x,1/2+y,-z
-x,-y,-z
1/2+x,1/2+y,-z
1/2-x,y,z
x,1/2-y,z
loop_
_atom_site_type_symbol
_atom_site_label
_atom_site_fract_x
_atom_site_fract_y
_atom_site_fract_z
Si Si1 0.961727 0.370795 0.774152
Si Si2 0.969852 0.688972 0.720217
Si Si3 0.469757 0.083633 0.366576
Si Si4 0.041451 0.191166 0.619601
Si Si5 0.533458 0.811248 0.065750
Si Si6 0.955593 0.021557 0.702807
Si Si7 0.544300 0.685139 0.894684
Si Si8 0.468693 0.082539 0.544789
O O1 0.750000 0.373163 0.757989
O O2 0.035541 0.430096 0.754643
O O3 0.035392 0.328930 0.710106
O O4 0.989014 0.349328 0.861740
O O5 0.750000 0.689950 0.722433
O O6 0.025675 0.750000 0.702603
O O7 0.023555 0.642887 0.659894
O O8 0.032899 0.673169 0.808634
O O9 0.250000 0.082472 0.366190
O O10 0.525110 0.070681 0.455912
O O11 0.533482 0.037638 0.306522
O O12 0.250000 0.195087 0.597141
O O13 0.960930 0.250000 0.611431
O O14 0.969276 0.142312 0.568149
O O15 0.750000 0.809020 0.059983
O O16 0.472024 0.750000 0.080757
O O17 0.465410 0.830128 0.979665
O O18 0.750000 0.014811 0.729476
O O19 0.959402 0.044513 0.613375
O O20 0.750000 0.665362 0.893212
O O21 0.549601 0.750000 0.897472
O O22 0.250000 0.080421 0.549279
#
# Coordination Sequence:
#
# PCOD9447329 Si02
#       8
#     8   8   8   8   8   8   8   8
#     4  10  19  28  39  57  81 110 144 176 201 232
#     4   8  13  22  39  65  92 110 127 161 209 253
#     4   9  16  26  42  62  83 108 137 169 206 246
#     4   9  17  28  40  56  83 114 136 161 206 254
#     4   9  16  26  42  63  85 108 134 166 205 246
#     4   9  18  31  43  57  82 114 143 171 205 241
#     4   7  11  21  37  59  86 110 130 157 198 247
#     4   9  17  28  43  63  83 106 140 177 206 237
#
# _framework density 20.268554000000002
#
# number of rings (size 3 to 8) (size 9 to 14) (size 15 to 20)
#    0.000    3.250    0.000    2.625    0.000    3.000 
#    0.000    2.500    0.000    0.750    0.000    1.750 
#    0.000    3.500    0.000    0.000    0.000    0.375 
#
# Total GULP energy -356568.883360 kJ/mol
# GULP energy per Si atom -5571.388802 kJ/mol
# Density = 2.022242 g / cm^3
# Si number density = 20.268554 Si / 1000 Ang^3
#
#
#
# Elastic Constant Matrix: (Units=GPa)
#
#
# Indices 1 2 3 4 5 6 
#
# 1 62.6122 -3.7472 -10.8600 0.0000 0.0000 0.0000
# 2 -3.7472 82.5185 -1.6945 0.0000 0.0000 0.0000
# 3 -10.8600 -1.6945 42.5086 0.0000 0.0000 0.0000
# 4 0.0000 0.0000 0.0000 13.4563 0.0000 0.0000
# 5 0.0000 0.0000 0.0000 0.0000 -5.7656 0.0000
# 6 0.0000 0.0000 0.0000 0.0000 0.0000 4.0147
#
#
#
# Elastic Compliance Matrix: (Units=1/GPa)
#
#
# Indices 1 2 3 4 5 6 
#
# 1 0.016771 0.000850 0.004319 0.000000 0.000000 0.000000
# 2 0.000850 0.012172 0.000702 0.000000 0.000000 0.000000
# 3 0.004319 0.000702 0.024656 0.000000 0.000000 0.000000
# 4 0.000000 0.000000 0.000000 0.074315 0.000000 0.000000
# 5 0.000000 0.000000 0.000000 0.000000 -0.173442 0.000000
# 6 0.000000 0.000000 0.000000 0.000000 0.000000 0.249087
#
#
# Mechanical properties :
#
#
# Convention : Reuss Voigt Hill
#
# Bulk Modulus (GPa) = 15.30425 17.22620 16.26522
# Shear Modulus (GPa) = 23.40858 15.93712 19.67285
#
# Velocity S-wave (km/s) = 3.40210 2.80714 3.11884
# Velocity P-wave (km/s) = 4.79578 4.36167 4.58387
#
# Compressibility (1/GPa) = 0.06534133
#
# Stress axis : x y z
#
# Youngs Moduli (GPa) = 59.62576 82.15890 40.55813
#
# Poissons Ratio (x) = -0.06986 -0.17515
# Poissons Ratio (y) = -0.05070 -0.02849
# Poissons Ratio (z) = -0.25750 -0.05771
#
# Static dielectric constant tensor:
#      x y z
#    x 1.815400 0.000000 0.000000 
#    y 0.000000 1.729750 0.000000 
#    z 0.000000 0.000000 1.715240 
# 
# From -- ./inp_files/26679.got.cif
#   From: 2010.05.17/outbox.cif.g08.bks.cpg/sg59_14_cif.got.tgz:26679.got - 2010.06.03 14:40:33.
