data_PCOD9447452
_publ_section_title
;
Structure prediction by ZEFSAII (Michael W. Deem and Ramdas Pophale) SiO2 
 PCOD9447452
Probable space group: P M M N
;
_chemical_formula_sum "Si O2"
_cell_formula_units_Z 64
_cell_length_a 18.305151
_cell_length_b 7.652781
_cell_length_c 24.007528
_cell_angle_alpha 90.000000
_cell_angle_beta 90.000000
_cell_angle_gamma 90.000000
_cell_volume 3363.102045
_symmetry_space_group_name_H-M "P M M N"
_symmetry_group_IT_number 59
_space_group.IT_coordinate_system_code '2'
_symmetry_cell_setting 'orthorhombic'
loop_
_space_group_symop_operation_xyz
x,y,z
1/2-x,1/2-y,z
1/2+x,-y,-z
-x,1/2+y,-z
-x,-y,-z
1/2+x,1/2+y,-z
1/2-x,y,z
x,1/2-y,z
loop_
_atom_site_type_symbol
_atom_site_label
_atom_site_fract_x
_atom_site_fract_y
_atom_site_fract_z
Si Si1 0.523326 0.456116 0.632163
Si Si2 0.447193 0.539650 0.869949
Si Si3 0.832009 0.959248 0.563054
Si Si4 0.089513 0.037344 0.065145
Si Si5 0.427764 0.040710 0.535891
Si Si6 0.974333 0.960544 0.760720
Si Si7 0.167874 0.458498 0.955473
Si Si8 0.169423 0.037125 0.176989
O O1 0.522649 0.250000 0.623412
O O2 0.602435 0.512240 0.607533
O O3 0.454647 0.527785 0.595951
O O4 0.514217 0.491197 0.697144
O O5 0.450992 0.750000 0.869311
O O6 0.511147 0.476229 0.912088
O O7 0.468012 0.479113 0.807790
O O8 0.370841 0.489506 0.896709
O O9 0.750000 0.024813 0.576503
O O10 0.826662 0.750000 0.558771
O O11 0.861853 0.026738 0.502949
O O12 0.085837 0.250000 0.063053
O O13 0.146728 0.991948 0.113936
O O14 0.117191 0.972076 0.005730
O O15 0.416723 0.250000 0.539919
O O16 0.500000 0.000000 0.500000
O O17 0.973675 0.750000 0.763107
O O18 0.895072 0.022194 0.782490
O O19 0.250000 0.528408 0.958410
O O20 0.172033 0.250000 0.963649
O O21 0.250000 0.974334 0.191130
O O22 0.170094 0.250000 0.179154
#
# Coordination Sequence:
#
# PCOD9447452 Si02
#       8
#     8   8   8   8   8   8   8   8
#     4  10  19  30  46  68  94 123 153 188 228 267
#     4   9  18  32  48  65  88 121 157 192 228 268
#     4   9  17  30  49  71  95 122 150 182 220 265
#     4   8  14  26  44  66  90 114 144 183 228 278
#     4   8  15  28  45  66  90 117 149 180 214 257
#     4   9  18  31  46  65  88 118 159 195 220 258
#     4  10  19  29  45  70  94 114 141 184 238 290
#     4   8  13  23  41  63  86 113 146 184 222 262
#
# _framework density 19.030051
#
# number of rings (size 3 to 8) (size 9 to 14) (size 15 to 20)
#    0.000    3.125    0.000    2.625    0.000    3.500 
#    0.000    1.250    0.000    1.500    0.000    1.750 
#    0.000    0.000    0.000    0.000    0.000    0.000 
#
# Total GULP energy -356387.417548 kJ/mol
# GULP energy per Si atom -5568.553399 kJ/mol
# Density = 1.898674 g / cm^3
# Si number density = 19.030051 Si / 1000 Ang^3
#
#
#
# Elastic Constant Matrix: (Units=GPa)
#
#
# Indices 1 2 3 4 5 6 
#
# 1 56.4784 3.8532 50.8423 0.0000 0.0000 0.0000
# 2 3.8532 34.5380 -1.6161 0.0000 0.0000 0.0000
# 3 50.8423 -1.6161 140.0690 0.0000 0.0000 0.0000
# 4 0.0000 0.0000 0.0000 14.1278 0.0000 0.0000
# 5 0.0000 0.0000 0.0000 0.0000 10.9204 0.0000
# 6 0.0000 0.0000 0.0000 0.0000 0.0000 12.0126
#
#
#
# Elastic Compliance Matrix: (Units=1/GPa)
#
#
# Indices 1 2 3 4 5 6 
#
# 1 0.026700 -0.003434 -0.009731 0.000000 0.000000 0.000000
# 2 -0.003434 0.029411 0.001586 0.000000 0.000000 0.000000
# 3 -0.009731 0.001586 0.010690 0.000000 0.000000 0.000000
# 4 0.000000 0.000000 0.000000 0.070782 0.000000 0.000000
# 5 0.000000 0.000000 0.000000 0.000000 0.091572 0.000000
# 6 0.000000 0.000000 0.000000 0.000000 0.000000 0.083246
#
#
# Mechanical properties :
#
#
# Convention : Reuss Voigt Hill
#
# Bulk Modulus (GPa) = 22.91368 37.47157 30.19263
# Shear Modulus (GPa) = 14.28128 19.27921 16.78025
#
# Velocity S-wave (km/s) = 2.74242 3.18636 2.97269
# Velocity P-wave (km/s) = 4.70051 5.76808 5.26144
#
# Compressibility (1/GPa) = 0.04364205
#
# Stress axis : x y z
#
# Youngs Moduli (GPa) = 37.45259 34.00094 93.54601
#
# Poissons Ratio (x) = 0.11676 0.91033
# Poissons Ratio (y) = 0.12862 -0.14835
# Poissons Ratio (z) = 0.36446 -0.05392
#
# Static dielectric constant tensor:
#      x y z
#    x 1.674910 0.000000 0.000000 
#    y 0.000000 1.729560 0.000000 
#    z 0.000000 0.000000 1.683870 
# 
# From -- ./inp_files/31739.got.cif
#   From: 2010.05.17/outbox.cif.g08.bks.cpg/sg59_16_cif.got.tgz:31739.got - 2010.06.03 14:40:33.
