data_PCOD9447565
_publ_section_title
;
Structure prediction by ZEFSAII (Michael W. Deem and Ramdas Pophale) SiO2 
 PCOD9447565
Probable space group: P M M N
;
_chemical_formula_sum "Si O2"
_cell_formula_units_Z 64
_cell_length_a 8.848566
_cell_length_b 25.715176
_cell_length_c 16.515499
_cell_angle_alpha 90.000000
_cell_angle_beta 90.000000
_cell_angle_gamma 90.000000
_cell_volume 3757.976809
_symmetry_space_group_name_H-M "P M M N"
_symmetry_group_IT_number 59
_space_group.IT_coordinate_system_code '2'
_symmetry_cell_setting 'orthorhombic'
loop_
_space_group_symop_operation_xyz
x,y,z
1/2-x,1/2-y,z
1/2+x,-y,-z
-x,1/2+y,-z
-x,-y,-z
1/2+x,1/2+y,-z
1/2-x,y,z
x,1/2-y,z
loop_
_atom_site_type_symbol
_atom_site_label
_atom_site_fract_x
_atom_site_fract_y
_atom_site_fract_z
Si Si1 0.930837 0.024850 0.120296
Si Si2 0.073646 0.188202 0.328925
Si Si3 0.569164 0.528356 0.703075
Si Si4 0.928833 0.310062 0.981406
Si Si5 0.427795 0.607791 0.574459
Si Si6 0.930478 0.917470 0.032757
Si Si7 0.078906 0.312408 0.150707
Si Si8 0.069022 0.540674 0.435933
O O1 0.750000 0.031032 0.117189
O O2 0.991354 0.033859 0.210448
O O3 0.004608 0.063270 0.054049
O O4 0.968563 0.965579 0.092497
O O5 0.250000 0.174045 0.339590
O O6 0.063771 0.250000 0.329403
O O7 0.028540 0.168502 0.238853
O O8 0.971745 0.164789 0.398360
O O9 0.750000 0.529899 0.713857
O O10 0.518508 0.572225 0.638800
O O11 0.522512 0.475377 0.654388
O O12 0.750000 0.311498 0.968514
O O13 0.980664 0.250000 0.962611
O O14 0.004953 0.361002 0.941843
O O15 0.968677 0.319577 0.075992
O O16 0.250000 0.597665 0.585158
O O17 0.467859 0.594265 0.481531
O O18 0.750000 0.913831 0.027537
O O19 0.250000 0.331914 0.133492
O O20 0.091997 0.250000 0.158804
O O21 0.250000 0.534725 0.436396
O O22 0.000000 0.500000 0.500000
#
# Coordination Sequence:
#
# PCOD9447565 Si02
#       8
#     8   8   8   8   8   8   8   8
#     4  10  21  36  52  73  98 126 163 203 243 287
#     4   9  18  31  44  61  89 125 163 197 230 276
#     4  10  19  32  51  71  94 125 159 192 235 288
#     4  10  20  32  48  71  97 125 159 200 242 283
#     4  10  19  30  46  69  97 126 158 197 236 273
#     4  10  21  36  53  71  97 131 163 198 240 289
#     4   8  15  28  43  58  82 118 158 195 228 268
#     4   8  16  30  46  67  93 120 151 188 227 271
#
# _framework density 17.030441
#
# number of rings (size 3 to 8) (size 9 to 14) (size 15 to 20)
#    0.000    2.625    0.000    2.625    1.750    4.000 
#    0.000    1.250    0.000    0.000    0.000    0.875 
#    0.000    1.000    0.000    0.000    0.000    0.000 
#
# Total GULP energy -356289.305398 kJ/mol
# GULP energy per Si atom -5567.020397 kJ/mol
# Density = 1.699168 g / cm^3
# Si number density = 17.030441 Si / 1000 Ang^3
#
#
#
# Elastic Constant Matrix: (Units=GPa)
#
#
# Indices 1 2 3 4 5 6 
#
# 1 33.3232 24.0862 11.6980 0.0000 0.0000 0.0000
# 2 24.0862 76.6024 8.4187 0.0000 0.0000 0.0000
# 3 11.6980 8.4187 42.2908 0.0000 0.0000 0.0000
# 4 0.0000 0.0000 0.0000 21.5559 0.0000 0.0000
# 5 0.0000 0.0000 0.0000 0.0000 14.4579 0.0000
# 6 0.0000 0.0000 0.0000 0.0000 0.0000 27.1044
#
#
#
# Elastic Compliance Matrix: (Units=1/GPa)
#
#
# Indices 1 2 3 4 5 6 
#
# 1 0.042071 -0.012217 -0.009205 0.000000 0.000000 0.000000
# 2 -0.012217 0.016894 0.000016 0.000000 0.000000 0.000000
# 3 -0.009205 0.000016 0.026189 0.000000 0.000000 0.000000
# 4 0.000000 0.000000 0.000000 0.046391 0.000000 0.000000
# 5 0.000000 0.000000 0.000000 0.000000 0.069166 0.000000
# 6 0.000000 0.000000 0.000000 0.000000 0.000000 0.036894
#
#
# Mechanical properties :
#
#
# Convention : Reuss Voigt Hill
#
# Bulk Modulus (GPa) = 23.61710 26.73580 25.17645
# Shear Modulus (GPa) = 16.97617 19.82456 18.40036
#
# Velocity S-wave (km/s) = 3.16066 3.41554 3.29057
# Velocity P-wave (km/s) = 5.21703 5.59352 5.40855
#
# Compressibility (1/GPa) = 0.04234220
#
# Stress axis : x y z
#
# Youngs Moduli (GPa) = 23.76945 59.19273 38.18427
#
# Poissons Ratio (x) = 0.72314 0.35149
# Poissons Ratio (y) = 0.29038 -0.00062
# Poissons Ratio (z) = 0.21880 -0.00096
#
# Static dielectric constant tensor:
#      x y z
#    x 1.580630 0.000000 0.000000 
#    y 0.000000 1.644770 0.000000 
#    z 0.000000 0.000000 1.570620 
# 
# From -- ./inp_files/26588.got.cif
#   From: 2010.05.17/outbox.cif.g08.bks.cpg/sg59_14_cif.got.tgz:26588.got - 2010.06.03 14:40:33.
