data_PCOD9447231
_publ_section_title
;
Structure prediction by ZEFSAII (Michael W. Deem and Ramdas Pophale) SiO2 
 PCOD9447231
Probable space group: P M M N
;
_chemical_formula_sum "Si O2"
_cell_formula_units_Z 64
_cell_length_a 15.967956
_cell_length_b 8.516529
_cell_length_c 24.451880
_cell_angle_alpha 90.000000
_cell_angle_beta 90.000000
_cell_angle_gamma 90.000000
_cell_volume 3325.249315
_symmetry_space_group_name_H-M "P M M N"
_symmetry_group_IT_number 59
_space_group.IT_coordinate_system_code '2'
_symmetry_cell_setting 'orthorhombic'
loop_
_space_group_symop_operation_xyz
x,y,z
1/2-x,1/2-y,z
1/2+x,-y,-z
-x,1/2+y,-z
-x,-y,-z
1/2+x,1/2+y,-z
1/2-x,y,z
x,1/2-y,z
loop_
_atom_site_type_symbol
_atom_site_label
_atom_site_fract_x
_atom_site_fract_y
_atom_site_fract_z
Si Si1 0.498835 0.938255 0.438478
Si Si2 0.098491 0.061319 0.247283
Si Si3 0.099429 0.938673 0.747771
Si Si4 0.498790 0.061993 0.061446
Si Si5 0.657362 0.561052 0.368050
Si Si6 0.342793 0.558423 0.867579
Si Si7 0.156012 0.937347 0.131399
Si Si8 0.844090 0.560194 0.631902
O O1 0.500790 0.750000 0.439142
O O2 0.581002 0.996687 0.405570
O O3 0.500000 0.000000 0.500000
O O4 0.416241 0.992948 0.406391
O O5 0.107437 0.250000 0.241403
O O6 0.138816 0.014391 0.305020
O O7 0.999526 0.025579 0.249818
O O8 0.138187 0.982671 0.194268
O O9 0.108117 0.750000 0.743445
O O10 0.140358 0.989206 0.804905
O O11 0.139447 0.013600 0.694314
O O12 0.501447 0.250000 0.060691
O O13 0.581040 0.004878 0.094430
O O14 0.416102 0.010213 0.093946
O O15 0.500000 0.000000 0.000000
O O16 0.750000 0.504503 0.384486
O O17 0.657430 0.750000 0.371402
O O18 0.250000 0.508516 0.885218
O O19 0.344332 0.750000 0.867968
O O20 0.250000 0.990542 0.116610
O O21 0.152412 0.750000 0.125761
O O22 0.750000 0.512998 0.615935
O O23 0.848974 0.750000 0.629796
#
# Coordination Sequence:
#
# PCOD9447231 Si02
#       8
#     8   8   8   8   8   8   8   8
#     4  11  24  41  61  84 114 154 200 250 297 348
#     4  10  19  35  61  91 121 154 193 238 295 358
#     4  10  18  33  60  90 117 148 189 233 283 348
#     4  11  23  41  62  86 116 156 201 249 301 355
#     4  10  22  39  58  84 118 154 189 232 292 351
#     4   9  18  34  57  85 116 149 185 229 285 345
#     4  11  24  40  60  88 121 159 202 248 298 351
#     4  10  21  38  61  88 120 157 194 238 297 360
#
# _framework density 19.246677999999999
#
# number of rings (size 3 to 8) (size 9 to 14) (size 15 to 20)
#    0.000    1.750    2.500    1.875    0.000    5.000 
#    0.000    2.500    0.000    1.875    0.000    0.000 
#    0.000    0.000    0.000    0.000    0.000    0.000 
#
# Total GULP energy -357572.533081 kJ/mol
# GULP energy per Si atom -5587.070829 kJ/mol
# Density = 1.920287 g / cm^3
# Si number density = 19.246678 Si / 1000 Ang^3
#
#
#
# Elastic Constant Matrix: (Units=GPa)
#
#
# Indices 1 2 3 4 5 6 
#
# 1 197.7375 36.8865 100.1665 0.0000 0.0000 0.0000
# 2 36.8865 19.8731 25.5101 0.0000 0.0000 0.0000
# 3 100.1665 25.5101 158.9935 0.0000 0.0000 0.0000
# 4 0.0000 0.0000 0.0000 33.6138 0.0000 0.0000
# 5 0.0000 0.0000 0.0000 0.0000 -1.1474 0.0000
# 6 0.0000 0.0000 0.0000 0.0000 0.0000 25.2046
#
#
#
# Elastic Compliance Matrix: (Units=1/GPa)
#
#
# Indices 1 2 3 4 5 6 
#
# 1 0.009330 -0.012308 -0.003904 0.000000 0.000000 0.000000
# 2 -0.012308 0.079606 -0.005019 0.000000 0.000000 0.000000
# 3 -0.003904 -0.005019 0.009554 0.000000 0.000000 0.000000
# 4 0.000000 0.000000 0.000000 0.029750 0.000000 0.000000
# 5 0.000000 0.000000 0.000000 0.000000 -0.871532 0.000000
# 6 0.000000 0.000000 0.000000 0.000000 0.000000 0.039675
#
#
# Mechanical properties :
#
#
# Convention : Reuss Voigt Hill
#
# Bulk Modulus (GPa) = 17.84735 77.97002 47.90869
# Shear Modulus (GPa) = -7.78234 25.80361 9.01064
#
# Velocity S-wave (km/s) = -2.01302 3.66550 2.16606
# Velocity P-wave (km/s) = 1.97233 7.64940 5.58585
#
# Compressibility (1/GPa) = 0.05603072
#
# Stress axis : x y z
#
# Youngs Moduli (GPa) = 107.17569 12.56189 104.66778
#
# Poissons Ratio (x) = 0.15461 0.40857
# Poissons Ratio (y) = 1.31907 0.52530
# Poissons Ratio (z) = 0.41836 0.06304
#
# Static dielectric constant tensor:
#      x y z
#    x 1.677990 0.000000 0.000000 
#    y 0.000000 1.664070 0.000000 
#    z 0.000000 0.000000 1.628520 
# 
# From -- ./inp_files/31439.got.cif
#   From: 2010.05.17/outbox.cif.g08.bks.cpg/sg59_16_cif.got.tgz:31439.got - 2010.06.03 14:40:33.
