data_PCOD9447200
_publ_section_title
;
Structure prediction by ZEFSAII (Michael W. Deem and Ramdas Pophale) SiO2 
 PCOD9447200
Probable space group: P M M N
;
_chemical_formula_sum "Si O2"
_cell_formula_units_Z 56
_cell_length_a 25.033226
_cell_length_b 8.408574
_cell_length_c 15.376760
_cell_angle_alpha 90.000000
_cell_angle_beta 90.000000
_cell_angle_gamma 90.000000
_cell_volume 3236.711618
_symmetry_space_group_name_H-M "P M M N"
_symmetry_group_IT_number 59
_space_group.IT_coordinate_system_code '2'
_symmetry_cell_setting 'orthorhombic'
loop_
_space_group_symop_operation_xyz
x,y,z
1/2-x,1/2-y,z
1/2+x,-y,-z
-x,1/2+y,-z
-x,-y,-z
1/2+x,1/2+y,-z
1/2-x,y,z
x,1/2-y,z
loop_
_atom_site_type_symbol
_atom_site_label
_atom_site_fract_x
_atom_site_fract_y
_atom_site_fract_z
Si Si1 0.576779 0.558084 0.549539
Si Si2 0.065987 0.056395 0.128140
Si Si3 0.448254 0.942761 0.823391
Si Si4 0.859580 0.557978 0.711936
Si Si5 0.865462 0.940267 0.038811
Si Si6 0.250000 0.940367 0.008781
Si Si7 0.538332 0.058791 0.374944
Si Si8 0.250000 0.939741 0.208770
O O1 0.576402 0.750000 0.546447
O O2 0.622665 0.505795 0.615966
O O3 0.520694 0.505921 0.593876
O O4 0.577643 0.495425 0.451570
O O5 0.065509 0.250000 0.126442
O O6 0.096396 0.008418 0.216395
O O7 0.004332 0.004891 0.132369
O O8 0.100384 0.001734 0.045395
O O9 0.447358 0.750000 0.824649
O O10 0.449053 0.995351 0.722587
O O11 0.398287 0.005747 0.877111
O O12 0.859101 0.750000 0.712393
O O13 0.802723 0.497792 0.742873
O O14 0.863918 0.750000 0.034961
O O15 0.805052 0.002278 0.034083
O O16 0.250000 0.750000 0.009328
O O17 0.250000 0.999706 0.109062
O O18 0.537267 0.250000 0.372796
O O19 0.250000 0.750000 0.205781
#
# Coordination Sequence:
#
# PCOD9447200 Si02
#       8
#     8   8   8   8   8   4   8   4
#     4   9  17  30  51  77 103 134 173 213 252 303
#     4   9  17  31  52  76 106 141 175 209 254 314
#     4  10  19  34  53  76 109 146 178 212 260 320
#     4  10  18  33  55  76 103 143 179 209 255 315
#     4  11  22  35  54  78 104 138 179 224 264 304
#     4  11  23  39  55  74 101 138 179 219 264 314
#     4   9  17  30  50  75 105 139 170 206 257 309
#     4  11  23  35  51  78 107 134 173 223 266 306
#
# _framework density 17.301511000000001
#
# number of rings (size 3 to 8) (size 9 to 14) (size 15 to 20)
#    0.000    2.143    2.857    1.286    0.000    1.714 
#    0.000    1.429    0.000    0.857    0.000    4.000 
#    0.000    0.000    0.000    0.000    0.000    0.000 
#
# Total GULP energy -312423.127332 kJ/mol
# GULP energy per Si atom -5578.984417 kJ/mol
# Density = 1.726213 g / cm^3
# Si number density = 17.301511 Si / 1000 Ang^3
#
#
#
# Elastic Constant Matrix: (Units=GPa)
#
#
# Indices 1 2 3 4 5 6 
#
# 1 142.7313 21.6732 76.5781 0.0000 0.0000 0.0000
# 2 21.6732 15.5912 20.2054 0.0000 0.0000 0.0000
# 3 76.5781 20.2054 120.7039 0.0000 0.0000 0.0000
# 4 0.0000 0.0000 0.0000 24.0190 0.0000 0.0000
# 5 0.0000 0.0000 0.0000 0.0000 19.2286 0.0000
# 6 0.0000 0.0000 0.0000 0.0000 0.0000 16.7756
#
#
#
# Elastic Compliance Matrix: (Units=1/GPa)
#
#
# Indices 1 2 3 4 5 6 
#
# 1 0.011399 -0.008267 -0.005848 0.000000 0.000000 0.000000
# 2 -0.008267 0.087903 -0.009470 0.000000 0.000000 0.000000
# 3 -0.005848 -0.009470 0.013580 0.000000 0.000000 0.000000
# 4 0.000000 0.000000 0.000000 0.041634 0.000000 0.000000
# 5 0.000000 0.000000 0.000000 0.000000 0.052006 0.000000
# 6 0.000000 0.000000 0.000000 0.000000 0.000000 0.059610
#
#
# Mechanical properties :
#
#
# Convention : Reuss Voigt Hill
#
# Bulk Modulus (GPa) = 15.21781 57.32664 36.27223
# Shear Modulus (GPa) = 14.91620 22.70928 18.81274
#
# Velocity S-wave (km/s) = 2.93940 3.62686 3.30107
# Velocity P-wave (km/s) = 4.50941 7.12353 5.96152
#
# Compressibility (1/GPa) = 0.06571248
#
# Stress axis : x y z
#
# Youngs Moduli (GPa) = 87.72648 11.37618 73.63701
#
# Poissons Ratio (x) = 0.09405 0.43063
# Poissons Ratio (y) = 0.72523 0.69733
# Poissons Ratio (z) = 0.51303 0.10773
#
# Static dielectric constant tensor:
#      x y z
#    x 1.564520 0.000000 0.000000 
#    y 0.000000 1.599780 0.000000 
#    z 0.000000 0.000000 1.593800 
# 
# From -- ./inp_files/24379.got.cif
#   From: 2010.05.17/outbox.cif.g08.bks.cpg/sg59_13_cif.got.tgz:24379.got - 2010.06.03 14:40:33.
