data_PCOD9447214
_publ_section_title
;
Structure prediction by ZEFSAII (Michael W. Deem and Ramdas Pophale) SiO2 
 PCOD9447214
Probable space group: P M M N
;
_chemical_formula_sum "Si O2"
_cell_formula_units_Z 56
_cell_length_a 22.309144
_cell_length_b 7.867777
_cell_length_c 15.085885
_cell_angle_alpha 90.000000
_cell_angle_beta 90.000000
_cell_angle_gamma 90.000000
_cell_volume 2647.925375
_symmetry_space_group_name_H-M "P M M N"
_symmetry_group_IT_number 59
_space_group.IT_coordinate_system_code '2'
_symmetry_cell_setting 'orthorhombic'
loop_
_space_group_symop_operation_xyz
x,y,z
1/2-x,1/2-y,z
1/2+x,-y,-z
-x,1/2+y,-z
-x,-y,-z
1/2+x,1/2+y,-z
1/2-x,y,z
x,1/2-y,z
loop_
_atom_site_type_symbol
_atom_site_label
_atom_site_fract_x
_atom_site_fract_y
_atom_site_fract_z
Si Si1 0.680027 0.952805 0.945257
Si Si2 0.250000 0.041714 0.762331
Si Si3 0.431781 0.543177 0.360906
Si Si4 0.750000 0.547035 0.441597
Si Si5 0.683496 0.449774 0.744687
Si Si6 0.058932 0.549850 0.717737
Si Si7 0.381718 0.952765 0.541275
Si Si8 0.864818 0.548449 0.127240
O O1 0.750000 0.978996 0.970707
O O2 0.671598 0.750000 0.933398
O O3 0.670770 0.033667 0.849443
O O4 0.639904 0.017532 0.026912
O O5 0.250000 0.250000 0.761038
O O6 0.250000 0.984862 0.660678
O O7 0.190978 0.982939 0.814232
O O8 0.432832 0.750000 0.359656
O O9 0.372251 0.481060 0.310187
O O10 0.491489 0.481938 0.313275
O O11 0.424628 0.485054 0.462675
O O12 0.750000 0.750000 0.442081
O O13 0.687406 0.487038 0.482230
O O14 0.750000 0.524544 0.728205
O O15 0.686850 0.250000 0.723005
O O16 0.069674 0.750000 0.723850
O O17 0.100564 0.476764 0.637914
O O18 0.076882 0.478215 0.813172
O O19 0.389289 0.750000 0.545953
O O20 0.855240 0.750000 0.118510
#
# Coordination Sequence:
#
# PCOD9447214 Si02
#       8
#     8   4   8   4   8   8   8   8
#     4   9  17  31  55  84 112 143 178 221 276 329
#     4   9  16  29  51  78 109 144 180 221 259 313
#     4  10  22  40  61  78 102 150 194 223 270 333
#     4  11  21  33  55  86 115 146 182 227 273 319
#     4   9  19  36  58  83 108 136 179 230 275 325
#     4  11  23  37  54  82 115 145 182 233 278 316
#     4  10  22  38  57  81 113 149 185 227 276 326
#     4  10  18  33  56  81 112 149 186 216 263 337
#
# _framework density 21.148631999999999
#
# number of rings (size 3 to 8) (size 9 to 14) (size 15 to 20)
#    0.000    2.143    2.143    1.071    1.000    2.286 
#    0.000    1.071    0.000    0.000    0.000    0.000 
#    0.000    0.000    0.000    0.000    0.000    0.000 
#
# Total GULP energy -312644.850298 kJ/mol
# GULP energy per Si atom -5582.943755 kJ/mol
# Density = 2.110050 g / cm^3
# Si number density = 21.148632 Si / 1000 Ang^3
#
#
#
# Elastic Constant Matrix: (Units=GPa)
#
#
# Indices 1 2 3 4 5 6 
#
# 1 74.2893 -11.1364 15.3995 0.0000 0.0000 0.0000
# 2 -11.1364 18.3815 -4.0755 0.0000 0.0000 0.0000
# 3 15.3995 -4.0755 38.4381 0.0000 0.0000 0.0000
# 4 0.0000 0.0000 0.0000 12.0816 0.0000 0.0000
# 5 0.0000 0.0000 0.0000 0.0000 27.9330 0.0000
# 6 0.0000 0.0000 0.0000 0.0000 0.0000 19.5377
#
#
#
# Elastic Compliance Matrix: (Units=1/GPa)
#
#
# Indices 1 2 3 4 5 6 
#
# 1 0.015851 0.008393 -0.005460 0.000000 0.000000 0.000000
# 2 0.008393 0.060156 0.003016 0.000000 0.000000 0.000000
# 3 -0.005460 0.003016 0.028523 0.000000 0.000000 0.000000
# 4 0.000000 0.000000 0.000000 0.082771 0.000000 0.000000
# 5 0.000000 0.000000 0.000000 0.000000 0.035800 0.000000
# 6 0.000000 0.000000 0.000000 0.000000 0.000000 0.051183
#
#
# Mechanical properties :
#
#
# Convention : Reuss Voigt Hill
#
# Bulk Modulus (GPa) = 8.58916 14.60934 11.59925
# Shear Modulus (GPa) = 16.60047 20.63856 18.61951
#
# Velocity S-wave (km/s) = 2.80472 3.12730 2.97039
# Velocity P-wave (km/s) = 3.81560 4.46799 4.15462
#
# Compressibility (1/GPa) = 0.11642578
#
# Stress axis : x y z
#
# Youngs Moduli (GPa) = 63.08796 16.62349 35.05916
#
# Poissons Ratio (x) = -0.13951 0.19144
# Poissons Ratio (y) = -0.52947 -0.10573
# Poissons Ratio (z) = 0.34449 -0.05013
#
# Static dielectric constant tensor:
#      x y z
#    x 1.756500 0.000000 0.000000 
#    y 0.000000 1.766380 0.000000 
#    z 0.000000 0.000000 1.780010 
# 
# From -- ./inp_files/21162.got.cif
#   From: 2010.05.17/outbox.cif.g08.bks.cpg/sg59_11_cif.got.tgz:21162.got - 2010.06.03 14:40:33.
