data_PCOD9447248
_publ_section_title
;
Structure prediction by ZEFSAII (Michael W. Deem and Ramdas Pophale) SiO2 
 PCOD9447248
Probable space group: P M M N
;
_chemical_formula_sum "Si O2"
_cell_formula_units_Z 48
_cell_length_a 8.175340
_cell_length_b 10.142530
_cell_length_c 29.487369
_cell_angle_alpha 90.000000
_cell_angle_beta 90.000000
_cell_angle_gamma 90.000000
_cell_volume 2445.052275
_symmetry_space_group_name_H-M "P M M N"
_symmetry_group_IT_number 59
_space_group.IT_coordinate_system_code '2'
_symmetry_cell_setting 'orthorhombic'
loop_
_space_group_symop_operation_xyz
x,y,z
1/2-x,1/2-y,z
1/2+x,-y,-z
-x,1/2+y,-z
-x,-y,-z
1/2+x,1/2+y,-z
1/2-x,y,z
x,1/2-y,z
loop_
_atom_site_type_symbol
_atom_site_label
_atom_site_fract_x
_atom_site_fract_y
_atom_site_fract_z
Si Si1 0.052229 0.750000 0.033055
Si Si2 0.553655 0.750000 0.929321
Si Si3 0.447639 0.900836 0.358763
Si Si4 0.449947 0.530027 0.103993
Si Si5 0.946957 0.398646 0.538087
Si Si6 0.552373 0.396202 0.794895
Si Si7 0.555142 0.400774 0.280791
O O1 0.250000 0.750000 0.030620
O O2 0.999796 0.875837 0.062753
O O3 0.986077 0.750000 0.982468
O O4 0.750000 0.750000 0.924718
O O5 0.492175 0.617274 0.905867
O O6 0.250000 0.899324 0.357878
O O7 0.500599 0.750000 0.347390
O O8 0.501253 0.929999 0.410467
O O9 0.503954 0.011465 0.323923
O O10 0.250000 0.531733 0.104316
O O11 0.501503 0.581339 0.153200
O O12 0.750000 0.397045 0.539145
O O13 0.003572 0.250000 0.527467
O O14 0.000000 0.500000 0.500000
O O15 0.750000 0.395134 0.794498
O O16 0.497553 0.250000 0.779414
O O17 0.498258 0.514617 0.762823
O O18 0.750000 0.392854 0.280506
O O19 0.490018 0.250000 0.281344
#
# Coordination Sequence:
#
# PCOD9447248 Si02
#       7
#     4   4   8   8   8   8   8
#     4  10  18  34  54  74 104 138 172 212 259 310
#     4  10  20  32  50  78 108 136 172 214 255 308
#     4   9  19  38  61  83 109 146 193 236 272 322
#     4   9  18  33  54  78 103 134 174 217 259 310
#     4   9  19  35  55  82 116 151 189 234 279 323
#     4  10  20  37  61  84 104 136 184 229 269 322
#     4  11  25  40  54  80 116 146 175 222 282 337
#
# _framework density 19.631481999999998
#
# number of rings (size 3 to 8) (size 9 to 14) (size 15 to 20)
#    0.000    2.333    0.833    2.500    1.167    5.667 
#    0.000    6.667    0.000    0.000    0.000    0.000 
#    0.000    0.000    0.000    0.000    0.000    0.000 
#
# Total GULP energy -267909.794106 kJ/mol
# GULP energy per Si atom -5581.454044 kJ/mol
# Density = 1.958680 g / cm^3
# Si number density = 19.631482 Si / 1000 Ang^3
#
#
#
# Elastic Constant Matrix: (Units=GPa)
#
#
# Indices 1 2 3 4 5 6 
#
# 1 12.0727 15.9242 8.4817 0.0000 0.0000 0.0000
# 2 15.9242 168.9305 76.9018 0.0000 0.0000 0.0000
# 3 8.4817 76.9018 109.5603 0.0000 0.0000 0.0000
# 4 0.0000 0.0000 0.0000 37.7541 0.0000 0.0000
# 5 0.0000 0.0000 0.0000 0.0000 29.3586 0.0000
# 6 0.0000 0.0000 0.0000 0.0000 0.0000 19.2312
#
#
#
# Elastic Compliance Matrix: (Units=1/GPa)
#
#
# Indices 1 2 3 4 5 6 
#
# 1 0.094775 -0.008221 -0.001567 0.000000 0.000000 0.000000
# 2 -0.008221 0.009412 -0.005970 0.000000 0.000000 0.000000
# 3 -0.001567 -0.005970 0.013439 0.000000 0.000000 0.000000
# 4 0.000000 0.000000 0.000000 0.026487 0.000000 0.000000
# 5 0.000000 0.000000 0.000000 0.000000 0.034062 0.000000
# 6 0.000000 0.000000 0.000000 0.000000 0.000000 0.051999
#
#
# Mechanical properties :
#
#
# Convention : Reuss Voigt Hill
#
# Bulk Modulus (GPa) = 11.61288 54.79765 33.20526
# Shear Modulus (GPa) = 17.21800 29.88585 23.55192
#
# Velocity S-wave (km/s) = 2.96473 3.90595 3.46743
# Velocity P-wave (km/s) = 4.20093 6.95095 5.74297
#
# Compressibility (1/GPa) = 0.08611130
#
# Stress axis : x y z
#
# Youngs Moduli (GPa) = 10.55127 106.24364 74.40878
#
# Poissons Ratio (x) = 0.87340 0.11659
# Poissons Ratio (y) = 0.08674 0.44424
# Poissons Ratio (z) = 0.01653 0.63430
#
# Static dielectric constant tensor:
#      x y z
#    x 1.697020 0.000000 0.000000 
#    y 0.000000 1.698380 0.000000 
#    z 0.000000 0.000000 1.661690 
# 
# From -- ./inp_files/32996.got.cif
#   From: 2010.05.17/outbox.cif.g08.bks.cpg/sg59_17_cif.got.tgz:32996.got - 2010.06.03 14:40:33.
