data_PCOD9447039
_publ_section_title
;
Structure prediction by ZEFSAII (Michael W. Deem and Ramdas Pophale) SiO2 
 PCOD9447039
Probable space group: P M M N
;
_chemical_formula_sum "Si O2"
_cell_formula_units_Z 36
_cell_length_a 19.715557
_cell_length_b 10.304033
_cell_length_c 9.648100
_cell_angle_alpha 90.000000
_cell_angle_beta 90.000000
_cell_angle_gamma 90.000000
_cell_volume 1960.009102
_symmetry_space_group_name_H-M "P M M N"
_symmetry_group_IT_number 59
_space_group.IT_coordinate_system_code '2'
_symmetry_cell_setting 'orthorhombic'
loop_
_space_group_symop_operation_xyz
x,y,z
1/2-x,1/2-y,z
1/2+x,-y,-z
-x,1/2+y,-z
-x,-y,-z
1/2+x,1/2+y,-z
1/2-x,y,z
x,1/2-y,z
loop_
_atom_site_type_symbol
_atom_site_label
_atom_site_fract_x
_atom_site_fract_y
_atom_site_fract_z
Si Si1 0.750000 0.750000 0.408016
Si Si2 0.750000 0.250000 0.434902
Si Si3 0.896772 0.250000 0.291045
Si Si4 0.602957 0.531592 0.664595
Si Si5 0.602723 0.750000 0.427996
Si Si6 0.992981 0.390658 0.112743
Si Si7 0.546717 0.250000 0.593465
Si Si8 0.250000 0.010612 0.379311
O O1 0.673911 0.750000 0.344493
O O2 0.750000 0.875525 0.506798
O O3 0.819354 0.250000 0.343322
O O4 0.750000 0.376224 0.534354
O O5 0.944734 0.250000 0.426679
O O6 0.922238 0.372644 0.198522
O O7 0.600391 0.622495 0.527691
O O8 0.552035 0.589768 0.775503
O O9 0.581375 0.383684 0.637655
O O10 0.681536 0.526830 0.706892
O O11 0.530520 0.750000 0.353851
O O12 0.001358 0.250000 0.043849
O O13 0.000000 0.500000 0.000000
#
# Coordination Sequence:
#
# PCOD9447039 Si02
#       8
#     2   2   4   8   4   8   4   4
#     4   8  20  28  44  74 120 152 180 224 282 354
#     4  12  20  40  58  90 134 160 188 236 324 390
#     4  10  22  39  62  87 123 160 194 257 311 362
#     4  11  20  35  55  89 121 151 196 245 304 359
#     4  10  18  32  48  78 117 151 187 229 303 360
#     4  10  23  42  61  83 115 164 217 257 291 342
#     4  12  20  29  60  89 120 152 190 240 307 385
#     4  10  20  32  57  87 127 160 181 242 309 379
#
# _framework density 18.367262
#
# number of rings (size 3 to 8) (size 9 to 14) (size 15 to 20)
#    0.667    0.889    5.556    0.667    1.556    0.000 
#    0.000    1.111    2.444    0.000    0.000    0.000 
#    0.000    0.000    0.000    0.000    0.000    0.000 
#
# Total GULP energy -200432.630072 kJ/mol
# GULP energy per Si atom -5567.573058 kJ/mol
# Density = 1.832546 g / cm^3
# Si number density = 18.367262 Si / 1000 Ang^3
#
#
#
# Elastic Constant Matrix: (Units=GPa)
#
#
# Indices 1 2 3 4 5 6 
#
# 1 138.6012 -1.1537 5.5495 0.0000 0.0000 0.0000
# 2 -1.1537 107.1751 -2.1431 0.0000 0.0000 0.0000
# 3 5.5495 -2.1431 23.0877 0.0000 0.0000 0.0000
# 4 0.0000 0.0000 0.0000 13.9763 0.0000 0.0000
# 5 0.0000 0.0000 0.0000 0.0000 11.6722 0.0000
# 6 0.0000 0.0000 0.0000 0.0000 0.0000 22.7171
#
#
#
# Elastic Compliance Matrix: (Units=1/GPa)
#
#
# Indices 1 2 3 4 5 6 
#
# 1 0.007285 0.000043 -0.001747 0.000000 0.000000 0.000000
# 2 0.000043 0.009348 0.000857 0.000000 0.000000 0.000000
# 3 -0.001747 0.000857 0.043813 0.000000 0.000000 0.000000
# 4 0.000000 0.000000 0.000000 0.071549 0.000000 0.000000
# 5 0.000000 0.000000 0.000000 0.000000 0.085674 0.000000
# 6 0.000000 0.000000 0.000000 0.000000 0.000000 0.044020
#
#
# Mechanical properties :
#
#
# Convention : Reuss Voigt Hill
#
# Bulk Modulus (GPa) = 17.02031 30.37436 23.69733
# Shear Modulus (GPa) = 17.66997 27.44722 22.55860
#
# Velocity S-wave (km/s) = 3.10504 3.86988 3.50836
# Velocity P-wave (km/s) = 4.70550 6.04493 5.41677
#
# Compressibility (1/GPa) = 0.05875335
#
# Stress axis : x y z
#
# Youngs Moduli (GPa) = 137.26354 106.97321 22.82452
#
# Poissons Ratio (x) = -0.00465 0.03988
# Poissons Ratio (y) = -0.00597 -0.01957
# Poissons Ratio (z) = 0.23981 -0.09171
#
# Static dielectric constant tensor:
#      x y z
#    x 1.680460 0.000000 0.000000 
#    y 0.000000 1.767440 0.000000 
#    z 0.000000 0.000000 1.603530 
# 
# From -- ./inp_files/18133.got.cif
#   From: 2010.05.17/outbox.cif.g08.bks.cpg/sg59_10_cif.got.tgz:18133.got - 2010.06.03 14:40:33.
