data_PCOD9447841
_publ_section_title
;
Structure prediction by ZEFSAII (Michael W. Deem and Ramdas Pophale) SiO2 
 PCOD9447841
Probable space group: P M M N
;
_chemical_formula_sum "Si O2"
_cell_formula_units_Z 56
_cell_length_a 9.395564
_cell_length_b 15.002056
_cell_length_c 19.059690
_cell_angle_alpha 90.000000
_cell_angle_beta 90.000000
_cell_angle_gamma 90.000000
_cell_volume 2686.516240
_symmetry_space_group_name_H-M "P M M N"
_symmetry_group_IT_number 59
_space_group.IT_coordinate_system_code '2'
_symmetry_cell_setting 'orthorhombic'
loop_
_space_group_symop_operation_xyz
x,y,z
1/2-x,1/2-y,z
1/2+x,-y,-z
-x,1/2+y,-z
-x,-y,-z
1/2+x,1/2+y,-z
1/2-x,y,z
x,1/2-y,z
loop_
_atom_site_type_symbol
_atom_site_label
_atom_site_fract_x
_atom_site_fract_y
_atom_site_fract_z
Si Si1 0.588089 0.612018 0.777624
Si Si2 0.409832 0.889954 0.646282
Si Si3 0.581291 0.902940 0.082665
Si Si4 0.089197 0.102244 0.645623
Si Si5 0.911655 0.144407 0.508419
Si Si6 0.079690 0.090745 0.070875
Si Si7 0.585229 0.393326 0.780808
O O1 0.750000 0.637066 0.763350
O O2 0.492736 0.643961 0.713743
O O3 0.550473 0.641402 0.856556
O O4 0.582836 0.502721 0.780274
O O5 0.250000 0.853345 0.643949
O O6 0.472801 0.874934 0.568932
O O7 0.401126 0.996057 0.655827
O O8 0.750000 0.903020 0.097803
O O9 0.495135 0.864373 0.148321
O O10 0.520889 0.003767 0.074145
O O11 0.559062 0.863380 0.004584
O O12 0.250000 0.138104 0.644334
O O13 0.008959 0.114527 0.572314
O O14 0.997226 0.137179 0.711107
O O15 0.750000 0.105703 0.512744
O O16 0.899826 0.250000 0.514439
O O17 0.250000 0.065353 0.073351
O O18 0.750000 0.366554 0.780232
#
# Coordination Sequence:
#
# PCOD9447841 Si02
#       7
#     8   8   8   8   8   8   8
#     4   8  14  24  38  57  82 114 149 183 220 262
#     4   9  18  31  47  68  91 117 151 188 225 266
#     4   9  14  20  32  51  78 112 149 185 220 260
#     4  10  19  31  49  71  92 115 149 191 228 264
#     4  10  21  36  51  67  91 121 149 180 224 276
#     4   8  14  22  31  48  78 115 149 180 220 267
#     4   9  16  26  39  57  84 116 149 182 220 268
#
# _framework density 20.844840999999999
#
# number of rings (size 3 to 8) (size 9 to 14) (size 15 to 20)
#    0.000    3.000    0.000    2.571    0.000    5.429 
#    0.000    0.000    0.000    0.000    0.000    0.000 
#    0.000    1.143    0.000    9.143    0.000    7.286 
#
# Total GULP energy -312146.093948 kJ/mol
# GULP energy per Si atom -5574.037392 kJ/mol
# Density = 2.079740 g / cm^3
# Si number density = 20.844841 Si / 1000 Ang^3
#
#
#
# Elastic Constant Matrix: (Units=GPa)
#
#
# Indices 1 2 3 4 5 6 
#
# 1 121.1906 6.9616 119.8369 0.0000 0.0000 0.0000
# 2 6.9616 43.2265 4.5100 0.0000 0.0000 0.0000
# 3 119.8369 4.5100 243.5791 0.0000 0.0000 0.0000
# 4 0.0000 0.0000 0.0000 -36.4578 0.0000 0.0000
# 5 0.0000 0.0000 0.0000 0.0000 19.9730 0.0000
# 6 0.0000 0.0000 0.0000 0.0000 0.0000 -9.7698
#
#
#
# Elastic Compliance Matrix: (Units=1/GPa)
#
#
# Indices 1 2 3 4 5 6 
#
# 1 0.016204 -0.001781 -0.007939 0.000000 0.000000 0.000000
# 2 -0.001781 0.023375 0.000444 0.000000 0.000000 0.000000
# 3 -0.007939 0.000444 0.008003 0.000000 0.000000 0.000000
# 4 0.000000 0.000000 0.000000 -0.027429 0.000000 0.000000
# 5 0.000000 0.000000 0.000000 0.000000 0.050068 0.000000
# 6 0.000000 0.000000 0.000000 0.000000 0.000000 -0.102356
#
#
# Mechanical properties :
#
#
# Convention : Reuss Voigt Hill
#
# Bulk Modulus (GPa) = 34.44940 74.51258 54.48099
# Shear Modulus (GPa) = -1280.50276 13.19492 -633.65392
#
# Velocity S-wave (km/s) = -24.81201 2.51869 -17.45411
# Velocity P-wave (km/s) = 28.35992 6.65450 19.49362
#
# Compressibility (1/GPa) = 0.02902808
#
# Stress axis : x y z
#
# Youngs Moduli (GPa) = 61.71141 42.78151 124.94910
#
# Poissons Ratio (x) = 0.07621 0.99201
# Poissons Ratio (y) = 0.10993 -0.05543
# Poissons Ratio (z) = 0.48995 -0.01898
#
# Static dielectric constant tensor:
#      x y z
#    x 1.725480 0.000000 0.000000 
#    y 0.000000 1.756070 0.000000 
#    z 0.000000 0.000000 1.773240 
# 
# From -- ./inp_files/26048.got.cif
#   From: 2010.05.17/outbox.cif.g08.bks.cpg/sg59_14_cif.got.tgz:26048.got - 2010.06.03 14:40:33.
