data_PCOD9447217
_publ_section_title
;
Structure prediction by ZEFSAII (Michael W. Deem and Ramdas Pophale) SiO2 
 PCOD9447217
Probable space group: P M M N
;
_chemical_formula_sum "Si O2"
_cell_formula_units_Z 40
_cell_length_a 17.095966
_cell_length_b 20.126244
_cell_length_c 6.446944
_cell_angle_alpha 90.000000
_cell_angle_beta 90.000000
_cell_angle_gamma 90.000000
_cell_volume 2218.248910
_symmetry_space_group_name_H-M "P M M N"
_symmetry_group_IT_number 59
_space_group.IT_coordinate_system_code '2'
_symmetry_cell_setting 'orthorhombic'
loop_
_space_group_symop_operation_xyz
x,y,z
1/2-x,1/2-y,z
1/2+x,-y,-z
-x,1/2+y,-z
-x,-y,-z
1/2+x,1/2+y,-z
1/2-x,y,z
x,1/2-y,z
loop_
_atom_site_type_symbol
_atom_site_label
_atom_site_fract_x
_atom_site_fract_y
_atom_site_fract_z
Si Si1 0.063076 0.947639 0.591347
Si Si2 0.961089 0.878765 0.945559
Si Si3 0.163070 0.060960 0.740664
Si Si4 0.455280 0.822374 0.327696
Si Si5 0.121055 0.177333 0.436756
O O1 0.081883 0.888014 0.430827
O O2 0.018363 0.918612 0.792329
O O3 0.138913 0.990189 0.647235
O O4 0.000000 0.000000 0.500000
O O5 0.900425 0.838833 0.800233
O O6 0.905724 0.921729 0.096636
O O7 0.016905 0.835391 0.093107
O O8 0.250000 0.060844 0.832284
O O9 0.160665 0.116843 0.559055
O O10 0.415802 0.750000 0.347780
O O11 0.536560 0.818596 0.453626
O O12 0.158515 0.250000 0.457357
#
# Coordination Sequence:
#
# PCOD9447217 Si02
#       5
#     8   8   8   8   8
#     4  11  19  36  57  78 106 140 176 222 266 310
#     4  10  18  33  57  76 106 141 184 217 261 311
#     4  11  23  35  50  78 110 142 179 221 266 317
#     4   9  18  31  54  83 104 130 176 223 261 309
#     4   9  18  33  51  74 108 145 177 211 253 308
#
# _framework density 18.032240999999999
#
# number of rings (size 3 to 8) (size 9 to 14) (size 15 to 20)
#    0.000    2.000    6.000    1.200    0.000    2.800 
#    0.000    0.000    0.000    0.600    0.000    0.000 
#    0.000    0.000    0.000    0.000    0.000    0.000 
#
# Total GULP energy -222675.120980 kJ/mol
# GULP energy per Si atom -5566.878025 kJ/mol
# Density = 1.799120 g / cm^3
# Si number density = 18.032241 Si / 1000 Ang^3
#
#
#
# Elastic Constant Matrix: (Units=GPa)
#
#
# Indices 1 2 3 4 5 6 
#
# 1 30.8142 20.9656 1.7987 0.0000 0.0000 0.0000
# 2 20.9656 128.0049 44.1519 0.0000 0.0000 0.0000
# 3 1.7987 44.1519 91.9665 0.0000 0.0000 0.0000
# 4 0.0000 0.0000 0.0000 0.2869 0.0000 0.0000
# 5 0.0000 0.0000 0.0000 0.0000 6.5939 0.0000
# 6 0.0000 0.0000 0.0000 0.0000 0.0000 1.5079
#
#
#
# Elastic Compliance Matrix: (Units=1/GPa)
#
#
# Indices 1 2 3 4 5 6 
#
# 1 0.037043 -0.006972 0.002623 0.000000 0.000000 0.000000
# 2 -0.006972 0.010675 -0.004988 0.000000 0.000000 0.000000
# 3 0.002623 -0.004988 0.013217 0.000000 0.000000 0.000000
# 4 0.000000 0.000000 0.000000 3.485010 0.000000 0.000000
# 5 0.000000 0.000000 0.000000 0.000000 0.151656 0.000000
# 6 0.000000 0.000000 0.000000 0.000000 0.000000 0.663161
#
#
# Mechanical properties :
#
#
# Convention : Reuss Voigt Hill
#
# Bulk Modulus (GPa) = 23.66329 42.73532 33.19931
# Shear Modulus (GPa) = 1.13804 13.93571 7.53687
#
# Velocity S-wave (km/s) = 0.79529 2.78298 2.04664
# Velocity P-wave (km/s) = 3.74093 5.83759 4.90266
#
# Compressibility (1/GPa) = 0.04225955
#
# Stress axis : x y z
#
# Youngs Moduli (GPa) = 26.99565 93.67935 75.65952
#
# Poissons Ratio (x) = 0.65311 -0.19842
# Poissons Ratio (y) = 0.18821 0.37742
# Poissons Ratio (z) = -0.07080 0.46731
#
# Static dielectric constant tensor:
#      x y z
#    x 1.596060 0.000000 0.000000 
#    y 0.000000 1.714650 0.000000 
#    z 0.000000 0.000000 1.667000 
# 
# From -- ./inp_files/2014.got.cif
#   From: 2010.05.17/outbox.cif.g08.bks.cpg/sg59_2_cif.got.tgz:2014.got - 2010.06.03 14:40:33.
