data_PCOD9447354
_publ_section_title
;
Structure prediction by ZEFSAII (Michael W. Deem and Ramdas Pophale) SiO2 
 PCOD9447354
Probable space group: P M M N
;
_chemical_formula_sum "Si O2"
_cell_formula_units_Z 56
_cell_length_a 25.253199
_cell_length_b 8.988210
_cell_length_c 16.578403
_cell_angle_alpha 90.000000
_cell_angle_beta 90.000000
_cell_angle_gamma 90.000000
_cell_volume 3762.983416
_symmetry_space_group_name_H-M "P M M N"
_symmetry_group_IT_number 59
_space_group.IT_coordinate_system_code '2'
_symmetry_cell_setting 'orthorhombic'
loop_
_space_group_symop_operation_xyz
x,y,z
1/2-x,1/2-y,z
1/2+x,-y,-z
-x,1/2+y,-z
-x,-y,-z
1/2+x,1/2+y,-z
1/2-x,y,z
x,1/2-y,z
loop_
_atom_site_type_symbol
_atom_site_label
_atom_site_fract_x
_atom_site_fract_y
_atom_site_fract_z
Si Si1 0.583205 0.929223 0.009797
Si Si2 0.014072 0.572533 0.126245
Si Si3 0.687418 0.925561 0.277894
Si Si4 0.397056 0.927001 0.609050
Si Si5 0.053545 0.071812 0.464490
Si Si6 0.690171 0.931151 0.091919
Si Si7 0.007387 0.072234 0.300116
O O1 0.583253 0.750000 0.000394
O O2 0.541609 0.964904 0.081660
O O3 0.641982 0.978906 0.035201
O O4 0.559688 0.002857 0.929769
O O5 0.018803 0.750000 0.127140
O O6 0.014983 0.509746 0.216187
O O7 0.750000 0.940726 0.293357
O O8 0.673911 0.750000 0.283976
O O9 0.678529 0.972742 0.184867
O O10 0.652319 0.017051 0.339599
O O11 0.396730 0.750000 0.598084
O O12 0.450133 0.964839 0.660614
O O13 0.401498 0.005618 0.522009
O O14 0.051277 0.250000 0.472555
O O15 0.050840 0.036583 0.369303
O O16 0.000000 0.000000 0.500000
O O17 0.750000 0.980480 0.071047
O O18 0.690842 0.750000 0.090996
O O19 0.008337 0.250000 0.286903
#
# Coordination Sequence:
#
# PCOD9447354 Si02
#       7
#     8   8   8   8   8   8   8
#     4   9  17  29  43  61  87 115 143 178 218 258
#     4  10  19  28  42  63  86 116 148 177 214 261
#     4   9  17  29  45  65  89 117 149 182 214 252
#     4  10  19  29  43  64  90 119 147 177 215 256
#     4   9  17  29  44  63  87 113 142 174 210 253
#     4   8  14  26  45  66  85 110 147 184 216 255
#     4   9  18  30  43  62  87 114 143 176 214 254
#
# _framework density 14.881807999999999
#
# number of rings (size 3 to 8) (size 9 to 14) (size 15 to 20)
#    0.000    2.857    0.000    3.857    0.000    5.429 
#    0.000    0.714    0.000    1.286    0.000    1.000 
#    0.000    3.429    0.000    0.000    0.000    0.000 
#
# Total GULP energy -311907.956207 kJ/mol
# GULP energy per Si atom -5569.784932 kJ/mol
# Density = 1.484794 g / cm^3
# Si number density = 14.881808 Si / 1000 Ang^3
#
#
#
# Elastic Constant Matrix: (Units=GPa)
#
#
# Indices 1 2 3 4 5 6 
#
# 1 61.4015 28.0754 46.8426 0.0000 0.0000 0.0000
# 2 28.0754 36.0899 48.9435 0.0000 0.0000 0.0000
# 3 46.8426 48.9435 121.7462 0.0000 0.0000 0.0000
# 4 0.0000 0.0000 0.0000 24.3886 0.0000 0.0000
# 5 0.0000 0.0000 0.0000 0.0000 24.7775 0.0000
# 6 0.0000 0.0000 0.0000 0.0000 0.0000 18.8544
#
#
#
# Elastic Compliance Matrix: (Units=1/GPa)
#
#
# Indices 1 2 3 4 5 6 
#
# 1 0.026197 -0.014754 -0.004148 0.000000 0.000000 0.000000
# 2 -0.014754 0.069233 -0.022156 0.000000 0.000000 0.000000
# 3 -0.004148 -0.022156 0.018717 0.000000 0.000000 0.000000
# 4 0.000000 0.000000 0.000000 0.041003 0.000000 0.000000
# 5 0.000000 0.000000 0.000000 0.000000 0.040359 0.000000
# 6 0.000000 0.000000 0.000000 0.000000 0.000000 0.053038
#
#
# Mechanical properties :
#
#
# Convention : Reuss Voigt Hill
#
# Bulk Modulus (GPa) = 31.21986 51.88450 41.55218
# Shear Modulus (GPa) = 14.64819 19.96251 17.30535
#
# Velocity S-wave (km/s) = 3.14076 3.66649 3.41376
# Velocity P-wave (km/s) = 5.84608 7.27078 6.59700
#
# Compressibility (1/GPa) = 0.03203089
#
# Stress axis : x y z
#
# Youngs Moduli (GPa) = 38.17246 14.44403 53.42780
#
# Poissons Ratio (x) = 0.21310 0.22163
# Poissons Ratio (y) = 0.56318 1.18374
# Poissons Ratio (z) = 0.15835 0.32002
#
# Static dielectric constant tensor:
#      x y z
#    x 1.496950 0.000000 0.000000 
#    y 0.000000 1.491320 0.000000 
#    z 0.000000 0.000000 1.488940 
# 
# From -- ./inp_files/28025.got.cif
#   From: 2010.05.17/outbox.cif.g08.bks.cpg/sg59_15_cif.got.tgz:28025.got - 2010.06.03 14:40:33.
