data_PCOD9447868
_publ_section_title
;
Structure prediction by ZEFSAII (Michael W. Deem and Ramdas Pophale) SiO2 
 PCOD9447868
Probable space group: P M M N
;
_chemical_formula_sum "Si O2"
_cell_formula_units_Z 48
_cell_length_a 8.817151
_cell_length_b 14.122210
_cell_length_c 24.478929
_cell_angle_alpha 90.000000
_cell_angle_beta 90.000000
_cell_angle_gamma 90.000000
_cell_volume 3048.058910
_symmetry_space_group_name_H-M "P M M N"
_symmetry_group_IT_number 59
_space_group.IT_coordinate_system_code '2'
_symmetry_cell_setting 'orthorhombic'
loop_
_space_group_symop_operation_xyz
x,y,z
1/2-x,1/2-y,z
1/2+x,-y,-z
-x,1/2+y,-z
-x,-y,-z
1/2+x,1/2+y,-z
1/2-x,y,z
x,1/2-y,z
loop_
_atom_site_type_symbol
_atom_site_label
_atom_site_fract_x
_atom_site_fract_y
_atom_site_fract_z
Si Si1 0.066837 0.044732 0.082762
Si Si2 0.568711 0.965493 0.585276
Si Si3 0.932117 0.638917 0.805029
Si Si4 0.932926 0.356587 0.977523
Si Si5 0.567245 0.858936 0.473558
Si Si6 0.568648 0.360344 0.311872
O O1 0.250000 0.051417 0.080749
O O2 0.018568 0.078028 0.142716
O O3 0.022717 0.937952 0.065696
O O4 0.000014 0.112017 0.035753
O O5 0.750000 0.967811 0.589128
O O6 0.527015 0.897243 0.534106
O O7 0.499837 0.924018 0.640435
O O8 0.506418 0.068582 0.569012
O O9 0.750000 0.630405 0.799230
O O10 0.966033 0.750000 0.815557
O O11 0.008870 0.611936 0.748013
O O12 0.750000 0.358199 0.981317
O O13 0.980602 0.250000 0.963447
O O14 0.750000 0.864211 0.468817
O O15 0.520814 0.750000 0.466841
O O16 0.750000 0.365275 0.313076
O O17 0.523125 0.250000 0.320553
#
# Coordination Sequence:
#
# PCOD9447868 Si02
#       6
#     8   8   8   8   8   8
#     4   9  17  29  45  65  89 118 151 184 221 268
#     4  10  19  31  49  72  97 124 155 190 228 272
#     4   9  17  29  45  64  86 114 149 188 228 269
#     4   9  17  28  43  65  92 119 146 180 223 267
#     4   9  18  32  49  70  97 127 156 188 228 271
#     4  10  20  32  47  68  93 121 153 189 230 276
#
# _framework density 15.747728
#
# number of rings (size 3 to 8) (size 9 to 14) (size 15 to 20)
#    0.000    2.667    0.000    2.000    0.000    4.333 
#    0.000    1.667    0.000    1.000    0.000    2.333 
#    0.000    0.000    0.000    0.000    0.000    0.000 
#
# Total GULP energy -267616.924498 kJ/mol
# GULP energy per Si atom -5575.352594 kJ/mol
# Density = 1.571189 g / cm^3
# Si number density = 15.747728 Si / 1000 Ang^3
#
#
#
# Elastic Constant Matrix: (Units=GPa)
#
#
# Indices 1 2 3 4 5 6 
#
# 1 18.6461 35.4946 39.2705 0.0000 0.0000 0.0000
# 2 35.4946 129.3709 88.6049 0.0000 0.0000 0.0000
# 3 39.2705 88.6049 149.2510 0.0000 0.0000 0.0000
# 4 0.0000 0.0000 0.0000 22.7909 0.0000 0.0000
# 5 0.0000 0.0000 0.0000 0.0000 24.9421 0.0000
# 6 0.0000 0.0000 0.0000 0.0000 0.0000 20.8563
#
#
#
# Elastic Compliance Matrix: (Units=1/GPa)
#
#
# Indices 1 2 3 4 5 6 
#
# 1 0.156728 -0.024868 -0.026474 0.000000 0.000000 0.000000
# 2 -0.024868 0.016972 -0.003532 0.000000 0.000000 0.000000
# 3 -0.026474 -0.003532 0.015763 0.000000 0.000000 0.000000
# 4 0.000000 0.000000 0.000000 0.043877 0.000000 0.000000
# 5 0.000000 0.000000 0.000000 0.000000 0.040093 0.000000
# 6 0.000000 0.000000 0.000000 0.000000 0.000000 0.047947
#
#
# Mechanical properties :
#
#
# Convention : Reuss Voigt Hill
#
# Bulk Modulus (GPa) = 12.54507 69.33423 40.93965
# Shear Modulus (GPa) = 10.92418 22.64440 16.78429
#
# Velocity S-wave (km/s) = 2.63667 3.79614 3.26824
# Velocity P-wave (km/s) = 4.15367 7.95851 6.34787
#
# Compressibility (1/GPa) = 0.07971257
#
# Stress axis : x y z
#
# Youngs Moduli (GPa) = 6.38050 58.92084 63.43980
#
# Poissons Ratio (x) = 1.46526 1.67952
# Poissons Ratio (y) = 0.15867 0.22409
# Poissons Ratio (z) = 0.16892 0.20813
#
# Static dielectric constant tensor:
#      x y z
#    x 1.524870 0.000000 0.000000 
#    y 0.000000 1.525340 0.000000 
#    z 0.000000 0.000000 1.498380 
# 
# From -- ./inp_files/28840.got.cif
#   From: 2010.05.17/outbox.cif.g08.bks.cpg/sg59_15_cif.got.tgz:28840.got - 2010.06.03 14:40:33.
