data_PCOD9447712
_publ_section_title
;
Structure prediction by ZEFSAII (Michael W. Deem and Ramdas Pophale) SiO2 
 PCOD9447712
Probable space group: P M M N
;
_chemical_formula_sum "Si O2"
_cell_formula_units_Z 56
_cell_length_a 15.612353
_cell_length_b 7.669933
_cell_length_c 22.235560
_cell_angle_alpha 90.000000
_cell_angle_beta 90.000000
_cell_angle_gamma 90.000000
_cell_volume 2662.612730
_symmetry_space_group_name_H-M "P M M N"
_symmetry_group_IT_number 59
_space_group.IT_coordinate_system_code '2'
_symmetry_cell_setting 'orthorhombic'
loop_
_space_group_symop_operation_xyz
x,y,z
1/2-x,1/2-y,z
1/2+x,-y,-z
-x,1/2+y,-z
-x,-y,-z
1/2+x,1/2+y,-z
1/2-x,y,z
x,1/2-y,z
loop_
_atom_site_type_symbol
_atom_site_label
_atom_site_fract_x
_atom_site_fract_y
_atom_site_fract_z
Si Si1 0.656195 0.537084 0.694802
Si Si2 0.491895 0.456046 0.914343
Si Si3 0.158405 0.954060 0.696924
Si Si4 0.091987 0.462578 0.435278
Si Si5 0.500903 0.461389 0.225499
Si Si6 0.391568 0.452186 0.565310
Si Si7 0.650750 0.455695 0.993261
O O1 0.750000 0.480175 0.713351
O O2 0.654339 0.750000 0.694286
O O3 0.637463 0.484317 0.626081
O O4 0.584159 0.476853 0.740626
O O5 0.490934 0.250000 0.926181
O O6 0.493340 0.487855 0.843592
O O7 0.404793 0.525789 0.945351
O O8 0.580269 0.526952 0.944928
O O9 0.250000 0.034715 0.711180
O O10 0.161567 0.750000 0.712593
O O11 0.080227 0.028123 0.734779
O O12 0.143200 0.962555 0.625483
O O13 0.088512 0.250000 0.436875
O O14 0.132535 0.519559 0.498837
O O15 0.994616 0.529172 0.432608
O O16 0.500010 0.250000 0.228048
O O17 0.367105 0.250000 0.568491
O O18 0.750000 0.524203 0.994241
O O19 0.659196 0.250000 0.981050
#
# Coordination Sequence:
#
# PCOD9447712 Si02
#       7
#     8   8   8   8   8   8   8
#     4   9  17  31  53  77 100 133 180 227 266 314
#     4  10  21  36  57  87 118 146 179 223 271 309
#     4  10  21  37  55  73  99 141 187 227 271 326
#     4   9  17  32  52  74 102 137 175 218 273 336
#     4  10  20  36  55  76 107 146 187 222 260 319
#     4  10  19  30  51  78 103 132 172 226 284 331
#     4   9  19  38  62  86 115 151 185 214 254 316
#
# _framework density 21.031973000000001
#
# number of rings (size 3 to 8) (size 9 to 14) (size 15 to 20)
#    0.000    2.429    1.429    0.857    0.000    4.000 
#    0.000    2.857    0.000    1.286    0.000    0.000 
#    0.000    0.000    0.000    0.000    0.000    0.000 
#
# Total GULP energy -312345.192902 kJ/mol
# GULP energy per Si atom -5577.592730 kJ/mol
# Density = 2.098410 g / cm^3
# Si number density = 21.031973 Si / 1000 Ang^3
#
#
#
# Elastic Constant Matrix: (Units=GPa)
#
#
# Indices 1 2 3 4 5 6 
#
# 1 172.1583 4.5335 75.2621 0.0000 0.0000 0.0000
# 2 4.5335 39.1735 -6.9144 0.0000 0.0000 0.0000
# 3 75.2621 -6.9144 139.1525 0.0000 0.0000 0.0000
# 4 0.0000 0.0000 0.0000 6.5363 0.0000 0.0000
# 5 0.0000 0.0000 0.0000 0.0000 -59.4569 0.0000
# 6 0.0000 0.0000 0.0000 0.0000 0.0000 1.6587
#
#
#
# Elastic Compliance Matrix: (Units=1/GPa)
#
#
# Indices 1 2 3 4 5 6 
#
# 1 0.007711 -0.001643 -0.004252 0.000000 0.000000 0.000000
# 2 -0.001643 0.026103 0.002186 0.000000 0.000000 0.000000
# 3 -0.004252 0.002186 0.009595 0.000000 0.000000 0.000000
# 4 0.000000 0.000000 0.000000 0.152991 0.000000 0.000000
# 5 0.000000 0.000000 0.000000 0.000000 -0.016819 0.000000
# 6 0.000000 0.000000 0.000000 0.000000 0.000000 0.602890
#
#
# Mechanical properties :
#
#
# Convention : Reuss Voigt Hill
#
# Bulk Modulus (GPa) = 27.78532 55.13851 41.46191
# Shear Modulus (GPa) = 6.23530 8.25450 7.24490
#
# Velocity S-wave (km/s) = 1.72369 1.98324 1.85801
# Velocity P-wave (km/s) = 4.14743 5.61407 4.93553
#
# Compressibility (1/GPa) = 0.03599023
#
# Stress axis : x y z
#
# Youngs Moduli (GPa) = 129.68930 38.30922 104.22377
#
# Poissons Ratio (x) = 0.06294 0.44317
# Poissons Ratio (y) = 0.21306 -0.22779
# Poissons Ratio (z) = 0.55145 -0.08373
#
# Static dielectric constant tensor:
#      x y z
#    x 1.775850 0.000000 0.000000 
#    y 0.000000 1.786370 0.000000 
#    z 0.000000 0.000000 1.727680 
# 
# From -- ./inp_files/30298.got.cif
#   From: 2010.05.17/outbox.cif.g08.bks.cpg/sg59_16_cif.got.tgz:30298.got - 2010.06.03 14:40:33.
