data_PCOD9447171
_publ_section_title
;
Structure prediction by ZEFSAII (Michael W. Deem and Ramdas Pophale) SiO2 
 PCOD9447171
Probable space group: P M M N
;
_chemical_formula_sum "Si O2"
_cell_formula_units_Z 56
_cell_length_a 24.230610
_cell_length_b 7.776144
_cell_length_c 13.612849
_cell_angle_alpha 90.000000
_cell_angle_beta 90.000000
_cell_angle_gamma 90.000000
_cell_volume 2564.942709
_symmetry_space_group_name_H-M "P M M N"
_symmetry_group_IT_number 59
_space_group.IT_coordinate_system_code '2'
_symmetry_cell_setting 'orthorhombic'
loop_
_space_group_symop_operation_xyz
x,y,z
1/2-x,1/2-y,z
1/2+x,-y,-z
-x,1/2+y,-z
-x,-y,-z
1/2+x,1/2+y,-z
1/2-x,y,z
x,1/2-y,z
loop_
_atom_site_type_symbol
_atom_site_label
_atom_site_fract_x
_atom_site_fract_y
_atom_site_fract_z
Si Si1 0.250000 0.952714 0.612003
Si Si2 0.189766 0.039531 0.224749
Si Si3 0.250000 0.042197 0.838949
Si Si4 0.629578 0.451541 0.452520
Si Si5 0.334333 0.040350 0.003864
Si Si6 0.041019 0.048061 0.708330
Si Si7 0.082484 0.448188 0.342082
Si Si8 0.949975 0.956561 0.069402
O O1 0.250000 0.750000 0.590207
O O2 0.308796 0.020776 0.571648
O O3 0.250000 0.973239 0.729599
O O4 0.250000 0.985991 0.265463
O O5 0.188877 0.250000 0.228916
O O6 0.186892 0.986841 0.110444
O O7 0.134418 0.979271 0.279789
O O8 0.250000 0.250000 0.830878
O O9 0.300798 0.988309 0.907477
O O10 0.634554 0.250000 0.477081
O O11 0.587203 0.467056 0.361800
O O12 0.601735 0.541635 0.545466
O O13 0.331718 0.250000 0.006000
O O14 0.395807 0.980408 0.985605
O O15 0.054260 0.250000 0.709688
O O16 0.044398 0.978604 0.819481
O O17 0.977826 0.029154 0.672101
O O18 0.075645 0.250000 0.311786
O O19 0.945804 0.750000 0.076454
O O20 0.000000 0.000000 0.000000
#
# Coordination Sequence:
#
# PCOD9447171 Si02
#       8
#     4   8   4   8   8   8   8   8
#     4  10  24  42  59  84 120 156 189 236 303 368
#     4   9  17  31  53  86 122 154 194 244 296 351
#     4  10  18  32  59  86 110 146 191 238 279 332
#     4  11  24  43  64  86 117 158 200 246 306 367
#     4   9  16  30  53  83 115 147 187 234 284 335
#     4  11  23  41  62  89 123 158 203 253 301 356
#     4  11  23  38  62  90 119 156 202 253 305 360
#     4  10  21  35  55  84 118 155 194 240 291 347
#
# _framework density 21.832846
#
# number of rings (size 3 to 8) (size 9 to 14) (size 15 to 20)
#    0.000    1.857    0.714    3.429    1.000    4.571 
#    0.000    0.714    0.000    1.714    0.000    0.000 
#    0.000    0.000    0.000    0.000    0.000    0.000 
#
# Total GULP energy -312769.823021 kJ/mol
# GULP energy per Si atom -5585.175411 kJ/mol
# Density = 2.178315 g / cm^3
# Si number density = 21.832846 Si / 1000 Ang^3
#
#
#
# Elastic Constant Matrix: (Units=GPa)
#
#
# Indices 1 2 3 4 5 6 
#
# 1 152.7576 -4.6435 26.7460 0.0000 0.0000 0.0000
# 2 -4.6435 34.5835 -12.3755 0.0000 0.0000 0.0000
# 3 26.7460 -12.3755 77.0746 0.0000 0.0000 0.0000
# 4 0.0000 0.0000 0.0000 13.0423 0.0000 0.0000
# 5 0.0000 0.0000 0.0000 0.0000 36.1906 0.0000
# 6 0.0000 0.0000 0.0000 0.0000 0.0000 -18.4513
#
#
#
# Elastic Compliance Matrix: (Units=1/GPa)
#
#
# Indices 1 2 3 4 5 6 
#
# 1 0.006970 0.000075 -0.002407 0.000000 0.000000 0.000000
# 2 0.000075 0.030679 0.004900 0.000000 0.000000 0.000000
# 3 -0.002407 0.004900 0.014596 0.000000 0.000000 0.000000
# 4 0.000000 0.000000 0.000000 0.076673 0.000000 0.000000
# 5 0.000000 0.000000 0.000000 0.000000 0.027631 0.000000
# 6 0.000000 0.000000 0.000000 0.000000 0.000000 -0.054197
#
#
# Mechanical properties :
#
#
# Convention : Reuss Voigt Hill
#
# Bulk Modulus (GPa) = 17.42725 31.54108 24.48417
# Shear Modulus (GPa) = 42.97575 23.13557 33.05566
#
# Velocity S-wave (km/s) = 4.44148 3.25879 3.89528
# Velocity P-wave (km/s) = 5.85677 5.35141 5.60978
#
# Compressibility (1/GPa) = 0.05738140
#
# Stress axis : x y z
#
# Youngs Moduli (GPa) = 143.47261 32.59557 68.51009
#
# Poissons Ratio (x) = -0.00243 0.16488
# Poissons Ratio (y) = -0.01071 -0.33570
# Poissons Ratio (z) = 0.34530 -0.15972
#
# Static dielectric constant tensor:
#      x y z
#    x 1.760860 0.000000 0.000000 
#    y 0.000000 1.805180 0.000000 
#    z 0.000000 0.000000 1.757390 
# 
# From -- ./inp_files/24424.got.cif
#   From: 2010.05.17/outbox.cif.g08.bks.cpg/sg59_13_cif.got.tgz:24424.got - 2010.06.03 14:40:33.
