data_PCOD9447741
_publ_section_title
;
Structure prediction by ZEFSAII (Michael W. Deem and Ramdas Pophale) SiO2 
 PCOD9447741
Probable space group: P M M N
;
_chemical_formula_sum "Si O2"
_cell_formula_units_Z 64
_cell_length_a 9.191984
_cell_length_b 22.789456
_cell_length_c 17.793675
_cell_angle_alpha 90.000000
_cell_angle_beta 90.000000
_cell_angle_gamma 90.000000
_cell_volume 3727.424643
_symmetry_space_group_name_H-M "P M M N"
_symmetry_group_IT_number 59
_space_group.IT_coordinate_system_code '2'
_symmetry_cell_setting 'orthorhombic'
loop_
_space_group_symop_operation_xyz
x,y,z
1/2-x,1/2-y,z
1/2+x,-y,-z
-x,1/2+y,-z
-x,-y,-z
1/2+x,1/2+y,-z
1/2-x,y,z
x,1/2-y,z
loop_
_atom_site_type_symbol
_atom_site_label
_atom_site_fract_x
_atom_site_fract_y
_atom_site_fract_z
Si Si1 0.426006 0.896314 0.925200
Si Si2 0.915543 0.409479 0.302484
Si Si3 0.520337 0.998467 0.174511
Si Si4 0.913834 0.613789 0.079039
Si Si5 0.423521 0.487796 0.421076
Si Si6 0.423243 0.319614 0.195696
Si Si7 0.091038 0.583629 0.295800
Si Si8 0.575856 0.815161 0.222206
O O1 0.250000 0.902540 0.917059
O O2 0.487729 0.841679 0.877428
O O3 0.508558 0.952412 0.888256
O O4 0.474804 0.892143 0.011063
O O5 0.750000 0.391613 0.319499
O O6 0.906821 0.461550 0.239531
O O7 0.998144 0.435980 0.374350
O O8 0.007791 0.357808 0.263374
O O9 0.594012 0.946062 0.127925
O O10 0.408270 0.961902 0.225492
O O11 0.750000 0.626547 0.051027
O O12 0.961736 0.663518 0.138021
O O13 0.500000 0.500000 0.500000
O O14 0.250000 0.477148 0.428528
O O15 0.442116 0.545196 0.368617
O O16 0.250000 0.332298 0.188278
O O17 0.440227 0.250000 0.206514
O O18 0.250000 0.610167 0.303199
O O19 0.980023 0.634885 0.277704
O O20 0.750000 0.814564 0.225112
O O21 0.520500 0.750000 0.237898
#
# Coordination Sequence:
#
# PCOD9447741 Si02
#       8
#     8   8   8   8   8   8   8   8
#     4  11  22  33  47  70  98 128 167 214 264 312
#     4  10  19  33  55  81 107 134 167 206 250 301
#     4   9  18  31  48  70  98 129 164 205 253 308
#     4  10  19  31  47  67  96 131 166 208 258 309
#     4  10  20  34  54  83 116 143 167 198 242 294
#     4  10  21  37  55  73  96 131 174 215 255 301
#     4   9  19  33  52  78 103 130 166 206 245 291
#     4   9  19  35  53  72  96 130 171 211 252 300
#
# _framework density 17.170033
#
# number of rings (size 3 to 8) (size 9 to 14) (size 15 to 20)
#    0.000    2.250    0.000    3.750    0.000   11.250 
#    0.000    1.250    0.000    0.750    0.000    3.500 
#    0.000    0.000    0.000    0.000    0.000    0.000 
#
# Total GULP energy -356282.950152 kJ/mol
# GULP energy per Si atom -5566.921096 kJ/mol
# Density = 1.713095 g / cm^3
# Si number density = 17.170033 Si / 1000 Ang^3
#
#
#
# Elastic Constant Matrix: (Units=GPa)
#
#
# Indices 1 2 3 4 5 6 
#
# 1 73.7764 49.7825 60.4196 0.0000 0.0000 0.0000
# 2 49.7825 85.8014 29.8774 0.0000 0.0000 0.0000
# 3 60.4196 29.8774 101.7525 0.0000 0.0000 0.0000
# 4 0.0000 0.0000 0.0000 11.8578 0.0000 0.0000
# 5 0.0000 0.0000 0.0000 0.0000 13.3571 0.0000
# 6 0.0000 0.0000 0.0000 0.0000 0.0000 10.8743
#
#
#
# Elastic Compliance Matrix: (Units=1/GPa)
#
#
# Indices 1 2 3 4 5 6 
#
# 1 0.040698 -0.016929 -0.019195 0.000000 0.000000 0.000000
# 2 -0.016929 0.020024 0.004173 0.000000 0.000000 0.000000
# 3 -0.019195 0.004173 0.020000 0.000000 0.000000 0.000000
# 4 0.000000 0.000000 0.000000 0.084333 0.000000 0.000000
# 5 0.000000 0.000000 0.000000 0.000000 0.074866 0.000000
# 6 0.000000 0.000000 0.000000 0.000000 0.000000 0.091960
#
#
# Mechanical properties :
#
#
# Convention : Reuss Voigt Hill
#
# Bulk Modulus (GPa) = 59.45528 60.16548 59.81038
# Shear Modulus (GPa) = 12.45672 15.30124 13.87898
#
# Velocity S-wave (km/s) = 2.69642 2.98847 2.84619
# Velocity P-wave (km/s) = 6.66309 6.85748 6.76098
#
# Compressibility (1/GPa) = 0.01681936
#
# Stress axis : x y z
#
# Youngs Moduli (GPa) = 24.57153 49.93971 49.99916
#
# Poissons Ratio (x) = 0.84543 0.95973
# Poissons Ratio (y) = 0.41597 -0.20863
# Poissons Ratio (z) = 0.47165 -0.20838
#
# Static dielectric constant tensor:
#      x y z
#    x 1.597940 0.000000 0.000000 
#    y 0.000000 1.584400 0.000000 
#    z 0.000000 0.000000 1.568860 
# 
# From -- ./inp_files/26533.got.cif
#   From: 2010.05.17/outbox.cif.g08.bks.cpg/sg59_14_cif.got.tgz:26533.got - 2010.06.03 14:40:33.
