data_PCOD9447657
_publ_section_title
;
Structure prediction by ZEFSAII (Michael W. Deem and Ramdas Pophale) SiO2 
 PCOD9447657
Probable space group: P M M N
;
_chemical_formula_sum "Si O2"
_cell_formula_units_Z 64
_cell_length_a 15.866686
_cell_length_b 8.924925
_cell_length_c 23.605014
_cell_angle_alpha 90.000000
_cell_angle_beta 90.000000
_cell_angle_gamma 90.000000
_cell_volume 3342.682016
_symmetry_space_group_name_H-M "P M M N"
_symmetry_group_IT_number 59
_space_group.IT_coordinate_system_code '2'
_symmetry_cell_setting 'orthorhombic'
loop_
_space_group_symop_operation_xyz
x,y,z
1/2-x,1/2-y,z
1/2+x,-y,-z
-x,1/2+y,-z
-x,-y,-z
1/2+x,1/2+y,-z
1/2-x,y,z
x,1/2-y,z
loop_
_atom_site_type_symbol
_atom_site_label
_atom_site_fract_x
_atom_site_fract_y
_atom_site_fract_z
Si Si1 0.978114 0.929414 0.747334
Si Si2 0.099682 0.419553 0.588353
Si Si3 0.658822 0.429846 0.300972
Si Si4 0.344445 0.931773 0.044337
Si Si5 0.847467 0.424743 0.521744
Si Si6 0.346268 0.930714 0.911942
Si Si7 0.485062 0.930010 0.133936
Si Si8 0.411415 0.578388 0.361131
O O1 0.977113 0.750000 0.752406
O O2 0.954942 0.006944 0.805949
O O3 0.074414 0.979169 0.731604
O O4 0.919554 0.982029 0.695428
O O5 0.132109 0.250000 0.588216
O O6 0.149846 0.517211 0.634183
O O7 0.102744 0.485646 0.525660
O O8 0.004722 0.418597 0.611564
O O9 0.750000 0.481204 0.278350
O O10 0.657809 0.250000 0.299603
O O11 0.250000 0.981681 0.061600
O O12 0.487021 0.750000 0.134604
O O13 0.419880 0.981461 0.084942
O O14 0.356659 0.971899 0.978424
O O15 0.750000 0.431301 0.504943
O O16 0.874375 0.250000 0.521818
O O17 0.856393 0.479220 0.586350
O O18 0.250000 0.970283 0.895159
O O19 0.343939 0.750000 0.045996
O O20 0.421670 0.006908 0.878225
O O21 0.646605 0.250000 0.093104
O O22 0.386719 0.750000 0.347316
#
# Coordination Sequence:
#
# PCOD9447657 Si02
#       8
#     8   8   8   8   8   8   8   8
#     4  10  21  36  53  72  97 133 175 212 251 305
#     4  10  19  30  48  74 100 124 152 192 245 301
#     4   9  18  33  51  69  92 126 166 204 243 294
#     4   8  16  33  56  81 108 141 181 220 261 312
#     4  10  20  33  50  72  97 125 158 197 243 299
#     4   9  18  34  56  81 112 148 180 211 254 312
#     4  11  21  33  54  82 110 140 177 223 267 307
#     4   9  19  36  53  69  93 126 164 205 248 292
#
# _framework density 19.146301999999999
#
# number of rings (size 3 to 8) (size 9 to 14) (size 15 to 20)
#    0.000    2.500    0.000    3.000    0.000    4.250 
#    0.000    2.500    0.000    6.750    0.000    0.000 
#    0.000    0.000    0.000    0.000    0.000    0.000 
#
# Total GULP energy -356926.000169 kJ/mol
# GULP energy per Si atom -5576.968753 kJ/mol
# Density = 1.910272 g / cm^3
# Si number density = 19.146302 Si / 1000 Ang^3
#
#
#
# Elastic Constant Matrix: (Units=GPa)
#
#
# Indices 1 2 3 4 5 6 
#
# 1 24.5906 5.9773 10.2794 0.0000 0.0000 0.0000
# 2 5.9773 23.0846 19.2022 0.0000 0.0000 0.0000
# 3 10.2794 19.2022 73.9291 0.0000 0.0000 0.0000
# 4 0.0000 0.0000 0.0000 29.7208 0.0000 0.0000
# 5 0.0000 0.0000 0.0000 0.0000 10.8044 0.0000
# 6 0.0000 0.0000 0.0000 0.0000 0.0000 16.0030
#
#
#
# Elastic Compliance Matrix: (Units=1/GPa)
#
#
# Indices 1 2 3 4 5 6 
#
# 1 0.044332 -0.008102 -0.004060 0.000000 0.000000 0.000000
# 2 -0.008102 0.056738 -0.013611 0.000000 0.000000 0.000000
# 3 -0.004060 -0.013611 0.017626 0.000000 0.000000 0.000000
# 4 0.000000 0.000000 0.000000 0.033646 0.000000 0.000000
# 5 0.000000 0.000000 0.000000 0.000000 0.092555 0.000000
# 6 0.000000 0.000000 0.000000 0.000000 0.000000 0.062488
#
#
# Mechanical properties :
#
#
# Convention : Reuss Voigt Hill
#
# Bulk Modulus (GPa) = 14.89154 21.39134 18.14144
# Shear Modulus (GPa) = 13.11251 17.04867 15.08059
#
# Velocity S-wave (km/s) = 2.61982 2.98726 2.80956
# Velocity P-wave (km/s) = 4.11654 4.80574 4.47443
#
# Compressibility (1/GPa) = 0.06715221
#
# Stress axis : x y z
#
# Youngs Moduli (GPa) = 22.55693 17.62478 56.73391
#
# Poissons Ratio (x) = 0.14279 0.23032
# Poissons Ratio (y) = 0.18275 0.77218
# Poissons Ratio (z) = 0.09158 0.23988
#
# Static dielectric constant tensor:
#      x y z
#    x 1.696010 0.000000 0.000000 
#    y 0.000000 1.652560 0.000000 
#    z 0.000000 0.000000 1.668350 
# 
# From -- ./inp_files/30843.got.cif
#   From: 2010.05.17/outbox.cif.g08.bks.cpg/sg59_16_cif.got.tgz:30843.got - 2010.06.03 14:40:33.
