data_PCOD9447181
_publ_section_title
;
Structure prediction by ZEFSAII (Michael W. Deem and Ramdas Pophale) SiO2 
 PCOD9447181
Probable space group: P M M N
;
_chemical_formula_sum "Si O2"
_cell_formula_units_Z 28
_cell_length_a 19.517500
_cell_length_b 8.289419
_cell_length_c 7.007668
_cell_angle_alpha 90.000000
_cell_angle_beta 90.000000
_cell_angle_gamma 90.000000
_cell_volume 1133.761743
_symmetry_space_group_name_H-M "P M M N"
_symmetry_group_IT_number 59
_space_group.IT_coordinate_system_code '2'
_symmetry_cell_setting 'orthorhombic'
loop_
_space_group_symop_operation_xyz
x,y,z
1/2-x,1/2-y,z
1/2+x,-y,-z
-x,1/2+y,-z
-x,-y,-z
1/2+x,1/2+y,-z
1/2-x,y,z
x,1/2-y,z
loop_
_atom_site_type_symbol
_atom_site_label
_atom_site_fract_x
_atom_site_fract_y
_atom_site_fract_z
Si Si1 0.908986 0.750000 0.970108
Si Si2 0.150022 0.579968 0.634103
Si Si3 0.119554 0.250000 0.573082
Si Si4 0.171986 0.930017 0.081820
Si Si5 0.484548 0.750000 0.680980
O O1 0.874628 0.586915 0.885880
O O2 0.986717 0.750000 0.895848
O O3 0.897896 0.750000 0.198365
O O4 0.173977 0.750000 0.549322
O O5 0.162383 0.411819 0.535846
O O6 0.067179 0.601774 0.646509
O O7 0.175147 0.574333 0.850355
O O8 0.049518 0.250000 0.455263
O O9 0.250000 0.949279 0.150452
O O10 0.145732 0.750000 0.136666
#
# Coordination Sequence:
#
# PCOD9447181 Si02
#       5
#     4   8   4   8   4
#     4  10  21  34  52  81 103 135 175 210 263 308
#     4   8  18  32  49  79 105 134 175 211 255 310
#     4  10  18  33  53  70 105 141 166 200 260 312
#     4   9  17  33  54  76 101 134 179 218 252 305
#     4  10  20  35  48  81 114 130 171 216 253 316
#
# _framework density 24.696546999999999
#
# number of rings (size 3 to 8) (size 9 to 14) (size 15 to 20)
#    0.857    2.000    0.000    1.286    0.000    4.571 
#    2.571    0.000    0.000   13.714    0.000   16.000 
#    0.000    0.000    0.000    0.000    0.000    0.000 
#
# Total GULP energy -156205.298361 kJ/mol
# GULP energy per Si atom -5578.760656 kJ/mol
# Density = 2.464034 g / cm^3
# Si number density = 24.696547 Si / 1000 Ang^3
#
#
#
# Elastic Constant Matrix: (Units=GPa)
#
#
# Indices 1 2 3 4 5 6 
#
# 1 95.5764 56.1283 3.7271 0.0000 0.0000 0.0000
# 2 56.1283 217.7140 1.2508 0.0000 0.0000 0.0000
# 3 3.7271 1.2508 107.1280 0.0000 0.0000 0.0000
# 4 0.0000 0.0000 0.0000 -21.1680 0.0000 0.0000
# 5 0.0000 0.0000 0.0000 0.0000 29.5279 0.0000
# 6 0.0000 0.0000 0.0000 0.0000 0.0000 4.7982
#
#
#
# Elastic Compliance Matrix: (Units=1/GPa)
#
#
# Indices 1 2 3 4 5 6 
#
# 1 0.012346 -0.003181 -0.000392 0.000000 0.000000 0.000000
# 2 -0.003181 0.005413 0.000047 0.000000 0.000000 0.000000
# 3 -0.000392 0.000047 0.009348 0.000000 0.000000 0.000000
# 4 0.000000 0.000000 0.000000 -0.047241 0.000000 0.000000
# 5 0.000000 0.000000 0.000000 0.000000 0.033866 0.000000
# 6 0.000000 0.000000 0.000000 0.000000 0.000000 0.208411
#
#
# Mechanical properties :
#
#
# Convention : Reuss Voigt Hill
#
# Bulk Modulus (GPa) = 49.86169 60.29232 55.07700
# Shear Modulus (GPa) = 21.19728 26.58577 23.89152
#
# Velocity S-wave (km/s) = 2.93287 3.28456 3.11369
# Velocity P-wave (km/s) = 5.63050 6.23303 5.93941
#
# Compressibility (1/GPa) = 0.02005548
#
# Stress axis : x y z
#
# Youngs Moduli (GPa) = 80.99789 184.74384 106.97793
#
# Poissons Ratio (x) = 0.58760 0.04198
# Poissons Ratio (y) = 0.25762 -0.00508
# Poissons Ratio (z) = 0.03178 -0.00877
#
# Static dielectric constant tensor:
#      x y z
#    x 1.892760 0.000000 0.000000 
#    y 0.000000 2.017690 0.000000 
#    z 0.000000 0.000000 1.941200 
# 
# From -- ./inp_files/5553.got.cif
#   From: 2010.05.17/outbox.cif.g08.bks.cpg/sg59_3_cif.got.tgz:5553.got - 2010.06.03 14:40:33.
