data_PCOD9447165
_publ_section_title
;
Structure prediction by ZEFSAII (Michael W. Deem and Ramdas Pophale) SiO2 
 PCOD9447165
Probable space group: P M M N
;
_chemical_formula_sum "Si O2"
_cell_formula_units_Z 64
_cell_length_a 7.620679
_cell_length_b 15.732270
_cell_length_c 24.712691
_cell_angle_alpha 90.000000
_cell_angle_beta 90.000000
_cell_angle_gamma 90.000000
_cell_volume 2962.818848
_symmetry_space_group_name_H-M "P M M N"
_symmetry_group_IT_number 59
_space_group.IT_coordinate_system_code '2'
_symmetry_cell_setting 'orthorhombic'
loop_
_space_group_symop_operation_xyz
x,y,z
1/2-x,1/2-y,z
1/2+x,-y,-z
-x,1/2+y,-z
-x,-y,-z
1/2+x,1/2+y,-z
1/2-x,y,z
x,1/2-y,z
loop_
_atom_site_type_symbol
_atom_site_label
_atom_site_fract_x
_atom_site_fract_y
_atom_site_fract_z
Si Si1 0.456608 0.513223 0.186669
Si Si2 0.035464 0.156735 0.607733
Si Si3 0.534639 0.348198 0.897831
Si Si4 0.043218 0.013622 0.689883
Si Si5 0.548068 0.353144 0.015681
Si Si6 0.046583 0.345442 0.135280
Si Si7 0.960262 0.900971 0.508335
Si Si8 0.962141 0.655101 0.626715
O O1 0.250000 0.509127 0.173311
O O2 0.526038 0.589774 0.149690
O O3 0.471805 0.527145 0.250304
O O4 0.533708 0.421482 0.170100
O O5 0.250000 0.152880 0.606478
O O6 0.985794 0.250000 0.627997
O O7 0.975379 0.144937 0.545873
O O8 0.972287 0.080605 0.645773
O O9 0.750000 0.346662 0.899444
O O10 0.479662 0.250000 0.890119
O O11 0.477495 0.381172 0.957318
O O12 0.250000 0.027919 0.693344
O O13 0.013148 0.918966 0.667706
O O14 0.750000 0.380493 0.020497
O O15 0.545461 0.250000 0.011954
O O16 0.458139 0.373414 0.072294
O O17 0.250000 0.337274 0.151335
O O18 0.968636 0.250000 0.139355
O O19 0.750000 0.889594 0.509830
O O20 0.026778 0.868535 0.566179
O O21 0.000000 0.000000 0.500000
O O22 0.750000 0.655850 0.625115
O O23 0.021201 0.750000 0.641373
#
# Coordination Sequence:
#
# PCOD9447165 Si02
#       8
#     8   8   8   8   8   8   8   8
#     4  10  21  36  53  72  98 137 180 218 257 310
#     4   9  18  34  56  80 108 143 177 210 259 321
#     4   8  15  30  52  76 101 131 168 211 261 314
#     4  11  23  38  55  78 107 140 180 229 275 312
#     4   8  14  27  49  75 101 129 163 205 255 311
#     4   9  18  32  49  71 100 132 165 204 253 308
#     4  10  18  32  57  85 113 143 174 212 261 316
#     4  10  21  37  59  84 109 142 182 219 261 320
#
# _framework density 21.601050000000001
#
# number of rings (size 3 to 8) (size 9 to 14) (size 15 to 20)
#    0.000    2.625    1.250    1.500    0.000    3.750 
#    0.000    1.875    0.000    4.500    0.000    0.000 
#    0.000    0.000    0.000    0.000    0.000    0.000 
#
# Total GULP energy -357150.404608 kJ/mol
# GULP energy per Si atom -5580.475072 kJ/mol
# Density = 2.155189 g / cm^3
# Si number density = 21.601050 Si / 1000 Ang^3
#
#
#
# Elastic Constant Matrix: (Units=GPa)
#
#
# Indices 1 2 3 4 5 6 
#
# 1 39.7060 -1.9802 -6.4968 0.0000 0.0000 0.0000
# 2 -1.9802 68.2579 -4.3116 0.0000 0.0000 0.0000
# 3 -6.4968 -4.3116 42.8720 0.0000 0.0000 0.0000
# 4 0.0000 0.0000 0.0000 -26.8368 0.0000 0.0000
# 5 0.0000 0.0000 0.0000 0.0000 31.7690 0.0000
# 6 0.0000 0.0000 0.0000 0.0000 0.0000 6.0743
#
#
#
# Elastic Compliance Matrix: (Units=1/GPa)
#
#
# Indices 1 2 3 4 5 6 
#
# 1 0.025894 0.001005 0.004025 0.000000 0.000000 0.000000
# 2 0.001005 0.014783 0.001639 0.000000 0.000000 0.000000
# 3 0.004025 0.001639 0.024100 0.000000 0.000000 0.000000
# 4 0.000000 0.000000 0.000000 -0.037262 0.000000 0.000000
# 5 0.000000 0.000000 0.000000 0.000000 0.031477 0.000000
# 6 0.000000 0.000000 0.000000 0.000000 0.000000 0.164627
#
#
# Mechanical properties :
#
#
# Convention : Reuss Voigt Hill
#
# Bulk Modulus (GPa) = 12.80147 13.91765 13.35956
# Shear Modulus (GPa) = 21.15789 13.10960 17.13375
#
# Velocity S-wave (km/s) = 3.13307 2.46620 2.81942
# Velocity P-wave (km/s) = 4.36203 3.81661 4.09841
#
# Compressibility (1/GPa) = 0.07811602
#
# Stress axis : x y z
#
# Youngs Moduli (GPa) = 38.61923 67.64519 41.49367
#
# Poissons Ratio (x) = -0.06801 -0.16701
# Poissons Ratio (y) = -0.03883 -0.06801
# Poissons Ratio (z) = -0.15544 -0.11087
#
# Static dielectric constant tensor:
#      x y z
#    x 1.815780 0.000000 0.000000 
#    y 0.000000 1.800790 0.000000 
#    z 0.000000 0.000000 1.758250 
# 
# From -- ./inp_files/31529.got.cif
#   From: 2010.05.17/outbox.cif.g08.bks.cpg/sg59_16_cif.got.tgz:31529.got - 2010.06.03 14:40:33.
