data_PCOD9447898
_publ_section_title
;
Structure prediction by ZEFSAII (Michael W. Deem and Ramdas Pophale) SiO2 
 PCOD9447898
Probable space group: P M M N
;
_chemical_formula_sum "Si O2"
_cell_formula_units_Z 56
_cell_length_a 20.598524
_cell_length_b 13.646886
_cell_length_c 11.059536
_cell_angle_alpha 90.000000
_cell_angle_beta 90.000000
_cell_angle_gamma 90.000000
_cell_volume 3108.898706
_symmetry_space_group_name_H-M "P M M N"
_symmetry_group_IT_number 59
_space_group.IT_coordinate_system_code '2'
_symmetry_cell_setting 'orthorhombic'
loop_
_space_group_symop_operation_xyz
x,y,z
1/2-x,1/2-y,z
1/2+x,-y,-z
-x,1/2+y,-z
-x,-y,-z
1/2+x,1/2+y,-z
1/2-x,y,z
x,1/2-y,z
loop_
_atom_site_type_symbol
_atom_site_label
_atom_site_fract_x
_atom_site_fract_y
_atom_site_fract_z
Si Si1 0.557289 0.862254 0.767915
Si Si2 0.920384 0.867342 0.482288
Si Si3 0.440875 0.960679 0.078296
Si Si4 0.324634 0.514410 0.651070
Si Si5 0.404490 0.863941 0.841189
Si Si6 0.542186 0.366663 0.676061
Si Si7 0.180508 0.633039 0.413642
O O1 0.576074 0.750000 0.795817
O O2 0.572288 0.881057 0.626653
O O3 0.479200 0.869092 0.791844
O O4 0.588768 0.943686 0.855470
O O5 0.912331 0.750000 0.463304
O O6 0.986935 0.900446 0.416028
O O7 0.863233 0.927369 0.416910
O O8 0.470097 0.896948 0.187103
O O9 0.401511 0.895862 0.982278
O O10 0.500000 0.000000 0.000000
O O11 0.250000 0.487568 0.678531
O O12 0.362609 0.558988 0.764662
O O13 0.323273 0.601590 0.552473
O O14 0.384263 0.750000 0.826995
O O15 0.543222 0.250000 0.665412
O O16 0.614525 0.402916 0.646270
O O17 0.250000 0.595249 0.365380
O O18 0.181150 0.750000 0.403023
#
# Coordination Sequence:
#
# PCOD9447898 Si02
#       7
#     8   8   8   8   8   8   8
#     4   9  18  32  53  81 109 136 171 218 269 318
#     4  10  20  34  54  80 106 134 173 222 272 318
#     4  10  19  31  49  73 106 143 178 217 257 300
#     4  11  22  35  52  74 102 138 176 216 266 319
#     4  10  20  34  51  75 107 141 178 217 258 312
#     4  10  19  32  53  79 105 134 170 214 265 318
#     4   9  18  32  51  77 106 132 160 202 260 322
#
# _framework density 18.012809000000001
#
# number of rings (size 3 to 8) (size 9 to 14) (size 15 to 20)
#    0.000    2.143    0.000    4.286    0.000    5.714 
#    0.000    1.429    0.000    2.571    0.000    0.000 
#    0.000    2.286    0.000    0.000    0.000    0.000 
#
# Total GULP energy -311990.344767 kJ/mol
# GULP energy per Si atom -5571.256157 kJ/mol
# Density = 1.797181 g / cm^3
# Si number density = 18.012809 Si / 1000 Ang^3
#
#
#
# Elastic Constant Matrix: (Units=GPa)
#
#
# Indices 1 2 3 4 5 6 
#
# 1 58.8985 29.7869 20.0976 0.0000 0.0000 0.0000
# 2 29.7869 79.1302 34.8355 0.0000 0.0000 0.0000
# 3 20.0976 34.8355 95.0269 0.0000 0.0000 0.0000
# 4 0.0000 0.0000 0.0000 38.5606 0.0000 0.0000
# 5 0.0000 0.0000 0.0000 0.0000 10.3162 0.0000
# 6 0.0000 0.0000 0.0000 0.0000 0.0000 17.7679
#
#
#
# Elastic Compliance Matrix: (Units=1/GPa)
#
#
# Indices 1 2 3 4 5 6 
#
# 1 0.021243 -0.007177 -0.001862 0.000000 0.000000 0.000000
# 2 -0.007177 0.017494 -0.004895 0.000000 0.000000 0.000000
# 3 -0.001862 -0.004895 0.012712 0.000000 0.000000 0.000000
# 4 0.000000 0.000000 0.000000 0.025933 0.000000 0.000000
# 5 0.000000 0.000000 0.000000 0.000000 0.096935 0.000000
# 6 0.000000 0.000000 0.000000 0.000000 0.000000 0.056281
#
#
# Mechanical properties :
#
#
# Convention : Reuss Voigt Hill
#
# Bulk Modulus (GPa) = 42.40713 44.72175 43.56444
# Shear Modulus (GPa) = 18.77393 23.21797 20.99595
#
# Velocity S-wave (km/s) = 3.23190 3.59412 3.41781
# Velocity P-wave (km/s) = 6.12542 6.48885 6.30975
#
# Compressibility (1/GPa) = 0.02358094
#
# Stress axis : x y z
#
# Youngs Moduli (GPa) = 47.07371 57.16241 78.66826
#
# Poissons Ratio (x) = 0.41025 0.14647
# Poissons Ratio (y) = 0.33785 0.38509
# Poissons Ratio (z) = 0.08764 0.27982
#
# Static dielectric constant tensor:
#      x y z
#    x 1.633880 0.000000 0.000000 
#    y 0.000000 1.658000 0.000000 
#    z 0.000000 0.000000 1.662340 
# 
# From -- ./inp_files/11445.got.cif
#   From: 2010.05.17/outbox.cif.g08.bks.cpg/sg59_6_cif.got.tgz:11445.got - 2010.06.03 14:40:33.
