data_PCOD9447655
_publ_section_title
;
Structure prediction by ZEFSAII (Michael W. Deem and Ramdas Pophale) SiO2 
 PCOD9447655
Probable space group: P M M N
;
_chemical_formula_sum "Si O2"
_cell_formula_units_Z 56
_cell_length_a 8.940196
_cell_length_b 14.214920
_cell_length_c 26.821900
_cell_angle_alpha 90.000000
_cell_angle_beta 90.000000
_cell_angle_gamma 90.000000
_cell_volume 3408.638924
_symmetry_space_group_name_H-M "P M M N"
_symmetry_group_IT_number 59
_space_group.IT_coordinate_system_code '2'
_symmetry_cell_setting 'orthorhombic'
loop_
_space_group_symop_operation_xyz
x,y,z
1/2-x,1/2-y,z
1/2+x,-y,-z
-x,1/2+y,-z
-x,-y,-z
1/2+x,1/2+y,-z
1/2-x,y,z
x,1/2-y,z
loop_
_atom_site_type_symbol
_atom_site_label
_atom_site_fract_x
_atom_site_fract_y
_atom_site_fract_z
Si Si1 0.927988 0.860420 0.075180
Si Si2 0.929730 0.142427 0.518519
Si Si3 0.429338 0.469851 0.123397
Si Si4 0.571164 0.956925 0.576519
Si Si5 0.424268 0.636940 0.969234
Si Si6 0.570815 0.640249 0.777007
Si Si7 0.071248 0.860190 0.670849
O O1 0.750000 0.874238 0.075417
O O2 0.959241 0.750000 0.082859
O O3 0.006408 0.926121 0.115567
O O4 0.993365 0.887079 0.020884
O O5 0.750000 0.138400 0.510833
O O6 0.969366 0.250000 0.530952
O O7 0.008669 0.108939 0.467801
O O8 0.966803 0.063928 0.560045
O O9 0.250000 0.469603 0.119721
O O10 0.497714 0.409800 0.078028
O O11 0.472159 0.423141 0.175933
O O12 0.750000 0.948679 0.579004
O O13 0.499765 0.923775 0.628011
O O14 0.250000 0.609171 0.972062
O O15 0.431531 0.750000 0.964054
O O16 0.750000 0.632789 0.770007
O O17 0.537079 0.750000 0.788167
O O18 0.489996 0.615125 0.725577
O O19 0.250000 0.867479 0.669700
O O20 0.031138 0.750000 0.661787
#
# Coordination Sequence:
#
# PCOD9447655 Si02
#       7
#     8   8   8   8   8   8   8
#     4  10  21  36  52  70  95 128 165 203 241 284
#     4   9  18  32  48  69 100 134 166 201 241 284
#     4  11  21  33  52  75 100 128 158 197 245 295
#     4  10  19  30  48  73  99 130 167 203 240 285
#     4  10  20  33  50  73 101 131 162 196 236 288
#     4   9  19  35  53  74  99 126 157 194 238 288
#     4  10  20  33  50  72  99 130 161 196 239 285
#
# _framework density 16.428844999999999
#
# number of rings (size 3 to 8) (size 9 to 14) (size 15 to 20)
#    0.000    2.143    0.000    3.429    0.000    6.857 
#    0.000    1.429    0.000    0.857    0.000    2.000 
#    0.000    0.000    0.000    0.000    0.000    0.000 
#
# Total GULP energy -312630.325543 kJ/mol
# GULP energy per Si atom -5582.684385 kJ/mol
# Density = 1.639145 g / cm^3
# Si number density = 16.428845 Si / 1000 Ang^3
#
#
#
# Elastic Constant Matrix: (Units=GPa)
#
#
# Indices 1 2 3 4 5 6 
#
# 1 61.2696 49.6051 62.2391 0.0000 0.0000 0.0000
# 2 49.6051 107.0781 84.2223 0.0000 0.0000 0.0000
# 3 62.2391 84.2223 141.9731 0.0000 0.0000 0.0000
# 4 0.0000 0.0000 0.0000 28.0374 0.0000 0.0000
# 5 0.0000 0.0000 0.0000 0.0000 30.2839 0.0000
# 6 0.0000 0.0000 0.0000 0.0000 0.0000 26.6249
#
#
#
# Elastic Compliance Matrix: (Units=1/GPa)
#
#
# Indices 1 2 3 4 5 6 
#
# 1 0.032084 -0.007125 -0.009839 0.000000 0.000000 0.000000
# 2 -0.007125 0.019091 -0.008202 0.000000 0.000000 0.000000
# 3 -0.009839 -0.008202 0.016222 0.000000 0.000000 0.000000
# 4 0.000000 0.000000 0.000000 0.035667 0.000000 0.000000
# 5 0.000000 0.000000 0.000000 0.000000 0.033021 0.000000
# 6 0.000000 0.000000 0.000000 0.000000 0.000000 0.037559
#
#
# Mechanical properties :
#
#
# Convention : Reuss Voigt Hill
#
# Bulk Modulus (GPa) = 58.59357 78.05043 68.32200
# Shear Modulus (GPa) = 21.77116 24.60620 23.18868
#
# Velocity S-wave (km/s) = 3.64425 3.87427 3.76102
# Velocity P-wave (km/s) = 7.31094 8.22342 7.78057
#
# Compressibility (1/GPa) = 0.01706672
#
# Stress axis : x y z
#
# Youngs Moduli (GPa) = 31.16835 52.38183 61.64397
#
# Poissons Ratio (x) = 0.37320 0.60649
# Poissons Ratio (y) = 0.22206 0.50559
# Poissons Ratio (z) = 0.30665 0.42962
#
# Static dielectric constant tensor:
#      x y z
#    x 1.547610 0.000000 0.000000 
#    y 0.000000 1.570700 0.000000 
#    z 0.000000 0.000000 1.514240 
# 
# From -- ./inp_files/29158.got.cif
#   From: 2010.05.17/outbox.cif.g08.bks.cpg/sg59_15_cif.got.tgz:29158.got - 2010.06.03 14:40:33.
