data_PCOD9447373
_publ_section_title
;
Structure prediction by ZEFSAII (Michael W. Deem and Ramdas Pophale) SiO2 
 PCOD9447373
Probable space group: P M M N
;
_chemical_formula_sum "Si O2"
_cell_formula_units_Z 64
_cell_length_a 24.943237
_cell_length_b 9.083237
_cell_length_c 19.018753
_cell_angle_alpha 90.000000
_cell_angle_beta 90.000000
_cell_angle_gamma 90.000000
_cell_volume 4308.990111
_symmetry_space_group_name_H-M "P M M N"
_symmetry_group_IT_number 59
_space_group.IT_coordinate_system_code '2'
_symmetry_cell_setting 'orthorhombic'
loop_
_space_group_symop_operation_xyz
x,y,z
1/2-x,1/2-y,z
1/2+x,-y,-z
-x,1/2+y,-z
-x,-y,-z
1/2+x,1/2+y,-z
1/2-x,y,z
x,1/2-y,z
loop_
_atom_site_type_symbol
_atom_site_label
_atom_site_fract_x
_atom_site_fract_y
_atom_site_fract_z
Si Si1 0.497653 0.078797 0.760977
Si Si2 0.993309 0.074314 0.389398
Si Si3 0.312414 0.574533 0.441883
Si Si4 0.380015 0.580946 0.182031
Si Si5 0.069673 0.574649 0.042346
Si Si6 0.035669 0.576173 0.895666
Si Si7 0.914518 0.574334 0.499433
Si Si8 0.186392 0.417190 0.295751
O O1 0.485120 0.250000 0.749641
O O2 0.558939 0.070209 0.789288
O O3 0.494214 0.990816 0.688543
O O4 0.461001 0.011470 0.822969
O O5 0.986165 0.250000 0.388022
O O6 0.048802 0.043415 0.431369
O O7 0.946614 0.999186 0.435304
O O8 0.250000 0.536090 0.456811
O O9 0.318117 0.750000 0.447033
O O10 0.356015 0.494137 0.489866
O O11 0.324057 0.521357 0.362344
O O12 0.362297 0.750000 0.192286
O O13 0.383388 0.549806 0.098631
O O14 0.344241 0.473487 0.227611
O O15 0.055136 0.750000 0.049261
O O16 0.020602 0.475212 0.069531
O O17 0.077310 0.546986 0.959469
O O18 0.034709 0.750000 0.881323
O O19 0.911895 0.750000 0.490633
O O20 0.250000 0.419279 0.283174
O O21 0.170254 0.250000 0.313887
#
# Coordination Sequence:
#
# PCOD9447373 Si02
#       8
#     8   8   8   8   8   8   8   8
#     4  10  19  29  41  60  86 113 143 177 211 250
#     4  10  20  32  46  65  89 118 150 181 217 263
#     4  10  20  33  49  67  87 114 147 182 220 261
#     4   9  17  28  42  59  81 111 144 176 210 251
#     4   8  15  26  38  55  79 106 136 169 203 239
#     4   9  15  24  39  57  79 107 137 168 202 241
#     4  10  20  33  49  67  88 115 146 182 222 262
#     4  10  20  31  42  59  83 109 140 179 217 251
#
# _framework density 14.852668
#
# number of rings (size 3 to 8) (size 9 to 14) (size 15 to 20)
#    0.000    2.500    0.000    3.750    0.000    8.000 
#    0.000    0.000    0.000    0.000    0.000    0.000 
#    0.000    1.000    0.000    5.250    0.000    5.000 
#
# Total GULP energy -356562.999636 kJ/mol
# GULP energy per Si atom -5571.296869 kJ/mol
# Density = 1.481886 g / cm^3
# Si number density = 14.852668 Si / 1000 Ang^3
#
#
#
# Elastic Constant Matrix: (Units=GPa)
#
#
# Indices 1 2 3 4 5 6 
#
# 1 38.0712 29.6337 20.7951 0.0000 0.0000 0.0000
# 2 29.6337 67.0997 40.1312 0.0000 0.0000 0.0000
# 3 20.7951 40.1312 89.6187 0.0000 0.0000 0.0000
# 4 0.0000 0.0000 0.0000 26.8570 0.0000 0.0000
# 5 0.0000 0.0000 0.0000 0.0000 19.2393 0.0000
# 6 0.0000 0.0000 0.0000 0.0000 0.0000 21.1031
#
#
#
# Elastic Compliance Matrix: (Units=1/GPa)
#
#
# Indices 1 2 3 4 5 6 
#
# 1 0.040258 -0.016652 -0.001885 0.000000 0.000000 0.000000
# 2 -0.016652 0.027243 -0.008335 0.000000 0.000000 0.000000
# 3 -0.001885 -0.008335 0.015328 0.000000 0.000000 0.000000
# 4 0.000000 0.000000 0.000000 0.037234 0.000000 0.000000
# 5 0.000000 0.000000 0.000000 0.000000 0.051977 0.000000
# 6 0.000000 0.000000 0.000000 0.000000 0.000000 0.047386
#
#
# Mechanical properties :
#
#
# Convention : Reuss Voigt Hill
#
# Bulk Modulus (GPa) = 34.38259 41.76773 38.07516
# Shear Modulus (GPa) = 17.67630 20.38851 19.03241
#
# Velocity S-wave (km/s) = 3.45354 3.70904 3.58357
# Velocity P-wave (km/s) = 6.25315 6.82093 6.54320
#
# Compressibility (1/GPa) = 0.02908449
#
# Stress axis : x y z
#
# Youngs Moduli (GPa) = 24.84008 36.70728 65.23935
#
# Poissons Ratio (x) = 0.61125 0.12294
# Poissons Ratio (y) = 0.41364 0.54379
# Poissons Ratio (z) = 0.04681 0.30596
#
# Static dielectric constant tensor:
#      x y z
#    x 1.479360 0.000000 0.000000 
#    y 0.000000 1.498480 0.000000 
#    z 0.000000 0.000000 1.506690 
# 
# From -- ./inp_files/28413.got.cif
#   From: 2010.05.17/outbox.cif.g08.bks.cpg/sg59_15_cif.got.tgz:28413.got - 2010.06.03 14:40:33.
