data_PCOD9447238
_publ_section_title
;
Structure prediction by ZEFSAII (Michael W. Deem and Ramdas Pophale) SiO2 
 PCOD9447238
Probable space group: P M M N
;
_chemical_formula_sum "Si O2"
_cell_formula_units_Z 44
_cell_length_a 14.216485
_cell_length_b 14.466097
_cell_length_c 9.672710
_cell_angle_alpha 90.000000
_cell_angle_beta 90.000000
_cell_angle_gamma 90.000000
_cell_volume 1989.261014
_symmetry_space_group_name_H-M "P M M N"
_symmetry_group_IT_number 59
_space_group.IT_coordinate_system_code '2'
_symmetry_cell_setting 'orthorhombic'
loop_
_space_group_symop_operation_xyz
x,y,z
1/2-x,1/2-y,z
1/2+x,-y,-z
-x,1/2+y,-z
-x,-y,-z
1/2+x,1/2+y,-z
1/2-x,y,z
x,1/2-y,z
loop_
_atom_site_type_symbol
_atom_site_label
_atom_site_fract_x
_atom_site_fract_y
_atom_site_fract_z
Si Si1 0.250000 0.354523 0.944426
Si Si2 0.750000 0.139237 0.939885
Si Si3 0.071275 0.031481 0.622351
Si Si4 0.047799 0.862279 0.147183
Si Si5 0.353552 0.360828 0.381625
Si Si6 0.750000 0.032811 0.233013
Si Si7 0.442369 0.358414 0.115299
O O1 0.250000 0.250000 0.890967
O O2 0.250000 0.428530 0.824849
O O3 0.342359 0.366051 0.038223
O O4 0.750000 0.250000 0.961440
O O5 0.750000 0.093616 0.092419
O O6 0.657882 0.115883 0.850926
O O7 0.129645 0.107505 0.535802
O O8 0.151462 0.960759 0.681137
O O9 0.015252 0.084041 0.743262
O O10 0.000000 0.000000 0.500000
O O11 0.034370 0.750000 0.160208
O O12 0.017532 0.893628 0.993023
O O13 0.250000 0.392279 0.337348
O O14 0.355353 0.250000 0.373845
O O15 0.428871 0.396381 0.268570
O O16 0.464604 0.250000 0.130716
#
# Coordination Sequence:
#
# PCOD9447238 Si02
#       7
#     4   4   8   8   8   4   8
#     4  10  18  33  63 103 137 161 203 270 341 409
#     4  10  26  49  71  93 123 175 248 302 326 370
#     4  12  27  42  60  97 141 173 212 265 342 420
#     4  10  22  45  72  94 123 172 230 282 332 395
#     4  10  20  37  62  94 133 171 206 256 327 403
#     4  12  26  44  66 100 136 172 223 280 343 401
#     4   9  17  32  62  99 127 162 208 257 320 389
#
# _framework density 22.118766999999998
#
# number of rings (size 3 to 8) (size 9 to 14) (size 15 to 20)
#    0.000    1.636    3.636    0.545    2.545    3.636 
#    0.000    0.909    0.000    0.000    0.000    0.000 
#    0.000    0.000    0.000    0.000    0.000    0.000 
#
# Total GULP energy -245698.380619 kJ/mol
# GULP energy per Si atom -5584.054105 kJ/mol
# Density = 2.206842 g / cm^3
# Si number density = 22.118767 Si / 1000 Ang^3
#
#
#
# Elastic Constant Matrix: (Units=GPa)
#
#
# Indices 1 2 3 4 5 6 
#
# 1 112.9129 13.5625 33.8426 0.0000 0.0000 0.0000
# 2 13.5625 46.6199 7.8542 0.0000 0.0000 0.0000
# 3 33.8426 7.8542 111.8532 0.0000 0.0000 0.0000
# 4 0.0000 0.0000 0.0000 37.5367 0.0000 0.0000
# 5 0.0000 0.0000 0.0000 0.0000 24.7708 0.0000
# 6 0.0000 0.0000 0.0000 0.0000 0.0000 14.5799
#
#
#
# Elastic Compliance Matrix: (Units=1/GPa)
#
#
# Indices 1 2 3 4 5 6 
#
# 1 0.010004 -0.002429 -0.002856 0.000000 0.000000 0.000000
# 2 -0.002429 0.022297 -0.000831 0.000000 0.000000 0.000000
# 3 -0.002856 -0.000831 0.009863 0.000000 0.000000 0.000000
# 4 0.000000 0.000000 0.000000 0.026641 0.000000 0.000000
# 5 0.000000 0.000000 0.000000 0.000000 0.040370 0.000000
# 6 0.000000 0.000000 0.000000 0.000000 0.000000 0.068588
#
#
# Mechanical properties :
#
#
# Convention : Reuss Voigt Hill
#
# Bulk Modulus (GPa) = 33.40968 42.43382 37.92175
# Shear Modulus (GPa) = 25.00353 29.78592 27.39473
#
# Velocity S-wave (km/s) = 3.36582 3.67363 3.52309
# Velocity P-wave (km/s) = 5.49932 6.10084 5.80787
#
# Compressibility (1/GPa) = 0.02993144
#
# Stress axis : x y z
#
# Youngs Moduli (GPa) = 99.95727 44.84964 101.39072
#
# Poissons Ratio (x) = 0.10895 0.28961
# Poissons Ratio (y) = 0.24282 0.08422
# Poissons Ratio (z) = 0.28551 0.03726
#
# Static dielectric constant tensor:
#      x y z
#    x 1.930940 0.000000 0.000000 
#    y 0.000000 1.812510 0.000000 
#    z 0.000000 0.000000 1.782130 
# 
# From -- ./inp_files/8933.got.cif
#   From: 2010.05.17/outbox.cif.g08.bks.cpg/sg59_5_cif.got.tgz:8933.got - 2010.06.03 14:40:33.
