data_PCOD9447866
_publ_section_title
;
Structure prediction by ZEFSAII (Michael W. Deem and Ramdas Pophale) SiO2 
 PCOD9447866
Probable space group: P M M N
;
_chemical_formula_sum "Si O2"
_cell_formula_units_Z 48
_cell_length_a 9.341361
_cell_length_b 15.153325
_cell_length_c 16.242140
_cell_angle_alpha 90.000000
_cell_angle_beta 90.000000
_cell_angle_gamma 90.000000
_cell_volume 2299.118433
_symmetry_space_group_name_H-M "P M M N"
_symmetry_group_IT_number 59
_space_group.IT_coordinate_system_code '2'
_symmetry_cell_setting 'orthorhombic'
loop_
_space_group_symop_operation_xyz
x,y,z
1/2-x,1/2-y,z
1/2+x,-y,-z
-x,1/2+y,-z
-x,-y,-z
1/2+x,1/2+y,-z
1/2-x,y,z
x,1/2-y,z
loop_
_atom_site_type_symbol
_atom_site_label
_atom_site_fract_x
_atom_site_fract_y
_atom_site_fract_z
Si Si1 0.916270 0.395756 0.828249
Si Si2 0.086673 0.387737 0.170619
Si Si3 0.423282 0.095048 0.990157
Si Si4 0.912178 0.597472 0.331695
Si Si5 0.413347 0.645901 0.491473
Si Si6 0.411084 0.613195 0.673506
O O1 0.750000 0.369254 0.832225
O O2 0.917824 0.504042 0.829131
O O3 0.006577 0.365852 0.907922
O O4 0.992413 0.366994 0.743745
O O5 0.250000 0.362395 0.184955
O O6 0.992911 0.355068 0.246116
O O7 0.046706 0.359420 0.078038
O O8 0.250000 0.086293 0.982197
O O9 0.500000 0.000000 0.000000
O O10 0.750000 0.632723 0.331307
O O11 0.903474 0.492393 0.318776
O O12 0.989125 0.610083 0.418796
O O13 0.250000 0.608558 0.488520
O O14 0.403304 0.750000 0.478494
O O15 0.473914 0.631539 0.583250
O O16 0.250000 0.648678 0.672108
#
# Coordination Sequence:
#
# PCOD9447866 Si02
#       6
#     8   8   8   8   8   8
#     4   9  16  26  41  63  92 125 157 189 231 281
#     4   8  15  25  39  62  92 124 154 188 230 275
#     4   9  15  23  36  59  92 126 157 190 231 277
#     4  10  19  31  49  72  96 122 156 197 237 281
#     4  10  21  36  51  68  93 124 157 194 237 284
#     4   9  18  31  48  70  94 123 158 195 235 279
#
# _framework density 20.877566000000002
#
# number of rings (size 3 to 8) (size 9 to 14) (size 15 to 20)
#    0.000    2.833    0.000    3.000    0.000    6.333 
#    0.000    0.000    0.000    0.000    0.000    1.167 
#    0.000    4.000    0.000    0.000    0.000    0.000 
#
# Total GULP energy -267679.826997 kJ/mol
# GULP energy per Si atom -5576.663062 kJ/mol
# Density = 2.083005 g / cm^3
# Si number density = 20.877566 Si / 1000 Ang^3
#
#
#
# Elastic Constant Matrix: (Units=GPa)
#
#
# Indices 1 2 3 4 5 6 
#
# 1 129.4047 9.8617 120.3177 0.0000 0.0000 0.0000
# 2 9.8617 35.4589 10.2352 0.0000 0.0000 0.0000
# 3 120.3177 10.2352 224.6159 0.0000 0.0000 0.0000
# 4 0.0000 0.0000 0.0000 -37.5426 0.0000 0.0000
# 5 0.0000 0.0000 0.0000 0.0000 33.6133 0.0000
# 6 0.0000 0.0000 0.0000 0.0000 0.0000 -8.3300
#
#
#
# Elastic Compliance Matrix: (Units=1/GPa)
#
#
# Indices 1 2 3 4 5 6 
#
# 1 0.015526 -0.001943 -0.008228 0.000000 0.000000 0.000000
# 2 -0.001943 0.028821 -0.000272 0.000000 0.000000 0.000000
# 3 -0.008228 -0.000272 0.008872 0.000000 0.000000 0.000000
# 4 0.000000 0.000000 0.000000 -0.026636 0.000000 0.000000
# 5 0.000000 0.000000 0.000000 0.000000 0.029750 0.000000
# 6 0.000000 0.000000 0.000000 0.000000 0.000000 -0.120048
#
#
# Mechanical properties :
#
#
# Convention : Reuss Voigt Hill
#
# Bulk Modulus (GPa) = 30.92965 74.47876 52.70420
# Shear Modulus (GPa) = -156.00291 14.15246 -70.92523
#
# Velocity S-wave (km/s) = -8.65361 2.60644 -5.83487
# Velocity P-wave (km/s) = 9.21953 6.69399 4.48275
#
# Compressibility (1/GPa) = 0.03233143
#
# Stress axis : x y z
#
# Youngs Moduli (GPa) = 64.40737 34.69724 112.71441
#
# Poissons Ratio (x) = 0.06742 0.92744
# Poissons Ratio (y) = 0.12515 0.03071
# Poissons Ratio (z) = 0.52996 0.00945
#
# Static dielectric constant tensor:
#      x y z
#    x 1.820000 0.000000 0.000000 
#    y 0.000000 1.765010 0.000000 
#    z 0.000000 0.000000 1.753810 
# 
# From -- ./inp_files/20474.got.cif
#   From: 2010.05.17/outbox.cif.g08.bks.cpg/sg59_11_cif.got.tgz:20474.got - 2010.06.03 14:40:33.
