data_PCOD9447651
_publ_section_title
;
Structure prediction by ZEFSAII (Michael W. Deem and Ramdas Pophale) SiO2 
 PCOD9447651
Probable space group: P M M N
;
_chemical_formula_sum "Si O2"
_cell_formula_units_Z 56
_cell_length_a 7.357258
_cell_length_b 14.501103
_cell_length_c 22.259393
_cell_angle_alpha 90.000000
_cell_angle_beta 90.000000
_cell_angle_gamma 90.000000
_cell_volume 2374.818046
_symmetry_space_group_name_H-M "P M M N"
_symmetry_group_IT_number 59
_space_group.IT_coordinate_system_code '2'
_symmetry_cell_setting 'orthorhombic'
loop_
_space_group_symop_operation_xyz
x,y,z
1/2-x,1/2-y,z
1/2+x,-y,-z
-x,1/2+y,-z
-x,-y,-z
1/2+x,1/2+y,-z
1/2-x,y,z
x,1/2-y,z
loop_
_atom_site_type_symbol
_atom_site_label
_atom_site_fract_x
_atom_site_fract_y
_atom_site_fract_z
Si Si1 0.473721 0.964537 0.782206
Si Si2 0.969689 0.357892 0.465722
Si Si3 0.528936 0.357844 0.099262
Si Si4 0.532753 0.359783 0.969831
Si Si5 0.969831 0.355536 0.600662
Si Si6 0.539214 0.853108 0.163338
Si Si7 0.459367 0.544387 0.652274
O O1 0.250000 0.963929 0.781670
O O2 0.537161 0.069098 0.793608
O O3 0.535422 0.929736 0.717245
O O4 0.531698 0.907213 0.840343
O O5 0.750000 0.367698 0.467820
O O6 0.009543 0.250000 0.456847
O O7 0.032476 0.382226 0.532949
O O8 0.040587 0.414406 0.408883
O O9 0.750000 0.361852 0.098280
O O10 0.479788 0.250000 0.101688
O O11 0.467574 0.397243 0.034273
O O12 0.750000 0.367951 0.968149
O O13 0.488441 0.250000 0.971035
O O14 0.465204 0.391729 0.905124
O O15 0.750000 0.356164 0.601213
O O16 0.026492 0.250000 0.612781
O O17 0.035263 0.433940 0.645394
O O18 0.750000 0.844072 0.178998
O O19 0.458793 0.750000 0.164542
O O20 0.250000 0.575549 0.652711
#
# Coordination Sequence:
#
# PCOD9447651 Si02
#       7
#     8   8   8   8   8   8   8
#     4   9  18  29  41  63  92 120 149 177 215 268
#     4   8  15  29  49  73  98 122 151 189 233 277
#     4   8  14  26  44  65  89 114 141 180 227 268
#     4   8  14  26  45  66  84 106 143 189 227 256
#     4   9  18  33  51  69  93 126 157 187 231 281
#     4   9  17  29  43  59  85 119 147 175 218 268
#     4  10  19  30  48  73  97 122 155 195 230 264
#
# _framework density 23.580755
#
# number of rings (size 3 to 8) (size 9 to 14) (size 15 to 20)
#    0.000    3.286    0.000    2.143    0.000    2.000 
#    0.000    5.000    0.000    3.857    0.000    0.000 
#    0.000    0.000    0.000    0.000    0.000    0.000 
#
# Total GULP energy -312551.141887 kJ/mol
# GULP energy per Si atom -5581.270391 kJ/mol
# Density = 2.352708 g / cm^3
# Si number density = 23.580755 Si / 1000 Ang^3
#
#
#
# Elastic Constant Matrix: (Units=GPa)
#
#
# Indices 1 2 3 4 5 6 
#
# 1 83.5376 -8.4553 -2.6821 0.0000 0.0000 0.0000
# 2 -8.4553 31.4653 18.2678 0.0000 0.0000 0.0000
# 3 -2.6821 18.2678 70.3237 0.0000 0.0000 0.0000
# 4 0.0000 0.0000 0.0000 21.2672 0.0000 0.0000
# 5 0.0000 0.0000 0.0000 0.0000 -42.7409 0.0000
# 6 0.0000 0.0000 0.0000 0.0000 0.0000 1.3324
#
#
#
# Elastic Compliance Matrix: (Units=1/GPa)
#
#
# Indices 1 2 3 4 5 6 
#
# 1 0.012318 0.003577 -0.000459 0.000000 0.000000 0.000000
# 2 0.003577 0.038464 -0.009855 0.000000 0.000000 0.000000
# 3 -0.000459 -0.009855 0.016762 0.000000 0.000000 0.000000
# 4 0.000000 0.000000 0.000000 0.047021 0.000000 0.000000
# 5 0.000000 0.000000 0.000000 0.000000 -0.023397 0.000000
# 6 0.000000 0.000000 0.000000 0.000000 0.000000 0.750524
#
#
# Mechanical properties :
#
#
# Convention : Reuss Voigt Hill
#
# Bulk Modulus (GPa) = 18.49502 22.17637 20.33569
# Shear Modulus (GPa) = 5.72613 7.85151 6.78882
#
# Velocity S-wave (km/s) = 1.55999 1.82671 1.69859
# Velocity P-wave (km/s) = 3.33243 3.72478 3.53405
#
# Compressibility (1/GPa) = 0.05406861
#
# Stress axis : x y z
#
# Youngs Moduli (GPa) = 81.18244 25.99849 59.65698
#
# Poissons Ratio (x) = -0.09299 0.02740
# Poissons Ratio (y) = -0.29037 0.58793
# Poissons Ratio (z) = 0.03729 0.25622
#
# Static dielectric constant tensor:
#      x y z
#    x 1.913620 0.000000 0.000000 
#    y 0.000000 1.884560 0.000000 
#    z 0.000000 0.000000 1.887910 
# 
# From -- ./inp_files/29100.got.cif
#   From: 2010.05.17/outbox.cif.g08.bks.cpg/sg59_15_cif.got.tgz:29100.got - 2010.06.03 14:40:33.
