data_PCOD9447336
_publ_section_title
;
Structure prediction by ZEFSAII (Michael W. Deem and Ramdas Pophale) SiO2 
 PCOD9447336
Probable space group: P M M N
;
_chemical_formula_sum "Si O2"
_cell_formula_units_Z 56
_cell_length_a 14.496731
_cell_length_b 7.597837
_cell_length_c 21.098959
_cell_angle_alpha 90.000000
_cell_angle_beta 90.000000
_cell_angle_gamma 90.000000
_cell_volume 2323.919503
_symmetry_space_group_name_H-M "P M M N"
_symmetry_group_IT_number 59
_space_group.IT_coordinate_system_code '2'
_symmetry_cell_setting 'orthorhombic'
loop_
_space_group_symop_operation_xyz
x,y,z
1/2-x,1/2-y,z
1/2+x,-y,-z
-x,1/2+y,-z
-x,-y,-z
1/2+x,1/2+y,-z
1/2-x,y,z
x,1/2-y,z
loop_
_atom_site_type_symbol
_atom_site_label
_atom_site_fract_x
_atom_site_fract_y
_atom_site_fract_z
Si Si1 0.394682 0.448520 0.083039
Si Si2 0.446013 0.456869 0.356118
Si Si3 0.347447 0.036317 0.809631
Si Si4 0.607159 0.958928 0.512807
Si Si5 0.447734 0.956410 0.220258
Si Si6 0.151968 0.547188 0.624443
Si Si7 0.103952 0.464626 0.949611
O O1 0.361115 0.250000 0.087637
O O2 0.392689 0.520095 0.154363
O O3 0.503069 0.457043 0.064510
O O4 0.356227 0.527021 0.017114
O O5 0.457710 0.250000 0.370454
O O6 0.383231 0.522507 0.414478
O O7 0.406901 0.473829 0.285710
O O8 0.551697 0.532169 0.357080
O O9 0.250000 0.971817 0.782232
O O10 0.349476 0.250000 0.802806
O O11 0.447293 0.969184 0.786727
O O12 0.344950 0.998448 0.884629
O O13 0.627069 0.750000 0.508782
O O14 0.500000 0.000000 0.500000
O O15 0.653179 0.045001 0.452127
O O16 0.457148 0.750000 0.228852
O O17 0.250000 0.464343 0.644633
O O18 0.151581 0.750000 0.646225
O O19 0.095572 0.250000 0.953340
#
# Coordination Sequence:
#
# PCOD9447336 Si02
#       7
#     8   8   8   8   8   8   8
#     4   9  15  24  39  57  78 102 130 170 214 249
#     4   9  18  31  45  63  90 122 151 182 222 262
#     4   8  14  25  39  56  81 109 136 169 207 248
#     4   9  17  30  48  68  90 117 151 191 231 270
#     4  10  19  28  40  60  84 112 146 177 208 254
#     4   9  18  32  49  70  96 123 150 182 223 272
#     4   8  14  24  39  58  76  99 134 171 206 246
#
# _framework density 24.097218999999999
#
# number of rings (size 3 to 8) (size 9 to 14) (size 15 to 20)
#    0.000    3.143    0.000    3.000    0.000    4.286 
#    0.000    0.000    0.000   10.286    0.000    1.000 
#    0.000    5.714    0.000    0.000    0.000    0.000 
#
# Total GULP energy -311779.161337 kJ/mol
# GULP energy per Si atom -5567.485024 kJ/mol
# Density = 2.404237 g / cm^3
# Si number density = 24.097219 Si / 1000 Ang^3
#
#
#
# Elastic Constant Matrix: (Units=GPa)
#
#
# Indices 1 2 3 4 5 6 
#
# 1 39.7641 -1.3872 0.9216 0.0000 0.0000 0.0000
# 2 -1.3872 57.0837 -0.5200 0.0000 0.0000 0.0000
# 3 0.9216 -0.5200 200.8259 0.0000 0.0000 0.0000
# 4 0.0000 0.0000 0.0000 21.9510 0.0000 0.0000
# 5 0.0000 0.0000 0.0000 0.0000 -22.2123 0.0000
# 6 0.0000 0.0000 0.0000 0.0000 0.0000 -10.4682
#
#
#
# Elastic Compliance Matrix: (Units=1/GPa)
#
#
# Indices 1 2 3 4 5 6 
#
# 1 0.025172 0.000611 -0.000114 0.000000 0.000000 0.000000
# 2 0.000611 0.017533 0.000043 0.000000 0.000000 0.000000
# 3 -0.000114 0.000043 0.004980 0.000000 0.000000 0.000000
# 4 0.000000 0.000000 0.000000 0.045556 0.000000 0.000000
# 5 0.000000 0.000000 0.000000 0.000000 -0.045020 0.000000
# 6 0.000000 0.000000 0.000000 0.000000 0.000000 -0.095528
#
#
# Mechanical properties :
#
#
# Convention : Reuss Voigt Hill
#
# Bulk Modulus (GPa) = 20.50677 32.85582 26.68129
# Shear Modulus (GPa) = -155.61832 17.76473 -68.92680
#
# Velocity S-wave (km/s) = -8.04485 2.71811 -5.35404
# Velocity P-wave (km/s) = 8.81840 4.84924 5.20813
#
# Compressibility (1/GPa) = 0.04876439
#
# Stress axis : x y z
#
# Youngs Moduli (GPa) = 39.72628 57.03408 200.80036
#
# Poissons Ratio (x) = -0.03483 0.02288
# Poissons Ratio (y) = -0.02426 -0.00855
# Poissons Ratio (z) = 0.00453 -0.00243
#
# Static dielectric constant tensor:
#      x y z
#    x 1.959040 0.000000 0.000000 
#    y 0.000000 1.893630 0.000000 
#    z 0.000000 0.000000 1.997220 
# 
# From -- ./inp_files/30887.got.cif
#   From: 2010.05.17/outbox.cif.g08.bks.cpg/sg59_16_cif.got.tgz:30887.got - 2010.06.03 14:40:33.
