data_PCOD9447532
_publ_section_title
;
Structure prediction by ZEFSAII (Michael W. Deem and Ramdas Pophale) SiO2 
 PCOD9447532
Probable space group: P M M N
;
_chemical_formula_sum "Si O2"
_cell_formula_units_Z 64
_cell_length_a 33.571987
_cell_length_b 12.292604
_cell_length_c 10.154855
_cell_angle_alpha 90.000000
_cell_angle_beta 90.000000
_cell_angle_gamma 90.000000
_cell_volume 4190.778084
_symmetry_space_group_name_H-M "P M M N"
_symmetry_group_IT_number 59
_space_group.IT_coordinate_system_code '2'
_symmetry_cell_setting 'orthorhombic'
loop_
_space_group_symop_operation_xyz
x,y,z
1/2-x,1/2-y,z
1/2+x,-y,-z
-x,1/2+y,-z
-x,-y,-z
1/2+x,1/2+y,-z
1/2-x,y,z
x,1/2-y,z
loop_
_atom_site_type_symbol
_atom_site_label
_atom_site_fract_x
_atom_site_fract_y
_atom_site_fract_z
Si Si1 0.051403 0.515775 0.641685
Si Si2 0.944119 0.495623 0.870721
Si Si3 0.295708 0.882320 0.510184
Si Si4 0.025161 0.375819 0.884660
Si Si5 0.633974 0.118178 0.985044
Si Si6 0.134734 0.880953 0.705440
Si Si7 0.533887 0.878536 0.615039
Si Si8 0.795301 0.118084 0.790260
O O1 0.046373 0.450849 0.777366
O O2 0.093567 0.575190 0.645621
O O3 0.047024 0.430503 0.523043
O O4 0.013508 0.596702 0.630889
O O5 0.903560 0.442381 0.920662
O O6 0.944081 0.553375 0.729390
O O7 0.978385 0.403477 0.872160
O O8 0.959598 0.585979 0.973550
O O9 0.250000 0.915715 0.537740
O O10 0.295905 0.750000 0.511956
O O11 0.327828 0.919031 0.617554
O O12 0.305869 0.915200 0.359701
O O13 0.032570 0.250000 0.861691
O O14 0.628873 0.250000 0.976199
O O15 0.672850 0.086788 0.900251
O O16 0.637826 0.090166 0.139748
O O17 0.133964 0.750000 0.699738
O O18 0.541043 0.750000 0.622816
O O19 0.750000 0.082002 0.817959
O O20 0.794724 0.250000 0.789516
#
# Coordination Sequence:
#
# PCOD9447532 Si02
#       8
#     8   8   8   8   8   8   8   8
#     4  10  20  34  49  70  94 123 163 198 237 284
#     4  10  20  32  47  72  93 123 165 197 233 278
#     4   8  15  28  45  66  93 126 159 188 227 280
#     4  10  19  33  50  65  92 128 161 196 236 279
#     4  10  19  30  45  69 101 129 158 195 231 275
#     4  10  19  30  46  69  99 130 158 194 234 275
#     4  10  21  35  50  67  94 127 160 202 242 278
#     4   8  15  28  45  66  94 127 157 187 228 278
#
# _framework density 15.271627000000001
#
# number of rings (size 3 to 8) (size 9 to 14) (size 15 to 20)
#    0.000    2.500    1.250    2.250    1.750    0.500 
#    0.000    3.750    0.000    0.000    0.000    0.000 
#    0.000    6.000    0.000    0.000    0.000    0.000 
#
# Total GULP energy -356590.165971 kJ/mol
# GULP energy per Si atom -5571.721343 kJ/mol
# Density = 1.523687 g / cm^3
# Si number density = 15.271627 Si / 1000 Ang^3
#
#
#
# Elastic Constant Matrix: (Units=GPa)
#
#
# Indices 1 2 3 4 5 6 
#
# 1 92.5999 16.3758 40.3020 0.0000 0.0000 0.0000
# 2 16.3758 25.3990 3.4334 0.0000 0.0000 0.0000
# 3 40.3020 3.4334 57.5548 0.0000 0.0000 0.0000
# 4 0.0000 0.0000 0.0000 1.6648 0.0000 0.0000
# 5 0.0000 0.0000 0.0000 0.0000 21.8564 0.0000
# 6 0.0000 0.0000 0.0000 0.0000 0.0000 14.5136
#
#
#
# Elastic Compliance Matrix: (Units=1/GPa)
#
#
# Indices 1 2 3 4 5 6 
#
# 1 0.017658 -0.009792 -0.011781 0.000000 0.000000 0.000000
# 2 -0.009792 0.045122 0.004165 0.000000 0.000000 0.000000
# 3 -0.011781 0.004165 0.025376 0.000000 0.000000 0.000000
# 4 0.000000 0.000000 0.000000 0.600674 0.000000 0.000000
# 5 0.000000 0.000000 0.000000 0.000000 0.045753 0.000000
# 6 0.000000 0.000000 0.000000 0.000000 0.000000 0.068901
#
#
# Mechanical properties :
#
#
# Convention : Reuss Voigt Hill
#
# Bulk Modulus (GPa) = 18.74764 32.86403 25.80584
# Shear Modulus (GPa) = 5.84057 15.30312 10.57185
#
# Velocity S-wave (km/s) = 1.95774 3.16897 2.63393
# Velocity P-wave (km/s) = 4.17290 5.91238 5.11710
#
# Compressibility (1/GPa) = 0.05334005
#
# Stress axis : x y z
#
# Youngs Moduli (GPa) = 56.63089 22.16209 39.40790
#
# Poissons Ratio (x) = 0.21702 0.46426
# Poissons Ratio (y) = 0.55456 -0.16415
# Poissons Ratio (z) = 0.66716 -0.09231
#
# Static dielectric constant tensor:
#      x y z
#    x 1.504030 0.000000 0.000000 
#    y 0.000000 1.475100 0.000000 
#    z 0.000000 0.000000 1.515210 
# 
# From -- ./inp_files/19015.got.cif
#   From: 2010.05.17/outbox.cif.g08.bks.cpg/sg59_10_cif.got.tgz:19015.got - 2010.06.03 14:40:33.
