data_PCOD9447602
_publ_section_title
;
Structure prediction by ZEFSAII (Michael W. Deem and Ramdas Pophale) SiO2 
 PCOD9447602
Probable space group: P M M N
;
_chemical_formula_sum "Si O2"
_cell_formula_units_Z 64
_cell_length_a 7.831541
_cell_length_b 14.359649
_cell_length_c 31.707979
_cell_angle_alpha 90.000000
_cell_angle_beta 90.000000
_cell_angle_gamma 90.000000
_cell_volume 3565.821606
_symmetry_space_group_name_H-M "P M M N"
_symmetry_group_IT_number 59
_space_group.IT_coordinate_system_code '2'
_symmetry_cell_setting 'orthorhombic'
loop_
_space_group_symop_operation_xyz
x,y,z
1/2-x,1/2-y,z
1/2+x,-y,-z
-x,1/2+y,-z
-x,-y,-z
1/2+x,1/2+y,-z
1/2-x,y,z
x,1/2-y,z
loop_
_atom_site_type_symbol
_atom_site_label
_atom_site_fract_x
_atom_site_fract_y
_atom_site_fract_z
Si Si1 0.953826 0.354871 0.623596
Si Si2 0.455360 0.532703 0.933559
Si Si3 0.547202 0.969858 0.678534
Si Si4 0.544003 0.143864 0.242592
Si Si5 0.458462 0.644050 0.853859
Si Si6 0.456356 0.144946 0.983252
Si Si7 0.548289 0.351108 0.396902
Si Si8 0.454253 0.480630 0.548244
O O1 0.750000 0.350279 0.629313
O O2 0.022575 0.250000 0.629165
O O3 0.018059 0.433326 0.657181
O O4 0.984897 0.392709 0.575980
O O5 0.250000 0.526356 0.930569
O O6 0.519730 0.572037 0.889117
O O7 0.496083 0.605554 0.970784
O O8 0.518973 0.432246 0.949710
O O9 0.750000 0.970246 0.672689
O O10 0.510498 0.938378 0.726054
O O11 0.471064 0.886941 0.650369
O O12 0.750000 0.146114 0.243050
O O13 0.486571 0.250000 0.254435
O O14 0.488014 0.126542 0.194335
O O15 0.250000 0.642029 0.853935
O O16 0.508188 0.750000 0.865128
O O17 0.250000 0.146571 0.980959
O O18 0.519138 0.250000 0.976933
O O19 0.750000 0.346062 0.406263
O O20 0.471834 0.250000 0.403112
O O21 0.473820 0.430861 0.426236
O O22 0.500000 0.500000 0.500000
O O23 0.250000 0.478026 0.551095
#
# Coordination Sequence:
#
# PCOD9447602 Si02
#       8
#     8   8   8   8   8   8   8   8
#     4   9  19  36  54  69  89 121 157 191 229 269
#     4   9  16  27  44  62  81 112 152 186 215 257
#     4  10  19  30  47  71  93 112 141 183 223 260
#     4   9  17  29  45  65  91 122 148 172 214 270
#     4   8  14  25  42  63  84 110 148 185 212 250
#     4   9  17  27  39  60  89 115 140 178 229 272
#     4   9  18  32  48  65  88 120 150 173 207 257
#     4  10  20  33  49  71  97 123 153 187 221 260
#
# _framework density 17.948177000000001
#
# number of rings (size 3 to 8) (size 9 to 14) (size 15 to 20)
#    0.000    2.875    0.000    2.250    0.000    4.500 
#    0.000    1.875    0.000    1.500    0.000    1.750 
#    0.000    0.000    0.000    0.000    0.000    0.000 
#
# Total GULP energy -356422.817352 kJ/mol
# GULP energy per Si atom -5569.106521 kJ/mol
# Density = 1.790733 g / cm^3
# Si number density = 17.948177 Si / 1000 Ang^3
#
#
#
# Elastic Constant Matrix: (Units=GPa)
#
#
# Indices 1 2 3 4 5 6 
#
# 1 20.8391 3.2382 -7.1294 0.0000 0.0000 0.0000
# 2 3.2382 130.8262 62.8229 0.0000 0.0000 0.0000
# 3 -7.1294 62.8229 106.8868 0.0000 0.0000 0.0000
# 4 0.0000 0.0000 0.0000 16.0897 0.0000 0.0000
# 5 0.0000 0.0000 0.0000 0.0000 18.0019 0.0000
# 6 0.0000 0.0000 0.0000 0.0000 0.0000 12.5827
#
#
#
# Elastic Compliance Matrix: (Units=1/GPa)
#
#
# Indices 1 2 3 4 5 6 
#
# 1 0.050566 -0.004000 0.005724 0.000000 0.000000 0.000000
# 2 -0.004000 0.010966 -0.006712 0.000000 0.000000 0.000000
# 3 0.005724 -0.006712 0.013682 0.000000 0.000000 0.000000
# 4 0.000000 0.000000 0.000000 0.062152 0.000000 0.000000
# 5 0.000000 0.000000 0.000000 0.000000 0.055550 0.000000
# 6 0.000000 0.000000 0.000000 0.000000 0.000000 0.079474
#
#
# Mechanical properties :
#
#
# Convention : Reuss Voigt Hill
#
# Bulk Modulus (GPa) = 15.32844 41.82392 28.57618
# Shear Modulus (GPa) = 16.44126 22.64290 19.54208
#
# Velocity S-wave (km/s) = 3.02990 3.55571 3.30329
# Velocity P-wave (km/s) = 4.56063 6.34119 5.52313
#
# Compressibility (1/GPa) = 0.06523822
#
# Stress axis : x y z
#
# Youngs Moduli (GPa) = 19.77594 91.19209 73.08615
#
# Poissons Ratio (x) = 0.36479 -0.41834
# Poissons Ratio (y) = 0.07911 0.49056
# Poissons Ratio (z) = -0.11320 0.61208
#
# Static dielectric constant tensor:
#      x y z
#    x 1.656260 0.000000 0.000000 
#    y 0.000000 1.652680 0.000000 
#    z 0.000000 0.000000 1.635550 
# 
# From -- ./inp_files/33195.got.cif
#   From: 2010.05.17/outbox.cif.g08.bks.cpg/sg59_17_cif.got.tgz:33195.got - 2010.06.03 14:40:33.
