data_PCOD9447689
_publ_section_title
;
Structure prediction by ZEFSAII (Michael W. Deem and Ramdas Pophale) SiO2 
 PCOD9447689
Probable space group: P M M N
;
_chemical_formula_sum "Si O2"
_cell_formula_units_Z 40
_cell_length_a 8.760750
_cell_length_b 22.090638
_cell_length_c 11.832996
_cell_angle_alpha 90.000000
_cell_angle_beta 90.000000
_cell_angle_gamma 90.000000
_cell_volume 2290.046305
_symmetry_space_group_name_H-M "P M M N"
_symmetry_group_IT_number 59
_space_group.IT_coordinate_system_code '2'
_symmetry_cell_setting 'orthorhombic'
loop_
_space_group_symop_operation_xyz
x,y,z
1/2-x,1/2-y,z
1/2+x,-y,-z
-x,1/2+y,-z
-x,-y,-z
1/2+x,1/2+y,-z
1/2-x,y,z
x,1/2-y,z
loop_
_atom_site_type_symbol
_atom_site_label
_atom_site_fract_x
_atom_site_fract_y
_atom_site_fract_z
Si Si1 0.930703 0.552778 0.421074
Si Si2 0.427673 0.081645 0.015291
Si Si3 0.424267 0.821219 0.106009
Si Si4 0.065586 0.820387 0.369042
Si Si5 0.429139 0.991023 0.190038
O O1 0.750000 0.555518 0.437500
O O2 0.000000 0.500000 0.500000
O O3 0.997954 0.621272 0.433971
O O4 0.972774 0.530688 0.294721
O O5 0.250000 0.067566 0.994759
O O6 0.466071 0.150008 0.986339
O O7 0.529187 0.048360 0.920262
O O8 0.461848 0.058038 0.140893
O O9 0.250000 0.843914 0.093739
O O10 0.419957 0.750000 0.092468
O O11 0.473300 0.831589 0.236286
O O12 0.250000 0.822138 0.376979
O O13 0.019861 0.750000 0.396682
O O14 0.250000 0.985383 0.218457
#
# Coordination Sequence:
#
# PCOD9447689 Si02
#       5
#     8   8   8   8   8
#     4  12  24  37  56  81 109 142 184 229 275 323
#     4  10  19  30  49  76 104 136 170 210 257 308
#     4   9  17  29  48  74 106 142 173 209 261 317
#     4   9  18  34  55  79 109 142 175 218 273 325
#     4  10  20  34  50  72 105 138 171 212 261 312
#
# _framework density 17.466896999999999
#
# number of rings (size 3 to 8) (size 9 to 14) (size 15 to 20)
#    0.000    2.000    2.000    4.200    0.000    3.200 
#    0.000    2.000    0.000    1.200    0.000    5.600 
#    0.000    0.000    0.000    0.000    0.000    0.000 
#
# Total GULP energy -222736.273774 kJ/mol
# GULP energy per Si atom -5568.406844 kJ/mol
# Density = 1.742714 g / cm^3
# Si number density = 17.466897 Si / 1000 Ang^3
#
#
#
# Elastic Constant Matrix: (Units=GPa)
#
#
# Indices 1 2 3 4 5 6 
#
# 1 59.0501 48.0652 16.4700 0.0000 0.0000 0.0000
# 2 48.0652 129.4873 41.7583 0.0000 0.0000 0.0000
# 3 16.4700 41.7583 36.0700 0.0000 0.0000 0.0000
# 4 0.0000 0.0000 0.0000 29.5313 0.0000 0.0000
# 5 0.0000 0.0000 0.0000 0.0000 22.1245 0.0000
# 6 0.0000 0.0000 0.0000 0.0000 0.0000 33.7869
#
#
#
# Elastic Compliance Matrix: (Units=1/GPa)
#
#
# Indices 1 2 3 4 5 6 
#
# 1 0.024291 -0.008681 -0.001042 0.000000 0.000000 0.000000
# 2 -0.008681 0.015426 -0.013895 0.000000 0.000000 0.000000
# 3 -0.001042 -0.013895 0.044286 0.000000 0.000000 0.000000
# 4 0.000000 0.000000 0.000000 0.033862 0.000000 0.000000
# 5 0.000000 0.000000 0.000000 0.000000 0.045199 0.000000
# 6 0.000000 0.000000 0.000000 0.000000 0.000000 0.029597
#
#
# Mechanical properties :
#
#
# Convention : Reuss Voigt Hill
#
# Bulk Modulus (GPa) = 27.19773 48.57716 37.88745
# Shear Modulus (GPa) = 19.82923 24.97614 22.40269
#
# Velocity S-wave (km/s) = 3.37300 3.78552 3.58520
# Velocity P-wave (km/s) = 5.54746 6.85407 6.23508
#
# Compressibility (1/GPa) = 0.03676777
#
# Stress axis : x y z
#
# Youngs Moduli (GPa) = 41.16691 64.82547 22.58058
#
# Poissons Ratio (x) = 0.56274 0.02353
# Poissons Ratio (y) = 0.35736 0.31376
# Poissons Ratio (z) = 0.04289 0.90075
#
# Static dielectric constant tensor:
#      x y z
#    x 1.640400 0.000000 0.000000 
#    y 0.000000 1.721050 0.000000 
#    z 0.000000 0.000000 1.585580 
# 
# From -- ./inp_files/14058.got.cif
#   From: 2010.05.17/outbox.cif.g08.bks.cpg/sg59_8_cif.got.tgz:14058.got - 2010.06.03 14:40:33.
