data_PCOD9447046
_publ_section_title
;
Structure prediction by ZEFSAII (Michael W. Deem and Ramdas Pophale) SiO2 
 PCOD9447046
Probable space group: P M M N
;
_chemical_formula_sum "Si O2"
_cell_formula_units_Z 40
_cell_length_a 10.449206
_cell_length_b 8.909018
_cell_length_c 25.190501
_cell_angle_alpha 90.000000
_cell_angle_beta 90.000000
_cell_angle_gamma 90.000000
_cell_volume 2345.038259
_symmetry_space_group_name_H-M "P M M N"
_symmetry_group_IT_number 59
_space_group.IT_coordinate_system_code '2'
_symmetry_cell_setting 'orthorhombic'
loop_
_space_group_symop_operation_xyz
x,y,z
1/2-x,1/2-y,z
1/2+x,-y,-z
-x,1/2+y,-z
-x,-y,-z
1/2+x,1/2+y,-z
1/2-x,y,z
x,1/2-y,z
loop_
_atom_site_type_symbol
_atom_site_label
_atom_site_fract_x
_atom_site_fract_y
_atom_site_fract_z
Si Si1 0.250000 0.431842 0.435489
Si Si2 0.007905 0.567371 0.623530
Si Si3 0.100180 0.929584 0.958948
Si Si4 0.750000 0.068297 0.447535
Si Si5 0.596950 0.429221 0.261973
Si Si6 0.094920 0.421235 0.847525
O O1 0.250000 0.250000 0.439247
O O2 0.375800 0.479025 0.403208
O O3 0.250000 0.498888 0.494239
O O4 0.010002 0.750000 0.625274
O O5 0.125567 0.522054 0.586060
O O6 0.029713 0.517656 0.684026
O O7 0.250000 0.974841 0.968411
O O8 0.094982 0.750000 0.961920
O O9 0.063618 0.983767 0.899735
O O10 0.000000 0.000000 0.000000
O O11 0.750000 0.250000 0.451581
O O12 0.750000 0.453630 0.268488
O O13 0.578990 0.250000 0.256318
O O14 0.551892 0.508590 0.208204
O O15 0.250000 0.420549 0.844888
O O16 0.051121 0.250000 0.853540
#
# Coordination Sequence:
#
# PCOD9447046 Si02
#       6
#     4   8   8   4   8   8
#     4  10  20  32  46  68  96 122 151 194 241 286
#     4   9  17  30  49  69  91 121 157 195 238 288
#     4  10  20  34  54  80 109 142 178 216 258 305
#     4  10  18  32  50  68  90 122 159 192 233 288
#     4   9  15  27  48  69  88 118 162 204 239 286
#     4   9  17  29  47  74 104 131 163 209 256 295
#
# _framework density 17.057292
#
# number of rings (size 3 to 8) (size 9 to 14) (size 15 to 20)
#    0.000    2.600    1.000    1.800    0.000    3.600 
#    0.000    2.000    2.200    0.000    0.000    0.000 
#    0.000    0.000    0.000    0.000    0.000    0.000 
#
# Total GULP energy -222972.147611 kJ/mol
# GULP energy per Si atom -5574.303690 kJ/mol
# Density = 1.701847 g / cm^3
# Si number density = 17.057292 Si / 1000 Ang^3
#
#
#
# Elastic Constant Matrix: (Units=GPa)
#
#
# Indices 1 2 3 4 5 6 
#
# 1 101.8000 32.2592 80.3609 0.0000 0.0000 0.0000
# 2 32.2592 38.9417 50.3158 0.0000 0.0000 0.0000
# 3 80.3609 50.3158 188.6926 0.0000 0.0000 0.0000
# 4 0.0000 0.0000 0.0000 34.5247 0.0000 0.0000
# 5 0.0000 0.0000 0.0000 0.0000 16.2874 0.0000
# 6 0.0000 0.0000 0.0000 0.0000 0.0000 10.4435
#
#
#
# Elastic Compliance Matrix: (Units=1/GPa)
#
#
# Indices 1 2 3 4 5 6 
#
# 1 0.015878 -0.006737 -0.004966 0.000000 0.000000 0.000000
# 2 -0.006737 0.042037 -0.008340 0.000000 0.000000 0.000000
# 3 -0.004966 -0.008340 0.009638 0.000000 0.000000 0.000000
# 4 0.000000 0.000000 0.000000 0.028965 0.000000 0.000000
# 5 0.000000 0.000000 0.000000 0.000000 0.061397 0.000000
# 6 0.000000 0.000000 0.000000 0.000000 0.000000 0.095754
#
#
# Mechanical properties :
#
#
# Convention : Reuss Voigt Hill
#
# Bulk Modulus (GPa) = 36.40729 72.81179 54.60954
# Shear Modulus (GPa) = 16.50655 23.35100 19.92878
#
# Velocity S-wave (km/s) = 3.11418 3.70398 3.42181
# Velocity P-wave (km/s) = 5.85844 7.81485 6.90627
#
# Compressibility (1/GPa) = 0.02746702
#
# Stress axis : x y z
#
# Youngs Moduli (GPa) = 62.98003 23.78884 103.75293
#
# Poissons Ratio (x) = 0.16027 0.51520
# Poissons Ratio (y) = 0.42432 0.86529
# Poissons Ratio (z) = 0.31274 0.19840
#
# Static dielectric constant tensor:
#      x y z
#    x 1.566070 0.000000 0.000000 
#    y 0.000000 1.579220 0.000000 
#    z 0.000000 0.000000 1.562060 
# 
# From -- ./inp_files/28748.got.cif
#   From: 2010.05.17/outbox.cif.g08.bks.cpg/sg59_15_cif.got.tgz:28748.got - 2010.06.03 14:40:33.
