data_PCOD9447820
_publ_section_title
;
Structure prediction by ZEFSAII (Michael W. Deem and Ramdas Pophale) SiO2 
 PCOD9447820
Probable space group: P M M N
;
_chemical_formula_sum "Si O2"
_cell_formula_units_Z 48
_cell_length_a 8.622906
_cell_length_b 21.194388
_cell_length_c 15.470346
_cell_angle_alpha 90.000000
_cell_angle_beta 90.000000
_cell_angle_gamma 90.000000
_cell_volume 2827.317357
_symmetry_space_group_name_H-M "P M M N"
_symmetry_group_IT_number 59
_space_group.IT_coordinate_system_code '2'
_symmetry_cell_setting 'orthorhombic'
loop_
_space_group_symop_operation_xyz
x,y,z
1/2-x,1/2-y,z
1/2+x,-y,-z
-x,1/2+y,-z
-x,-y,-z
1/2+x,1/2+y,-z
1/2-x,y,z
x,1/2-y,z
loop_
_atom_site_type_symbol
_atom_site_label
_atom_site_fract_x
_atom_site_fract_y
_atom_site_fract_z
Si Si1 0.936431 0.551321 0.068576
Si Si2 0.561905 0.180665 0.388710
Si Si3 0.933601 0.955003 0.574042
Si Si4 0.937926 0.319591 0.005571
Si Si5 0.930750 0.343728 0.196664
Si Si6 0.569086 0.010970 0.242131
O O1 0.750000 0.546868 0.067377
O O2 0.988632 0.534580 0.166279
O O3 0.990931 0.620816 0.042448
O O4 0.000000 0.500000 0.000000
O O5 0.750000 0.175995 0.387680
O O6 0.521124 0.250000 0.424988
O O7 0.499728 0.116556 0.430950
O O8 0.505200 0.178721 0.288558
O O9 0.750000 0.952018 0.567341
O O10 0.980874 0.983481 0.667547
O O11 0.000000 0.000000 0.500000
O O12 0.750000 0.326700 0.006670
O O13 0.973822 0.250000 0.969897
O O14 0.995043 0.321893 0.105351
O O15 0.750000 0.324383 0.196968
O O16 0.936593 0.419313 0.200184
O O17 0.750000 0.997203 0.261282
#
# Coordination Sequence:
#
# PCOD9447820 Si02
#       6
#     8   8   8   8   8   8
#     4  11  21  34  53  75 105 141 181 222 262 311
#     4   9  17  31  52  77 108 143 174 207 256 320
#     4  11  22  36  56  81 109 138 173 221 269 319
#     4  10  19  31  48  72 105 144 183 221 264 313
#     4   8  13  26  47  71 100 136 173 204 247 308
#     4   9  18  34  54  75 101 137 177 219 264 313
#
# _framework density 16.977222999999999
#
# number of rings (size 3 to 8) (size 9 to 14) (size 15 to 20)
#    0.000    2.333    1.667    3.500    0.000    4.000 
#    0.000    0.000    0.000    3.000    0.000    4.667 
#    0.000    0.000    0.000    0.000    0.000    0.000 
#
# Total GULP energy -267483.628482 kJ/mol
# GULP energy per Si atom -5572.575593 kJ/mol
# Density = 1.693858 g / cm^3
# Si number density = 16.977223 Si / 1000 Ang^3
#
#
#
# Elastic Constant Matrix: (Units=GPa)
#
#
# Indices 1 2 3 4 5 6 
#
# 1 51.8089 43.6502 34.2420 0.0000 0.0000 0.0000
# 2 43.6502 152.5522 76.1839 0.0000 0.0000 0.0000
# 3 34.2420 76.1839 84.7464 0.0000 0.0000 0.0000
# 4 0.0000 0.0000 0.0000 14.7210 0.0000 0.0000
# 5 0.0000 0.0000 0.0000 0.0000 22.7005 0.0000
# 6 0.0000 0.0000 0.0000 0.0000 0.0000 23.6710
#
#
#
# Elastic Compliance Matrix: (Units=1/GPa)
#
#
# Indices 1 2 3 4 5 6 
#
# 1 0.027775 -0.004251 -0.007401 0.000000 0.000000 0.000000
# 2 -0.004251 0.012546 -0.009561 0.000000 0.000000 0.000000
# 3 -0.007401 -0.009561 0.023385 0.000000 0.000000 0.000000
# 4 0.000000 0.000000 0.000000 0.067930 0.000000 0.000000
# 5 0.000000 0.000000 0.000000 0.000000 0.044052 0.000000
# 6 0.000000 0.000000 0.000000 0.000000 0.000000 0.042246
#
#
# Mechanical properties :
#
#
# Convention : Reuss Voigt Hill
#
# Bulk Modulus (GPa) = 46.99165 66.36217 56.67691
# Shear Modulus (GPa) = 18.69485 21.22059 19.95772
#
# Velocity S-wave (km/s) = 3.32199 3.53929 3.43236
# Velocity P-wave (km/s) = 6.51563 7.47502 7.01175
#
# Compressibility (1/GPa) = 0.02128038
#
# Stress axis : x y z
#
# Youngs Moduli (GPa) = 36.00362 79.70517 42.76255
#
# Poissons Ratio (x) = 0.33887 0.31647
# Poissons Ratio (y) = 0.15307 0.40884
# Poissons Ratio (z) = 0.26645 0.76204
#
# Static dielectric constant tensor:
#      x y z
#    x 1.580640 0.000000 0.000000 
#    y 0.000000 1.595370 0.000000 
#    z 0.000000 0.000000 1.571780 
# 
# From -- ./inp_files/20726.got.cif
#   From: 2010.05.17/outbox.cif.g08.bks.cpg/sg59_11_cif.got.tgz:20726.got - 2010.06.03 14:40:33.
