data_PCOD9447100
_publ_section_title
;
Structure prediction by ZEFSAII (Michael W. Deem and Ramdas Pophale) SiO2 
 PCOD9447100
Probable space group: P M M N
;
_chemical_formula_sum "Si O2"
_cell_formula_units_Z 56
_cell_length_a 16.147963
_cell_length_b 7.732675
_cell_length_c 22.676444
_cell_angle_alpha 90.000000
_cell_angle_beta 90.000000
_cell_angle_gamma 90.000000
_cell_volume 2831.538394
_symmetry_space_group_name_H-M "P M M N"
_symmetry_group_IT_number 59
_space_group.IT_coordinate_system_code '2'
_symmetry_cell_setting 'orthorhombic'
loop_
_space_group_symop_operation_xyz
x,y,z
1/2-x,1/2-y,z
1/2+x,-y,-z
-x,1/2+y,-z
-x,-y,-z
1/2+x,1/2+y,-z
1/2-x,y,z
x,1/2-y,z
loop_
_atom_site_type_symbol
_atom_site_label
_atom_site_fract_x
_atom_site_fract_y
_atom_site_fract_z
Si Si1 0.597263 0.957825 0.502406
Si Si2 0.505045 0.954590 0.296960
Si Si3 0.070942 0.043035 0.179727
Si Si4 0.929633 0.541417 0.953484
Si Si5 0.841607 0.958459 0.629368
Si Si6 0.157606 0.462041 0.624978
Si Si7 0.750000 0.551999 0.955961
Si Si8 0.750000 0.947425 0.812481
O O1 0.605552 0.750000 0.503230
O O2 0.637571 0.022155 0.563116
O O3 0.639127 0.019010 0.442021
O O4 0.500000 0.000000 0.500000
O O5 0.513220 0.750000 0.297466
O O6 0.583695 0.024945 0.332936
O O7 0.496403 0.010180 0.229349
O O8 0.419349 0.998115 0.329853
O O9 0.082288 0.250000 0.175660
O O10 0.052473 0.980468 0.113510
O O11 0.160807 0.972300 0.201224
O O12 0.922656 0.750000 0.950669
O O13 0.838607 0.472998 0.971898
O O14 0.000000 0.500000 0.000000
O O15 0.750000 0.019311 0.648334
O O16 0.838365 0.750000 0.627660
O O17 0.250000 0.514035 0.642989
O O18 0.155631 0.250000 0.624729
O O19 0.750000 0.750000 0.978180
O O20 0.750000 0.560544 0.884258
O O21 0.750000 0.750000 0.788256
#
# Coordination Sequence:
#
# PCOD9447100 Si02
#       8
#     8   8   8   8   8   8   4   4
#     4  10  18  32  54  76  99 127 165 212 258 304
#     4  11  22  34  51  77 105 132 167 217 263 298
#     4   9  18  33  52  74 103 138 173 206 249 308
#     4   9  17  31  54  79 104 136 173 212 254 300
#     4  10  21  35  52  74 102 139 174 201 245 316
#     4   9  18  34  55  74  95 130 173 213 255 302
#     4   7  12  26  47  73 101 129 165 202 239 292
#     4   7  12  26  49  71  91 127 171 198 227 290
#
# _framework density 19.777235999999998
#
# number of rings (size 3 to 8) (size 9 to 14) (size 15 to 20)
#    0.000    2.714    1.429    2.571    1.000    2.571 
#    0.000    0.357    1.571    7.286    0.000    0.000 
#    0.000    0.000    0.000    0.000    0.000    0.000 
#
# Total GULP energy -312274.157226 kJ/mol
# GULP energy per Si atom -5576.324236 kJ/mol
# Density = 1.973222 g / cm^3
# Si number density = 19.777236 Si / 1000 Ang^3
#
#
#
# Elastic Constant Matrix: (Units=GPa)
#
#
# Indices 1 2 3 4 5 6 
#
# 1 156.4783 1.4214 85.7405 0.0000 0.0000 0.0000
# 2 1.4214 29.4467 6.5868 0.0000 0.0000 0.0000
# 3 85.7405 6.5868 120.0091 0.0000 0.0000 0.0000
# 4 0.0000 0.0000 0.0000 18.9788 0.0000 0.0000
# 5 0.0000 0.0000 0.0000 0.0000 33.5395 0.0000
# 6 0.0000 0.0000 0.0000 0.0000 0.0000 19.1379
#
#
#
# Elastic Compliance Matrix: (Units=1/GPa)
#
#
# Indices 1 2 3 4 5 6 
#
# 1 0.010543 0.001191 -0.007598 0.000000 0.000000 0.000000
# 2 0.001191 0.034516 -0.002745 0.000000 0.000000 0.000000
# 3 -0.007598 -0.002745 0.013912 0.000000 0.000000 0.000000
# 4 0.000000 0.000000 0.000000 0.052690 0.000000 0.000000
# 5 0.000000 0.000000 0.000000 0.000000 0.029816 0.000000
# 6 0.000000 0.000000 0.000000 0.000000 0.000000 0.052252
#
#
# Mechanical properties :
#
#
# Convention : Reuss Voigt Hill
#
# Bulk Modulus (GPa) = 24.59039 54.82573 39.70806
# Shear Modulus (GPa) = 22.16421 28.47694 25.32057
#
# Velocity S-wave (km/s) = 3.35131 3.79870 3.58199
# Velocity P-wave (km/s) = 5.23791 6.85726 6.10154
#
# Compressibility (1/GPa) = 0.04066629
#
# Stress axis : x y z
#
# Youngs Moduli (GPa) = 94.85003 28.97188 71.88250
#
# Poissons Ratio (x) = -0.03449 0.54615
# Poissons Ratio (y) = -0.11293 0.19732
# Poissons Ratio (z) = 0.72065 0.07953
#
# Static dielectric constant tensor:
#      x y z
#    x 1.718960 0.000000 0.000000 
#    y 0.000000 1.758650 0.000000 
#    z 0.000000 0.000000 1.695660 
# 
# From -- ./inp_files/30431.got.cif
#   From: 2010.05.17/outbox.cif.g08.bks.cpg/sg59_16_cif.got.tgz:30431.got - 2010.06.03 14:40:33.
