data_PCOD9447360
_publ_section_title
;
Structure prediction by ZEFSAII (Michael W. Deem and Ramdas Pophale) SiO2 
 PCOD9447360
Probable space group: P M M N
;
_chemical_formula_sum "Si O2"
_cell_formula_units_Z 48
_cell_length_a 22.064619
_cell_length_b 7.725218
_cell_length_c 15.941935
_cell_angle_alpha 90.000000
_cell_angle_beta 90.000000
_cell_angle_gamma 90.000000
_cell_volume 2717.366459
_symmetry_space_group_name_H-M "P M M N"
_symmetry_group_IT_number 59
_space_group.IT_coordinate_system_code '2'
_symmetry_cell_setting 'orthorhombic'
loop_
_space_group_symop_operation_xyz
x,y,z
1/2-x,1/2-y,z
1/2+x,-y,-z
-x,1/2+y,-z
-x,-y,-z
1/2+x,1/2+y,-z
1/2-x,y,z
x,1/2-y,z
loop_
_atom_site_type_symbol
_atom_site_label
_atom_site_fract_x
_atom_site_fract_y
_atom_site_fract_z
Si Si1 0.094099 0.954698 0.837453
Si Si2 0.449079 0.047962 0.378983
Si Si3 0.318705 0.959034 0.692451
Si Si4 0.543560 0.963184 0.804005
Si Si5 0.929539 0.955533 0.982402
Si Si6 0.580511 0.543069 0.439298
O O1 0.090709 0.750000 0.822420
O O2 0.144449 0.024465 0.774077
O O3 0.026453 0.021734 0.816429
O O4 0.105959 0.978578 0.936349
O O5 0.432432 0.250000 0.376333
O O6 0.434627 0.975678 0.287042
O O7 0.420544 0.975809 0.464753
O O8 0.521685 0.034061 0.392723
O O9 0.250000 0.024013 0.688371
O O10 0.315984 0.750000 0.697476
O O11 0.359263 0.003797 0.611974
O O12 0.543103 0.750000 0.803554
O O13 0.580440 0.017894 0.887012
O O14 0.923071 0.750000 0.982335
O O15 0.000000 0.000000 0.000000
O O16 0.571182 0.750000 0.441538
#
# Coordination Sequence:
#
# PCOD9447360 Si02
#       6
#     8   8   8   8   8   8
#     4   9  16  28  43  60  84 114 148 183 218 261
#     4   9  16  29  46  63  90 124 150 175 220 279
#     4  10  20  34  50  63  83 122 161 188 224 278
#     4   8  13  24  42  61  84 116 144 171 207 260
#     4   9  16  25  39  61  87 115 143 172 211 255
#     4  10  19  28  43  68  92 115 147 192 232 261
#
# _framework density 17.664161
#
# number of rings (size 3 to 8) (size 9 to 14) (size 15 to 20)
#    0.000    2.833    1.667    2.000    0.000    1.667 
#    0.000    0.833    0.000    0.000    0.000    1.167 
#    0.000    6.667    0.000    0.000    0.000    0.000 
#
# Total GULP energy -267236.583830 kJ/mol
# GULP energy per Si atom -5567.428830 kJ/mol
# Density = 1.762396 g / cm^3
# Si number density = 17.664161 Si / 1000 Ang^3
#
#
#
# Elastic Constant Matrix: (Units=GPa)
#
#
# Indices 1 2 3 4 5 6 
#
# 1 65.4194 -2.0530 51.0129 0.0000 0.0000 0.0000
# 2 -2.0530 24.6099 -6.8175 0.0000 0.0000 0.0000
# 3 51.0129 -6.8175 179.8004 0.0000 0.0000 0.0000
# 4 0.0000 0.0000 0.0000 18.3830 0.0000 0.0000
# 5 0.0000 0.0000 0.0000 0.0000 15.0455 0.0000
# 6 0.0000 0.0000 0.0000 0.0000 0.0000 10.8784
#
#
#
# Elastic Compliance Matrix: (Units=1/GPa)
#
#
# Indices 1 2 3 4 5 6 
#
# 1 0.019629 0.000096 -0.005565 0.000000 0.000000 0.000000
# 2 0.000096 0.041066 0.001530 0.000000 0.000000 0.000000
# 3 -0.005565 0.001530 0.007199 0.000000 0.000000 0.000000
# 4 0.000000 0.000000 0.000000 0.054398 0.000000 0.000000
# 5 0.000000 0.000000 0.000000 0.000000 0.066465 0.000000
# 6 0.000000 0.000000 0.000000 0.000000 0.000000 0.091925
#
#
# Mechanical properties :
#
#
# Convention : Reuss Voigt Hill
#
# Bulk Modulus (GPa) = 16.66284 39.34605 28.00444
# Shear Modulus (GPa) = 16.20398 24.04054 20.12226
#
# Velocity S-wave (km/s) = 3.03204 3.69315 3.37880
# Velocity P-wave (km/s) = 4.65954 6.36464 5.57763
#
# Compressibility (1/GPa) = 0.06001380
#
# Stress axis : x y z
#
# Youngs Moduli (GPa) = 50.94554 24.35115 138.91287
#
# Poissons Ratio (x) = -0.00233 0.77311
# Poissons Ratio (y) = -0.00488 -0.21253
# Poissons Ratio (z) = 0.28353 -0.03726
#
# Static dielectric constant tensor:
#      x y z
#    x 1.557670 0.000000 0.000000 
#    y 0.000000 1.652130 0.000000 
#    z 0.000000 0.000000 1.678640 
# 
# From -- ./inp_files/20763.got.cif
#   From: 2010.05.17/outbox.cif.g08.bks.cpg/sg59_11_cif.got.tgz:20763.got - 2010.06.03 14:40:33.
