data_PCOD9447550
_publ_section_title
;
Structure prediction by ZEFSAII (Michael W. Deem and Ramdas Pophale) SiO2 
 PCOD9447550
Probable space group: P M M N
;
_chemical_formula_sum "Si O2"
_cell_formula_units_Z 64
_cell_length_a 9.373402
_cell_length_b 22.013256
_cell_length_c 14.521063
_cell_angle_alpha 90.000000
_cell_angle_beta 90.000000
_cell_angle_gamma 90.000000
_cell_volume 2996.263039
_symmetry_space_group_name_H-M "P M M N"
_symmetry_group_IT_number 59
_space_group.IT_coordinate_system_code '2'
_symmetry_cell_setting 'orthorhombic'
loop_
_space_group_symop_operation_xyz
x,y,z
1/2-x,1/2-y,z
1/2+x,-y,-z
-x,1/2+y,-z
-x,-y,-z
1/2+x,1/2+y,-z
1/2-x,y,z
x,1/2-y,z
loop_
_atom_site_type_symbol
_atom_site_label
_atom_site_fract_x
_atom_site_fract_y
_atom_site_fract_z
Si Si1 0.422099 0.185288 0.474847
Si Si2 0.585158 0.681380 0.005894
Si Si3 0.414226 0.317270 0.769454
Si Si4 0.092067 0.441416 0.486113
Si Si5 0.579812 0.316760 0.277892
Si Si6 0.912257 0.566915 0.734613
Si Si7 0.088567 0.562510 0.010284
Si Si8 0.410638 0.566441 0.229844
O O1 0.250000 0.181387 0.455762
O O2 0.445272 0.250000 0.522632
O O3 0.461902 0.122910 0.524490
O O4 0.511707 0.186853 0.380398
O O5 0.750000 0.674363 0.975724
O O6 0.536172 0.750000 0.980328
O O7 0.587331 0.680702 0.118240
O O8 0.491993 0.623346 0.976148
O O9 0.250000 0.321617 0.738195
O O10 0.469818 0.250000 0.744969
O O11 0.502216 0.375446 0.737709
O O12 0.250000 0.452791 0.522488
O O13 0.098222 0.431040 0.376148
O O14 0.000000 0.500000 0.500000
O O15 0.750000 0.325173 0.282439
O O16 0.551155 0.250000 0.235545
O O17 0.503383 0.375253 0.234834
O O18 0.750000 0.569502 0.772277
O O19 0.975395 0.500454 0.754636
O O20 0.250000 0.556793 0.972578
O O21 0.100785 0.571894 0.119954
O O22 0.000000 0.500000 0.000000
O O23 0.250000 0.565461 0.269868
#
# Coordination Sequence:
#
# PCOD9447550 Si02
#       8
#     8   8   8   8   8   8   8   8
#     4   8  14  26  43  61  82 111 146 180 214 252
#     4   8  14  26  44  65  89 116 146 182 222 262
#     4   8  14  25  42  65  91 116 143 178 222 266
#     4   9  17  28  44  65  88 114 142 176 216 257
#     4   9  16  25  40  65  91 111 138 179 222 261
#     4   9  18  32  47  64  88 118 150 181 216 259
#     4  10  19  30  46  68  93 119 148 184 223 264
#     4   9  18  31  47  67  89 116 152 187 216 255
#
# _framework density 21.359940999999999
#
# number of rings (size 3 to 8) (size 9 to 14) (size 15 to 20)
#    0.000    3.250    0.000    2.250    0.000    4.250 
#    0.000    2.500    0.000    1.500    0.000    5.250 
#    0.000    0.000    0.000    0.000    0.000    0.000 
#
# Total GULP energy -356550.573396 kJ/mol
# GULP energy per Si atom -5571.102709 kJ/mol
# Density = 2.131132 g / cm^3
# Si number density = 21.359941 Si / 1000 Ang^3
#
#
#
# Elastic Constant Matrix: (Units=GPa)
#
#
# Indices 1 2 3 4 5 6 
#
# 1 86.0272 111.1799 5.0147 0.0000 0.0000 0.0000
# 2 111.1799 288.1736 3.8033 0.0000 0.0000 0.0000
# 3 5.0147 3.8033 46.6232 0.0000 0.0000 0.0000
# 4 0.0000 0.0000 0.0000 18.5518 0.0000 0.0000
# 5 0.0000 0.0000 0.0000 0.0000 4.0924 0.0000
# 6 0.0000 0.0000 0.0000 0.0000 0.0000 38.8800
#
#
#
# Elastic Compliance Matrix: (Units=1/GPa)
#
#
# Indices 1 2 3 4 5 6 
#
# 1 0.023330 -0.008978 -0.001777 0.000000 0.000000 0.000000
# 2 -0.008978 0.006928 0.000400 0.000000 0.000000 0.000000
# 3 -0.001777 0.000400 0.021607 0.000000 0.000000 0.000000
# 4 0.000000 0.000000 0.000000 0.053903 0.000000 0.000000
# 5 0.000000 0.000000 0.000000 0.000000 0.244354 0.000000
# 6 0.000000 0.000000 0.000000 0.000000 0.000000 0.025720
#
#
# Mechanical properties :
#
#
# Convention : Reuss Voigt Hill
#
# Bulk Modulus (GPa) = 32.09508 73.42440 52.75974
# Shear Modulus (GPa) = 12.28690 32.35992 22.32341
#
# Velocity S-wave (km/s) = 2.40100 3.89650 3.23632
# Velocity P-wave (km/s) = 4.76916 7.39547 6.22246
#
# Compressibility (1/GPa) = 0.03115742
#
# Stress axis : x y z
#
# Youngs Moduli (GPa) = 42.86282 144.33209 46.28130
#
# Poissons Ratio (x) = 1.29575 0.08224
# Poissons Ratio (y) = 0.38480 -0.01853
# Poissons Ratio (z) = 0.07617 -0.05779
#
# Static dielectric constant tensor:
#      x y z
#    x 1.756650 0.000000 0.000000 
#    y 0.000000 1.826570 0.000000 
#    z 0.000000 0.000000 1.853430 
# 
# From -- ./inp_files/29665.got.cif
#   From: 2010.05.17/outbox.cif.g08.bks.cpg/sg59_15_cif.got.tgz:29665.got - 2010.06.03 14:40:33.
