data_PCOD9447759
_publ_section_title
;
Structure prediction by ZEFSAII (Michael W. Deem and Ramdas Pophale) SiO2 
 PCOD9447759
Probable space group: P M M N
;
_chemical_formula_sum "Si O2"
_cell_formula_units_Z 48
_cell_length_a 32.505643
_cell_length_b 7.468528
_cell_length_c 9.345085
_cell_angle_alpha 90.000000
_cell_angle_beta 90.000000
_cell_angle_gamma 90.000000
_cell_volume 2268.699790
_symmetry_space_group_name_H-M "P M M N"
_symmetry_group_IT_number 59
_space_group.IT_coordinate_system_code '2'
_symmetry_cell_setting 'orthorhombic'
loop_
_space_group_symop_operation_xyz
x,y,z
1/2-x,1/2-y,z
1/2+x,-y,-z
-x,1/2+y,-z
-x,-y,-z
1/2+x,1/2+y,-z
1/2-x,y,z
x,1/2-y,z
loop_
_atom_site_type_symbol
_atom_site_label
_atom_site_fract_x
_atom_site_fract_y
_atom_site_fract_z
Si Si1 0.090906 0.462168 0.835745
Si Si2 0.326761 0.957111 0.672029
Si Si3 0.911916 0.034301 0.825168
Si Si4 0.998616 0.536018 0.170215
Si Si5 0.332477 0.530327 0.349152
Si Si6 0.250000 0.968288 0.184459
Si Si7 0.750000 0.469994 0.144123
O O1 0.091406 0.250000 0.812671
O O2 0.130058 0.537050 0.754066
O O3 0.046221 0.532904 0.783514
O O4 0.093919 0.493187 0.006550
O O5 0.315161 0.750000 0.650257
O O6 0.330777 0.032780 0.512848
O O7 0.290503 0.031564 0.771099
O O8 0.912835 0.250000 0.814686
O O9 0.873577 0.969777 0.732483
O O10 0.957174 0.967935 0.776142
O O11 0.998046 0.750000 0.192112
O O12 0.000000 0.500000 0.000000
O O13 0.333602 0.750000 0.348088
O O14 0.291344 0.475919 0.265742
O O15 0.250000 0.750000 0.184912
O O16 0.250000 0.027890 0.020254
O O17 0.750000 0.250000 0.138919
#
# Coordination Sequence:
#
# PCOD9447759 Si02
#       7
#     8   8   8   8   8   4   4
#     4  10  19  31  47  70  97 126 159 199 241 282
#     4  10  19  32  49  71  97 126 156 190 233 284
#     4   9  16  30  51  72  93 124 164 203 237 278
#     4   8  15  27  45  67  92 121 158 200 239 274
#     4   9  17  28  46  71  98 123 152 191 236 281
#     4   9  15  25  43  71  98 117 144 192 242 277
#     4   9  17  29  50  75  96 119 154 196 236 277
#
# _framework density 21.157492000000001
#
# number of rings (size 3 to 8) (size 9 to 14) (size 15 to 20)
#    0.000    2.833    0.000    2.000    0.000    5.333 
#    0.000    2.083    0.000    0.000    0.000    1.167 
#    0.000    0.000    0.000    0.000    0.000    0.000 
#
# Total GULP energy -267762.402045 kJ/mol
# GULP energy per Si atom -5578.383376 kJ/mol
# Density = 2.110934 g / cm^3
# Si number density = 21.157492 Si / 1000 Ang^3
#
#
#
# Elastic Constant Matrix: (Units=GPa)
#
#
# Indices 1 2 3 4 5 6 
#
# 1 221.3716 -5.4332 99.5335 0.0000 0.0000 0.0000
# 2 -5.4332 61.0850 -4.0585 0.0000 0.0000 0.0000
# 3 99.5335 -4.0585 130.9259 0.0000 0.0000 0.0000
# 4 0.0000 0.0000 0.0000 -6.8596 0.0000 0.0000
# 5 0.0000 0.0000 0.0000 0.0000 -11.9176 0.0000
# 6 0.0000 0.0000 0.0000 0.0000 0.0000 168.8232
#
#
#
# Elastic Compliance Matrix: (Units=1/GPa)
#
#
# Indices 1 2 3 4 5 6 
#
# 1 0.006868 0.000265 -0.005213 0.000000 0.000000 0.000000
# 2 0.000265 0.016415 0.000308 0.000000 0.000000 0.000000
# 3 -0.005213 0.000308 0.011610 0.000000 0.000000 0.000000
# 4 0.000000 0.000000 0.000000 -0.145782 0.000000 0.000000
# 5 0.000000 0.000000 0.000000 0.000000 -0.083909 0.000000
# 6 0.000000 0.000000 0.000000 0.000000 0.000000 0.005923
#
#
# Mechanical properties :
#
#
# Convention : Reuss Voigt Hill
#
# Bulk Modulus (GPa) = 39.04490 65.94067 52.49279
# Shear Modulus (GPa) = -29.23000 51.56524 11.16762
#
# Velocity S-wave (km/s) = -3.72094 4.94217 2.29995
# Velocity P-wave (km/s) = 0.18411 7.98755 5.64955
#
# Compressibility (1/GPa) = 0.02561154
#
# Stress axis : x y z
#
# Youngs Moduli (GPa) = 145.61305 60.92132 86.13064
#
# Poissons Ratio (x) = -0.01611 0.44897
# Poissons Ratio (y) = -0.03852 -0.02651
# Poissons Ratio (z) = 0.75903 -0.01875
#
# Static dielectric constant tensor:
#      x y z
#    x 1.776920 0.000000 0.000000 
#    y 0.000000 1.801200 0.000000 
#    z 0.000000 0.000000 1.702980 
# 
# From -- ./inp_files/6349.got.cif
#   From: 2010.05.17/outbox.cif.g08.bks.cpg/sg59_4_cif.got.tgz:6349.got - 2010.06.03 14:40:33.
