data_PCOD9447322
_publ_section_title
;
Structure prediction by ZEFSAII (Michael W. Deem and Ramdas Pophale) SiO2 
 PCOD9447322
Probable space group: P M M N
;
_chemical_formula_sum "Si O2"
_cell_formula_units_Z 64
_cell_length_a 31.703686
_cell_length_b 8.566327
_cell_length_c 12.207366
_cell_angle_alpha 90.000000
_cell_angle_beta 90.000000
_cell_angle_gamma 90.000000
_cell_volume 3315.327014
_symmetry_space_group_name_H-M "P M M N"
_symmetry_group_IT_number 59
_space_group.IT_coordinate_system_code '2'
_symmetry_cell_setting 'orthorhombic'
loop_
_space_group_symop_operation_xyz
x,y,z
1/2-x,1/2-y,z
1/2+x,-y,-z
-x,1/2+y,-z
-x,-y,-z
1/2+x,1/2+y,-z
1/2-x,y,z
x,1/2-y,z
loop_
_atom_site_type_symbol
_atom_site_label
_atom_site_fract_x
_atom_site_fract_y
_atom_site_fract_z
Si Si1 0.453622 0.938853 0.976250
Si Si2 0.623372 0.935558 0.627713
Si Si3 0.584005 0.060740 0.253091
Si Si4 0.682508 0.438065 0.245394
Si Si5 0.703309 0.438607 0.492984
Si Si6 0.703430 0.936115 0.010356
Si Si7 0.875187 0.062996 0.873186
Si Si8 0.047051 0.937802 0.515384
O O1 0.454218 0.750000 0.976126
O O2 0.439089 0.993831 0.856142
O O3 0.417878 0.987417 0.063520
O O4 0.500000 0.000000 0.000000
O O5 0.621089 0.750000 0.622909
O O6 0.664256 0.992186 0.559545
O O7 0.627138 0.990513 0.752914
O O8 0.580985 0.005004 0.573469
O O9 0.582002 0.250000 0.253553
O O10 0.633077 0.021164 0.248145
O O11 0.563577 0.006912 0.365885
O O12 0.687065 0.250000 0.233551
O O13 0.700387 0.481426 0.364285
O O14 0.701189 0.517242 0.138104
O O15 0.750000 0.483164 0.534384
O O16 0.699736 0.250000 0.497984
O O17 0.750000 0.982286 0.968406
O O18 0.699225 0.750000 0.000103
O O19 0.665183 0.015505 0.945717
O O20 0.876093 0.250000 0.863825
O O21 0.046595 0.750000 0.513633
O O22 0.000000 0.000000 0.500000
#
# Coordination Sequence:
#
# PCOD9447322 Si02
#       8
#     8   8   8   8   8   8   8   8
#     4  10  22  40  62  92 122 156 198 248 306 360
#     4  12  26  43  63  90 126 167 207 257 318 375
#     4   9  18  37  64  90 122 158 199 254 304 352
#     4  10  18  37  65  92 123 162 205 251 303 362
#     4  10  21  39  65  94 123 161 209 258 310 371
#     4  11  24  40  60  92 130 163 200 253 314 371
#     4  11  24  44  67  89 118 161 212 260 305 367
#     4  11  23  42  66  94 128 165 209 259 310 369
#
# _framework density 19.304279000000001
#
# number of rings (size 3 to 8) (size 9 to 14) (size 15 to 20)
#    0.000    1.500    2.500    2.625    1.750    3.750 
#    0.000    0.625    0.000    0.000    0.000    0.000 
#    0.000    0.000    0.000    0.000    0.000    0.000 
#
# Total GULP energy -357648.558669 kJ/mol
# GULP energy per Si atom -5588.258729 kJ/mol
# Density = 1.926034 g / cm^3
# Si number density = 19.304279 Si / 1000 Ang^3
#
#
#
# Elastic Constant Matrix: (Units=GPa)
#
#
# Indices 1 2 3 4 5 6 
#
# 1 169.8028 38.5057 66.8333 0.0000 0.0000 0.0000
# 2 38.5057 50.3366 30.1484 0.0000 0.0000 0.0000
# 3 66.8333 30.1484 126.2282 0.0000 0.0000 0.0000
# 4 0.0000 0.0000 0.0000 15.3831 0.0000 0.0000
# 5 0.0000 0.0000 0.0000 0.0000 49.2899 0.0000
# 6 0.0000 0.0000 0.0000 0.0000 0.0000 26.9643
#
#
#
# Elastic Compliance Matrix: (Units=1/GPa)
#
#
# Indices 1 2 3 4 5 6 
#
# 1 0.008154 -0.004261 -0.003300 0.000000 0.000000 0.000000
# 2 -0.004261 0.025410 -0.003813 0.000000 0.000000 0.000000
# 3 -0.003300 -0.003813 0.010580 0.000000 0.000000 0.000000
# 4 0.000000 0.000000 0.000000 0.065006 0.000000 0.000000
# 5 0.000000 0.000000 0.000000 0.000000 0.020288 0.000000
# 6 0.000000 0.000000 0.000000 0.000000 0.000000 0.037086
#
#
# Mechanical properties :
#
#
# Convention : Reuss Voigt Hill
#
# Bulk Modulus (GPa) = 46.73674 68.59360 57.66517
# Shear Modulus (GPa) = 25.45782 32.38615 28.92199
#
# Velocity S-wave (km/s) = 3.63542 4.10038 3.87488
# Velocity P-wave (km/s) = 6.47185 7.61757 7.06797
#
# Compressibility (1/GPa) = 0.02139644
#
# Stress axis : x y z
#
# Youngs Moduli (GPa) = 122.63566 39.35518 94.52017
#
# Poissons Ratio (x) = 0.16771 0.31188
# Poissons Ratio (y) = 0.52261 0.36036
# Poissons Ratio (z) = 0.40464 0.15004
#
# Static dielectric constant tensor:
#      x y z
#    x 1.658540 0.000000 0.000000 
#    y 0.000000 1.658160 0.000000 
#    z 0.000000 0.000000 1.655260 
# 
# From -- ./inp_files/19340.got.cif
#   From: 2010.05.17/outbox.cif.g08.bks.cpg/sg59_10_cif.got.tgz:19340.got - 2010.06.03 14:40:33.
