data_PCOD9447709
_publ_section_title
;
Structure prediction by ZEFSAII (Michael W. Deem and Ramdas Pophale) SiO2 
 PCOD9447709
Probable space group: P M M N
;
_chemical_formula_sum "Si O2"
_cell_formula_units_Z 64
_cell_length_a 15.891160
_cell_length_b 7.868194
_cell_length_c 24.662643
_cell_angle_alpha 90.000000
_cell_angle_beta 90.000000
_cell_angle_gamma 90.000000
_cell_volume 3083.686903
_symmetry_space_group_name_H-M "P M M N"
_symmetry_group_IT_number 59
_space_group.IT_coordinate_system_code '2'
_symmetry_cell_setting 'orthorhombic'
loop_
_space_group_symop_operation_xyz
x,y,z
1/2-x,1/2-y,z
1/2+x,-y,-z
-x,1/2+y,-z
-x,-y,-z
1/2+x,1/2+y,-z
1/2-x,y,z
x,1/2-y,z
loop_
_atom_site_type_symbol
_atom_site_label
_atom_site_fract_x
_atom_site_fract_y
_atom_site_fract_z
Si Si1 0.844550 0.051353 0.451843
Si Si2 0.842138 0.544815 0.171416
Si Si3 0.654836 0.552714 0.572972
Si Si4 0.012756 0.052171 0.631155
Si Si5 0.412295 0.546662 0.943065
Si Si6 0.157189 0.541882 0.177687
Si Si7 0.996391 0.541378 0.245986
Si Si8 0.394630 0.552039 0.060549
O O1 0.750000 0.001271 0.433178
O O2 0.842475 0.250000 0.465654
O O3 0.862267 0.958393 0.508505
O O4 0.916433 0.025534 0.407632
O O5 0.750000 0.487126 0.189534
O O6 0.843780 0.750000 0.172485
O O7 0.858291 0.490494 0.109700
O O8 0.917555 0.485357 0.209682
O O9 0.750000 0.484688 0.581779
O O10 0.654441 0.750000 0.588748
O O11 0.579372 0.465569 0.604813
O O12 0.034247 0.250000 0.634812
O O13 0.011024 0.982451 0.692223
O O14 0.424994 0.750000 0.947777
O O15 0.504088 0.463662 0.935115
O O16 0.374729 0.483570 0.000487
O O17 0.250000 0.493156 0.196559
O O18 0.153600 0.750000 0.176192
O O19 0.142814 0.479686 0.115933
O O20 0.081968 0.485972 0.216477
O O21 0.997259 0.750000 0.246392
O O22 0.369788 0.750000 0.059935
#
# Coordination Sequence:
#
# PCOD9447709 Si02
#       8
#     8   8   8   8   8   8   8   8
#     4  10  21  38  60  86 117 151 186 227 275 328
#     4  10  20  36  57  76 100 140 184 225 271 323
#     4  10  21  38  60  86 118 154 188 224 269 325
#     4  11  22  35  57  86 114 147 188 236 282 326
#     4  10  19  30  50  79 107 136 170 217 275 328
#     4   9  16  29  53  79 100 129 173 224 270 313
#     4   9  19  35  53  77 106 138 183 231 268 313
#     4   9  17  31  52  76 105 138 173 214 265 329
#
# _framework density 20.754376000000001
#
# number of rings (size 3 to 8) (size 9 to 14) (size 15 to 20)
#    0.000    2.250    1.250    1.875    0.000    3.750 
#    0.000    5.000    0.000    0.375    0.000    0.000 
#    0.000    0.000    0.000    0.000    0.000    0.000 
#
# Total GULP energy -357263.322869 kJ/mol
# GULP energy per Si atom -5582.239420 kJ/mol
# Density = 2.070714 g / cm^3
# Si number density = 20.754376 Si / 1000 Ang^3
#
#
#
# Elastic Constant Matrix: (Units=GPa)
#
#
# Indices 1 2 3 4 5 6 
#
# 1 113.7536 -3.9199 57.5396 0.0000 0.0000 0.0000
# 2 -3.9199 26.1972 -3.4268 0.0000 0.0000 0.0000
# 3 57.5396 -3.4268 93.8730 0.0000 0.0000 0.0000
# 4 0.0000 0.0000 0.0000 14.6392 0.0000 0.0000
# 5 0.0000 0.0000 0.0000 0.0000 -5.9884 0.0000
# 6 0.0000 0.0000 0.0000 0.0000 0.0000 -237.5387
#
#
#
# Elastic Compliance Matrix: (Units=1/GPa)
#
#
# Indices 1 2 3 4 5 6 
#
# 1 0.012762 0.000891 -0.007790 0.000000 0.000000 0.000000
# 2 0.000891 0.038417 0.000857 0.000000 0.000000 0.000000
# 3 -0.007790 0.000857 0.015459 0.000000 0.000000 0.000000
# 4 0.000000 0.000000 0.000000 0.068310 0.000000 0.000000
# 5 0.000000 0.000000 0.000000 0.000000 -0.166991 0.000000
# 6 0.000000 0.000000 0.000000 0.000000 0.000000 -0.004210
#
#
# Mechanical properties :
#
#
# Convention : Reuss Voigt Hill
#
# Bulk Modulus (GPa) = 18.33099 37.13440 27.73269
# Shear Modulus (GPa) = -835.71927 -33.53551 -434.62739
#
# Velocity S-wave (km/s) = -20.08844 -4.02410 -14.48687
# Velocity P-wave (km/s) = 23.00455 1.91311 16.32282
#
# Compressibility (1/GPa) = 0.05455243
#
# Stress axis : x y z
#
# Youngs Moduli (GPa) = 78.35760 26.02994 64.68792
#
# Poissons Ratio (x) = -0.02318 0.50392
# Poissons Ratio (y) = -0.06979 -0.05541
# Poissons Ratio (z) = 0.61040 -0.02230
#
# Static dielectric constant tensor:
#      x y z
#    x 1.731010 0.000000 0.000000 
#    y 0.000000 1.757160 0.000000 
#    z 0.000000 0.000000 1.726770 
# 
# From -- ./inp_files/32107.got.cif
#   From: 2010.05.17/outbox.cif.g08.bks.cpg/sg59_17_cif.got.tgz:32107.got - 2010.06.03 14:40:33.
