data_PCOD9447070
_publ_section_title
;
Structure prediction by ZEFSAII (Michael W. Deem and Ramdas Pophale) SiO2 
 PCOD9447070
Probable space group: P M M N
;
_chemical_formula_sum "Si O2"
_cell_formula_units_Z 64
_cell_length_a 7.515948
_cell_length_b 23.273477
_cell_length_c 18.163070
_cell_angle_alpha 90.000000
_cell_angle_beta 90.000000
_cell_angle_gamma 90.000000
_cell_volume 3177.124943
_symmetry_space_group_name_H-M "P M M N"
_symmetry_group_IT_number 59
_space_group.IT_coordinate_system_code '2'
_symmetry_cell_setting 'orthorhombic'
loop_
_space_group_symop_operation_xyz
x,y,z
1/2-x,1/2-y,z
1/2+x,-y,-z
-x,1/2+y,-z
-x,-y,-z
1/2+x,1/2+y,-z
1/2-x,y,z
x,1/2-y,z
loop_
_atom_site_type_symbol
_atom_site_label
_atom_site_fract_x
_atom_site_fract_y
_atom_site_fract_z
Si Si1 0.031552 0.813308 0.247372
Si Si2 0.036877 0.580818 0.824105
Si Si3 0.462089 0.025265 0.919201
Si Si4 0.037022 0.049681 0.338039
Si Si5 0.046011 0.656991 0.086503
Si Si6 0.460827 0.068144 0.495071
Si Si7 0.455768 0.580558 0.343131
Si Si8 0.967867 0.185975 0.075769
O O1 0.250000 0.815055 0.247352
O O2 0.980499 0.750000 0.274862
O O3 0.969675 0.820549 0.163024
O O4 0.968014 0.867364 0.295460
O O5 0.250000 0.579967 0.832914
O O6 0.971201 0.521371 0.860289
O O7 0.970731 0.635240 0.870578
O O8 0.997703 0.581460 0.737954
O O9 0.250000 0.031925 0.911026
O O10 0.543635 0.087931 0.910853
O O11 0.500000 0.000000 0.000000
O O12 0.250000 0.044572 0.347692
O O13 0.972813 0.081305 0.412460
O O14 0.965874 0.983756 0.333101
O O15 0.250000 0.677452 0.085235
O O16 0.968768 0.675308 0.007899
O O17 0.250000 0.077988 0.499156
O O18 0.538429 0.094184 0.569682
O O19 0.500000 0.000000 0.500000
O O20 0.250000 0.575571 0.320500
O O21 0.750000 0.183374 0.074551
O O22 0.017945 0.250000 0.099577
#
# Coordination Sequence:
#
# PCOD9447070 Si02
#       8
#     8   8   8   8   8   8   8   8
#     4   9  17  29  49  76 102 133 174 213 245 287
#     4  10  20  32  47  72  98 122 160 201 240 287
#     4  11  21  33  48  71 100 128 160 200 247 297
#     4   9  18  31  48  73 100 126 155 195 247 299
#     4  10  18  32  52  73  97 128 167 205 246 292
#     4   9  17  30  49  73  99 125 157 191 235 295
#     4   9  17  30  48  73 103 130 162 200 242 292
#     4   9  17  31  50  69  91 122 163 207 241 276
#
# _framework density 20.143998
#
# number of rings (size 3 to 8) (size 9 to 14) (size 15 to 20)
#    0.000    2.500    1.250    2.625    0.000    6.000 
#    0.000    0.625    0.000    4.500    0.000    5.250 
#    0.000    0.000    0.000    0.000    0.000    0.000 
#
# Total GULP energy -357030.755407 kJ/mol
# GULP energy per Si atom -5578.605553 kJ/mol
# Density = 2.009815 g / cm^3
# Si number density = 20.143998 Si / 1000 Ang^3
#
#
#
# Elastic Constant Matrix: (Units=GPa)
#
#
# Indices 1 2 3 4 5 6 
#
# 1 54.2078 1.3641 -8.9627 0.0000 0.0000 0.0000
# 2 1.3641 95.0766 41.6794 0.0000 0.0000 0.0000
# 3 -8.9627 41.6794 132.8845 0.0000 0.0000 0.0000
# 4 0.0000 0.0000 0.0000 10.4344 0.0000 0.0000
# 5 0.0000 0.0000 0.0000 0.0000 15.2550 0.0000
# 6 0.0000 0.0000 0.0000 0.0000 0.0000 7.8001
#
#
#
# Elastic Compliance Matrix: (Units=1/GPa)
#
#
# Indices 1 2 3 4 5 6 
#
# 1 0.018730 -0.000954 0.001562 0.000000 0.000000 0.000000
# 2 -0.000954 0.012243 -0.003904 0.000000 0.000000 0.000000
# 3 0.001562 -0.003904 0.008855 0.000000 0.000000 0.000000
# 4 0.000000 0.000000 0.000000 0.095837 0.000000 0.000000
# 5 0.000000 0.000000 0.000000 0.000000 0.065552 0.000000
# 6 0.000000 0.000000 0.000000 0.000000 0.000000 0.128204
#
#
# Mechanical properties :
#
#
# Convention : Reuss Voigt Hill
#
# Bulk Modulus (GPa) = 30.08694 38.92559 34.50626
# Shear Modulus (GPa) = 14.40540 23.23709 18.82125
#
# Velocity S-wave (km/s) = 2.67708 3.40008 3.06001
# Velocity P-wave (km/s) = 4.95217 5.89743 5.44535
#
# Compressibility (1/GPa) = 0.03323702
#
# Stress axis : x y z
#
# Youngs Moduli (GPa) = 53.39075 81.67857 112.92636
#
# Poissons Ratio (x) = 0.07789 -0.17643
# Poissons Ratio (y) = 0.05092 0.44091
# Poissons Ratio (z) = -0.08342 0.31890
#
# Static dielectric constant tensor:
#      x y z
#    x 1.788980 0.000000 0.000000 
#    y 0.000000 1.689720 0.000000 
#    z 0.000000 0.000000 1.735680 
# 
# From -- ./inp_files/26304.got.cif
#   From: 2010.05.17/outbox.cif.g08.bks.cpg/sg59_14_cif.got.tgz:26304.got - 2010.06.03 14:40:33.
