data_PCOD9447407
_publ_section_title
;
Structure prediction by ZEFSAII (Michael W. Deem and Ramdas Pophale) SiO2 
 PCOD9447407
Probable space group: P M M N
;
_chemical_formula_sum "Si O2"
_cell_formula_units_Z 48
_cell_length_a 8.835667
_cell_length_b 27.370302
_cell_length_c 11.739904
_cell_angle_alpha 90.000000
_cell_angle_beta 90.000000
_cell_angle_gamma 90.000000
_cell_volume 2839.118207
_symmetry_space_group_name_H-M "P M M N"
_symmetry_group_IT_number 59
_space_group.IT_coordinate_system_code '2'
_symmetry_cell_setting 'orthorhombic'
loop_
_space_group_symop_operation_xyz
x,y,z
1/2-x,1/2-y,z
1/2+x,-y,-z
-x,1/2+y,-z
-x,-y,-z
1/2+x,1/2+y,-z
1/2-x,y,z
x,1/2-y,z
loop_
_atom_site_type_symbol
_atom_site_label
_atom_site_fract_x
_atom_site_fract_y
_atom_site_fract_z
Si Si1 0.431198 0.549985 0.640338
Si Si2 0.919976 0.620229 0.826285
Si Si3 0.079211 0.048427 0.959708
Si Si4 0.431079 0.060958 0.610095
Si Si5 0.432512 0.806780 0.999063
Si Si6 0.428283 0.877456 0.201768
O O1 0.250000 0.552937 0.640705
O O2 0.496154 0.589872 0.727859
O O3 0.495190 0.560687 0.514659
O O4 0.471846 0.492652 0.664297
O O5 0.750000 0.633750 0.789060
O O6 0.907945 0.582439 0.930425
O O7 0.002384 0.665674 0.887969
O O8 0.250000 0.041464 0.912047
O O9 0.967603 0.075625 0.874595
O O10 0.000000 0.000000 0.000000
O O11 0.250000 0.062307 0.601006
O O12 0.488080 0.107474 0.682291
O O13 0.250000 0.810958 0.995272
O O14 0.474754 0.750000 0.000129
O O15 0.480314 0.833356 0.118016
O O16 0.250000 0.872028 0.222565
#
# Coordination Sequence:
#
# PCOD9447407 Si02
#       6
#     8   8   8   8   8   8
#     4  10  20  33  50  72 101 138 174 205 241 290
#     4  10  20  32  48  72 100 129 163 205 250 295
#     4  10  19  29  43  66  97 130 162 197 240 291
#     4  10  20  33  50  73 103 137 171 206 244 290
#     4   9  19  36  56  76  98 127 164 206 253 303
#     4  10  19  31  49  72  98 128 163 203 247 296
#
# _framework density 16.906658
#
# number of rings (size 3 to 8) (size 9 to 14) (size 15 to 20)
#    0.000    2.167    0.000    3.500    0.000    7.667 
#    0.000    0.000    0.000    1.000    0.000    2.333 
#    0.000    0.000    0.000    0.000    0.000    0.000 
#
# Total GULP energy -267404.377954 kJ/mol
# GULP energy per Si atom -5570.924541 kJ/mol
# Density = 1.686818 g / cm^3
# Si number density = 16.906658 Si / 1000 Ang^3
#
#
#
# Elastic Constant Matrix: (Units=GPa)
#
#
# Indices 1 2 3 4 5 6 
#
# 1 59.4309 37.5520 33.9156 0.0000 0.0000 0.0000
# 2 37.5520 104.7603 49.1154 0.0000 0.0000 0.0000
# 3 33.9156 49.1154 89.8698 0.0000 0.0000 0.0000
# 4 0.0000 0.0000 0.0000 24.4980 0.0000 0.0000
# 5 0.0000 0.0000 0.0000 0.0000 31.4228 0.0000
# 6 0.0000 0.0000 0.0000 0.0000 0.0000 19.8712
#
#
#
# Elastic Compliance Matrix: (Units=1/GPa)
#
#
# Indices 1 2 3 4 5 6 
#
# 1 0.023815 -0.005812 -0.005811 0.000000 0.000000 0.000000
# 2 -0.005812 0.014253 -0.005596 0.000000 0.000000 0.000000
# 3 -0.005811 -0.005596 0.016378 0.000000 0.000000 0.000000
# 4 0.000000 0.000000 0.000000 0.040820 0.000000 0.000000
# 5 0.000000 0.000000 0.000000 0.000000 0.031824 0.000000
# 6 0.000000 0.000000 0.000000 0.000000 0.000000 0.050324
#
#
# Mechanical properties :
#
#
# Convention : Reuss Voigt Hill
#
# Bulk Modulus (GPa) = 49.98029 55.02524 52.50276
# Shear Modulus (GPa) = 22.88112 24.05694 23.46903
#
# Velocity S-wave (km/s) = 3.68282 3.77626 3.72983
# Velocity P-wave (km/s) = 6.90731 7.18545 7.04775
#
# Compressibility (1/GPa) = 0.02000789
#
# Stress axis : x y z
#
# Youngs Moduli (GPa) = 41.99049 70.16294 61.05617
#
# Poissons Ratio (x) = 0.40780 0.35479
# Poissons Ratio (y) = 0.24406 0.34166
# Poissons Ratio (z) = 0.24400 0.39262
#
# Static dielectric constant tensor:
#      x y z
#    x 1.618260 0.000000 0.000000 
#    y 0.000000 1.539660 0.000000 
#    z 0.000000 0.000000 1.575330 
# 
# From -- ./inp_files/14474.got.cif
#   From: 2010.05.17/outbox.cif.g08.bks.cpg/sg59_8_cif.got.tgz:14474.got - 2010.06.03 14:40:33.
