data_PCOD9447122
_publ_section_title
;
Structure prediction by ZEFSAII (Michael W. Deem and Ramdas Pophale) SiO2 
 PCOD9447122
Probable space group: P M M N
;
_chemical_formula_sum "Si O2"
_cell_formula_units_Z 64
_cell_length_a 16.948580
_cell_length_b 19.296119
_cell_length_c 10.862544
_cell_angle_alpha 90.000000
_cell_angle_beta 90.000000
_cell_angle_gamma 90.000000
_cell_volume 3552.506122
_symmetry_space_group_name_H-M "P M M N"
_symmetry_group_IT_number 59
_space_group.IT_coordinate_system_code '2'
_symmetry_cell_setting 'orthorhombic'
loop_
_space_group_symop_operation_xyz
x,y,z
1/2-x,1/2-y,z
1/2+x,-y,-z
-x,1/2+y,-z
-x,-y,-z
1/2+x,1/2+y,-z
1/2-x,y,z
x,1/2-y,z
loop_
_atom_site_type_symbol
_atom_site_label
_atom_site_fract_x
_atom_site_fract_y
_atom_site_fract_z
Si Si1 0.160356 0.828972 0.372870
Si Si2 0.383732 0.170176 0.353375
Si Si3 0.657400 0.040943 0.267593
Si Si4 0.901910 0.043758 0.753873
Si Si5 0.052156 0.045914 0.908031
Si Si6 0.340794 0.466532 0.472709
Si Si7 0.841431 0.909637 0.894882
Si Si8 0.427447 0.671221 0.627600
O O1 0.250000 0.836503 0.420318
O O2 0.150613 0.750000 0.329346
O O3 0.145249 0.885870 0.269542
O O4 0.102034 0.840359 0.487669
O O5 0.359770 0.250000 0.370781
O O6 0.350489 0.115378 0.452119
O O7 0.357539 0.141436 0.219772
O O8 0.478558 0.166167 0.361788
O O9 0.750000 0.052025 0.250522
O O10 0.613246 0.113108 0.290233
O O11 0.618650 0.000581 0.155407
O O12 0.646546 0.994524 0.390824
O O13 0.988255 0.064211 0.803293
O O14 0.899723 0.004034 0.622512
O O15 0.860804 0.987149 0.842794
O O16 0.098163 0.101413 0.992087
O O17 0.000000 0.000000 0.000000
O O18 0.250000 0.484812 0.436967
O O19 0.750000 0.905188 0.930601
O O20 0.403958 0.750000 0.660321
#
# Coordination Sequence:
#
# PCOD9447122 Si02
#       8
#     8   8   8   8   8   8   8   8
#     4  10  19  31  49  76 111 148 180 209 256 327
#     4  10  21  36  57  84 111 140 182 231 286 339
#     4  11  21  34  56  83 116 150 182 226 281 334
#     4  10  18  32  55  78 108 140 180 225 275 324
#     4  10  22  36  53  80 103 140 189 235 275 315
#     4  10  20  32  53  85 113 142 180 223 279 346
#     4  10  20  37  58  77 104 140 187 237 278 326
#     4  10  20  32  50  80 117 150 177 212 260 326
#
# _framework density 18.015452
#
# number of rings (size 3 to 8) (size 9 to 14) (size 15 to 20)
#    0.000    1.875    1.250    5.250    1.750    2.750 
#    0.000    0.625    0.000    3.750    0.000    1.750 
#    0.000    0.000    0.000    0.000    0.000    0.000 
#
# Total GULP energy -356945.377519 kJ/mol
# GULP energy per Si atom -5577.271524 kJ/mol
# Density = 1.797445 g / cm^3
# Si number density = 18.015452 Si / 1000 Ang^3
#
#
#
# Elastic Constant Matrix: (Units=GPa)
#
#
# Indices 1 2 3 4 5 6 
#
# 1 73.5063 5.9819 15.0103 0.0000 0.0000 0.0000
# 2 5.9819 84.7472 9.3607 0.0000 0.0000 0.0000
# 3 15.0103 9.3607 36.1361 0.0000 0.0000 0.0000
# 4 0.0000 0.0000 0.0000 15.6285 0.0000 0.0000
# 5 0.0000 0.0000 0.0000 0.0000 37.6366 0.0000
# 6 0.0000 0.0000 0.0000 0.0000 0.0000 23.4348
#
#
#
# Elastic Compliance Matrix: (Units=1/GPa)
#
#
# Indices 1 2 3 4 5 6 
#
# 1 0.014877 -0.000378 -0.006082 0.000000 0.000000 0.000000
# 2 -0.000378 0.012157 -0.002992 0.000000 0.000000 0.000000
# 3 -0.006082 -0.002992 0.030974 0.000000 0.000000 0.000000
# 4 0.000000 0.000000 0.000000 0.063986 0.000000 0.000000
# 5 0.000000 0.000000 0.000000 0.000000 0.026570 0.000000
# 6 0.000000 0.000000 0.000000 0.000000 0.000000 0.042672
#
#
# Mechanical properties :
#
#
# Convention : Reuss Voigt Hill
#
# Bulk Modulus (GPa) = 25.57253 28.34392 26.95823
# Shear Modulus (GPa) = 22.40403 26.27576 24.33989
#
# Velocity S-wave (km/s) = 3.53030 3.82319 3.67966
# Velocity P-wave (km/s) = 5.55364 5.93770 5.74888
#
# Compressibility (1/GPa) = 0.03910445
#
# Stress axis : x y z
#
# Youngs Moduli (GPa) = 67.21808 82.25725 32.28470
#
# Poissons Ratio (x) = 0.03112 0.19634
# Poissons Ratio (y) = 0.02543 0.09660
# Poissons Ratio (z) = 0.40879 0.24611
#
# Static dielectric constant tensor:
#      x y z
#    x 1.634610 0.000000 0.000000 
#    y 0.000000 1.625150 0.000000 
#    z 0.000000 0.000000 1.654090 
# 
# From -- ./inp_files/17992.got.cif
#   From: 2010.05.17/outbox.cif.g08.bks.cpg/sg59_9_cif.got.tgz:17992.got - 2010.06.03 14:40:33.
