data_PCOD9447163
_publ_section_title
;
Structure prediction by ZEFSAII (Michael W. Deem and Ramdas Pophale) SiO2 
 PCOD9447163
Probable space group: P M M N
;
_chemical_formula_sum "Si O2"
_cell_formula_units_Z 56
_cell_length_a 15.966697
_cell_length_b 7.980350
_cell_length_c 21.932191
_cell_angle_alpha 90.000000
_cell_angle_beta 90.000000
_cell_angle_gamma 90.000000
_cell_volume 2794.596058
_symmetry_space_group_name_H-M "P M M N"
_symmetry_group_IT_number 59
_space_group.IT_coordinate_system_code '2'
_symmetry_cell_setting 'orthorhombic'
loop_
_space_group_symop_operation_xyz
x,y,z
1/2-x,1/2-y,z
1/2+x,-y,-z
-x,1/2+y,-z
-x,-y,-z
1/2+x,1/2+y,-z
1/2-x,y,z
x,1/2-y,z
loop_
_atom_site_type_symbol
_atom_site_label
_atom_site_fract_x
_atom_site_fract_y
_atom_site_fract_z
Si Si1 0.155009 0.954505 0.562846
Si Si2 0.157864 0.451184 0.135642
Si Si3 0.402963 0.451989 0.004149
Si Si4 0.657516 0.955223 0.127617
Si Si5 0.496198 0.052183 0.790773
Si Si6 0.655307 0.047526 0.577434
Si Si7 0.492177 0.949032 0.651314
O O1 0.250000 0.005143 0.579636
O O2 0.153767 0.750000 0.563073
O O3 0.139493 0.006086 0.492711
O O4 0.082800 0.015009 0.608124
O O5 0.250000 0.513094 0.153980
O O6 0.161797 0.250000 0.131445
O O7 0.134752 0.515140 0.067822
O O8 0.083702 0.490320 0.181944
O O9 0.396715 0.250000 0.004999
O O10 0.500000 0.500000 0.000000
O O11 0.358366 0.508895 0.942162
O O12 0.750000 0.007531 0.148010
O O13 0.656208 0.750000 0.128054
O O14 0.582148 0.016720 0.170237
O O15 0.495682 0.250000 0.800004
O O16 0.487646 0.016283 0.719592
O O17 0.750000 0.993264 0.594222
O O18 0.654871 0.250000 0.578194
O O19 0.581532 0.987255 0.620723
O O20 0.482604 0.750000 0.654684
#
# Coordination Sequence:
#
# PCOD9447163 Si02
#       7
#     8   8   8   8   8   8   8
#     4   8  16  33  57  84 112 142 176 216 267 323
#     4  10  21  37  58  82 108 140 179 225 276 326
#     4  10  18  32  57  84 110 138 172 218 272 325
#     4   9  18  34  56  80 106 139 178 218 266 322
#     4  11  23  38  55  77 107 146 186 226 267 316
#     4   9  18  35  59  84 110 141 178 220 266 319
#     4  11  22  35  55  81 111 146 181 221 268 317
#
# _framework density 20.038675000000001
#
# number of rings (size 3 to 8) (size 9 to 14) (size 15 to 20)
#    0.000    2.286    1.429    2.571    0.000    3.429 
#    0.000    0.714    0.000    7.286    0.000    0.000 
#    0.000    0.000    0.000    0.000    0.000    0.000 
#
# Total GULP energy -312634.692367 kJ/mol
# GULP energy per Si atom -5582.762364 kJ/mol
# Density = 1.999307 g / cm^3
# Si number density = 20.038675 Si / 1000 Ang^3
#
#
#
# Elastic Constant Matrix: (Units=GPa)
#
#
# Indices 1 2 3 4 5 6 
#
# 1 119.5944 -0.7363 36.1445 0.0000 0.0000 0.0000
# 2 -0.7363 13.3342 -7.4836 0.0000 0.0000 0.0000
# 3 36.1445 -7.4836 64.8665 0.0000 0.0000 0.0000
# 4 0.0000 0.0000 0.0000 -6.1178 0.0000 0.0000
# 5 0.0000 0.0000 0.0000 0.0000 -1.3032 0.0000
# 6 0.0000 0.0000 0.0000 0.0000 0.0000 20.0248
#
#
#
# Elastic Compliance Matrix: (Units=1/GPa)
#
#
# Indices 1 2 3 4 5 6 
#
# 1 0.010151 -0.002795 -0.005979 0.000000 0.000000 0.000000
# 2 -0.002795 0.080956 0.010897 0.000000 0.000000 0.000000
# 3 -0.005979 0.010897 0.020005 0.000000 0.000000 0.000000
# 4 0.000000 0.000000 0.000000 -0.163459 0.000000 0.000000
# 5 0.000000 0.000000 0.000000 0.000000 -0.767336 0.000000
# 6 0.000000 0.000000 0.000000 0.000000 0.000000 0.049938
#
#
# Mechanical properties :
#
#
# Convention : Reuss Voigt Hill
#
# Bulk Modulus (GPa) = 8.66855 28.18271 18.42563
# Shear Modulus (GPa) = -6.79775 13.84548 3.52386
#
# Velocity S-wave (km/s) = -1.84382 2.63142 1.32753
# Velocity P-wave (km/s) = 0.44453 4.82982 3.40070
#
# Compressibility (1/GPa) = 0.11535954
#
# Stress axis : x y z
#
# Youngs Moduli (GPa) = 98.50875 12.35232 49.98739
#
# Poissons Ratio (x) = 0.03452 0.29887
# Poissons Ratio (y) = 0.27533 -0.54473
# Poissons Ratio (z) = 0.58898 -0.13461
#
# Static dielectric constant tensor:
#      x y z
#    x 1.726780 0.000000 0.000000 
#    y 0.000000 1.728900 0.000000 
#    z 0.000000 0.000000 1.704580 
# 
# From -- ./inp_files/28970.got.cif
#   From: 2010.05.17/outbox.cif.g08.bks.cpg/sg59_15_cif.got.tgz:28970.got - 2010.06.03 14:40:33.
