data_PCOD9447133
_publ_section_title
;
Structure prediction by ZEFSAII (Michael W. Deem and Ramdas Pophale) SiO2 
 PCOD9447133
Probable space group: P M M N
;
_chemical_formula_sum "Si O2"
_cell_formula_units_Z 48
_cell_length_a 21.248287
_cell_length_b 7.785313
_cell_length_c 14.545636
_cell_angle_alpha 90.000000
_cell_angle_beta 90.000000
_cell_angle_gamma 90.000000
_cell_volume 2406.205508
_symmetry_space_group_name_H-M "P M M N"
_symmetry_group_IT_number 59
_space_group.IT_coordinate_system_code '2'
_symmetry_cell_setting 'orthorhombic'
loop_
_space_group_symop_operation_xyz
x,y,z
1/2-x,1/2-y,z
1/2+x,-y,-z
-x,1/2+y,-z
-x,-y,-z
1/2+x,1/2+y,-z
1/2-x,y,z
x,1/2-y,z
loop_
_atom_site_type_symbol
_atom_site_label
_atom_site_fract_x
_atom_site_fract_y
_atom_site_fract_z
Si Si1 0.176821 0.959234 0.100083
Si Si2 0.250000 0.554705 0.381378
Si Si3 0.823505 0.041359 0.104401
Si Si4 0.996959 0.955316 0.392488
Si Si5 0.250000 0.060061 0.579764
Si Si6 0.622414 0.039330 0.709922
Si Si7 0.133437 0.952398 0.701651
O O1 0.250000 0.008954 0.116440
O O2 0.176453 0.750000 0.099427
O O3 0.133193 0.013449 0.184436
O O4 0.158199 0.018596 0.997772
O O5 0.250000 0.750000 0.344454
O O6 0.250000 0.559187 0.491046
O O7 0.315297 0.479687 0.344586
O O8 0.750000 0.996238 0.119048
O O9 0.826426 0.250000 0.101529
O O10 0.862470 0.983369 0.193029
O O11 0.995798 0.750000 0.385264
O O12 0.058893 0.020300 0.339090
O O13 0.933536 0.021755 0.345420
O O14 0.000000 0.000000 0.500000
O O15 0.250000 0.250000 0.539619
O O16 0.188593 0.035371 0.641708
O O17 0.620571 0.250000 0.707063
O O18 0.147950 0.750000 0.703381
#
# Coordination Sequence:
#
# PCOD9447133 Si02
#       7
#     8   4   8   8   4   8   8
#     4   8  12  23  47  80 111 134 168 219 270 322
#     4  10  18  32  55  82 106 136 179 228 281 332
#     4   8  14  26  49  80 108 135 173 221 269 319
#     4  11  23  38  54  77 111 151 189 227 279 332
#     4  12  24  36  53  80 108 138 179 232 285 330
#     4   9  17  30  51  79 109 139 176 225 275 324
#     4  11  21  37  57  79 108 144 185 226 269 323
#
# _framework density 19.948419999999999
#
# number of rings (size 3 to 8) (size 9 to 14) (size 15 to 20)
#    0.000    2.333    1.667    3.750    0.000    1.333 
#    0.000    1.667    0.000    0.000    0.000    7.000 
#    0.000    0.000    0.000    0.000    0.000    0.000 
#
# Total GULP energy -267853.197150 kJ/mol
# GULP energy per Si atom -5580.274941 kJ/mol
# Density = 1.990302 g / cm^3
# Si number density = 19.948420 Si / 1000 Ang^3
#
#
#
# Elastic Constant Matrix: (Units=GPa)
#
#
# Indices 1 2 3 4 5 6 
#
# 1 132.8253 -6.4761 83.3003 0.0000 0.0000 0.0000
# 2 -6.4761 32.3257 -10.8461 0.0000 0.0000 0.0000
# 3 83.3003 -10.8461 185.5123 0.0000 0.0000 0.0000
# 4 0.0000 0.0000 0.0000 0.3758 0.0000 0.0000
# 5 0.0000 0.0000 0.0000 0.0000 36.5678 0.0000
# 6 0.0000 0.0000 0.0000 0.0000 0.0000 7.7020
#
#
#
# Elastic Compliance Matrix: (Units=1/GPa)
#
#
# Indices 1 2 3 4 5 6 
#
# 1 0.010489 0.000532 -0.004679 0.000000 0.000000 0.000000
# 2 0.000532 0.031581 0.001608 0.000000 0.000000 0.000000
# 3 -0.004679 0.001608 0.007585 0.000000 0.000000 0.000000
# 4 0.000000 0.000000 0.000000 2.661051 0.000000 0.000000
# 5 0.000000 0.000000 0.000000 0.000000 0.027346 0.000000
# 6 0.000000 0.000000 0.000000 0.000000 0.000000 0.129836
#
#
# Mechanical properties :
#
#
# Convention : Reuss Voigt Hill
#
# Bulk Modulus (GPa) = 22.43344 53.62439 38.02891
# Shear Modulus (GPa) = 1.73141 27.90814 14.81978
#
# Velocity S-wave (km/s) = 0.93264 3.74440 2.72858
# Velocity P-wave (km/s) = 3.52561 6.75529 5.38813
#
# Compressibility (1/GPa) = 0.04457630
#
# Stress axis : x y z
#
# Youngs Moduli (GPa) = 95.33972 31.66455 131.83316
#
# Poissons Ratio (x) = -0.01683 0.61681
# Poissons Ratio (y) = -0.05067 -0.21195
# Poissons Ratio (z) = 0.44607 -0.05091
#
# Static dielectric constant tensor:
#      x y z
#    x 1.653600 0.000000 0.000000 
#    y 0.000000 1.759230 0.000000 
#    z 0.000000 0.000000 1.710470 
# 
# From -- ./inp_files/23720.got.cif
#   From: 2010.05.17/outbox.cif.g08.bks.cpg/sg59_12_cif.got.tgz:23720.got - 2010.06.03 14:40:33.
