data_PCOD9447817
_publ_section_title
;
Structure prediction by ZEFSAII (Michael W. Deem and Ramdas Pophale) SiO2 
 PCOD9447817
Probable space group: P M M N
;
_chemical_formula_sum "Si O2"
_cell_formula_units_Z 64
_cell_length_a 19.355967
_cell_length_b 8.646253
_cell_length_c 21.397546
_cell_angle_alpha 90.000000
_cell_angle_beta 90.000000
_cell_angle_gamma 90.000000
_cell_volume 3581.020285
_symmetry_space_group_name_H-M "P M M N"
_symmetry_group_IT_number 59
_space_group.IT_coordinate_system_code '2'
_symmetry_cell_setting 'orthorhombic'
loop_
_space_group_symop_operation_xyz
x,y,z
1/2-x,1/2-y,z
1/2+x,-y,-z
-x,1/2+y,-z
-x,-y,-z
1/2+x,1/2+y,-z
1/2-x,y,z
x,1/2-y,z
loop_
_atom_site_type_symbol
_atom_site_label
_atom_site_fract_x
_atom_site_fract_y
_atom_site_fract_z
Si Si1 0.330863 0.565904 0.250651
Si Si2 0.671067 0.938368 0.249100
Si Si3 0.581954 0.564327 0.863690
Si Si4 0.422072 0.436110 0.999878
Si Si5 0.926185 0.562220 0.136588
Si Si6 0.830331 0.935121 0.613897
Si Si7 0.168908 0.063546 0.608888
Si Si8 0.422749 0.566318 0.497606
O O1 0.250000 0.529879 0.240070
O O2 0.338461 0.750000 0.256671
O O3 0.374855 0.506199 0.192646
O O4 0.350523 0.488566 0.316522
O O5 0.750000 0.987747 0.237663
O O6 0.671085 0.750000 0.248452
O O7 0.620129 0.990096 0.194632
O O8 0.651624 0.983111 0.319805
O O9 0.584078 0.750000 0.859801
O O10 0.608860 0.515746 0.933178
O O11 0.502766 0.507573 0.859316
O O12 0.424416 0.250000 0.001092
O O13 0.500000 0.500000 0.000000
O O14 0.394033 0.480214 0.931421
O O15 0.931691 0.750000 0.138713
O O16 0.750000 0.983947 0.603494
O O17 0.832537 0.750000 0.610005
O O18 0.880569 0.004796 0.562206
O O19 0.250000 0.026876 0.597924
O O20 0.162465 0.250000 0.604223
O O21 0.119937 0.986701 0.558416
O O22 0.500000 0.500000 0.500000
O O23 0.426228 0.750000 0.494941
#
# Coordination Sequence:
#
# PCOD9447817 Si02
#       8
#     8   8   8   8   8   8   8   8
#     4  10  21  37  56  78 104 136 175 215 256 308
#     4   8  15  29  51  77 102 130 166 209 255 302
#     4  10  19  31  48  72 103 137 174 216 265 316
#     4   8  15  27  44  68  97 132 172 214 260 309
#     4   9  16  29  50  74 100 132 175 222 264 310
#     4  10  21  39  62  84 107 137 172 212 262 319
#     4   9  18  35  57  78 103 137 174 211 258 317
#     4  12  25  39  56  80 111 142 175 216 259 303
#
# _framework density 17.872001000000001
#
# number of rings (size 3 to 8) (size 9 to 14) (size 15 to 20)
#    0.000    2.500    0.000    3.375    0.000    4.750 
#    0.000    5.000    0.000    3.375    0.000    0.000 
#    0.000    0.000    0.000    0.000    0.000    0.000 
#
# Total GULP energy -356833.256528 kJ/mol
# GULP energy per Si atom -5575.519633 kJ/mol
# Density = 1.783132 g / cm^3
# Si number density = 17.872001 Si / 1000 Ang^3
#
#
#
# Elastic Constant Matrix: (Units=GPa)
#
#
# Indices 1 2 3 4 5 6 
#
# 1 81.7966 37.5029 103.8222 0.0000 0.0000 0.0000
# 2 37.5029 40.4195 54.1108 0.0000 0.0000 0.0000
# 3 103.8222 54.1108 197.6915 0.0000 0.0000 0.0000
# 4 0.0000 0.0000 0.0000 22.6286 0.0000 0.0000
# 5 0.0000 0.0000 0.0000 0.0000 39.5304 0.0000
# 6 0.0000 0.0000 0.0000 0.0000 0.0000 15.3109
#
#
#
# Elastic Compliance Matrix: (Units=1/GPa)
#
#
# Indices 1 2 3 4 5 6 
#
# 1 0.041582 -0.014752 -0.017800 0.000000 0.000000 0.000000
# 2 -0.014752 0.044283 -0.004373 0.000000 0.000000 0.000000
# 3 -0.017800 -0.004373 0.015603 0.000000 0.000000 0.000000
# 4 0.000000 0.000000 0.000000 0.044192 0.000000 0.000000
# 5 0.000000 0.000000 0.000000 0.000000 0.025297 0.000000
# 6 0.000000 0.000000 0.000000 0.000000 0.000000 0.065313
#
#
# Mechanical properties :
#
#
# Convention : Reuss Voigt Hill
#
# Bulk Modulus (GPa) = 36.20896 78.97549 57.59222
# Shear Modulus (GPa) = 15.65790 23.79209 19.72499
#
# Velocity S-wave (km/s) = 2.96313 3.65259 3.32577
# Velocity P-wave (km/s) = 5.65783 7.87870 6.85875
#
# Compressibility (1/GPa) = 0.02761747
#
# Stress axis : x y z
#
# Youngs Moduli (GPa) = 24.04875 22.58202 64.08835
#
# Poissons Ratio (x) = 0.33314 1.14077
# Poissons Ratio (y) = 0.35478 0.28028
# Poissons Ratio (z) = 0.42807 0.09876
#
# Static dielectric constant tensor:
#      x y z
#    x 1.549390 0.000000 0.000000 
#    y 0.000000 1.602990 0.000000 
#    z 0.000000 0.000000 1.632850 
# 
# From -- ./inp_files/30734.got.cif
#   From: 2010.05.17/outbox.cif.g08.bks.cpg/sg59_16_cif.got.tgz:30734.got - 2010.06.03 14:40:33.
