data_PCOD9447402
_publ_section_title
;
Structure prediction by ZEFSAII (Michael W. Deem and Ramdas Pophale) SiO2 
 PCOD9447402
Probable space group: P M M N
;
_chemical_formula_sum "Si O2"
_cell_formula_units_Z 64
_cell_length_a 14.816752
_cell_length_b 9.341738
_cell_length_c 21.568057
_cell_angle_alpha 90.000000
_cell_angle_beta 90.000000
_cell_angle_gamma 90.000000
_cell_volume 2985.325683
_symmetry_space_group_name_H-M "P M M N"
_symmetry_group_IT_number 59
_space_group.IT_coordinate_system_code '2'
_symmetry_cell_setting 'orthorhombic'
loop_
_space_group_symop_operation_xyz
x,y,z
1/2-x,1/2-y,z
1/2+x,-y,-z
-x,1/2+y,-z
-x,-y,-z
1/2+x,1/2+y,-z
1/2-x,y,z
x,1/2-y,z
loop_
_atom_site_type_symbol
_atom_site_label
_atom_site_fract_x
_atom_site_fract_y
_atom_site_fract_z
Si Si1 0.107709 0.088881 0.302807
Si Si2 0.610204 0.914903 0.938904
Si Si3 0.110230 0.414441 0.815906
Si Si4 0.641373 0.414635 0.573362
Si Si5 0.110589 0.914563 0.183757
Si Si6 0.889893 0.414888 0.061459
Si Si7 0.141546 0.583575 0.561442
Si Si8 0.394180 0.586967 0.696854
O O1 0.144519 0.250000 0.302744
O O2 0.000682 0.099956 0.292262
O O3 0.118826 0.012896 0.368772
O O4 0.142264 0.991985 0.246439
O O5 0.639196 0.750000 0.939396
O O6 0.500050 0.914340 0.938907
O O7 0.638392 0.996953 0.876773
O O8 0.638833 0.999417 0.000343
O O9 0.139137 0.250000 0.819495
O O10 0.138144 0.504409 0.876041
O O11 0.141196 0.490898 0.752758
O O12 0.999789 0.413359 0.815844
O O13 0.750000 0.407092 0.571071
O O14 0.608862 0.250000 0.581461
O O15 0.611107 0.472862 0.505745
O O16 0.139565 0.750000 0.181059
O O17 0.860892 0.250000 0.060443
O O18 0.250000 0.582832 0.560863
O O19 0.111220 0.750000 0.562789
O O20 0.115661 0.521099 0.627996
O O21 0.356706 0.750000 0.697176
#
# Coordination Sequence:
#
# PCOD9447402 Si02
#       8
#     8   8   8   8   8   8   8   8
#     4  10  19  29  43  66  94 120 146 182 229 274
#     4   9  15  22  33  51  77 109 145 184 224 265
#     4   9  16  25  37  55  81 113 147 183 224 266
#     4   9  18  33  51  68  87 115 151 187 222 265
#     4   9  16  26  39  55  79 113 150 184 219 263
#     4   9  15  22  33  50  75 110 149 184 219 263
#     4   8  15  30  51  70  88 115 151 187 222 264
#     4   9  17  29  45  66  91 118 149 185 225 270
#
# _framework density 21.438196000000001
#
# number of rings (size 3 to 8) (size 9 to 14) (size 15 to 20)
#    0.000    3.000    0.000    2.625    0.000    7.250 
#    0.000    0.625    0.000    1.125    0.000    0.000 
#    0.000    1.000    0.000    6.000    0.000    8.375 
#
# Total GULP energy -357146.677745 kJ/mol
# GULP energy per Si atom -5580.416840 kJ/mol
# Density = 2.138940 g / cm^3
# Si number density = 21.438196 Si / 1000 Ang^3
#
#
#
# Elastic Constant Matrix: (Units=GPa)
#
#
# Indices 1 2 3 4 5 6 
#
# 1 57.3745 5.5913 1.2332 0.0000 0.0000 0.0000
# 2 5.5913 185.9165 138.9904 0.0000 0.0000 0.0000
# 3 1.2332 138.9904 252.6621 0.0000 0.0000 0.0000
# 4 0.0000 0.0000 0.0000 27.9508 0.0000 0.0000
# 5 0.0000 0.0000 0.0000 0.0000 79.8830 0.0000
# 6 0.0000 0.0000 0.0000 0.0000 0.0000 -12.6309
#
#
#
# Elastic Compliance Matrix: (Units=1/GPa)
#
#
# Indices 1 2 3 4 5 6 
#
# 1 0.017498 -0.000785 0.000347 0.000000 0.000000 0.000000
# 2 -0.000785 0.009171 -0.005041 0.000000 0.000000 0.000000
# 3 0.000347 -0.005041 0.006729 0.000000 0.000000 0.000000
# 4 0.000000 0.000000 0.000000 0.035777 0.000000 0.000000
# 5 0.000000 0.000000 0.000000 0.000000 0.012518 0.000000
# 6 0.000000 0.000000 0.000000 0.000000 0.000000 -0.079171
#
#
# Mechanical properties :
#
#
# Convention : Reuss Voigt Hill
#
# Bulk Modulus (GPa) = 44.56533 87.50920 66.03726
# Shear Modulus (GPa) = 238.51261 42.38313 140.44787
#
# Velocity S-wave (km/s) = 10.55923 4.45116 8.10279
# Velocity P-wave (km/s) = 13.01907 8.20518 10.88166
#
# Compressibility (1/GPa) = 0.02243897
#
# Stress axis : x y z
#
# Youngs Moduli (GPa) = 57.14795 109.03662 148.60168
#
# Poissons Ratio (x) = 0.08564 -0.05151
# Poissons Ratio (y) = 0.04488 0.74914
# Poissons Ratio (z) = -0.01981 0.54969
#
# Static dielectric constant tensor:
#      x y z
#    x 1.821950 0.000000 0.000000 
#    y 0.000000 1.738750 0.000000 
#    z 0.000000 0.000000 1.761320 
# 
# From -- ./inp_files/30975.got.cif
#   From: 2010.05.17/outbox.cif.g08.bks.cpg/sg59_16_cif.got.tgz:30975.got - 2010.06.03 14:40:33.
