data_PCOD9447632
_publ_section_title
;
Structure prediction by ZEFSAII (Michael W. Deem and Ramdas Pophale) SiO2 
 PCOD9447632
Probable space group: P M M N
;
_chemical_formula_sum "Si O2"
_cell_formula_units_Z 56
_cell_length_a 20.530057
_cell_length_b 7.426323
_cell_length_c 14.970142
_cell_angle_alpha 90.000000
_cell_angle_beta 90.000000
_cell_angle_gamma 90.000000
_cell_volume 2282.390282
_symmetry_space_group_name_H-M "P M M N"
_symmetry_group_IT_number 59
_space_group.IT_coordinate_system_code '2'
_symmetry_cell_setting 'orthorhombic'
loop_
_space_group_symop_operation_xyz
x,y,z
1/2-x,1/2-y,z
1/2+x,-y,-z
-x,1/2+y,-z
-x,-y,-z
1/2+x,1/2+y,-z
1/2-x,y,z
x,1/2-y,z
loop_
_atom_site_type_symbol
_atom_site_label
_atom_site_fract_x
_atom_site_fract_y
_atom_site_fract_z
Si Si1 0.319853 0.459976 0.780573
Si Si2 0.065525 0.547810 0.900999
Si Si3 0.322851 0.968758 0.031223
Si Si4 0.455234 0.036601 0.582927
Si Si5 0.181847 0.459499 0.565815
Si Si6 0.534512 0.538080 0.760694
Si Si7 0.322141 0.040559 0.241475
O O1 0.250000 0.534852 0.809385
O O2 0.324383 0.250000 0.806941
O O3 0.380900 0.557110 0.821964
O O4 0.318739 0.461179 0.673914
O O5 0.047051 0.750000 0.930433
O O6 0.002852 0.464801 0.849735
O O7 0.112342 0.467274 0.978363
O O8 0.250000 0.025826 0.998938
O O9 0.324178 0.750000 0.026789
O O10 0.325002 0.027703 0.133762
O O11 0.444990 0.250000 0.596074
O O12 0.387041 0.955427 0.549212
O O13 0.500000 0.000000 0.500000
O O14 0.487212 0.974726 0.675243
O O15 0.250000 0.539566 0.534526
O O16 0.181903 0.250000 0.536209
O O17 0.543905 0.750000 0.779333
O O18 0.606187 0.464155 0.734441
O O19 0.250000 0.965884 0.267396
O O20 0.321299 0.250000 0.269894
#
# Coordination Sequence:
#
# PCOD9447632 Si02
#       7
#     8   8   8   8   8   8   8
#     4   9  16  27  45  70 101 136 175 211 241 292
#     4  10  19  30  47  74 110 143 174 215 266 323
#     4   9  18  32  49  73 108 147 182 217 265 322
#     4  11  22  38  61  85 112 143 176 220 272 325
#     4   8  15  30  52  77 104 136 173 209 250 306
#     4  10  21  37  56  80 108 138 178 226 275 327
#     4   9  19  37  58  77 101 139 188 236 275 312
#
# _framework density 24.535679999999999
#
# number of rings (size 3 to 8) (size 9 to 14) (size 15 to 20)
#    0.000    2.571    1.429    1.714    0.000    2.571 
#    0.000    2.143    0.000    6.000    0.000    0.000 
#    0.000    0.000    0.000    0.000    0.000    0.000 
#
# Total GULP energy -312054.612917 kJ/mol
# GULP energy per Si atom -5572.403802 kJ/mol
# Density = 2.447984 g / cm^3
# Si number density = 24.535680 Si / 1000 Ang^3
#
#
#
# Elastic Constant Matrix: (Units=GPa)
#
#
# Indices 1 2 3 4 5 6 
#
# 1 224.0958 7.9221 21.8505 0.0000 0.0000 0.0000
# 2 7.9221 83.8302 -10.6555 0.0000 0.0000 0.0000
# 3 21.8505 -10.6555 25.7197 0.0000 0.0000 0.0000
# 4 0.0000 0.0000 0.0000 9.1827 0.0000 0.0000
# 5 0.0000 0.0000 0.0000 0.0000 43.2018 0.0000
# 6 0.0000 0.0000 0.0000 0.0000 0.0000 115.2997
#
#
#
# Elastic Compliance Matrix: (Units=1/GPa)
#
#
# Indices 1 2 3 4 5 6 
#
# 1 0.004953 -0.001059 -0.004646 0.000000 0.000000 0.000000
# 2 -0.001059 0.012818 0.006210 0.000000 0.000000 0.000000
# 3 -0.004646 0.006210 0.045401 0.000000 0.000000 0.000000
# 4 0.000000 0.000000 0.000000 0.108900 0.000000 0.000000
# 5 0.000000 0.000000 0.000000 0.000000 0.023147 0.000000
# 6 0.000000 0.000000 0.000000 0.000000 0.000000 0.008673
#
#
# Mechanical properties :
#
#
# Convention : Reuss Voigt Hill
#
# Bulk Modulus (GPa) = 15.58080 41.32000 28.45040
# Shear Modulus (GPa) = 22.29397 54.50544 38.39971
#
# Velocity S-wave (km/s) = 3.01763 4.71837 3.96037
# Velocity P-wave (km/s) = 4.30180 6.82359 5.70381
#
# Compressibility (1/GPa) = 0.06418156
#
# Stress axis : x y z
#
# Youngs Moduli (GPa) = 201.90425 78.01385 22.02610
#
# Poissons Ratio (x) = 0.08259 0.10234
# Poissons Ratio (y) = 0.21374 -0.13678
# Poissons Ratio (z) = 0.93811 -0.48446
#
# Static dielectric constant tensor:
#      x y z
#    x 2.116400 0.000000 0.000000 
#    y 0.000000 1.987240 0.000000 
#    z 0.000000 0.000000 1.906530 
# 
# From -- ./inp_files/24275.got.cif
#   From: 2010.05.17/outbox.cif.g08.bks.cpg/sg59_13_cif.got.tgz:24275.got - 2010.06.03 14:40:33.
