data_PCOD9447215
_publ_section_title
;
Structure prediction by ZEFSAII (Michael W. Deem and Ramdas Pophale) SiO2 
 PCOD9447215
Probable space group: P M M N
;
_chemical_formula_sum "Si O2"
_cell_formula_units_Z 64
_cell_length_a 7.483424
_cell_length_b 19.564639
_cell_length_c 19.400416
_cell_angle_alpha 90.000000
_cell_angle_beta 90.000000
_cell_angle_gamma 90.000000
_cell_volume 2840.424394
_symmetry_space_group_name_H-M "P M M N"
_symmetry_group_IT_number 59
_space_group.IT_coordinate_system_code '2'
_symmetry_cell_setting 'orthorhombic'
loop_
_space_group_symop_operation_xyz
x,y,z
1/2-x,1/2-y,z
1/2+x,-y,-z
-x,1/2+y,-z
-x,-y,-z
1/2+x,1/2+y,-z
1/2-x,y,z
x,1/2-y,z
loop_
_atom_site_type_symbol
_atom_site_label
_atom_site_fract_x
_atom_site_fract_y
_atom_site_fract_z
Si Si1 0.969126 0.672935 0.055089
Si Si2 0.044121 0.115053 0.089539
Si Si3 0.031979 0.171474 0.233860
Si Si4 0.966086 0.827013 0.350353
Si Si5 0.967881 0.828091 0.507909
Si Si6 0.547106 0.966194 0.120434
Si Si7 0.032457 0.083360 0.365671
Si Si8 0.044372 0.537797 0.276200
O O1 0.750000 0.674266 0.057211
O O2 0.027239 0.750000 0.072851
O O3 0.026846 0.608786 0.102073
O O4 0.029393 0.651673 0.978107
O O5 0.250000 0.137205 0.091389
O O6 0.966431 0.137663 0.162996
O O7 0.039782 0.032917 0.086721
O O8 0.250000 0.168632 0.234074
O O9 0.978848 0.250000 0.236297
O O10 0.977703 0.131833 0.302347
O O11 0.750000 0.828796 0.349103
O O12 0.021526 0.750000 0.332720
O O13 0.023501 0.841185 0.429211
O O14 0.032738 0.884279 0.299026
O O15 0.750000 0.828458 0.508123
O O16 0.019954 0.750000 0.526655
O O17 0.030914 0.883867 0.562928
O O18 0.750000 0.967490 0.094997
O O19 0.545137 0.974244 0.202900
O O20 0.250000 0.083080 0.370543
O O21 0.975903 0.008519 0.339655
O O22 0.250000 0.517531 0.264419
#
# Coordination Sequence:
#
# PCOD9447215 Si02
#       8
#     8   8   8   8   8   8   8   8
#     4   9  19  35  56  82 107 134 178 230 271 313
#     4  10  18  33  56  82 109 137 172 219 268 318
#     4   9  15  24  45  77 107 136 171 211 256 304
#     4   9  19  36  56  78 104 137 177 220 268 324
#     4   8  14  27  49  76 106 138 174 217 264 317
#     4  11  22  36  55  78 108 148 184 219 269 325
#     4   9  16  27  45  75 110 138 171 219 264 309
#     4  11  22  36  54  79 109 140 179 227 273 316
#
# _framework density 22.531845000000001
#
# number of rings (size 3 to 8) (size 9 to 14) (size 15 to 20)
#    0.000    2.500    1.250    2.625    0.000    4.250 
#    0.000    1.875    0.000    4.875    0.000    0.000 
#    0.000    0.000    0.000    0.000    0.000    0.000 
#
# Total GULP energy -357371.584462 kJ/mol
# GULP energy per Si atom -5583.931007 kJ/mol
# Density = 2.248056 g / cm^3
# Si number density = 22.531845 Si / 1000 Ang^3
#
#
#
# Elastic Constant Matrix: (Units=GPa)
#
#
# Indices 1 2 3 4 5 6 
#
# 1 57.8368 -8.3860 -5.5978 0.0000 0.0000 0.0000
# 2 -8.3860 97.3598 1.8589 0.0000 0.0000 0.0000
# 3 -5.5978 1.8589 16.8680 0.0000 0.0000 0.0000
# 4 0.0000 0.0000 0.0000 38.6753 0.0000 0.0000
# 5 0.0000 0.0000 0.0000 0.0000 36.0809 0.0000
# 6 0.0000 0.0000 0.0000 0.0000 0.0000 7.2698
#
#
#
# Elastic Compliance Matrix: (Units=1/GPa)
#
#
# Indices 1 2 3 4 5 6 
#
# 1 0.018064 0.001445 0.005836 0.000000 0.000000 0.000000
# 2 0.001445 0.010408 -0.000668 0.000000 0.000000 0.000000
# 3 0.005836 -0.000668 0.061294 0.000000 0.000000 0.000000
# 4 0.000000 0.000000 0.000000 0.025856 0.000000 0.000000
# 5 0.000000 0.000000 0.000000 0.000000 0.027716 0.000000
# 6 0.000000 0.000000 0.000000 0.000000 0.000000 0.137556
#
#
# Mechanical properties :
#
#
# Convention : Reuss Voigt Hill
#
# Bulk Modulus (GPa) = 9.70951 16.42385 13.06668
# Shear Modulus (GPa) = 16.55631 28.68449 22.62040
#
# Velocity S-wave (km/s) = 2.71365 3.57187 3.17192
# Velocity P-wave (km/s) = 3.75994 4.93113 4.38481
#
# Compressibility (1/GPa) = 0.10299183
#
# Stress axis : x y z
#
# Youngs Moduli (GPa) = 55.35782 96.07666 16.31478
#
# Poissons Ratio (x) = -0.13879 -0.09521
# Poissons Ratio (y) = -0.07997 0.01089
# Poissons Ratio (z) = -0.32305 0.06415
#
# Static dielectric constant tensor:
#      x y z
#    x 1.938690 0.000000 0.000000 
#    y 0.000000 1.817080 0.000000 
#    z 0.000000 0.000000 1.796470 
# 
# From -- ./inp_files/29405.got.cif
#   From: 2010.05.17/outbox.cif.g08.bks.cpg/sg59_15_cif.got.tgz:29405.got - 2010.06.03 14:40:33.
