data_PCOD9447548
_publ_section_title
;
Structure prediction by ZEFSAII (Michael W. Deem and Ramdas Pophale) SiO2 
 PCOD9447548
Probable space group: P M M N
;
_chemical_formula_sum "Si O2"
_cell_formula_units_Z 56
_cell_length_a 9.137920
_cell_length_b 24.649688
_cell_length_c 16.562845
_cell_angle_alpha 90.000000
_cell_angle_beta 90.000000
_cell_angle_gamma 90.000000
_cell_volume 3730.729110
_symmetry_space_group_name_H-M "P M M N"
_symmetry_group_IT_number 59
_space_group.IT_coordinate_system_code '2'
_symmetry_cell_setting 'orthorhombic'
loop_
_space_group_symop_operation_xyz
x,y,z
1/2-x,1/2-y,z
1/2+x,-y,-z
-x,1/2+y,-z
-x,-y,-z
1/2+x,1/2+y,-z
1/2-x,y,z
x,1/2-y,z
loop_
_atom_site_type_symbol
_atom_site_label
_atom_site_fract_x
_atom_site_fract_y
_atom_site_fract_z
Si Si1 0.422968 0.894025 0.378379
Si Si2 0.923930 0.984460 0.689980
Si Si3 0.576158 0.914076 0.021945
Si Si4 0.424594 0.813106 0.088782
Si Si5 0.575329 0.505776 0.875323
Si Si6 0.921018 0.686067 0.259647
Si Si7 0.075274 0.947207 0.539336
O O1 0.250000 0.882452 0.368896
O O2 0.516887 0.850118 0.331546
O O3 0.455276 0.900243 0.473873
O O4 0.449534 0.953239 0.338207
O O5 0.750000 0.974624 0.681647
O O6 0.965134 0.980270 0.783682
O O7 0.010108 0.945326 0.628928
O O8 0.750000 0.908700 0.032452
O O9 0.498931 0.856214 0.029711
O O10 0.510040 0.953881 0.090298
O O11 0.548214 0.945014 0.937452
O O12 0.250000 0.819773 0.089263
O O13 0.458211 0.750000 0.070103
O O14 0.488610 0.824670 0.177933
O O15 0.750000 0.493916 0.876745
O O16 0.750000 0.674495 0.245185
O O17 0.936056 0.750000 0.277858
O O18 0.250000 0.954617 0.541665
O O19 0.000000 0.000000 0.500000
#
# Coordination Sequence:
#
# PCOD9447548 Si02
#       7
#     8   8   8   8   8   8   8
#     4   9  17  28  43  63  88 118 145 172 211 256
#     4   9  17  29  44  63  88 116 145 176 211 254
#     4  10  19  30  46  68  92 119 151 186 223 263
#     4  10  20  33  48  64  86 119 153 185 225 269
#     4   9  18  31  46  66  94 124 150 179 220 270
#     4  10  20  31  44  65  89 112 144 183 217 254
#     4   9  17  28  42  62  86 111 142 175 207 247
#
# _framework density 15.010471000000001
#
# number of rings (size 3 to 8) (size 9 to 14) (size 15 to 20)
#    0.000    2.571    0.000    3.429    0.000    6.857 
#    0.000    0.000    0.000    0.000    0.000    1.000 
#    0.000    1.143    0.000    0.000    0.000    0.000 
#
# Total GULP energy -312118.004419 kJ/mol
# GULP energy per Si atom -5573.535793 kJ/mol
# Density = 1.497631 g / cm^3
# Si number density = 15.010471 Si / 1000 Ang^3
#
#
#
# Elastic Constant Matrix: (Units=GPa)
#
#
# Indices 1 2 3 4 5 6 
#
# 1 57.4434 45.2176 44.7687 0.0000 0.0000 0.0000
# 2 45.2176 62.3641 40.6495 0.0000 0.0000 0.0000
# 3 44.7687 40.6495 103.8363 0.0000 0.0000 0.0000
# 4 0.0000 0.0000 0.0000 22.8500 0.0000 0.0000
# 5 0.0000 0.0000 0.0000 0.0000 26.8161 0.0000
# 6 0.0000 0.0000 0.0000 0.0000 0.0000 25.7935
#
#
#
# Elastic Compliance Matrix: (Units=1/GPa)
#
#
# Indices 1 2 3 4 5 6 
#
# 1 0.046226 -0.027558 -0.009142 0.000000 0.000000 0.000000
# 2 -0.027558 0.037957 -0.002978 0.000000 0.000000 0.000000
# 3 -0.009142 -0.002978 0.014738 0.000000 0.000000 0.000000
# 4 0.000000 0.000000 0.000000 0.043764 0.000000 0.000000
# 5 0.000000 0.000000 0.000000 0.000000 0.037291 0.000000
# 6 0.000000 0.000000 0.000000 0.000000 0.000000 0.038769
#
#
# Mechanical properties :
#
#
# Convention : Reuss Voigt Hill
#
# Bulk Modulus (GPa) = 51.11011 53.87950 52.49481
# Shear Modulus (GPa) = 16.41385 21.29245 18.85315
#
# Velocity S-wave (km/s) = 3.31039 3.77039 3.54785
# Velocity P-wave (km/s) = 6.98105 7.41128 7.19938
#
# Compressibility (1/GPa) = 0.01956560
#
# Stress axis : x y z
#
# Youngs Moduli (GPa) = 21.63298 26.34581 67.85270
#
# Poissons Ratio (x) = 0.72603 0.62031
# Poissons Ratio (y) = 0.59615 0.20205
# Poissons Ratio (z) = 0.19777 0.07845
#
# Static dielectric constant tensor:
#      x y z
#    x 1.499510 0.000000 0.000000 
#    y 0.000000 1.483650 0.000000 
#    z 0.000000 0.000000 1.510300 
# 
# From -- ./inp_files/26132.got.cif
#   From: 2010.05.17/outbox.cif.g08.bks.cpg/sg59_14_cif.got.tgz:26132.got - 2010.06.03 14:40:33.
