data_PCOD9447304
_publ_section_title
;
Structure prediction by ZEFSAII (Michael W. Deem and Ramdas Pophale) SiO2 
 PCOD9447304
Probable space group: P M M N
;
_chemical_formula_sum "Si O2"
_cell_formula_units_Z 64
_cell_length_a 29.611583
_cell_length_b 7.720217
_cell_length_c 13.059825
_cell_angle_alpha 90.000000
_cell_angle_beta 90.000000
_cell_angle_gamma 90.000000
_cell_volume 2985.578469
_symmetry_space_group_name_H-M "P M M N"
_symmetry_group_IT_number 59
_space_group.IT_coordinate_system_code '2'
_symmetry_cell_setting 'orthorhombic'
loop_
_space_group_symop_operation_xyz
x,y,z
1/2-x,1/2-y,z
1/2+x,-y,-z
-x,1/2+y,-z
-x,-y,-z
1/2+x,1/2+y,-z
1/2-x,y,z
x,1/2-y,z
loop_
_atom_site_type_symbol
_atom_site_label
_atom_site_fract_x
_atom_site_fract_y
_atom_site_fract_z
Si Si1 0.301255 0.955848 0.059658
Si Si2 0.058888 0.461847 0.252483
Si Si3 0.551380 0.957872 0.978256
Si Si4 0.157816 0.458585 0.281119
Si Si5 0.125968 0.455810 0.651888
Si Si6 0.800345 0.537711 0.509979
Si Si7 0.477469 0.543587 0.608664
Si Si8 0.369729 0.043927 0.880994
O O1 0.250000 0.025266 0.061843
O O2 0.299227 0.750000 0.049861
O O3 0.325538 0.994055 0.167760
O O4 0.329401 0.020456 0.961897
O O5 0.057453 0.250000 0.254048
O O6 0.106226 0.514949 0.302661
O O7 0.013247 0.522897 0.306735
O O8 0.062107 0.520730 0.135488
O O9 0.556752 0.750000 0.976309
O O10 0.585593 0.027936 0.063041
O O11 0.500000 0.000000 0.000000
O O12 0.157647 0.250000 0.282993
O O13 0.189068 0.519285 0.373952
O O14 0.134322 0.250000 0.654881
O O15 0.160615 0.524195 0.566743
O O16 0.073450 0.478497 0.622573
O O17 0.135255 0.526689 0.766221
O O18 0.750000 0.485276 0.478638
O O19 0.801211 0.750000 0.510989
O O20 0.500000 0.500000 0.500000
O O21 0.475111 0.750000 0.618151
O O22 0.376255 0.250000 0.868875
#
# Coordination Sequence:
#
# PCOD9447304 Si02
#       8
#     8   8   8   8   8   8   8   8
#     4  11  24  39  56  83 119 154 191 242 300 350
#     4   9  18  33  54  78 109 145 183 233 287 337
#     4  10  19  33  52  78 109 141 183 227 276 334
#     4  10  18  35  61  84 109 144 190 239 287 344
#     4  10  21  38  60  87 120 152 191 244 292 344
#     4   9  18  33  57  87 114 145 187 237 294 349
#     4  11  22  37  58  84 116 157 199 240 291 348
#     4  10  21  38  60  84 113 152 198 240 281 345
#
# _framework density 21.436381999999998
#
# number of rings (size 3 to 8) (size 9 to 14) (size 15 to 20)
#    0.000    2.000    1.250    2.625    0.000    5.000 
#    0.000    5.000    0.000    1.125    0.000    0.000 
#    0.000    0.000    0.000    0.000    0.000    0.000 
#
# Total GULP energy -357442.867087 kJ/mol
# GULP energy per Si atom -5585.044798 kJ/mol
# Density = 2.138759 g / cm^3
# Si number density = 21.436382 Si / 1000 Ang^3
#
#
#
# Elastic Constant Matrix: (Units=GPa)
#
#
# Indices 1 2 3 4 5 6 
#
# 1 155.9424 -14.7934 69.2560 0.0000 0.0000 0.0000
# 2 -14.7934 26.5634 -2.7460 0.0000 0.0000 0.0000
# 3 69.2560 -2.7460 150.3543 0.0000 0.0000 0.0000
# 4 0.0000 0.0000 0.0000 0.7788 0.0000 0.0000
# 5 0.0000 0.0000 0.0000 0.0000 36.9186 0.0000
# 6 0.0000 0.0000 0.0000 0.0000 0.0000 24.0543
#
#
#
# Elastic Compliance Matrix: (Units=1/GPa)
#
#
# Indices 1 2 3 4 5 6 
#
# 1 0.008537 0.004356 -0.003853 0.000000 0.000000 0.000000
# 2 0.004356 0.039940 -0.001277 0.000000 0.000000 0.000000
# 3 -0.003853 -0.001277 0.008402 0.000000 0.000000 0.000000
# 4 0.000000 0.000000 0.000000 1.284035 0.000000 0.000000
# 5 0.000000 0.000000 0.000000 0.000000 0.027087 0.000000
# 6 0.000000 0.000000 0.000000 0.000000 0.000000 0.041573
#
#
# Mechanical properties :
#
#
# Convention : Reuss Voigt Hill
#
# Bulk Modulus (GPa) = 18.07294 48.47704 33.27499
# Shear Modulus (GPa) = 3.49757 31.09324 17.29540
#
# Velocity S-wave (km/s) = 1.27873 3.81266 2.84355
# Velocity P-wave (km/s) = 3.26029 6.48424 5.13200
#
# Compressibility (1/GPa) = 0.05533134
#
# Stress axis : x y z
#
# Youngs Moduli (GPa) = 117.13876 25.03779 119.01563
#
# Poissons Ratio (x) = -0.10906 0.45853
# Poissons Ratio (y) = -0.51026 0.15199
# Poissons Ratio (z) = 0.45130 0.03197
#
# Static dielectric constant tensor:
#      x y z
#    x 1.771580 0.000000 0.000000 
#    y 0.000000 1.805980 0.000000 
#    z 0.000000 0.000000 1.773970 
# 
# From -- ./inp_files/19365.got.cif
#   From: 2010.05.17/outbox.cif.g08.bks.cpg/sg59_10_cif.got.tgz:19365.got - 2010.06.03 14:40:33.
