data_PCOD9447196
_publ_section_title
;
Structure prediction by ZEFSAII (Michael W. Deem and Ramdas Pophale) SiO2 
 PCOD9447196
Probable space group: P M M N
;
_chemical_formula_sum "Si O2"
_cell_formula_units_Z 28
_cell_length_a 13.967582
_cell_length_b 11.410439
_cell_length_c 6.992821
_cell_angle_alpha 90.000000
_cell_angle_beta 90.000000
_cell_angle_gamma 90.000000
_cell_volume 1114.489535
_symmetry_space_group_name_H-M "P M M N"
_symmetry_group_IT_number 59
_space_group.IT_coordinate_system_code '2'
_symmetry_cell_setting 'orthorhombic'
loop_
_space_group_symop_operation_xyz
x,y,z
1/2-x,1/2-y,z
1/2+x,-y,-z
-x,1/2+y,-z
-x,-y,-z
1/2+x,1/2+y,-z
1/2-x,y,z
x,1/2-y,z
loop_
_atom_site_type_symbol
_atom_site_label
_atom_site_fract_x
_atom_site_fract_y
_atom_site_fract_z
Si Si1 0.044074 0.250000 0.192300
Si Si2 0.083552 0.006723 0.311754
Si Si3 0.750000 0.470480 0.427050
Si Si4 0.250000 0.002355 0.993279
Si Si5 0.750000 0.250000 0.705042
Si Si6 0.043152 0.750000 0.219431
Si Si7 0.250000 0.250000 0.054676
O O1 0.159188 0.250000 0.192997
O O2 0.018177 0.378390 0.274513
O O3 0.016732 0.250000 0.971239
O O4 0.152726 0.029684 0.493930
O O5 0.033505 0.878153 0.319589
O O6 0.156407 0.995460 0.128411
O O7 0.750000 0.356635 0.561050
O O8 0.750000 0.435657 0.205685
O O9 0.250000 0.136830 0.924426
O O10 0.656255 0.250000 0.830499
#
# Coordination Sequence:
#
# PCOD9447196 Si02
#       7
#     4   8   4   4   2   4   2
#     4  10  18  33  55  75 104 137 165 212 257 291
#     4   9  19  32  50  79 101 130 179 203 244 319
#     4   9  17  31  53  75 103 136 166 212 256 292
#     4   9  17  31  53  75 103 136 166 212 256 292
#     4   8  18  32  48  78 102 130 176 202 250 320
#     4  10  18  33  55  75 104 137 165 212 257 291
#     4   8  18  32  48  78 102 130 176 202 250 320
#
# _framework density 25.123608999999998
#
# number of rings (size 3 to 8) (size 9 to 14) (size 15 to 20)
#    0.000    2.857    0.000    2.571    0.000    2.286 
#    0.000    0.000    0.000   56.571    0.000    0.000 
#    0.000    0.000    0.000    0.000    0.000    0.000 
#
# Total GULP energy -156056.026832 kJ/mol
# GULP energy per Si atom -5573.429530 kJ/mol
# Density = 2.506643 g / cm^3
# Si number density = 25.123609 Si / 1000 Ang^3
#
#
#
# Elastic Constant Matrix: (Units=GPa)
#
#
# Indices 1 2 3 4 5 6 
#
# 1 48.2539 23.8999 46.5291 0.0000 0.0000 0.0000
# 2 23.8999 190.8807 10.2161 0.0000 0.0000 0.0000
# 3 46.5291 10.2161 151.1932 0.0000 0.0000 0.0000
# 4 0.0000 0.0000 0.0000 124.3473 0.0000 0.0000
# 5 0.0000 0.0000 0.0000 0.0000 24.6691 0.0000
# 6 0.0000 0.0000 0.0000 0.0000 0.0000 -6.8528
#
#
#
# Elastic Compliance Matrix: (Units=1/GPa)
#
#
# Indices 1 2 3 4 5 6 
#
# 1 0.031576 -0.003446 -0.009485 0.000000 0.000000 0.000000
# 2 -0.003446 0.005634 0.000680 0.000000 0.000000 0.000000
# 3 -0.009485 0.000680 0.009487 0.000000 0.000000 0.000000
# 4 0.000000 0.000000 0.000000 0.008042 0.000000 0.000000
# 5 0.000000 0.000000 0.000000 0.000000 0.040537 0.000000
# 6 0.000000 0.000000 0.000000 0.000000 0.000000 -0.145926
#
#
# Mechanical properties :
#
#
# Convention : Reuss Voigt Hill
#
# Bulk Modulus (GPa) = 45.05423 61.29090 53.17257
# Shear Modulus (GPa) = -266.65358 49.07824 -108.78767
#
# Velocity S-wave (km/s) = -10.31344 4.42460 -6.58749
# Velocity P-wave (km/s) = 11.12883 7.10996 6.05389
#
# Compressibility (1/GPa) = 0.02219547
#
# Stress axis : x y z
#
# Youngs Moduli (GPa) = 31.66965 177.49522 105.40799
#
# Poissons Ratio (x) = 0.61164 0.99975
# Poissons Ratio (y) = 0.10913 -0.07166
# Poissons Ratio (z) = 0.30037 -0.12066
#
# Static dielectric constant tensor:
#      x y z
#    x 2.043830 0.000000 0.000000 
#    y 0.000000 2.173250 0.000000 
#    z 0.000000 0.000000 1.881200 
# 
# From -- ./inp_files/1747.got.cif
#   From: 2010.05.17/outbox.cif.g08.bks.cpg/sg59_1_cif.got.tgz:1747.got - 2010.06.03 14:40:33.
