data_PCOD9447400
_publ_section_title
;
Structure prediction by ZEFSAII (Michael W. Deem and Ramdas Pophale) SiO2 
 PCOD9447400
Probable space group: P M M N
;
_chemical_formula_sum "Si O2"
_cell_formula_units_Z 48
_cell_length_a 7.298687
_cell_length_b 24.313888
_cell_length_c 11.414724
_cell_angle_alpha 90.000000
_cell_angle_beta 90.000000
_cell_angle_gamma 90.000000
_cell_volume 2025.650737
_symmetry_space_group_name_H-M "P M M N"
_symmetry_group_IT_number 59
_space_group.IT_coordinate_system_code '2'
_symmetry_cell_setting 'orthorhombic'
loop_
_space_group_symop_operation_xyz
x,y,z
1/2-x,1/2-y,z
1/2+x,-y,-z
-x,1/2+y,-z
-x,-y,-z
1/2+x,1/2+y,-z
1/2-x,y,z
x,1/2-y,z
loop_
_atom_site_type_symbol
_atom_site_label
_atom_site_fract_x
_atom_site_fract_y
_atom_site_fract_z
Si Si1 0.469741 0.478823 0.700113
Si Si2 0.025713 0.313086 0.336876
Si Si3 0.465054 0.087721 0.191661
Si Si4 0.472269 0.188112 0.812275
Si Si5 0.972185 0.580150 0.062754
Si Si6 0.027181 0.126509 0.573486
O O1 0.250000 0.476275 0.699128
O O2 0.517865 0.542698 0.705598
O O3 0.536716 0.454559 0.825410
O O4 0.533124 0.436242 0.600454
O O5 0.250000 0.312572 0.336948
O O6 0.967023 0.250000 0.329523
O O7 0.963941 0.353539 0.233476
O O8 0.967215 0.342949 0.456769
O O9 0.250000 0.095306 0.171710
O O10 0.539410 0.066205 0.067234
O O11 0.250000 0.189698 0.811389
O O12 0.537516 0.250000 0.829162
O O13 0.522118 0.143336 0.909502
O O14 0.525622 0.162589 0.686894
O O15 0.750000 0.575494 0.066386
O O16 0.250000 0.125659 0.570112
#
# Coordination Sequence:
#
# PCOD9447400 Si02
#       6
#     8   8   8   8   8   8
#     4   9  17  30  47  64  84 113 146 178 210 244
#     4   9  17  28  42  62  89 117 140 168 213 261
#     4  10  19  29  43  65  91 115 139 171 211 256
#     4   8  12  19  35  58  82 109 141 178 215 247
#     4   8  15  26  39  59  87 115 142 173 211 253
#     4   8  14  25  41  61  84 110 142 177 211 250
#
# _framework density 23.696089000000001
#
# number of rings (size 3 to 8) (size 9 to 14) (size 15 to 20)
#    0.000    3.333    0.000    3.000    0.000    3.333 
#    0.000    3.333    0.000    0.500    0.000    0.000 
#    0.000   21.333    0.000    0.000    0.000    0.000 
#
# Total GULP energy -267951.467225 kJ/mol
# GULP energy per Si atom -5582.322234 kJ/mol
# Density = 2.364216 g / cm^3
# Si number density = 23.696089 Si / 1000 Ang^3
#
#
#
# Elastic Constant Matrix: (Units=GPa)
#
#
# Indices 1 2 3 4 5 6 
#
# 1 98.0207 -5.2862 2.7374 0.0000 0.0000 0.0000
# 2 -5.2862 111.8479 18.4893 0.0000 0.0000 0.0000
# 3 2.7374 18.4893 46.3287 0.0000 0.0000 0.0000
# 4 0.0000 0.0000 0.0000 23.9366 0.0000 0.0000
# 5 0.0000 0.0000 0.0000 0.0000 -21.8788 0.0000
# 6 0.0000 0.0000 0.0000 0.0000 0.0000 -0.0359
#
#
#
# Elastic Compliance Matrix: (Units=1/GPa)
#
#
# Indices 1 2 3 4 5 6 
#
# 1 0.010260 0.000626 -0.000856 0.000000 0.000000 0.000000
# 2 0.000626 0.009610 -0.003872 0.000000 0.000000 0.000000
# 3 -0.000856 -0.003872 0.023181 0.000000 0.000000 0.000000
# 4 0.000000 0.000000 0.000000 0.041777 0.000000 0.000000
# 5 0.000000 0.000000 0.000000 0.000000 -0.045706 0.000000
# 6 0.000000 0.000000 0.000000 0.000000 0.000000-27.826938
#
#
# Mechanical properties :
#
#
# Convention : Reuss Voigt Hill
#
# Bulk Modulus (GPa) = 28.69723 32.00871 30.35297
# Shear Modulus (GPa) = -0.18006 16.42147 8.12070
#
# Velocity S-wave (km/s) = -0.27596 2.63535 1.85323
# Velocity P-wave (km/s) = 3.46919 4.77467 4.17329
#
# Compressibility (1/GPa) = 0.03484657
#
# Stress axis : x y z
#
# Youngs Moduli (GPa) = 97.46945 104.05319 43.13884
#
# Poissons Ratio (x) = -0.06518 0.03694
# Poissons Ratio (y) = -0.06106 0.16705
# Poissons Ratio (z) = 0.08346 0.40294
#
# Static dielectric constant tensor:
#      x y z
#    x 1.955140 0.000000 0.000000 
#    y 0.000000 1.879970 0.000000 
#    z 0.000000 0.000000 1.883490 
# 
# From -- ./inp_files/14302.got.cif
#   From: 2010.05.17/outbox.cif.g08.bks.cpg/sg59_8_cif.got.tgz:14302.got - 2010.06.03 14:40:33.
