data_PCOD9447851
_publ_section_title
;
Structure prediction by ZEFSAII (Michael W. Deem and Ramdas Pophale) SiO2 
 PCOD9447851
Probable space group: P M M N
;
_chemical_formula_sum "Si O2"
_cell_formula_units_Z 64
_cell_length_a 30.239267
_cell_length_b 8.926616
_cell_length_c 15.123359
_cell_angle_alpha 90.000000
_cell_angle_beta 90.000000
_cell_angle_gamma 90.000000
_cell_volume 4082.313698
_symmetry_space_group_name_H-M "P M M N"
_symmetry_group_IT_number 59
_space_group.IT_coordinate_system_code '2'
_symmetry_cell_setting 'orthorhombic'
loop_
_space_group_symop_operation_xyz
x,y,z
1/2-x,1/2-y,z
1/2+x,-y,-z
-x,1/2+y,-z
-x,-y,-z
1/2+x,1/2+y,-z
1/2-x,y,z
x,1/2-y,z
loop_
_atom_site_type_symbol
_atom_site_label
_atom_site_fract_x
_atom_site_fract_y
_atom_site_fract_z
Si Si1 0.611695 0.570367 0.960358
Si Si2 0.439132 0.070812 0.857228
Si Si3 0.698773 0.925250 0.204507
Si Si4 0.699973 0.429030 0.010333
Si Si5 0.118646 0.927932 0.701420
Si Si6 0.434090 0.427014 0.554455
Si Si7 0.033130 0.070299 0.169703
Si Si8 0.023523 0.071780 0.374232
O O1 0.617769 0.750000 0.957102
O O2 0.576450 0.526817 0.885332
O O3 0.588994 0.534502 0.054944
O O4 0.659191 0.492229 0.954442
O O5 0.439333 0.250000 0.846218
O O6 0.415844 0.995027 0.773039
O O7 0.488987 0.010635 0.864390
O O8 0.750000 0.936101 0.231426
O O9 0.686515 0.750000 0.198046
O O10 0.695040 0.998528 0.107633
O O11 0.665947 0.008501 0.270013
O O12 0.750000 0.465987 0.979130
O O13 0.696698 0.250000 0.017611
O O14 0.117463 0.750000 0.706411
O O15 0.103730 0.984536 0.605536
O O16 0.428111 0.250000 0.567245
O O17 0.440281 0.457698 0.450191
O O18 0.480181 0.478991 0.599167
O O19 0.027210 0.250000 0.159009
O O20 0.037446 0.038982 0.274259
O O21 0.012603 0.250000 0.379436
#
# Coordination Sequence:
#
# PCOD9447851 Si02
#       8
#     8   8   8   8   8   8   8   8
#     4  10  21  34  49  70  99 134 169 203 243 292
#     4  11  21  32  46  69  99 135 172 202 237 285
#     4  10  20  34  52  73  98 127 160 201 247 296
#     4  10  20  33  50  72  97 127 164 204 245 289
#     4  12  22  32  49  72 100 134 166 201 242 291
#     4  10  19  31  49  71  96 127 163 203 245 293
#     4  10  20  34  50  70  98 133 170 208 248 290
#     4   9  18  32  49  70  97 127 161 205 251 289
#
# _framework density 15.677384
#
# number of rings (size 3 to 8) (size 9 to 14) (size 15 to 20)
#    0.000    1.750    2.500    3.000    0.000    3.000 
#    0.000    0.000    0.000    0.000    0.000    0.875 
#    0.000    3.000    0.000    0.000    0.000    0.000 
#
# Total GULP energy -357242.470151 kJ/mol
# GULP energy per Si atom -5581.913596 kJ/mol
# Density = 1.564170 g / cm^3
# Si number density = 15.677384 Si / 1000 Ang^3
#
#
#
# Elastic Constant Matrix: (Units=GPa)
#
#
# Indices 1 2 3 4 5 6 
#
# 1 109.7483 48.5358 41.8209 0.0000 0.0000 0.0000
# 2 48.5358 60.3211 31.7878 0.0000 0.0000 0.0000
# 3 41.8209 31.7878 53.8045 0.0000 0.0000 0.0000
# 4 0.0000 0.0000 0.0000 16.5731 0.0000 0.0000
# 5 0.0000 0.0000 0.0000 0.0000 23.3626 0.0000
# 6 0.0000 0.0000 0.0000 0.0000 0.0000 29.2442
#
#
#
# Elastic Compliance Matrix: (Units=1/GPa)
#
#
# Indices 1 2 3 4 5 6 
#
# 1 0.015730 -0.009023 -0.006896 0.000000 0.000000 0.000000
# 2 -0.009023 0.029248 -0.010267 0.000000 0.000000 0.000000
# 3 -0.006896 -0.010267 0.030011 0.000000 0.000000 0.000000
# 4 0.000000 0.000000 0.000000 0.060339 0.000000 0.000000
# 5 0.000000 0.000000 0.000000 0.000000 0.042803 0.000000
# 6 0.000000 0.000000 0.000000 0.000000 0.000000 0.034195
#
#
# Mechanical properties :
#
#
# Convention : Reuss Voigt Hill
#
# Bulk Modulus (GPa) = 44.21084 52.01808 48.11446
# Shear Modulus (GPa) = 18.36642 20.61794 19.49218
#
# Velocity S-wave (km/s) = 3.42647 3.63042 3.52992
# Velocity P-wave (km/s) = 6.62690 7.12921 6.88264
#
# Compressibility (1/GPa) = 0.02261889
#
# Stress axis : x y z
#
# Youngs Moduli (GPa) = 63.57416 34.19029 33.32074
#
# Poissons Ratio (x) = 0.30848 0.22977
# Poissons Ratio (y) = 0.57360 0.34210
# Poissons Ratio (z) = 0.43839 0.35102
#
# Static dielectric constant tensor:
#      x y z
#    x 1.523540 0.000000 0.000000 
#    y 0.000000 1.523690 0.000000 
#    z 0.000000 0.000000 1.516820 
# 
# From -- ./inp_files/25011.got.cif
#   From: 2010.05.17/outbox.cif.g08.bks.cpg/sg59_13_cif.got.tgz:25011.got - 2010.06.03 14:40:33.
