data_PCOD9447423
_publ_section_title
;
Structure prediction by ZEFSAII (Michael W. Deem and Ramdas Pophale) SiO2 
 PCOD9447423
Probable space group: P M M N
;
_chemical_formula_sum "Si O2"
_cell_formula_units_Z 56
_cell_length_a 32.998338
_cell_length_b 14.198019
_cell_length_c 7.459237
_cell_angle_alpha 90.000000
_cell_angle_beta 90.000000
_cell_angle_gamma 90.000000
_cell_volume 3494.734809
_symmetry_space_group_name_H-M "P M M N"
_symmetry_group_IT_number 59
_space_group.IT_coordinate_system_code '2'
_symmetry_cell_setting 'orthorhombic'
loop_
_space_group_symop_operation_xyz
x,y,z
1/2-x,1/2-y,z
1/2+x,-y,-z
-x,1/2+y,-z
-x,-y,-z
1/2+x,1/2+y,-z
1/2-x,y,z
x,1/2-y,z
loop_
_atom_site_type_symbol
_atom_site_label
_atom_site_fract_x
_atom_site_fract_y
_atom_site_fract_z
Si Si1 0.363524 0.360271 0.153187
Si Si2 0.489553 0.856128 0.267497
Si Si3 0.347080 0.141012 0.751658
Si Si4 0.973379 0.144437 0.300411
Si Si5 0.945662 0.542719 0.764820
Si Si6 0.570238 0.958725 0.336270
Si Si7 0.294962 0.363689 0.427170
O O1 0.373819 0.250000 0.190539
O O2 0.405105 0.418613 0.145649
O O3 0.332094 0.395598 0.302534
O O4 0.341082 0.364254 0.963159
O O5 0.483830 0.750000 0.201253
O O6 0.481390 0.855647 0.483444
O O7 0.535851 0.891311 0.250575
O O8 0.460540 0.937263 0.188732
O O9 0.357984 0.250000 0.708027
O O10 0.385325 0.077336 0.703583
O O11 0.308589 0.116962 0.630512
O O12 0.962537 0.250000 0.247414
O O13 0.015384 0.110123 0.211021
O O14 0.940222 0.063715 0.270771
O O15 0.936634 0.543758 0.550811
O O16 0.250000 0.400092 0.386276
O O17 0.293511 0.250000 0.404723
#
# Coordination Sequence:
#
# PCOD9447423 Si02
#       7
#     8   8   8   8   8   8   8
#     4  10  19  29  44  66  90 116 146 180 215 255
#     4   8  14  23  38  61  87 118 155 189 219 251
#     4  10  19  29  44  66  90 116 146 180 215 255
#     4   8  14  23  38  61  87 118 155 189 219 251
#     4   9  15  25  42  61  85 119 153 185 219 254
#     4   9  15  25  42  61  85 119 153 185 219 254
#     4   9  18  32  48  65  87 115 143 173 214 264
#
# _framework density 16.024106
#
# number of rings (size 3 to 8) (size 9 to 14) (size 15 to 20)
#    0.000    3.000    1.429    2.571    0.000    1.714 
#    0.000    5.714    0.000    2.571    0.000    0.000 
#    0.000    2.286    0.000    2.571    0.000    0.286 
#
# Total GULP energy -312118.049920 kJ/mol
# GULP energy per Si atom -5573.536606 kJ/mol
# Density = 1.598763 g / cm^3
# Si number density = 16.024106 Si / 1000 Ang^3
#
#
#
# Elastic Constant Matrix: (Units=GPa)
#
#
# Indices 1 2 3 4 5 6 
#
# 1 61.5878 22.5584 0.1173 0.0000 0.0000 0.0000
# 2 22.5584 82.1267 5.3680 0.0000 0.0000 0.0000
# 3 0.1173 5.3680 27.3546 0.0000 0.0000 0.0000
# 4 0.0000 0.0000 0.0000 7.0728 0.0000 0.0000
# 5 0.0000 0.0000 0.0000 0.0000 9.2282 0.0000
# 6 0.0000 0.0000 0.0000 0.0000 0.0000 14.7823
#
#
#
# Elastic Compliance Matrix: (Units=1/GPa)
#
#
# Indices 1 2 3 4 5 6 
#
# 1 0.018076 -0.005024 0.000908 0.000000 0.000000 0.000000
# 2 -0.005024 0.013731 -0.002673 0.000000 0.000000 0.000000
# 3 0.000908 -0.002673 0.037078 0.000000 0.000000 0.000000
# 4 0.000000 0.000000 0.000000 0.141388 0.000000 0.000000
# 5 0.000000 0.000000 0.000000 0.000000 0.108363 0.000000
# 6 0.000000 0.000000 0.000000 0.000000 0.000000 0.067649
#
#
# Mechanical properties :
#
#
# Convention : Reuss Voigt Hill
#
# Bulk Modulus (GPa) = 18.08109 25.23962 21.66035
# Shear Modulus (GPa) = 11.95324 15.75168 13.85246
#
# Velocity S-wave (km/s) = 2.73418 3.13868 2.94339
# Velocity P-wave (km/s) = 4.61257 5.37776 5.00980
#
# Compressibility (1/GPa) = 0.05530641
#
# Stress axis : x y z
#
# Youngs Moduli (GPa) = 55.32324 72.82736 26.97050
#
# Poissons Ratio (x) = 0.36591 -0.02450
# Poissons Ratio (y) = 0.27796 0.07209
# Poissons Ratio (z) = -0.05026 0.19467
#
# Static dielectric constant tensor:
#      x y z
#    x 1.508580 0.000000 0.000000 
#    y 0.000000 1.531000 0.000000 
#    z 0.000000 0.000000 1.608410 
# 
# From -- ./inp_files/9724.got.cif
#   From: 2010.05.17/outbox.cif.g08.bks.cpg/sg59_5_cif.got.tgz:9724.got - 2010.06.03 14:40:33.
