data_PCOD9447436
_publ_section_title
;
Structure prediction by ZEFSAII (Michael W. Deem and Ramdas Pophale) SiO2 
 PCOD9447436
Probable space group: P M M N
;
_chemical_formula_sum "Si O2"
_cell_formula_units_Z 64
_cell_length_a 14.260482
_cell_length_b 8.917414
_cell_length_c 32.499027
_cell_angle_alpha 90.000000
_cell_angle_beta 90.000000
_cell_angle_gamma 90.000000
_cell_volume 4132.791476
_symmetry_space_group_name_H-M "P M M N"
_symmetry_group_IT_number 59
_space_group.IT_coordinate_system_code '2'
_symmetry_cell_setting 'orthorhombic'
loop_
_space_group_symop_operation_xyz
x,y,z
1/2-x,1/2-y,z
1/2+x,-y,-z
-x,1/2+y,-z
-x,-y,-z
1/2+x,1/2+y,-z
1/2-x,y,z
x,1/2-y,z
loop_
_atom_site_type_symbol
_atom_site_label
_atom_site_fract_x
_atom_site_fract_y
_atom_site_fract_z
Si Si1 0.360040 0.428744 0.139600
Si Si2 0.533387 0.429260 0.936613
Si Si3 0.143727 0.932638 0.561841
Si Si4 0.136265 0.922759 0.224789
Si Si5 0.037459 0.071033 0.393064
Si Si6 0.859201 0.431301 0.684007
Si Si7 0.641489 0.430573 0.020638
Si Si8 0.136867 0.575885 0.469816
O O1 0.250000 0.472576 0.134240
O O2 0.365715 0.250000 0.136471
O O3 0.422302 0.504075 0.104543
O O4 0.390173 0.481527 0.185126
O O5 0.528288 0.250000 0.933936
O O6 0.431518 0.495220 0.947876
O O7 0.601773 0.468031 0.975128
O O8 0.250000 0.983660 0.569227
O O9 0.145465 0.750000 0.560360
O O10 0.112344 0.979068 0.515840
O O11 0.068590 0.976847 0.595841
O O12 0.250000 0.921726 0.226416
O O13 0.106083 0.750000 0.219227
O O14 0.107551 0.977309 0.270191
O O15 0.040653 0.250000 0.388799
O O16 0.079584 0.996085 0.352642
O O17 0.096451 0.021099 0.432987
O O18 0.750000 0.476695 0.678496
O O19 0.861052 0.250000 0.683153
O O20 0.750000 0.476624 0.025093
O O21 0.636955 0.250000 0.024891
O O22 0.250000 0.574993 0.468107
O O23 0.106749 0.750000 0.465061
#
# Coordination Sequence:
#
# PCOD9447436 Si02
#       8
#     8   8   8   8   8   8   8   8
#     4  10  19  29  44  68  96 123 150 184 227 270
#     4  10  19  30  46  68  93 123 160 196 229 271
#     4   8  16  31  46  59  79 110 146 178 209 249
#     4   8  15  29  47  64  84 114 149 179 210 256
#     4  11  20  27  42  67  88 108 138 178 217 248
#     4   9  18  32  47  63  88 121 147 166 202 263
#     4   9  18  32  47  64  91 126 161 198 237 271
#     4   9  17  30  46  60  80 114 146 169 202 252
#
# _framework density 15.485900000000001
#
# number of rings (size 3 to 8) (size 9 to 14) (size 15 to 20)
#    0.000    2.750    0.000    3.750    0.000    4.500 
#    0.000    1.875    0.000    3.000    0.000    0.875 
#    0.000    3.000    0.000    0.000    0.000    0.000 
#
# Total GULP energy -356690.671400 kJ/mol
# GULP energy per Si atom -5573.291741 kJ/mol
# Density = 1.545065 g / cm^3
# Si number density = 15.485900 Si / 1000 Ang^3
#
#
#
# Elastic Constant Matrix: (Units=GPa)
#
#
# Indices 1 2 3 4 5 6 
#
# 1 90.9923 30.4199 71.1749 0.0000 0.0000 0.0000
# 2 30.4199 26.0791 39.5847 0.0000 0.0000 0.0000
# 3 71.1749 39.5847 139.3952 0.0000 0.0000 0.0000
# 4 0.0000 0.0000 0.0000 24.5477 0.0000 0.0000
# 5 0.0000 0.0000 0.0000 0.0000 24.9842 0.0000
# 6 0.0000 0.0000 0.0000 0.0000 0.0000 18.2004
#
#
#
# Elastic Compliance Matrix: (Units=1/GPa)
#
#
# Indices 1 2 3 4 5 6 
#
# 1 0.020996 -0.014445 -0.006619 0.000000 0.000000 0.000000
# 2 -0.014445 0.077332 -0.014585 0.000000 0.000000 0.000000
# 3 -0.006619 -0.014585 0.014695 0.000000 0.000000 0.000000
# 4 0.000000 0.000000 0.000000 0.040737 0.000000 0.000000
# 5 0.000000 0.000000 0.000000 0.000000 0.040025 0.000000
# 6 0.000000 0.000000 0.000000 0.000000 0.000000 0.054944
#
#
# Mechanical properties :
#
#
# Convention : Reuss Voigt Hill
#
# Bulk Modulus (GPa) = 23.96547 59.86953 41.91750
# Shear Modulus (GPa) = 14.97298 21.23225 18.10261
#
# Velocity S-wave (km/s) = 3.11284 3.70681 3.42274
# Velocity P-wave (km/s) = 5.33188 7.55415 6.53813
#
# Compressibility (1/GPa) = 0.04172670
#
# Stress axis : x y z
#
# Youngs Moduli (GPa) = 47.62771 12.93127 68.05007
#
# Poissons Ratio (x) = 0.18679 0.45040
# Poissons Ratio (y) = 0.68797 0.99250
# Poissons Ratio (z) = 0.31523 0.18860
#
# Static dielectric constant tensor:
#      x y z
#    x 1.513400 0.000000 0.000000 
#    y 0.000000 1.518490 0.000000 
#    z 0.000000 0.000000 1.509300 
# 
# From -- ./inp_files/33332.got.cif
#   From: 2010.05.17/outbox.cif.g08.bks.cpg/sg59_17_cif.got.tgz:33332.got - 2010.06.03 14:40:33.
