data_PCOD9447727
_publ_section_title
;
Structure prediction by ZEFSAII (Michael W. Deem and Ramdas Pophale) SiO2 
 PCOD9447727
Probable space group: P M M N
;
_chemical_formula_sum "Si O2"
_cell_formula_units_Z 48
_cell_length_a 7.800386
_cell_length_b 19.743248
_cell_length_c 16.637099
_cell_angle_alpha 90.000000
_cell_angle_beta 90.000000
_cell_angle_gamma 90.000000
_cell_volume 2562.195688
_symmetry_space_group_name_H-M "P M M N"
_symmetry_group_IT_number 59
_space_group.IT_coordinate_system_code '2'
_symmetry_cell_setting 'orthorhombic'
loop_
_space_group_symop_operation_xyz
x,y,z
1/2-x,1/2-y,z
1/2+x,-y,-z
-x,1/2+y,-z
-x,-y,-z
1/2+x,1/2+y,-z
1/2-x,y,z
x,1/2-y,z
loop_
_atom_site_type_symbol
_atom_site_label
_atom_site_fract_x
_atom_site_fract_y
_atom_site_fract_z
Si Si1 0.543956 0.075513 0.030440
Si Si2 0.553459 0.250000 0.581034
Si Si3 0.041823 0.603996 0.467584
Si Si4 0.545046 0.027640 0.373832
Si Si5 0.058032 0.250000 0.757003
Si Si6 0.542219 0.473809 0.195082
Si Si7 0.954825 0.124672 0.865094
O O1 0.750000 0.082558 0.032430
O O2 0.481589 0.075116 0.122517
O O3 0.481629 0.123350 0.958074
O O4 0.500000 0.000000 0.000000
O O5 0.750000 0.250000 0.551539
O O6 0.477015 0.320882 0.551137
O O7 0.555931 0.250000 0.677582
O O8 0.250000 0.604711 0.468057
O O9 0.980125 0.574344 0.553143
O O10 0.990142 0.549590 0.400086
O O11 0.750000 0.036603 0.371505
O O12 0.478182 0.041857 0.284533
O O13 0.250000 0.250000 0.724992
O O14 0.029967 0.184135 0.811525
O O15 0.750000 0.470943 0.195876
O O16 0.494297 0.550909 0.172105
O O17 0.750000 0.133419 0.865865
#
# Coordination Sequence:
#
# PCOD9447727 Si02
#       7
#     8   4   8   8   4   8   8
#     4   8  15  27  44  65  89 116 144 178 217 257
#     4  10  20  34  50  67  90 120 152 187 228 278
#     4   9  18  31  46  65  91 121 152 187 229 274
#     4   9  17  29  46  68  93 120 150 187 228 270
#     4  12  24  34  46  65  90 120 152 185 224 270
#     4   9  16  28  47  70  94 118 148 185 224 265
#     4  10  19  31  46  66  93 122 152 184 221 266
#
# _framework density 18.733933
#
# number of rings (size 3 to 8) (size 9 to 14) (size 15 to 20)
#    0.000    2.667    0.000    2.250    0.000    4.667 
#    0.000    0.000    0.000    1.000    0.000    5.833 
#    0.000    1.333    0.000    0.000    0.000    0.000 
#
# Total GULP energy -267462.319155 kJ/mol
# GULP energy per Si atom -5572.131649 kJ/mol
# Density = 1.869129 g / cm^3
# Si number density = 18.733933 Si / 1000 Ang^3
#
#
#
# Elastic Constant Matrix: (Units=GPa)
#
#
# Indices 1 2 3 4 5 6 
#
# 1 29.7151 -5.9658 -2.1695 0.0000 0.0000 0.0000
# 2 -5.9658 77.7333 36.2622 0.0000 0.0000 0.0000
# 3 -2.1695 36.2622 137.5628 0.0000 0.0000 0.0000
# 4 0.0000 0.0000 0.0000 16.9762 0.0000 0.0000
# 5 0.0000 0.0000 0.0000 0.0000 11.1202 0.0000
# 6 0.0000 0.0000 0.0000 0.0000 0.0000 62.5718
#
#
#
# Elastic Compliance Matrix: (Units=1/GPa)
#
#
# Indices 1 2 3 4 5 6 
#
# 1 0.034183 0.002705 -0.000174 0.000000 0.000000 0.000000
# 2 0.002705 0.014882 -0.003880 0.000000 0.000000 0.000000
# 3 -0.000174 -0.003880 0.008290 0.000000 0.000000 0.000000
# 4 0.000000 0.000000 0.000000 0.058906 0.000000 0.000000
# 5 0.000000 0.000000 0.000000 0.000000 0.089927 0.000000
# 6 0.000000 0.000000 0.000000 0.000000 0.000000 0.015982
#
#
# Mechanical properties :
#
#
# Convention : Reuss Voigt Hill
#
# Bulk Modulus (GPa) = 18.29633 33.47388 25.88510
# Shear Modulus (GPa) = 20.56874 32.59259 26.58067
#
# Velocity S-wave (km/s) = 3.31711 4.17557 3.77085
# Velocity P-wave (km/s) = 4.94556 6.41514 5.72768
#
# Compressibility (1/GPa) = 0.05465578
#
# Stress axis : x y z
#
# Youngs Moduli (GPa) = 29.25410 67.19413 120.63379
#
# Poissons Ratio (x) = -0.18173 0.02097
# Poissons Ratio (y) = -0.07912 0.46811
# Poissons Ratio (z) = 0.00509 0.26074
#
# Static dielectric constant tensor:
#      x y z
#    x 1.683790 0.000000 0.000000 
#    y 0.000000 1.614480 0.000000 
#    z 0.000000 0.000000 1.700520 
# 
# From -- ./inp_files/25978.got.cif
#   From: 2010.05.17/outbox.cif.g08.bks.cpg/sg59_13_cif.got.tgz:25978.got - 2010.06.03 14:40:33.
