data_PCOD9447066
_publ_section_title
;
Structure prediction by ZEFSAII (Michael W. Deem and Ramdas Pophale) SiO2 
 PCOD9447066
Probable space group: P M M N
;
_chemical_formula_sum "Si O2"
_cell_formula_units_Z 48
_cell_length_a 7.665346
_cell_length_b 15.348560
_cell_length_c 20.557484
_cell_angle_alpha 90.000000
_cell_angle_beta 90.000000
_cell_angle_gamma 90.000000
_cell_volume 2418.629580
_symmetry_space_group_name_H-M "P M M N"
_symmetry_group_IT_number 59
_space_group.IT_coordinate_system_code '2'
_symmetry_cell_setting 'orthorhombic'
loop_
_space_group_symop_operation_xyz
x,y,z
1/2-x,1/2-y,z
1/2+x,-y,-z
-x,1/2+y,-z
-x,-y,-z
1/2+x,1/2+y,-z
1/2-x,y,z
x,1/2-y,z
loop_
_atom_site_type_symbol
_atom_site_label
_atom_site_fract_x
_atom_site_fract_y
_atom_site_fract_z
Si Si1 0.542564 0.559665 0.708920
Si Si2 0.537665 0.250000 0.428284
Si Si3 0.536420 0.063241 0.819765
Si Si4 0.959590 0.559441 0.937510
Si Si5 0.956317 0.063441 0.441821
Si Si6 0.449864 0.250000 0.278539
Si Si7 0.041631 0.250000 0.024929
Si Si8 0.538917 0.250000 0.871473
O O1 0.750000 0.566596 0.719466
O O2 0.479571 0.478554 0.751519
O O3 0.519228 0.546469 0.631770
O O4 0.470865 0.653925 0.734172
O O5 0.750000 0.250000 0.420193
O O6 0.484382 0.339403 0.461049
O O7 0.453050 0.250000 0.357120
O O8 0.750000 0.066320 0.820554
O O9 0.477390 0.160590 0.837663
O O10 0.479649 0.994700 0.875072
O O11 0.750000 0.565641 0.932483
O O12 0.026980 0.658283 0.946463
O O13 0.000000 0.500000 0.000000
O O14 0.750000 0.064533 0.435687
O O15 0.000000 0.000000 0.500000
O O16 0.250000 0.250000 0.253441
O O17 0.250000 0.250000 0.035737
O O18 0.011116 0.250000 0.947383
O O19 0.750000 0.250000 0.869165
#
# Coordination Sequence:
#
# PCOD9447066 Si02
#       8
#     8   4   8   8   8   4   4   4
#     4   9  17  31  49  72  99 128 164 207 253 302
#     4   8  16  30  48  70  97 129 163 196 239 292
#     4   9  18  31  50  72  96 129 169 208 249 300
#     4  10  19  32  49  72  98 128 165 209 253 300
#     4  10  19  33  53  77 103 134 169 207 250 298
#     4   8  14  25  46  69  91 120 155 197 247 297
#     4  10  20  31  48  75 103 127 164 216 264 298
#     4  10  18  32  52  70  93 134 178 207 242 303
#
# _framework density 19.845949000000001
#
# number of rings (size 3 to 8) (size 9 to 14) (size 15 to 20)
#    0.000    2.667    1.667    0.500    0.000    1.333 
#    0.000    5.833    0.000    3.000    0.000    3.500 
#    0.000    0.000    0.000    0.000    0.000    0.000 
#
# Total GULP energy -267423.797101 kJ/mol
# GULP energy per Si atom -5571.329106 kJ/mol
# Density = 1.980078 g / cm^3
# Si number density = 19.845949 Si / 1000 Ang^3
#
#
#
# Elastic Constant Matrix: (Units=GPa)
#
#
# Indices 1 2 3 4 5 6 
#
# 1 31.5162 10.5419 -1.7455 0.0000 0.0000 0.0000
# 2 10.5419 219.9578 90.9974 0.0000 0.0000 0.0000
# 3 -1.7455 90.9974 96.7688 0.0000 0.0000 0.0000
# 4 0.0000 0.0000 0.0000 35.1766 0.0000 0.0000
# 5 0.0000 0.0000 0.0000 0.0000 16.2262 0.0000
# 6 0.0000 0.0000 0.0000 0.0000 0.0000 8.0590
#
#
#
# Elastic Compliance Matrix: (Units=1/GPa)
#
#
# Indices 1 2 3 4 5 6 
#
# 1 0.032916 -0.002984 0.003400 0.000000 0.000000 0.000000
# 2 -0.002984 0.007712 -0.007306 0.000000 0.000000 0.000000
# 3 0.003400 -0.007306 0.017265 0.000000 0.000000 0.000000
# 4 0.000000 0.000000 0.000000 0.028428 0.000000 0.000000
# 5 0.000000 0.000000 0.000000 0.000000 0.061629 0.000000
# 6 0.000000 0.000000 0.000000 0.000000 0.000000 0.124086
#
#
# Mechanical properties :
#
#
# Convention : Reuss Voigt Hill
#
# Bulk Modulus (GPa) = 22.66888 60.87005 41.76946
# Shear Modulus (GPa) = 16.63787 28.45562 22.54674
#
# Velocity S-wave (km/s) = 2.89857 3.79070 3.37425
# Velocity P-wave (km/s) = 4.75915 7.06378 6.02273
#
# Compressibility (1/GPa) = 0.04411335
#
# Stress axis : x y z
#
# Youngs Moduli (GPa) = 30.38018 129.67309 57.92024
#
# Poissons Ratio (x) = 0.38696 -0.19692
# Poissons Ratio (y) = 0.09066 0.42314
# Poissons Ratio (z) = -0.10329 0.94734
#
# Static dielectric constant tensor:
#      x y z
#    x 1.756250 0.000000 0.000000 
#    y 0.000000 1.752790 0.000000 
#    z 0.000000 0.000000 1.585090 
# 
# From -- ./inp_files/25687.got.cif
#   From: 2010.05.17/outbox.cif.g08.bks.cpg/sg59_13_cif.got.tgz:25687.got - 2010.06.03 14:40:33.
