data_PCOD9447198
_publ_section_title
;
Structure prediction by ZEFSAII (Michael W. Deem and Ramdas Pophale) SiO2 
 PCOD9447198
Probable space group: P M M N
;
_chemical_formula_sum "Si O2"
_cell_formula_units_Z 64
_cell_length_a 7.528131
_cell_length_b 15.640095
_cell_length_c 24.148947
_cell_angle_alpha 90.000000
_cell_angle_beta 90.000000
_cell_angle_gamma 90.000000
_cell_volume 2843.313538
_symmetry_space_group_name_H-M "P M M N"
_symmetry_group_IT_number 59
_space_group.IT_coordinate_system_code '2'
_symmetry_cell_setting 'orthorhombic'
loop_
_space_group_symop_operation_xyz
x,y,z
1/2-x,1/2-y,z
1/2+x,-y,-z
-x,1/2+y,-z
-x,-y,-z
1/2+x,1/2+y,-z
1/2-x,y,z
x,1/2-y,z
loop_
_atom_site_type_symbol
_atom_site_label
_atom_site_fract_x
_atom_site_fract_y
_atom_site_fract_z
Si Si1 0.964665 0.481413 0.701429
Si Si2 0.951691 0.877840 0.873175
Si Si3 0.543129 0.349496 0.478346
Si Si4 0.467270 0.158030 0.248581
Si Si5 0.541690 0.975304 0.425201
Si Si6 0.533569 0.845437 0.995646
Si Si7 0.543373 0.938647 0.101641
Si Si8 0.035360 0.844395 0.208509
O O1 0.750000 0.481234 0.703269
O O2 0.027468 0.576173 0.717646
O O3 0.027483 0.415361 0.748128
O O4 0.018069 0.459202 0.639464
O O5 0.750000 0.844896 0.874619
O O6 0.030242 0.848151 0.815227
O O7 0.032217 0.855906 0.932896
O O8 0.948102 0.980110 0.872542
O O9 0.750000 0.341300 0.463259
O O10 0.472624 0.250000 0.477149
O O11 0.532878 0.396837 0.538260
O O12 0.468661 0.428863 0.440548
O O13 0.250000 0.154499 0.246641
O O14 0.518071 0.250000 0.272063
O O15 0.750000 0.977775 0.438955
O O16 0.750000 0.852883 0.994139
O O17 0.490668 0.750000 0.014738
O O18 0.470874 0.911871 0.041731
O O19 0.750000 0.961226 0.095469
O O20 0.527568 0.864234 0.146511
O O21 0.250000 0.847448 0.207365
O O22 0.980072 0.750000 0.225861
#
# Coordination Sequence:
#
# PCOD9447198 Si02
#       8
#     8   8   8   8   8   8   8   8
#     4  10  20  36  55  80 113 147 187 231 274 324
#     4  10  18  33  55  75  99 134 180 225 271 331
#     4   9  19  38  62  86 117 158 195 225 267 322
#     4   9  17  31  54  80 103 134 182 235 276 317
#     4  10  21  36  57  88 121 152 189 232 275 322
#     4   9  18  31  49  75 102 131 172 223 278 336
#     4  11  21  33  51  76 108 139 172 219 281 341
#     4  10  21  38  58  78 102 140 189 233 274 325
#
# _framework density 22.508948
#
# number of rings (size 3 to 8) (size 9 to 14) (size 15 to 20)
#    0.000    2.250    1.250    1.875    0.000    4.500 
#    0.000    1.875    0.000    3.750    0.000    0.000 
#    0.000    0.000    0.000    0.000    0.000    0.000 
#
# Total GULP energy -357214.299974 kJ/mol
# GULP energy per Si atom -5581.473437 kJ/mol
# Density = 2.245772 g / cm^3
# Si number density = 22.508948 Si / 1000 Ang^3
#
#
#
# Elastic Constant Matrix: (Units=GPa)
#
#
# Indices 1 2 3 4 5 6 
#
# 1 62.8326 3.8935 -9.9370 0.0000 0.0000 0.0000
# 2 3.8935 106.9319 -11.1486 0.0000 0.0000 0.0000
# 3 -9.9370 -11.1486 64.4737 0.0000 0.0000 0.0000
# 4 0.0000 0.0000 0.0000 34.8460 0.0000 0.0000
# 5 0.0000 0.0000 0.0000 0.0000 5.3909 0.0000
# 6 0.0000 0.0000 0.0000 0.0000 0.0000 1.5144
#
#
#
# Elastic Compliance Matrix: (Units=1/GPa)
#
#
# Indices 1 2 3 4 5 6 
#
# 1 0.016325 -0.000338 0.002458 0.000000 0.000000 0.000000
# 2 -0.000338 0.009530 0.001596 0.000000 0.000000 0.000000
# 3 0.002458 0.001596 0.016165 0.000000 0.000000 0.000000
# 4 0.000000 0.000000 0.000000 0.028698 0.000000 0.000000
# 5 0.000000 0.000000 0.000000 0.000000 0.185498 0.000000
# 6 0.000000 0.000000 0.000000 0.000000 0.000000 0.660334
#
#
# Mechanical properties :
#
#
# Convention : Reuss Voigt Hill
#
# Bulk Modulus (GPa) = 20.22210 22.20600 21.21405
# Shear Modulus (GPa) = 5.40189 25.11227 15.25708
#
# Velocity S-wave (km/s) = 1.55084 3.34377 2.60633
# Velocity P-wave (km/s) = 3.49433 4.97941 4.30145
#
# Compressibility (1/GPa) = 0.04945084
#
# Stress axis : x y z
#
# Youngs Moduli (GPa) = 61.25600 104.92694 61.86234
#
# Poissons Ratio (x) = 0.03548 -0.15203
# Poissons Ratio (y) = 0.02072 -0.09872
# Poissons Ratio (z) = -0.15054 -0.16745
#
# Static dielectric constant tensor:
#      x y z
#    x 1.882860 0.000000 0.000000 
#    y 0.000000 1.860060 0.000000 
#    z 0.000000 0.000000 1.787570 
# 
# From -- ./inp_files/31494.got.cif
#   From: 2010.05.17/outbox.cif.g08.bks.cpg/sg59_16_cif.got.tgz:31494.got - 2010.06.03 14:40:33.
