data_PCOD9447458
_publ_section_title
;
Structure prediction by ZEFSAII (Michael W. Deem and Ramdas Pophale) SiO2 
 PCOD9447458
Probable space group: P M M N
;
_chemical_formula_sum "Si O2"
_cell_formula_units_Z 64
_cell_length_a 24.151027
_cell_length_b 8.469928
_cell_length_c 19.715478
_cell_angle_alpha 90.000000
_cell_angle_beta 90.000000
_cell_angle_gamma 90.000000
_cell_volume 4032.948099
_symmetry_space_group_name_H-M "P M M N"
_symmetry_group_IT_number 59
_space_group.IT_coordinate_system_code '2'
_symmetry_cell_setting 'orthorhombic'
loop_
_space_group_symop_operation_xyz
x,y,z
1/2-x,1/2-y,z
1/2+x,-y,-z
-x,1/2+y,-z
-x,-y,-z
1/2+x,1/2+y,-z
1/2-x,y,z
x,1/2-y,z
loop_
_atom_site_type_symbol
_atom_site_label
_atom_site_fract_x
_atom_site_fract_y
_atom_site_fract_z
Si Si1 0.414500 0.440786 0.523044
Si Si2 0.186925 0.940892 0.889290
Si Si3 0.187042 0.057223 0.609830
Si Si4 0.980344 0.561022 0.605899
Si Si5 0.585722 0.059399 0.020279
Si Si6 0.477166 0.061513 0.104991
Si Si7 0.131105 0.440985 0.751727
Si Si8 0.997278 0.561537 0.249467
O O1 0.415141 0.250000 0.524497
O O2 0.355259 0.493980 0.551065
O O3 0.433307 0.491194 0.447896
O O4 0.462045 0.498207 0.574544
O O5 0.250000 0.995692 0.898815
O O6 0.187039 0.750000 0.889528
O O7 0.143611 0.992843 0.947177
O O8 0.162936 0.996295 0.817282
O O9 0.250000 0.002628 0.602160
O O10 0.187803 0.250000 0.609527
O O11 0.161373 0.009833 0.682355
O O12 0.981860 0.750000 0.606216
O O13 0.974863 0.500595 0.682049
O O14 0.585024 0.250000 0.017380
O O15 0.535560 0.009326 0.070542
O O16 0.570223 0.994486 0.946592
O O17 0.477550 0.250000 0.108109
O O18 0.474420 0.993961 0.180271
O O19 0.131368 0.250000 0.753818
O O20 0.067061 0.494236 0.751748
O O21 0.996442 0.750000 0.251757
#
# Coordination Sequence:
#
# PCOD9447458 Si02
#       8
#     8   8   8   8   8   8   8   8
#     4   9  17  31  46  66  92 121 156 193 232 276
#     4  10  20  33  48  67  95 129 161 193 228 270
#     4   9  16  28  46  66  90 122 159 194 226 265
#     4  10  19  29  46  67  92 122 154 193 236 280
#     4   9  18  32  47  67  94 124 156 191 231 276
#     4  10  19  31  49  70  93 121 155 194 236 279
#     4  10  19  30  45  65  93 127 162 194 222 266
#     4  11  20  31  48  69  95 125 156 192 235 282
#
# _framework density 15.869285
#
# number of rings (size 3 to 8) (size 9 to 14) (size 15 to 20)
#    0.000    2.250    2.500    1.500    0.000    2.750 
#    0.000    0.000    0.000    0.375    0.000    0.875 
#    0.000    3.000    0.000    0.000    0.000    0.000 
#
# Total GULP energy -356949.187251 kJ/mol
# GULP energy per Si atom -5577.331051 kJ/mol
# Density = 1.583317 g / cm^3
# Si number density = 15.869285 Si / 1000 Ang^3
#
#
#
# Elastic Constant Matrix: (Units=GPa)
#
#
# Indices 1 2 3 4 5 6 
#
# 1 103.4079 14.1060 75.1491 0.0000 0.0000 0.0000
# 2 14.1060 5.7460 18.1216 0.0000 0.0000 0.0000
# 3 75.1491 18.1216 151.3403 0.0000 0.0000 0.0000
# 4 0.0000 0.0000 0.0000 25.2948 0.0000 0.0000
# 5 0.0000 0.0000 0.0000 0.0000 19.7238 0.0000
# 6 0.0000 0.0000 0.0000 0.0000 0.0000 12.1814
#
#
#
# Elastic Compliance Matrix: (Units=1/GPa)
#
#
# Indices 1 2 3 4 5 6 
#
# 1 0.017008 -0.024291 -0.005537 0.000000 0.000000 0.000000
# 2 -0.024291 0.314327 -0.025576 0.000000 0.000000 0.000000
# 3 -0.005537 -0.025576 0.012419 0.000000 0.000000 0.000000
# 4 0.000000 0.000000 0.000000 0.039534 0.000000 0.000000
# 5 0.000000 0.000000 0.000000 0.000000 0.050700 0.000000
# 6 0.000000 0.000000 0.000000 0.000000 0.000000 0.082092
#
#
# Mechanical properties :
#
#
# Convention : Reuss Voigt Hill
#
# Bulk Modulus (GPa) = 4.29283 52.80529 28.54906
# Shear Modulus (GPa) = 7.09687 21.64785 14.37236
#
# Velocity S-wave (km/s) = 2.11702 3.69743 3.01270
# Velocity P-wave (km/s) = 2.94732 7.18160 5.48917
#
# Compressibility (1/GPa) = 0.23294635
#
# Stress axis : x y z
#
# Youngs Moduli (GPa) = 58.79698 3.18140 80.51992
#
# Poissons Ratio (x) = 0.07728 0.44581
# Poissons Ratio (y) = 1.42826 2.05934
# Poissons Ratio (z) = 0.32554 0.08137
#
# Static dielectric constant tensor:
#      x y z
#    x 1.528590 0.000000 0.000000 
#    y 0.000000 1.539600 0.000000 
#    z 0.000000 0.000000 1.520750 
# 
# From -- ./inp_files/26499.got.cif
#   From: 2010.05.17/outbox.cif.g08.bks.cpg/sg59_14_cif.got.tgz:26499.got - 2010.06.03 14:40:33.
