data_PCOD9447775
_publ_section_title
;
Structure prediction by ZEFSAII (Michael W. Deem and Ramdas Pophale) SiO2 
 PCOD9447775
Probable space group: P M M N
;
_chemical_formula_sum "Si O2"
_cell_formula_units_Z 64
_cell_length_a 19.986799
_cell_length_b 7.677055
_cell_length_c 22.749321
_cell_angle_alpha 90.000000
_cell_angle_beta 90.000000
_cell_angle_gamma 90.000000
_cell_volume 3490.650245
_symmetry_space_group_name_H-M "P M M N"
_symmetry_group_IT_number 59
_space_group.IT_coordinate_system_code '2'
_symmetry_cell_setting 'orthorhombic'
loop_
_space_group_symop_operation_xyz
x,y,z
1/2-x,1/2-y,z
1/2+x,-y,-z
-x,1/2+y,-z
-x,-y,-z
1/2+x,1/2+y,-z
1/2-x,y,z
x,1/2-y,z
loop_
_atom_site_type_symbol
_atom_site_label
_atom_site_fract_x
_atom_site_fract_y
_atom_site_fract_z
Si Si1 0.536726 0.952347 0.175586
Si Si2 0.890364 0.546364 0.474845
Si Si3 0.823966 0.453371 0.357816
Si Si4 0.534311 0.961763 0.581907
Si Si5 0.675294 0.460552 0.123621
Si Si6 0.538236 0.040222 0.939460
Si Si7 0.536508 0.454836 0.307560
Si Si8 0.675705 0.462454 0.987304
O O1 0.519610 0.750000 0.178811
O O2 0.498845 0.028612 0.118528
O O3 0.615412 0.971360 0.162596
O O4 0.521777 0.027341 0.239263
O O5 0.872815 0.750000 0.477171
O O6 0.840864 0.462365 0.427539
O O7 0.904027 0.477668 0.541064
O O8 0.964312 0.523430 0.446630
O O9 0.750000 0.529223 0.346278
O O10 0.820435 0.250000 0.340842
O O11 0.889920 0.529656 0.325163
O O12 0.536750 0.750000 0.578175
O O13 0.522700 0.018252 0.649236
O O14 0.750000 0.515299 0.141256
O O15 0.673329 0.250000 0.125325
O O16 0.664772 0.513537 0.055485
O O17 0.539308 0.250000 0.935084
O O18 0.614143 0.977355 0.948071
O O19 0.500000 0.000000 0.000000
O O20 0.542137 0.250000 0.321005
O O21 0.750000 0.519414 0.969690
O O22 0.675584 0.250000 0.987023
#
# Coordination Sequence:
#
# PCOD9447775 Si02
#       8
#     8   8   8   8   8   8   8   8
#     4  11  22  31  42  67  97 121 148 192 246 287
#     4   9  15  24  43  69  91 110 139 183 228 264
#     4   9  18  32  47  64  90 124 160 191 218 256
#     4   8  15  28  44  63  86 112 145 181 219 263
#     4   9  17  30  48  65  82 114 158 190 215 267
#     4  10  19  31  48  69  93 117 145 187 240 287
#     4   9  18  32  47  61  84 124 165 191 213 260
#     4   8  14  27  48  69  85 107 144 183 217 266
#
# _framework density 18.334693000000001
#
# number of rings (size 3 to 8) (size 9 to 14) (size 15 to 20)
#    0.000    2.875    1.250    2.250    0.000    4.000 
#    0.000    1.250    0.000    0.375    0.000    0.875 
#    0.000    3.000    0.000    0.000    0.000    0.000 
#
# Total GULP energy -356299.864704 kJ/mol
# GULP energy per Si atom -5567.185386 kJ/mol
# Density = 1.829296 g / cm^3
# Si number density = 18.334693 Si / 1000 Ang^3
#
#
#
# Elastic Constant Matrix: (Units=GPa)
#
#
# Indices 1 2 3 4 5 6 
#
# 1 42.6054 -5.0539 32.5814 0.0000 0.0000 0.0000
# 2 -5.0539 27.5810 -7.2012 0.0000 0.0000 0.0000
# 3 32.5814 -7.2012 109.6151 0.0000 0.0000 0.0000
# 4 0.0000 0.0000 0.0000 14.5735 0.0000 0.0000
# 5 0.0000 0.0000 0.0000 0.0000 14.8209 0.0000
# 6 0.0000 0.0000 0.0000 0.0000 0.0000 9.7976
#
#
#
# Elastic Compliance Matrix: (Units=1/GPa)
#
#
# Indices 1 2 3 4 5 6 
#
# 1 0.030667 0.003296 -0.008899 0.000000 0.000000 0.000000
# 2 0.003296 0.037244 0.001467 0.000000 0.000000 0.000000
# 3 -0.008899 0.001467 0.011864 0.000000 0.000000 0.000000
# 4 0.000000 0.000000 0.000000 0.068618 0.000000 0.000000
# 5 0.000000 0.000000 0.000000 0.000000 0.067472 0.000000
# 6 0.000000 0.000000 0.000000 0.000000 0.000000 0.102066
#
#
# Mechanical properties :
#
#
# Convention : Reuss Voigt Hill
#
# Bulk Modulus (GPa) = 13.98524 24.49489 19.24007
# Shear Modulus (GPa) = 14.28418 18.47009 16.37713
#
# Velocity S-wave (km/s) = 2.79423 3.17738 2.99194
# Velocity P-wave (km/s) = 4.24907 5.18168 4.73838
#
# Compressibility (1/GPa) = 0.07150395
#
# Stress axis : x y z
#
# Youngs Moduli (GPa) = 32.60796 26.85007 84.28680
#
# Poissons Ratio (x) = -0.08850 0.75006
# Poissons Ratio (y) = -0.10748 -0.12365
# Poissons Ratio (z) = 0.29017 -0.03939
#
# Static dielectric constant tensor:
#      x y z
#    x 1.646070 0.000000 0.000000 
#    y 0.000000 1.699270 0.000000 
#    z 0.000000 0.000000 1.671520 
# 
# From -- ./inp_files/30969.got.cif
#   From: 2010.05.17/outbox.cif.g08.bks.cpg/sg59_16_cif.got.tgz:30969.got - 2010.06.03 14:40:33.
