data_PCOD9447890
_publ_section_title
;
Structure prediction by ZEFSAII (Michael W. Deem and Ramdas Pophale) SiO2 
 PCOD9447890
Probable space group: P M M N
;
_chemical_formula_sum "Si O2"
_cell_formula_units_Z 48
_cell_length_a 16.418351
_cell_length_b 8.954117
_cell_length_c 19.227256
_cell_angle_alpha 90.000000
_cell_angle_beta 90.000000
_cell_angle_gamma 90.000000
_cell_volume 2826.634202
_symmetry_space_group_name_H-M "P M M N"
_symmetry_group_IT_number 59
_space_group.IT_coordinate_system_code '2'
_symmetry_cell_setting 'orthorhombic'
loop_
_space_group_symop_operation_xyz
x,y,z
1/2-x,1/2-y,z
1/2+x,-y,-z
-x,1/2+y,-z
-x,-y,-z
1/2+x,1/2+y,-z
1/2-x,y,z
x,1/2-y,z
loop_
_atom_site_type_symbol
_atom_site_label
_atom_site_fract_x
_atom_site_fract_y
_atom_site_fract_z
Si Si1 0.159485 0.429909 0.902784
Si Si2 0.077795 0.928763 0.462038
Si Si3 0.250000 0.422257 0.465740
Si Si4 0.250000 0.078875 0.296879
Si Si5 0.494562 0.928863 0.826014
Si Si6 0.077176 0.071050 0.038550
Si Si7 0.080962 0.927314 0.297239
O O1 0.250000 0.470643 0.879524
O O2 0.149626 0.250000 0.895907
O O3 0.088814 0.510460 0.859661
O O4 0.149400 0.466336 0.985313
O O5 0.079116 0.750000 0.471764
O O6 0.069522 0.959337 0.379198
O O7 0.165214 0.996858 0.485585
O O8 0.000000 0.000000 0.500000
O O9 0.250000 0.250000 0.489297
O O10 0.250000 0.421623 0.381303
O O11 0.250000 0.250000 0.272804
O O12 0.167918 0.995945 0.275678
O O13 0.492048 0.750000 0.820772
O O14 0.566585 0.973113 0.881095
O O15 0.513663 0.000056 0.751965
O O16 0.069869 0.250000 0.038005
O O17 0.000000 0.000000 0.000000
O O18 0.081824 0.750000 0.288569
#
# Coordination Sequence:
#
# PCOD9447890 Si02
#       7
#     8   8   4   4   8   8   8
#     4   9  17  31  51  71  94 130 172 211 256 308
#     4  10  20  34  55  81 108 141 178 219 264 315
#     4   9  17  31  53  79 107 137 170 209 254 311
#     4   9  17  31  51  75 101 131 166 205 250 299
#     4  10  19  31  49  73 101 133 169 211 257 302
#     4   8  15  28  45  67  91 120 159 200 246 295
#     4  10  20  34  52  75 106 139 172 208 255 310
#
# _framework density 16.981327
#
# number of rings (size 3 to 8) (size 9 to 14) (size 15 to 20)
#    0.000    2.667    0.000    2.000    0.000    5.000 
#    1.500    0.000    1.833    0.000    0.000    0.000 
#    0.000    0.000    0.000    0.000    0.000    0.000 
#
# Total GULP energy -267242.394728 kJ/mol
# GULP energy per Si atom -5567.549890 kJ/mol
# Density = 1.694268 g / cm^3
# Si number density = 16.981327 Si / 1000 Ang^3
#
#
#
# Elastic Constant Matrix: (Units=GPa)
#
#
# Indices 1 2 3 4 5 6 
#
# 1 125.9059 59.5954 55.8049 0.0000 0.0000 0.0000
# 2 59.5954 68.5465 51.1692 0.0000 0.0000 0.0000
# 3 55.8049 51.1692 64.0289 0.0000 0.0000 0.0000
# 4 0.0000 0.0000 0.0000 21.3775 0.0000 0.0000
# 5 0.0000 0.0000 0.0000 0.0000 24.2705 0.0000
# 6 0.0000 0.0000 0.0000 0.0000 0.0000 27.8773
#
#
#
# Elastic Compliance Matrix: (Units=1/GPa)
#
#
# Indices 1 2 3 4 5 6 
#
# 1 0.014465 -0.007845 -0.006337 0.000000 0.000000 0.000000
# 2 -0.007845 0.040416 -0.025461 0.000000 0.000000 0.000000
# 3 -0.006337 -0.025461 0.041489 0.000000 0.000000 0.000000
# 4 0.000000 0.000000 0.000000 0.046778 0.000000 0.000000
# 5 0.000000 0.000000 0.000000 0.000000 0.041202 0.000000
# 6 0.000000 0.000000 0.000000 0.000000 0.000000 0.035871
#
#
# Mechanical properties :
#
#
# Convention : Reuss Voigt Hill
#
# Bulk Modulus (GPa) = 58.54083 65.73558 62.13820
# Shear Modulus (GPa) = 16.38257 20.83252 18.60754
#
# Velocity S-wave (km/s) = 3.10940 3.50636 3.31383
# Velocity P-wave (km/s) = 6.88764 7.42881 7.16334
#
# Compressibility (1/GPa) = 0.01708210
#
# Stress axis : x y z
#
# Youngs Moduli (GPa) = 69.13426 24.74280 24.10280
#
# Poissons Ratio (x) = 0.19411 0.15275
# Poissons Ratio (y) = 0.54236 0.61369
# Poissons Ratio (z) = 0.43813 0.62998
#
# Static dielectric constant tensor:
#      x y z
#    x 1.573850 0.000000 0.000000 
#    y 0.000000 1.566350 0.000000 
#    z 0.000000 0.000000 1.582940 
# 
# From -- ./inp_files/27402.got.cif
#   From: 2010.05.17/outbox.cif.g08.bks.cpg/sg59_14_cif.got.tgz:27402.got - 2010.06.03 14:40:33.
