data_PCOD9447298
_publ_section_title
;
Structure prediction by ZEFSAII (Michael W. Deem and Ramdas Pophale) SiO2 
 PCOD9447298
Probable space group: P M M N
;
_chemical_formula_sum "Si O2"
_cell_formula_units_Z 64
_cell_length_a 17.329184
_cell_length_b 15.522386
_cell_length_c 11.776410
_cell_angle_alpha 90.000000
_cell_angle_beta 90.000000
_cell_angle_gamma 90.000000
_cell_volume 3167.739860
_symmetry_space_group_name_H-M "P M M N"
_symmetry_group_IT_number 59
_space_group.IT_coordinate_system_code '2'
_symmetry_cell_setting 'orthorhombic'
loop_
_space_group_symop_operation_xyz
x,y,z
1/2-x,1/2-y,z
1/2+x,-y,-z
-x,1/2+y,-z
-x,-y,-z
1/2+x,1/2+y,-z
1/2-x,y,z
x,1/2-y,z
loop_
_atom_site_type_symbol
_atom_site_label
_atom_site_fract_x
_atom_site_fract_y
_atom_site_fract_z
Si Si1 0.657955 0.348010 0.709684
Si Si2 0.503587 0.344283 0.388610
Si Si3 0.663695 0.025786 0.123087
Si Si4 0.892483 0.654271 0.049262
Si Si5 0.616535 0.984000 0.586604
Si Si6 0.588968 0.907090 0.807596
Si Si7 0.933937 0.091695 0.918882
Si Si8 0.333819 0.581788 0.617055
O O1 0.750000 0.367407 0.705384
O O2 0.646710 0.250000 0.670962
O O3 0.611975 0.418948 0.636470
O O4 0.624433 0.357906 0.836572
O O5 0.478604 0.250000 0.428920
O O6 0.458439 0.426052 0.441066
O O7 0.478275 0.355071 0.256422
O O8 0.593845 0.356971 0.402803
O O9 0.750000 0.046454 0.082196
O O10 0.649856 0.923943 0.110446
O O11 0.658214 0.050994 0.253843
O O12 0.604159 0.073475 0.040457
O O13 0.871795 0.750000 0.086089
O O14 0.983940 0.637280 0.068631
O O15 0.877267 0.642424 0.914342
O O16 0.660554 0.001478 0.470253
O O17 0.644534 0.932857 0.700931
O O18 0.557728 0.997273 0.859507
O O19 0.250000 0.622877 0.600188
#
# Coordination Sequence:
#
# PCOD9447298 Si02
#       8
#     8   8   8   8   8   8   8   8
#     4  10  20  35  59  91 124 158 199 252 310 358
#     4  10  20  37  61  92 120 149 198 247 294 353
#     4  10  22  37  57  82 117 165 201 237 293 361
#     4  11  20  33  58  88 117 151 199 254 296 349
#     4   9  21  38  61  86 119 158 198 251 301 347
#     4   8  18  33  59  83 114 148 196 246 296 344
#     4  10  18  35  56  86 120 156 198 240 301 359
#     4  11  22  39  61  85 119 161 199 239 299 357
#
# _framework density 20.203678
#
# number of rings (size 3 to 8) (size 9 to 14) (size 15 to 20)
#    0.750    1.375    0.000    4.875    0.000    1.000 
#    0.000    1.875    0.000    3.750    0.000    0.000 
#    0.000    0.000    0.000    0.000    0.000    0.000 
#
# Total GULP energy -356401.740480 kJ/mol
# GULP energy per Si atom -5568.777195 kJ/mol
# Density = 2.015769 g / cm^3
# Si number density = 20.203678 Si / 1000 Ang^3
#
#
#
# Elastic Constant Matrix: (Units=GPa)
#
#
# Indices 1 2 3 4 5 6 
#
# 1 61.5791 31.6698 21.6055 0.0000 0.0000 0.0000
# 2 31.6698 96.1852 7.5468 0.0000 0.0000 0.0000
# 3 21.6055 7.5468 67.8463 0.0000 0.0000 0.0000
# 4 0.0000 0.0000 0.0000 6.1219 0.0000 0.0000
# 5 0.0000 0.0000 0.0000 0.0000 13.2769 0.0000
# 6 0.0000 0.0000 0.0000 0.0000 0.0000 4.6451
#
#
#
# Elastic Compliance Matrix: (Units=1/GPa)
#
#
# Indices 1 2 3 4 5 6 
#
# 1 0.021874 -0.006714 -0.006219 0.000000 0.000000 0.000000
# 2 -0.006714 0.012549 0.000742 0.000000 0.000000 0.000000
# 3 -0.006219 0.000742 0.016637 0.000000 0.000000 0.000000
# 4 0.000000 0.000000 0.000000 0.163348 0.000000 0.000000
# 5 0.000000 0.000000 0.000000 0.000000 0.075319 0.000000
# 6 0.000000 0.000000 0.000000 0.000000 0.000000 0.215280
#
#
# Mechanical properties :
#
#
# Convention : Reuss Voigt Hill
#
# Bulk Modulus (GPa) = 37.48346 38.58387 38.03367
# Shear Modulus (GPa) = 9.28882 15.79470 12.54176
#
# Velocity S-wave (km/s) = 2.14652 2.79905 2.49422
# Velocity P-wave (km/s) = 4.97358 5.43923 5.21161
#
# Compressibility (1/GPa) = 0.02667843
#
# Stress axis : x y z
#
# Youngs Moduli (GPa) = 45.71544 79.68679 60.10681
#
# Poissons Ratio (x) = 0.53505 0.37380
# Poissons Ratio (y) = 0.30695 -0.04462
# Poissons Ratio (z) = 0.28430 -0.05915
#
# Static dielectric constant tensor:
#      x y z
#    x 1.748300 0.000000 0.000000 
#    y 0.000000 1.721350 0.000000 
#    z 0.000000 0.000000 1.746110 
# 
# From -- ./inp_files/17971.got.cif
#   From: 2010.05.17/outbox.cif.g08.bks.cpg/sg59_9_cif.got.tgz:17971.got - 2010.06.03 14:40:33.
