data_PCOD9447263
_publ_section_title
;
Structure prediction by ZEFSAII (Michael W. Deem and Ramdas Pophale) SiO2 
 PCOD9447263
Probable space group: P M M N
;
_chemical_formula_sum "Si O2"
_cell_formula_units_Z 56
_cell_length_a 8.012526
_cell_length_b 22.752599
_cell_length_c 15.266118
_cell_angle_alpha 90.000000
_cell_angle_beta 90.000000
_cell_angle_gamma 90.000000
_cell_volume 2783.101718
_symmetry_space_group_name_H-M "P M M N"
_symmetry_group_IT_number 59
_space_group.IT_coordinate_system_code '2'
_symmetry_cell_setting 'orthorhombic'
loop_
_space_group_symop_operation_xyz
x,y,z
1/2-x,1/2-y,z
1/2+x,-y,-z
-x,1/2+y,-z
-x,-y,-z
1/2+x,1/2+y,-z
1/2-x,y,z
x,1/2-y,z
loop_
_atom_site_type_symbol
_atom_site_label
_atom_site_fract_x
_atom_site_fract_y
_atom_site_fract_z
Si Si1 0.060030 0.250000 0.248108
Si Si2 0.450932 0.950427 0.790450
Si Si3 0.549509 0.183627 0.731739
Si Si4 0.549255 0.077895 0.852029
Si Si5 0.045214 0.880305 0.962309
Si Si6 0.448901 0.636618 0.645455
Si Si7 0.949632 0.682764 0.465886
Si Si8 0.558705 0.250000 0.056542
O O1 0.250000 0.250000 0.216418
O O2 0.028055 0.307065 0.306774
O O3 0.945358 0.250000 0.162359
O O4 0.250000 0.949226 0.791914
O O5 0.510175 0.910000 0.871805
O O6 0.505421 0.920630 0.699484
O O7 0.503555 0.016819 0.807347
O O8 0.750000 0.185844 0.740873
O O9 0.485192 0.250000 0.747747
O O10 0.485705 0.133942 0.797373
O O11 0.509846 0.167630 0.631316
O O12 0.750000 0.081542 0.853756
O O13 0.492510 0.082946 0.952754
O O14 0.250000 0.878620 0.959478
O O15 0.986028 0.812850 0.970952
O O16 0.250000 0.641834 0.655081
O O17 0.491097 0.640725 0.543382
O O18 0.750000 0.683478 0.466086
O O19 0.008891 0.750000 0.484247
O O20 0.750000 0.250000 0.024308
#
# Coordination Sequence:
#
# PCOD9447263 Si02
#       8
#     4   8   8   8   8   8   8   4
#     4  12  22  32  50  81 118 147 180 229 280 326
#     4  10  21  37  55  79 111 151 191 223 270 335
#     4   9  19  36  57  82 110 142 183 230 279 334
#     4  10  21  36  57  83 109 143 189 236 280 324
#     4   9  18  33  56  83 110 145 189 230 274 326
#     4  11  21  35  57  82 111 150 189 223 269 331
#     4  10  20  34  55  85 115 142 177 227 284 334
#     4  10  18  34  56  79 112 149 186 229 274 326
#
# _framework density 20.121435000000002
#
# number of rings (size 3 to 8) (size 9 to 14) (size 15 to 20)
#    0.000    2.000    2.143    1.929    1.000    2.286 
#    0.000    1.429    0.000    0.000    0.000    0.000 
#    0.000    0.000    0.000    0.000    0.000    0.000 
#
# Total GULP energy -312671.490344 kJ/mol
# GULP energy per Si atom -5583.419470 kJ/mol
# Density = 2.007564 g / cm^3
# Si number density = 20.121435 Si / 1000 Ang^3
#
#
#
# Elastic Constant Matrix: (Units=GPa)
#
#
# Indices 1 2 3 4 5 6 
#
# 1 24.1222 4.7433 1.0924 0.0000 0.0000 0.0000
# 2 4.7433 92.6177 29.4346 0.0000 0.0000 0.0000
# 3 1.0924 29.4346 68.9393 0.0000 0.0000 0.0000
# 4 0.0000 0.0000 0.0000 25.2080 0.0000 0.0000
# 5 0.0000 0.0000 0.0000 0.0000 8.6120 0.0000
# 6 0.0000 0.0000 0.0000 0.0000 0.0000 21.0736
#
#
#
# Elastic Compliance Matrix: (Units=1/GPa)
#
#
# Indices 1 2 3 4 5 6 
#
# 1 0.041882 -0.002238 0.000292 0.000000 0.000000 0.000000
# 2 -0.002238 0.012612 -0.005349 0.000000 0.000000 0.000000
# 3 0.000292 -0.005349 0.016785 0.000000 0.000000 0.000000
# 4 0.000000 0.000000 0.000000 0.039670 0.000000 0.000000
# 5 0.000000 0.000000 0.000000 0.000000 0.116117 0.000000
# 6 0.000000 0.000000 0.000000 0.000000 0.000000 0.047453
#
#
# Mechanical properties :
#
#
# Convention : Reuss Voigt Hill
#
# Bulk Modulus (GPa) = 17.64023 28.46885 23.05454
# Shear Modulus (GPa) = 16.23350 21.00598 18.61974
#
# Velocity S-wave (km/s) = 2.84346 3.23454 3.04529
# Velocity P-wave (km/s) = 4.42338 5.30367 4.88340
#
# Compressibility (1/GPa) = 0.05668861
#
# Stress axis : x y z
#
# Youngs Moduli (GPa) = 23.87635 79.29128 59.57750
#
# Poissons Ratio (x) = 0.17743 -0.01738
# Poissons Ratio (y) = 0.05343 0.31870
# Poissons Ratio (z) = -0.00697 0.42415
#
# Static dielectric constant tensor:
#      x y z
#    x 1.733240 0.000000 0.000000 
#    y 0.000000 1.716060 0.000000 
#    z 0.000000 0.000000 1.699160 
# 
# From -- ./inp_files/21160.got.cif
#   From: 2010.05.17/outbox.cif.g08.bks.cpg/sg59_11_cif.got.tgz:21160.got - 2010.06.03 14:40:33.
