data_PCOD9447204
_publ_section_title
;
Structure prediction by ZEFSAII (Michael W. Deem and Ramdas Pophale) SiO2 
 PCOD9447204
Probable space group: P M M N
;
_chemical_formula_sum "Si O2"
_cell_formula_units_Z 64
_cell_length_a 7.910652
_cell_length_b 20.308067
_cell_length_c 19.129950
_cell_angle_alpha 90.000000
_cell_angle_beta 90.000000
_cell_angle_gamma 90.000000
_cell_volume 3073.227440
_symmetry_space_group_name_H-M "P M M N"
_symmetry_group_IT_number 59
_space_group.IT_coordinate_system_code '2'
_symmetry_cell_setting 'orthorhombic'
loop_
_space_group_symop_operation_xyz
x,y,z
1/2-x,1/2-y,z
1/2+x,-y,-z
-x,1/2+y,-z
-x,-y,-z
1/2+x,1/2+y,-z
1/2-x,y,z
x,1/2-y,z
loop_
_atom_site_type_symbol
_atom_site_label
_atom_site_fract_x
_atom_site_fract_y
_atom_site_fract_z
Si Si1 0.451368 0.488135 0.712840
Si Si2 0.551165 0.931458 0.919278
Si Si3 0.449294 0.432402 0.860602
Si Si4 0.451144 0.180930 0.174748
Si Si5 0.045061 0.633891 0.681800
Si Si6 0.043226 0.823517 0.527668
Si Si7 0.552003 0.173477 0.963838
Si Si8 0.952380 0.054000 0.559109
O O1 0.250000 0.493559 0.723179
O O2 0.516180 0.453874 0.783770
O O3 0.520044 0.561671 0.701945
O O4 0.480367 0.456010 0.637172
O O5 0.750000 0.944090 0.911201
O O6 0.477352 0.886180 0.856810
O O7 0.472167 0.004092 0.912481
O O8 0.529994 0.879365 0.982608
O O9 0.250000 0.419753 0.855836
O O10 0.530591 0.365990 0.891046
O O11 0.250000 0.179421 0.161545
O O12 0.517667 0.250000 0.144133
O O13 0.484369 0.180043 0.256544
O O14 0.250000 0.633621 0.681202
O O15 0.989003 0.654994 0.605155
O O16 0.250000 0.824197 0.528257
O O17 0.987193 0.750000 0.512527
O O18 0.987142 0.876876 0.472001
O O19 0.750000 0.175982 0.981136
O O20 0.489036 0.250000 0.964247
O O21 0.750000 0.053494 0.563422
O O22 0.000000 0.000000 0.500000
#
# Coordination Sequence:
#
# PCOD9447204 Si02
#       8
#     8   8   8   8   8   8   8   8
#     4  10  21  38  59  87 117 148 195 244 290 350
#     4  11  22  38  62  90 123 160 199 241 293 358
#     4  11  23  41  65  90 122 158 197 250 303 358
#     4  10  21  34  49  78 120 158 192 233 282 341
#     4  10  18  33  55  78 110 149 192 237 281 344
#     4   9  18  33  53  79 110 146 188 232 281 338
#     4  11  25  44  65  90 120 155 201 253 302 358
#     4  11  21  35  58  84 114 152 193 241 290 343
#
# _framework density 20.825011
#
# number of rings (size 3 to 8) (size 9 to 14) (size 15 to 20)
#    0.000    1.625    2.500    2.625    0.000    4.250 
#    0.000    0.625    0.000    4.500    0.000    0.000 
#    0.000    0.000    0.000    0.000    0.000    0.000 
#
# Total GULP energy -357111.277593 kJ/mol
# GULP energy per Si atom -5579.863712 kJ/mol
# Density = 2.077761 g / cm^3
# Si number density = 20.825011 Si / 1000 Ang^3
#
#
#
# Elastic Constant Matrix: (Units=GPa)
#
#
# Indices 1 2 3 4 5 6 
#
# 1 26.1057 -4.8094 -9.7236 0.0000 0.0000 0.0000
# 2 -4.8094 144.1433 68.7142 0.0000 0.0000 0.0000
# 3 -9.7236 68.7142 99.5807 0.0000 0.0000 0.0000
# 4 0.0000 0.0000 0.0000 -68.2009 0.0000 0.0000
# 5 0.0000 0.0000 0.0000 0.0000 23.6367 0.0000
# 6 0.0000 0.0000 0.0000 0.0000 0.0000 15.8637
#
#
#
# Elastic Compliance Matrix: (Units=1/GPa)
#
#
# Indices 1 2 3 4 5 6 
#
# 1 0.039811 -0.000782 0.004427 0.000000 0.000000 0.000000
# 2 -0.000782 0.010354 -0.007221 0.000000 0.000000 0.000000
# 3 0.004427 -0.007221 0.015457 0.000000 0.000000 0.000000
# 4 0.000000 0.000000 0.000000 -0.014663 0.000000 0.000000
# 5 0.000000 0.000000 0.000000 0.000000 0.042307 0.000000
# 6 0.000000 0.000000 0.000000 0.000000 0.000000 0.063037
#
#
# Mechanical properties :
#
#
# Convention : Reuss Voigt Hill
#
# Bulk Modulus (GPa) = 17.10292 42.02135 29.56214
# Shear Modulus (GPa) = 27.33073 8.63647 17.98360
#
# Velocity S-wave (km/s) = 3.62664 2.03867 2.94182
# Velocity P-wave (km/s) = 5.07614 5.07579 5.07596
#
# Compressibility (1/GPa) = 0.05846954
#
# Stress axis : x y z
#
# Youngs Moduli (GPa) = 25.11891 96.58461 64.69588
#
# Poissons Ratio (x) = 0.07554 -0.28641
# Poissons Ratio (y) = 0.01965 0.46715
# Poissons Ratio (z) = -0.11120 0.69741
#
# Static dielectric constant tensor:
#      x y z
#    x 1.743900 0.000000 0.000000 
#    y 0.000000 1.768980 0.000000 
#    z 0.000000 0.000000 1.792110 
# 
# From -- ./inp_files/26210.got.cif
#   From: 2010.05.17/outbox.cif.g08.bks.cpg/sg59_14_cif.got.tgz:26210.got - 2010.06.03 14:40:33.
