data_PCOD9447012
_publ_section_title
;
Structure prediction by ZEFSAII (Michael W. Deem and Ramdas Pophale) SiO2 
 PCOD9447012
Probable space group: P M M N
;
_chemical_formula_sum "Si O2"
_cell_formula_units_Z 56
_cell_length_a 23.934480
_cell_length_b 13.876339
_cell_length_c 9.037236
_cell_angle_alpha 90.000000
_cell_angle_beta 90.000000
_cell_angle_gamma 90.000000
_cell_volume 3001.473555
_symmetry_space_group_name_H-M "P M M N"
_symmetry_group_IT_number 59
_space_group.IT_coordinate_system_code '2'
_symmetry_cell_setting 'orthorhombic'
loop_
_space_group_symop_operation_xyz
x,y,z
1/2-x,1/2-y,z
1/2+x,-y,-z
-x,1/2+y,-z
-x,-y,-z
1/2+x,1/2+y,-z
1/2-x,y,z
x,1/2-y,z
loop_
_atom_site_type_symbol
_atom_site_label
_atom_site_fract_x
_atom_site_fract_y
_atom_site_fract_z
Si Si1 0.017563 0.359779 0.224240
Si Si2 0.395049 0.507630 0.308134
Si Si3 0.394494 0.860986 0.816867
Si Si4 0.684245 0.448728 0.943428
Si Si5 0.494044 0.861233 0.422339
Si Si6 0.315433 0.142780 0.872748
Si Si7 0.111546 0.047899 0.628073
O O1 0.035536 0.250000 0.193645
O O2 0.066945 0.436132 0.208157
O O3 0.000409 0.364833 0.399115
O O4 0.959506 0.378564 0.138900
O O5 0.344566 0.550525 0.215774
O O6 0.437941 0.587821 0.368893
O O7 0.374833 0.451204 0.454406
O O8 0.391504 0.750000 0.765872
O O9 0.381003 0.940484 0.692829
O O10 0.351694 0.880103 0.949500
O O11 0.750000 0.425877 0.942529
O O12 0.677048 0.556710 0.010441
O O13 0.496085 0.750000 0.377665
O O14 0.547157 0.918952 0.359865
O O15 0.250000 0.141462 0.832601
O O16 0.329291 0.250000 0.928382
O O17 0.351637 0.117089 0.729282
#
# Coordination Sequence:
#
# PCOD9447012 Si02
#       7
#     8   8   8   8   8   8   8
#     4   9  17  32  55  84 113 142 178 222 275 332
#     4  11  20  34  56  83 117 144 174 225 282 338
#     4  10  19  36  59  78 107 147 189 228 267 321
#     4  10  24  40  55  76 110 152 188 227 276 325
#     4  10  18  31  53  84 118 146 171 217 284 337
#     4   9  19  38  59  78 106 147 190 227 266 320
#     4  10  18  34  58  87 111 140 181 229 275 325
#
# _framework density 18.657502000000001
#
# number of rings (size 3 to 8) (size 9 to 14) (size 15 to 20)
#    0.000    2.143    2.857    1.286    0.000    3.143 
#    0.000    0.000    0.000    1.714    0.000    0.000 
#    0.000    0.000    0.000    0.000    0.000    0.000 
#
# Total GULP energy -312394.606002 kJ/mol
# GULP energy per Si atom -5578.475107 kJ/mol
# Density = 1.861504 g / cm^3
# Si number density = 18.657502 Si / 1000 Ang^3
#
#
#
# Elastic Constant Matrix: (Units=GPa)
#
#
# Indices 1 2 3 4 5 6 
#
# 1 54.7078 -0.1688 28.2947 0.0000 0.0000 0.0000
# 2 -0.1688 67.1196 -13.0311 0.0000 0.0000 0.0000
# 3 28.2947 -13.0311 31.9547 0.0000 0.0000 0.0000
# 4 0.0000 0.0000 0.0000 9.7253 0.0000 0.0000
# 5 0.0000 0.0000 0.0000 0.0000 24.1422 0.0000
# 6 0.0000 0.0000 0.0000 0.0000 0.0000 23.6730
#
#
#
# Elastic Compliance Matrix: (Units=1/GPa)
#
#
# Indices 1 2 3 4 5 6 
#
# 1 0.036281 -0.006674 -0.034847 0.000000 0.000000 0.000000
# 2 -0.006674 0.017408 0.013009 0.000000 0.000000 0.000000
# 3 -0.034847 0.013009 0.067455 0.000000 0.000000 0.000000
# 4 0.000000 0.000000 0.000000 0.102825 0.000000 0.000000
# 5 0.000000 0.000000 0.000000 0.000000 0.041421 0.000000
# 6 0.000000 0.000000 0.000000 0.000000 0.000000 0.042242
#
#
# Mechanical properties :
#
#
# Convention : Reuss Voigt Hill
#
# Bulk Modulus (GPa) = 15.59628 20.44131 18.01879
# Shear Modulus (GPa) = 12.95231 20.75392 16.85312
#
# Velocity S-wave (km/s) = 2.63765 3.33883 3.00874
# Velocity P-wave (km/s) = 4.20163 5.08366 4.66354
#
# Compressibility (1/GPa) = 0.06411787
#
# Stress axis : x y z
#
# Youngs Moduli (GPa) = 27.56238 57.44616 14.82464
#
# Poissons Ratio (x) = 0.38341 0.51660
# Poissons Ratio (y) = 0.18396 -0.19285
# Poissons Ratio (z) = 0.96048 -0.74730
#
# Static dielectric constant tensor:
#      x y z
#    x 1.635560 0.000000 0.000000 
#    y 0.000000 1.667420 0.000000 
#    z 0.000000 0.000000 1.652780 
# 
# From -- ./inp_files/9363.got.cif
#   From: 2010.05.17/outbox.cif.g08.bks.cpg/sg59_5_cif.got.tgz:9363.got - 2010.06.03 14:40:33.
