data_PCOD9447337
_publ_section_title
;
Structure prediction by ZEFSAII (Michael W. Deem and Ramdas Pophale) SiO2 
 PCOD9447337
Probable space group: P M M N
;
_chemical_formula_sum "Si O2"
_cell_formula_units_Z 64
_cell_length_a 8.982656
_cell_length_b 27.430239
_cell_length_c 17.596788
_cell_angle_alpha 90.000000
_cell_angle_beta 90.000000
_cell_angle_gamma 90.000000
_cell_volume 4335.785231
_symmetry_space_group_name_H-M "P M M N"
_symmetry_group_IT_number 59
_space_group.IT_coordinate_system_code '2'
_symmetry_cell_setting 'orthorhombic'
loop_
_space_group_symop_operation_xyz
x,y,z
1/2-x,1/2-y,z
1/2+x,-y,-z
-x,1/2+y,-z
-x,-y,-z
1/2+x,1/2+y,-z
1/2-x,y,z
x,1/2-y,z
loop_
_atom_site_type_symbol
_atom_site_label
_atom_site_fract_x
_atom_site_fract_y
_atom_site_fract_z
Si Si1 0.570983 0.447486 0.518953
Si Si2 0.929289 0.060292 0.831398
Si Si3 0.427816 0.574511 0.645971
Si Si4 0.427316 0.612808 0.020573
Si Si5 0.077588 0.372155 0.219564
Si Si6 0.430103 0.193604 0.084140
Si Si7 0.428771 0.461035 0.672816
Si Si8 0.077213 0.042586 0.094462
O O1 0.500000 0.500000 0.500000
O O2 0.750000 0.451204 0.524880
O O3 0.534862 0.417011 0.442840
O O4 0.500436 0.434447 0.599813
O O5 0.750000 0.059704 0.819680
O O6 0.011365 0.060795 0.751225
O O7 0.969068 0.009492 0.873302
O O8 0.966240 0.102588 0.891682
O O9 0.250000 0.575271 0.652562
O O10 0.494524 0.613076 0.704162
O O11 0.474199 0.518759 0.667954
O O12 0.250000 0.617326 0.014823
O O13 0.504064 0.659028 0.981144
O O14 0.479167 0.565762 0.971849
O O15 0.250000 0.362781 0.237565
O O16 0.020911 0.328418 0.165841
O O17 0.070338 0.419063 0.163859
O O18 0.250000 0.189159 0.082117
O O19 0.470369 0.250000 0.075649
O O20 0.250000 0.459209 0.668439
O O21 0.250000 0.039779 0.069448
#
# Coordination Sequence:
#
# PCOD9447337 Si02
#       8
#     8   8   8   8   8   8   8   8
#     4   9  17  28  40  56  81 115 152 184 215 251
#     4  10  19  30  42  59  87 120 150 182 219 259
#     4   9  17  27  39  59  85 112 144 180 215 251
#     4  10  20  30  44  66  87 110 144 184 225 265
#     4   9  16  26  44  65  82 109 146 180 215 258
#     4   9  19  36  52  64  84 114 146 181 224 272
#     4  10  19  28  40  60  84 117 155 186 219 252
#     4   9  17  29  42  58  84 119 152 177 213 258
#
# _framework density 14.760878
#
# number of rings (size 3 to 8) (size 9 to 14) (size 15 to 20)
#    0.000    2.625    1.250    3.000    0.000    6.250 
#    0.000    0.000    0.000    0.000    0.000    0.000 
#    0.000    1.000    0.000    7.500    0.000    3.875 
#
# Total GULP energy -356462.770405 kJ/mol
# GULP energy per Si atom -5569.730788 kJ/mol
# Density = 1.472728 g / cm^3
# Si number density = 14.760878 Si / 1000 Ang^3
#
#
#
# Elastic Constant Matrix: (Units=GPa)
#
#
# Indices 1 2 3 4 5 6 
#
# 1 34.5508 22.3332 50.2093 0.0000 0.0000 0.0000
# 2 22.3332 50.8465 47.6384 0.0000 0.0000 0.0000
# 3 50.2093 47.6384 142.6215 0.0000 0.0000 0.0000
# 4 0.0000 0.0000 0.0000 11.0581 0.0000 0.0000
# 5 0.0000 0.0000 0.0000 0.0000 28.0512 0.0000
# 6 0.0000 0.0000 0.0000 0.0000 0.0000 13.2087
#
#
#
# Elastic Compliance Matrix: (Units=1/GPa)
#
#
# Indices 1 2 3 4 5 6 
#
# 1 0.062542 -0.009958 -0.018692 0.000000 0.000000 0.000000
# 2 -0.009958 0.030211 -0.006585 0.000000 0.000000 0.000000
# 3 -0.018692 -0.006585 0.015791 0.000000 0.000000 0.000000
# 4 0.000000 0.000000 0.000000 0.090432 0.000000 0.000000
# 5 0.000000 0.000000 0.000000 0.000000 0.035649 0.000000
# 6 0.000000 0.000000 0.000000 0.000000 0.000000 0.075708
#
#
# Mechanical properties :
#
#
# Convention : Reuss Voigt Hill
#
# Bulk Modulus (GPa) = 26.26418 52.04228 39.15323
# Shear Modulus (GPa) = 12.70666 17.65278 15.17972
#
# Velocity S-wave (km/s) = 2.93718 3.46195 3.21031
# Velocity P-wave (km/s) = 5.41613 7.16335 6.35012
#
# Compressibility (1/GPa) = 0.03807467
#
# Stress axis : x y z
#
# Youngs Moduli (GPa) = 15.98917 33.10091 63.32540
#
# Poissons Ratio (x) = 0.32962 1.18365
# Poissons Ratio (y) = 0.15922 0.41701
# Poissons Ratio (z) = 0.29886 0.21798
#
# Static dielectric constant tensor:
#      x y z
#    x 1.522930 0.000000 0.000000 
#    y 0.000000 1.469960 0.000000 
#    z 0.000000 0.000000 1.514650 
# 
# From -- ./inp_files/26691.got.cif
#   From: 2010.05.17/outbox.cif.g08.bks.cpg/sg59_14_cif.got.tgz:26691.got - 2010.06.03 14:40:33.
