data_PCOD9447708
_publ_section_title
;
Structure prediction by ZEFSAII (Michael W. Deem and Ramdas Pophale) SiO2 
 PCOD9447708
Probable space group: P M M N
;
_chemical_formula_sum "Si O2"
_cell_formula_units_Z 56
_cell_length_a 21.621333
_cell_length_b 8.875140
_cell_length_c 17.173414
_cell_angle_alpha 90.000000
_cell_angle_beta 90.000000
_cell_angle_gamma 90.000000
_cell_volume 3295.446896
_symmetry_space_group_name_H-M "P M M N"
_symmetry_group_IT_number 59
_space_group.IT_coordinate_system_code '2'
_symmetry_cell_setting 'orthorhombic'
loop_
_space_group_symop_operation_xyz
x,y,z
1/2-x,1/2-y,z
1/2+x,-y,-z
-x,1/2+y,-z
-x,-y,-z
1/2+x,1/2+y,-z
1/2-x,y,z
x,1/2-y,z
loop_
_atom_site_type_symbol
_atom_site_label
_atom_site_fract_x
_atom_site_fract_y
_atom_site_fract_z
Si Si1 0.179127 0.430366 0.958803
Si Si2 0.128677 0.570646 0.804881
Si Si3 0.981789 0.570673 0.801269
Si Si4 0.477389 0.431418 0.377047
Si Si5 0.939792 0.070339 0.956744
Si Si6 0.322983 0.924537 0.637826
Si Si7 0.590817 0.571216 0.472302
O O1 0.250000 0.471907 0.980282
O O2 0.173377 0.250000 0.964949
O O3 0.165954 0.482449 0.870374
O O4 0.124155 0.507129 0.007955
O O5 0.142498 0.750000 0.810888
O O6 0.146186 0.520744 0.717946
O O7 0.055286 0.551542 0.815799
O O8 0.968469 0.750000 0.808629
O O9 0.968853 0.522110 0.712291
O O10 0.946101 0.479024 0.866963
O O11 0.484087 0.250000 0.375614
O O12 0.538648 0.498688 0.416589
O O13 0.423684 0.472072 0.438526
O O14 0.941778 0.250000 0.966252
O O15 0.000000 0.000000 0.000000
O O16 0.250000 0.930814 0.647687
O O17 0.341933 0.750000 0.627627
O O18 0.345509 0.015452 0.563404
O O19 0.585571 0.750000 0.467161
#
# Coordination Sequence:
#
# PCOD9447708 Si02
#       7
#     8   8   8   8   8   8   8
#     4  11  24  40  58  81 111 146 184 227 274 328
#     4  10  19  33  55  79 107 146 184 219 263 321
#     4  10  19  34  57  81 109 142 179 225 271 318
#     4   9  18  34  53  74 103 138 173 212 262 315
#     4  12  24  38  58  83 112 145 183 227 275 327
#     4  10  20  34  51  72 105 148 184 214 257 316
#     4  10  19  30  50  77 104 135 173 218 260 304
#
# _framework density 16.993144000000001
#
# number of rings (size 3 to 8) (size 9 to 14) (size 15 to 20)
#    0.000    1.714    2.857    2.571    0.000    3.714 
#    0.000    0.000    0.000    0.857    0.000    2.000 
#    0.000    0.000    0.000    0.000    0.000    0.000 
#
# Total GULP energy -312520.024785 kJ/mol
# GULP energy per Si atom -5580.714728 kJ/mol
# Density = 1.695447 g / cm^3
# Si number density = 16.993144 Si / 1000 Ang^3
#
#
#
# Elastic Constant Matrix: (Units=GPa)
#
#
# Indices 1 2 3 4 5 6 
#
# 1 85.2530 41.5941 49.1033 0.0000 0.0000 0.0000
# 2 41.5941 54.7150 43.1428 0.0000 0.0000 0.0000
# 3 49.1033 43.1428 115.0478 0.0000 0.0000 0.0000
# 4 0.0000 0.0000 0.0000 27.6863 0.0000 0.0000
# 5 0.0000 0.0000 0.0000 0.0000 21.9166 0.0000
# 6 0.0000 0.0000 0.0000 0.0000 0.0000 25.2622
#
#
#
# Elastic Compliance Matrix: (Units=1/GPa)
#
#
# Indices 1 2 3 4 5 6 
#
# 1 0.019860 -0.011946 -0.003997 0.000000 0.000000 0.000000
# 2 -0.011946 0.033135 -0.007327 0.000000 0.000000 0.000000
# 3 -0.003997 -0.007327 0.013145 0.000000 0.000000 0.000000
# 4 0.000000 0.000000 0.000000 0.036119 0.000000 0.000000
# 5 0.000000 0.000000 0.000000 0.000000 0.045628 0.000000
# 6 0.000000 0.000000 0.000000 0.000000 0.000000 0.039585
#
#
# Mechanical properties :
#
#
# Convention : Reuss Voigt Hill
#
# Bulk Modulus (GPa) = 51.01725 58.07737 54.54731
# Shear Modulus (GPa) = 20.78605 23.05139 21.91872
#
# Velocity S-wave (km/s) = 3.50123 3.68708 3.59535
# Velocity P-wave (km/s) = 6.81412 7.23721 7.02885
#
# Compressibility (1/GPa) = 0.01960121
#
# Stress axis : x y z
#
# Youngs Moduli (GPa) = 50.35187 30.17924 76.07207
#
# Poissons Ratio (x) = 0.36053 0.30403
# Poissons Ratio (y) = 0.60152 0.55738
# Poissons Ratio (z) = 0.20124 0.22112
#
# Static dielectric constant tensor:
#      x y z
#    x 1.572530 0.000000 0.000000 
#    y 0.000000 1.576880 0.000000 
#    z 0.000000 0.000000 1.584760 
# 
# From -- ./inp_files/28048.got.cif
#   From: 2010.05.17/outbox.cif.g08.bks.cpg/sg59_15_cif.got.tgz:28048.got - 2010.06.03 14:40:33.
