data_PCOD9447050
_publ_section_title
;
Structure prediction by ZEFSAII (Michael W. Deem and Ramdas Pophale) SiO2 
 PCOD9447050
Probable space group: P M M N
;
_chemical_formula_sum "Si O2"
_cell_formula_units_Z 48
_cell_length_a 10.208773
_cell_length_b 7.733839
_cell_length_c 29.083265
_cell_angle_alpha 90.000000
_cell_angle_beta 90.000000
_cell_angle_gamma 90.000000
_cell_volume 2296.211218
_symmetry_space_group_name_H-M "P M M N"
_symmetry_group_IT_number 59
_space_group.IT_coordinate_system_code '2'
_symmetry_cell_setting 'orthorhombic'
loop_
_space_group_symop_operation_xyz
x,y,z
1/2-x,1/2-y,z
1/2+x,-y,-z
-x,1/2+y,-z
-x,-y,-z
1/2+x,1/2+y,-z
1/2-x,y,z
x,1/2-y,z
loop_
_atom_site_type_symbol
_atom_site_label
_atom_site_fract_x
_atom_site_fract_y
_atom_site_fract_z
Si Si1 0.031049 0.038352 0.103425
Si Si2 0.604992 0.538407 0.793879
Si Si3 0.603059 0.955963 0.539193
Si Si4 0.250000 0.546203 0.925432
Si Si5 0.898023 0.452022 0.643726
Si Si6 0.898221 0.454174 0.279906
Si Si7 0.750000 0.959402 0.968145
O O1 0.031693 0.250000 0.103012
O O2 0.084007 0.986729 0.153241
O O3 0.124473 0.984911 0.061640
O O4 0.884300 0.974799 0.094978
O O5 0.750000 0.484225 0.777922
O O6 0.603665 0.750000 0.792830
O O7 0.488097 0.474637 0.761463
O O8 0.750000 0.016656 0.526800
O O9 0.606095 0.750000 0.543966
O O10 0.500000 0.000000 0.500000
O O11 0.572112 0.028289 0.589666
O O12 0.250000 0.750000 0.914371
O O13 0.250000 0.526876 0.980324
O O14 0.750000 0.525034 0.651448
O O15 0.892879 0.250000 0.654811
O O16 0.012840 0.528355 0.674708
O O17 0.750000 0.524931 0.283648
O O18 0.885111 0.250000 0.270954
O O19 0.750000 0.750000 0.970499
#
# Coordination Sequence:
#
# PCOD9447050 Si02
#       7
#     8   8   8   4   8   8   4
#     4   9  17  29  47  72  98 127 164 208 255 305
#     4   9  16  29  50  75 101 130 169 216 263 313
#     4  10  21  37  59  87 118 153 193 236 281 327
#     4  10  20  30  46  72 100 126 158 208 261 300
#     4  10  21  38  59  81 109 149 193 231 272 326
#     4  10  21  34  53  83 112 138 173 223 279 330
#     4  10  18  32  50  68  94 130 170 202 243 310
#
# _framework density 20.904
#
# number of rings (size 3 to 8) (size 9 to 14) (size 15 to 20)
#    0.000    2.333    0.833    2.000    1.167    3.667 
#    0.000    0.000    0.000    2.000    0.000    0.000 
#    0.000    0.000    0.000    0.000    0.000    0.000 
#
# Total GULP energy -267999.545023 kJ/mol
# GULP energy per Si atom -5583.323855 kJ/mol
# Density = 2.085642 g / cm^3
# Si number density = 20.904000 Si / 1000 Ang^3
#
#
#
# Elastic Constant Matrix: (Units=GPa)
#
#
# Indices 1 2 3 4 5 6 
#
# 1 177.3909 3.5276 69.7065 0.0000 0.0000 0.0000
# 2 3.5276 33.3053 -11.2672 0.0000 0.0000 0.0000
# 3 69.7065 -11.2672 86.4660 0.0000 0.0000 0.0000
# 4 0.0000 0.0000 0.0000 15.6485 0.0000 0.0000
# 5 0.0000 0.0000 0.0000 0.0000 38.7616 0.0000
# 6 0.0000 0.0000 0.0000 0.0000 0.0000 6.8719
#
#
#
# Elastic Compliance Matrix: (Units=1/GPa)
#
#
# Indices 1 2 3 4 5 6 
#
# 1 0.008606 -0.003409 -0.007382 0.000000 0.000000 0.000000
# 2 -0.003409 0.032760 0.007017 0.000000 0.000000 0.000000
# 3 -0.007382 0.007017 0.018431 0.000000 0.000000 0.000000
# 4 0.000000 0.000000 0.000000 0.063904 0.000000 0.000000
# 5 0.000000 0.000000 0.000000 0.000000 0.025799 0.000000
# 6 0.000000 0.000000 0.000000 0.000000 0.000000 0.145520
#
#
# Mechanical properties :
#
#
# Convention : Reuss Voigt Hill
#
# Bulk Modulus (GPa) = 19.13906 46.78845 32.96375
# Shear Modulus (GPa) = 15.62580 27.93609 21.78094
#
# Velocity S-wave (km/s) = 2.73702 3.65965 3.23143
# Velocity P-wave (km/s) = 4.37766 6.34732 5.45217
#
# Compressibility (1/GPa) = 0.05224918
#
# Stress axis : x y z
#
# Youngs Moduli (GPa) = 116.20017 30.52485 54.25710
#
# Poissons Ratio (x) = 0.10405 0.40053
# Poissons Ratio (y) = 0.39611 -0.38072
# Poissons Ratio (z) = 0.85779 -0.21419
#
# Static dielectric constant tensor:
#      x y z
#    x 1.769630 0.000000 0.000000 
#    y 0.000000 1.782230 0.000000 
#    z 0.000000 0.000000 1.705040 
# 
# From -- ./inp_files/33086.got.cif
#   From: 2010.05.17/outbox.cif.g08.bks.cpg/sg59_17_cif.got.tgz:33086.got - 2010.06.03 14:40:33.
