data_PCOD9447769
_publ_section_title
;
Structure prediction by ZEFSAII (Michael W. Deem and Ramdas Pophale) SiO2 
 PCOD9447769
Probable space group: P M M N
;
_chemical_formula_sum "Si O2"
_cell_formula_units_Z 56
_cell_length_a 9.131251
_cell_length_b 14.767930
_cell_length_c 19.321000
_cell_angle_alpha 90.000000
_cell_angle_beta 90.000000
_cell_angle_gamma 90.000000
_cell_volume 2605.430582
_symmetry_space_group_name_H-M "P M M N"
_symmetry_group_IT_number 59
_space_group.IT_coordinate_system_code '2'
_symmetry_cell_setting 'orthorhombic'
loop_
_space_group_symop_operation_xyz
x,y,z
1/2-x,1/2-y,z
1/2+x,-y,-z
-x,1/2+y,-z
-x,-y,-z
1/2+x,1/2+y,-z
1/2-x,y,z
x,1/2-y,z
loop_
_atom_site_type_symbol
_atom_site_label
_atom_site_fract_x
_atom_site_fract_y
_atom_site_fract_z
Si Si1 0.417219 0.613257 0.136011
Si Si2 0.928070 0.599977 0.998832
Si Si3 0.917416 0.138919 0.588493
Si Si4 0.578664 0.639643 0.550086
Si Si5 0.912607 0.643404 0.277142
Si Si6 0.580726 0.858965 0.700983
Si Si7 0.417348 0.103704 0.149798
O O1 0.250000 0.645103 0.132700
O O2 0.508637 0.643112 0.068717
O O3 0.495005 0.637695 0.207318
O O4 0.411987 0.503902 0.138391
O O5 0.750000 0.595773 0.000889
O O6 0.973161 0.640600 0.923988
O O7 0.000000 0.500000 0.000000
O O8 0.750000 0.109930 0.592507
O O9 0.918446 0.250000 0.588705
O O10 0.990505 0.108777 0.516905
O O11 0.003548 0.106004 0.656179
O O12 0.750000 0.614935 0.544443
O O13 0.574190 0.750000 0.548790
O O14 0.520462 0.611768 0.626095
O O15 0.750000 0.604127 0.268216
O O16 0.896973 0.750000 0.291422
O O17 0.750000 0.892715 0.702506
O O18 0.585635 0.750000 0.699237
O O19 0.510337 0.882183 0.775208
O O20 0.250000 0.138441 0.156251
#
# Coordination Sequence:
#
# PCOD9447769 Si02
#       7
#     8   8   8   8   8   8   8
#     4  10  19  31  48  68  92 122 154 190 233 281
#     4   9  16  28  46  67  91 120 158 199 233 270
#     4   9  16  26  42  64  90 119 148 179 219 267
#     4   8  13  22  39  63  88 115 148 183 217 255
#     4  10  20  33  49  69  92 116 147 190 234 276
#     4   8  13  23  42  68  95 120 148 185 226 264
#     4   8  15  27  44  67  92 120 155 192 228 265
#
# _framework density 21.493566999999999
#
# number of rings (size 3 to 8) (size 9 to 14) (size 15 to 20)
#    0.000    3.143    0.000    3.429    0.000    2.571 
#    0.000    0.714    0.000    8.571    0.000    0.000 
#    0.000    0.000    0.000    0.000    0.000    0.000 
#
# Total GULP energy -312007.190785 kJ/mol
# GULP energy per Si atom -5571.556978 kJ/mol
# Density = 2.144465 g / cm^3
# Si number density = 21.493567 Si / 1000 Ang^3
#
#
#
# Elastic Constant Matrix: (Units=GPa)
#
#
# Indices 1 2 3 4 5 6 
#
# 1 109.7283 8.2730 96.5359 0.0000 0.0000 0.0000
# 2 8.2730 46.9123 2.3924 0.0000 0.0000 0.0000
# 3 96.5359 2.3924 268.1773 0.0000 0.0000 0.0000
# 4 0.0000 0.0000 0.0000 21.4744 0.0000 0.0000
# 5 0.0000 0.0000 0.0000 0.0000 11.1378 0.0000
# 6 0.0000 0.0000 0.0000 0.0000 0.0000 2.9573
#
#
#
# Elastic Compliance Matrix: (Units=1/GPa)
#
#
# Indices 1 2 3 4 5 6 
#
# 1 0.013549 -0.002142 -0.004858 0.000000 0.000000 0.000000
# 2 -0.002142 0.021665 0.000578 0.000000 0.000000 0.000000
# 3 -0.004858 0.000578 0.005472 0.000000 0.000000 0.000000
# 4 0.000000 0.000000 0.000000 0.046567 0.000000 0.000000
# 5 0.000000 0.000000 0.000000 0.000000 0.089784 0.000000
# 6 0.000000 0.000000 0.000000 0.000000 0.000000 0.338148
#
#
# Mechanical properties :
#
#
# Convention : Reuss Voigt Hill
#
# Bulk Modulus (GPa) = 35.91715 71.02449 53.47082
# Shear Modulus (GPa) = 9.30562 28.28835 18.79698
#
# Velocity S-wave (km/s) = 2.08300 3.63179 2.96047
# Velocity P-wave (km/s) = 4.74680 7.12059 6.05124
#
# Compressibility (1/GPa) = 0.02784185
#
# Stress axis : x y z
#
# Youngs Moduli (GPa) = 73.80671 46.15832 182.73204
#
# Poissons Ratio (x) = 0.09885 0.88773
# Poissons Ratio (y) = 0.15806 -0.10555
# Poissons Ratio (z) = 0.35856 -0.02666
#
# Static dielectric constant tensor:
#      x y z
#    x 1.744220 0.000000 0.000000 
#    y 0.000000 1.892540 0.000000 
#    z 0.000000 0.000000 1.830420 
# 
# From -- ./inp_files/26101.got.cif
#   From: 2010.05.17/outbox.cif.g08.bks.cpg/sg59_14_cif.got.tgz:26101.got - 2010.06.03 14:40:33.
