data_PCOD9447542
_publ_section_title
;
Structure prediction by ZEFSAII (Michael W. Deem and Ramdas Pophale) SiO2 
 PCOD9447542
Probable space group: P M M N
;
_chemical_formula_sum "Si O2"
_cell_formula_units_Z 56
_cell_length_a 14.708189
_cell_length_b 9.364266
_cell_length_c 21.245859
_cell_angle_alpha 90.000000
_cell_angle_beta 90.000000
_cell_angle_gamma 90.000000
_cell_volume 2926.221781
_symmetry_space_group_name_H-M "P M M N"
_symmetry_group_IT_number 59
_space_group.IT_coordinate_system_code '2'
_symmetry_cell_setting 'orthorhombic'
loop_
_space_group_symop_operation_xyz
x,y,z
1/2-x,1/2-y,z
1/2+x,-y,-z
-x,1/2+y,-z
-x,-y,-z
1/2+x,1/2+y,-z
1/2-x,y,z
x,1/2-y,z
loop_
_atom_site_type_symbol
_atom_site_label
_atom_site_fract_x
_atom_site_fract_y
_atom_site_fract_z
Si Si1 0.599385 0.910284 0.602037
Si Si2 0.853894 0.085417 0.485432
Si Si3 0.355328 0.578300 0.023940
Si Si4 0.043413 0.078490 0.911317
Si Si5 0.453544 0.421269 0.768365
Si Si6 0.894224 0.089020 0.348075
Si Si7 0.652782 0.079384 0.720908
O O1 0.636028 0.750000 0.596144
O O2 0.499400 0.902068 0.631507
O O3 0.595378 0.986435 0.534782
O O4 0.651143 0.005471 0.652952
O O5 0.750000 0.089150 0.507879
O O6 0.888583 0.250000 0.484895
O O7 0.852335 0.033273 0.413276
O O8 0.250000 0.537802 0.038574
O O9 0.355895 0.750000 0.015597
O O10 0.392801 0.501502 0.961204
O O11 0.436370 0.546360 0.074120
O O12 0.053727 0.250000 0.918410
O O13 0.068113 0.039313 0.839943
O O14 0.446311 0.250000 0.762022
O O15 0.393163 0.495563 0.714663
O O16 0.559981 0.460494 0.756419
O O17 0.860235 0.250000 0.336447
O O18 0.750000 0.044578 0.752380
O O19 0.649127 0.250000 0.712640
#
# Coordination Sequence:
#
# PCOD9447542 Si02
#       7
#     8   8   8   8   8   8   8
#     4  10  19  30  46  67  90 117 150 191 240 290
#     4  10  20  33  48  65  86 114 151 195 240 283
#     4   9  18  33  54  80 108 138 172 207 243 289
#     4   9  18  33  53  78 108 138 168 207 252 293
#     4   9  18  32  50  71  95 126 161 195 234 281
#     4   9  19  34  49  66  90 121 155 191 233 282
#     4   9  17  29  45  66  93 124 157 193 236 289
#
# _framework density 19.137304
#
# number of rings (size 3 to 8) (size 9 to 14) (size 15 to 20)
#    0.000    2.714    0.000    1.286    0.000    4.857 
#    0.000    3.571    0.000    2.571    0.000    8.000 
#    0.000    0.000    0.000    0.000    0.000    0.000 
#
# Total GULP energy -311891.974523 kJ/mol
# GULP energy per Si atom -5569.499545 kJ/mol
# Density = 1.909375 g / cm^3
# Si number density = 19.137304 Si / 1000 Ang^3
#
#
#
# Elastic Constant Matrix: (Units=GPa)
#
#
# Indices 1 2 3 4 5 6 
#
# 1 38.2201 -1.2576 -15.5347 0.0000 0.0000 0.0000
# 2 -1.2576 16.2964 26.2242 0.0000 0.0000 0.0000
# 3 -15.5347 26.2242 99.5129 0.0000 0.0000 0.0000
# 4 0.0000 0.0000 0.0000 27.7408 0.0000 0.0000
# 5 0.0000 0.0000 0.0000 0.0000 12.0485 0.0000
# 6 0.0000 0.0000 0.0000 0.0000 0.0000 12.3392
#
#
#
# Elastic Compliance Matrix: (Units=1/GPa)
#
#
# Indices 1 2 3 4 5 6 
#
# 1 0.028622 -0.008649 0.006747 0.000000 0.000000 0.000000
# 2 -0.008649 0.109159 -0.030116 0.000000 0.000000 0.000000
# 3 0.006747 -0.030116 0.019039 0.000000 0.000000 0.000000
# 4 0.000000 0.000000 0.000000 0.036048 0.000000 0.000000
# 5 0.000000 0.000000 0.000000 0.000000 0.082998 0.000000
# 6 0.000000 0.000000 0.000000 0.000000 0.000000 0.081043
#
#
# Mechanical properties :
#
#
# Convention : Reuss Voigt Hill
#
# Bulk Modulus (GPa) = 10.77774 19.21036 14.99405
# Shear Modulus (GPa) = 11.06506 20.06554 15.56530
#
# Velocity S-wave (km/s) = 2.40717 3.24157 2.85502
# Velocity P-wave (km/s) = 3.65650 4.90616 4.32668
#
# Compressibility (1/GPa) = 0.09278383
#
# Stress axis : x y z
#
# Youngs Moduli (GPa) = 34.93803 9.16092 52.52452
#
# Poissons Ratio (x) = 0.07923 -0.35440
# Poissons Ratio (y) = 0.30218 1.58185
# Poissons Ratio (z) = -0.23574 0.27589
#
# Static dielectric constant tensor:
#      x y z
#    x 1.724530 0.000000 0.000000 
#    y 0.000000 1.662710 0.000000 
#    z 0.000000 0.000000 1.652110 
# 
# From -- ./inp_files/30584.got.cif
#   From: 2010.05.17/outbox.cif.g08.bks.cpg/sg59_16_cif.got.tgz:30584.got - 2010.06.03 14:40:33.
