data_PCOD9447919
_publ_section_title
;
Structure prediction by ZEFSAII (Michael W. Deem and Ramdas Pophale) SiO2 
 PCOD9447919
Probable space group: P M M N
;
_chemical_formula_sum "Si O2"
_cell_formula_units_Z 64
_cell_length_a 20.773227
_cell_length_b 7.753063
_cell_length_c 20.700772
_cell_angle_alpha 90.000000
_cell_angle_beta 90.000000
_cell_angle_gamma 90.000000
_cell_volume 3333.986385
_symmetry_space_group_name_H-M "P M M N"
_symmetry_group_IT_number 59
_space_group.IT_coordinate_system_code '2'
_symmetry_cell_setting 'orthorhombic'
loop_
_space_group_symop_operation_xyz
x,y,z
1/2-x,1/2-y,z
1/2+x,-y,-z
-x,1/2+y,-z
-x,-y,-z
1/2+x,1/2+y,-z
1/2-x,y,z
x,1/2-y,z
loop_
_atom_site_type_symbol
_atom_site_label
_atom_site_fract_x
_atom_site_fract_y
_atom_site_fract_z
Si Si1 0.540265 0.546854 0.325422
Si Si2 0.676991 0.038964 0.096894
Si Si3 0.322175 0.961416 0.433983
Si Si4 0.393941 0.539254 0.307996
Si Si5 0.823450 0.039555 0.948777
Si Si6 0.587448 0.454122 0.834260
Si Si7 0.568585 0.044605 0.468223
Si Si8 0.940013 0.049476 0.183813
O O1 0.538398 0.750000 0.312822
O O2 0.465882 0.487143 0.329751
O O3 0.572055 0.516233 0.394429
O O4 0.569921 0.466850 0.260869
O O5 0.750000 0.984640 0.113909
O O6 0.677361 0.250000 0.098591
O O7 0.620437 0.977407 0.144031
O O8 0.663982 0.986410 0.022709
O O9 0.250000 0.016513 0.448721
O O10 0.323316 0.750000 0.434304
O O11 0.344119 0.016269 0.362380
O O12 0.374432 0.021629 0.486007
O O13 0.392515 0.750000 0.307018
O O14 0.386491 0.477321 0.234517
O O15 0.750000 0.990147 0.931766
O O16 0.825025 0.250000 0.949457
O O17 0.875206 0.976209 0.896595
O O18 0.600258 0.250000 0.833677
O O19 0.510224 0.474369 0.833275
O O20 0.573088 0.250000 0.467154
O O21 0.500000 0.000000 0.500000
O O22 0.944996 0.250000 0.167354
#
# Coordination Sequence:
#
# PCOD9447919 Si02
#       8
#     8   8   8   8   8   8   8   8
#     4  10  19  34  53  74  98 126 163 209 252 296
#     4   8  15  29  48  69  96 130 171 217 256 294
#     4   9  17  29  46  71 101 129 164 207 241 276
#     4   8  14  26  43  66  94 124 157 194 239 282
#     4   8  14  26  45  70  98 131 173 214 248 289
#     4   9  17  28  46  73 104 132 161 203 249 293
#     4  11  20  32  53  78 100 132 171 205 246 293
#     4  10  19  31  49  74  99 128 165 207 256 307
#
# _framework density 19.196238999999998
#
# number of rings (size 3 to 8) (size 9 to 14) (size 15 to 20)
#    0.000    2.875    1.250    2.625    0.000    1.000 
#    0.000    3.125    0.000    7.875    0.000    3.500 
#    0.000    0.000    0.000    0.000    0.000    0.000 
#
# Total GULP energy -356764.906759 kJ/mol
# GULP energy per Si atom -5574.451668 kJ/mol
# Density = 1.915255 g / cm^3
# Si number density = 19.196239 Si / 1000 Ang^3
#
#
#
# Elastic Constant Matrix: (Units=GPa)
#
#
# Indices 1 2 3 4 5 6 
#
# 1 128.8402 -6.6657 99.4948 0.0000 0.0000 0.0000
# 2 -6.6657 22.5452 -7.8266 0.0000 0.0000 0.0000
# 3 99.4948 -7.8266 139.2190 0.0000 0.0000 0.0000
# 4 0.0000 0.0000 0.0000 11.3555 0.0000 0.0000
# 5 0.0000 0.0000 0.0000 0.0000 33.4316 0.0000
# 6 0.0000 0.0000 0.0000 0.0000 0.0000 13.8942
#
#
#
# Elastic Compliance Matrix: (Units=1/GPa)
#
#
# Indices 1 2 3 4 5 6 
#
# 1 0.017336 0.000841 -0.012342 0.000000 0.000000 0.000000
# 2 0.000841 0.045279 0.001944 0.000000 0.000000 0.000000
# 3 -0.012342 0.001944 0.016113 0.000000 0.000000 0.000000
# 4 0.000000 0.000000 0.000000 0.088063 0.000000 0.000000
# 5 0.000000 0.000000 0.000000 0.000000 0.029912 0.000000
# 6 0.000000 0.000000 0.000000 0.000000 0.000000 0.071973
#
#
# Mechanical properties :
#
#
# Convention : Reuss Voigt Hill
#
# Bulk Modulus (GPa) = 16.77446 51.17881 33.97664
# Shear Modulus (GPa) = 16.25169 25.44305 20.84737
#
# Velocity S-wave (km/s) = 2.91281 3.64458 3.29905
# Velocity P-wave (km/s) = 4.47995 6.66553 5.67888
#
# Compressibility (1/GPa) = 0.05961443
#
# Stress axis : x y z
#
# Youngs Moduli (GPa) = 57.68292 22.08527 62.06247
#
# Poissons Ratio (x) = -0.01857 0.76599
# Poissons Ratio (y) = -0.04851 -0.12068
# Poissons Ratio (z) = 0.71194 -0.04294
#
# Static dielectric constant tensor:
#      x y z
#    x 1.654150 0.000000 0.000000 
#    y 0.000000 1.732430 0.000000 
#    z 0.000000 0.000000 1.662460 
# 
# From -- ./inp_files/31005.got.cif
#   From: 2010.05.17/outbox.cif.g08.bks.cpg/sg59_16_cif.got.tgz:31005.got - 2010.06.03 14:40:33.
