data_PCOD9447178
_publ_section_title
;
Structure prediction by ZEFSAII (Michael W. Deem and Ramdas Pophale) SiO2 
 PCOD9447178
Probable space group: P M M N
;
_chemical_formula_sum "Si O2"
_cell_formula_units_Z 56
_cell_length_a 7.761053
_cell_length_b 25.062538
_cell_length_c 15.306031
_cell_angle_alpha 90.000000
_cell_angle_beta 90.000000
_cell_angle_gamma 90.000000
_cell_volume 2977.201892
_symmetry_space_group_name_H-M "P M M N"
_symmetry_group_IT_number 59
_space_group.IT_coordinate_system_code '2'
_symmetry_cell_setting 'orthorhombic'
loop_
_space_group_symop_operation_xyz
x,y,z
1/2-x,1/2-y,z
1/2+x,-y,-z
-x,1/2+y,-z
-x,-y,-z
1/2+x,1/2+y,-z
1/2-x,y,z
x,1/2-y,z
loop_
_atom_site_type_symbol
_atom_site_label
_atom_site_fract_x
_atom_site_fract_y
_atom_site_fract_z
Si Si1 0.455369 0.925870 0.859566
Si Si2 0.537571 0.750000 0.799409
Si Si3 0.451439 0.354567 0.298605
Si Si4 0.543760 0.368363 0.964841
Si Si5 0.458306 0.422146 0.452317
Si Si6 0.954896 0.750000 0.999697
Si Si7 0.043965 0.533946 0.370235
Si Si8 0.458239 0.954397 0.173249
O O1 0.250000 0.919165 0.853196
O O2 0.534367 0.902807 0.770579
O O3 0.495239 0.988347 0.867798
O O4 0.520957 0.891804 0.942365
O O5 0.750000 0.750000 0.801929
O O6 0.476207 0.802541 0.748761
O O7 0.478017 0.750000 0.899632
O O8 0.250000 0.343077 0.312768
O O9 0.523306 0.374458 0.390964
O O10 0.750000 0.374705 0.967136
O O11 0.507493 0.305740 0.956899
O O12 0.478282 0.405825 0.886652
O O13 0.250000 0.422666 0.447743
O O14 0.506552 0.423589 0.553687
O O15 0.522497 0.477391 0.407943
O O16 0.750000 0.750000 0.995378
O O17 0.250000 0.528880 0.363273
O O18 0.977626 0.546273 0.273431
O O19 0.250000 0.951428 0.175874
#
# Coordination Sequence:
#
# PCOD9447178 Si02
#       8
#     8   4   8   8   8   4   8   8
#     4  11  21  31  48  78 108 135 166 212 260 298
#     4   9  18  31  53  76  95 130 174 209 241 297
#     4  10  18  33  52  73 102 137 172 202 248 315
#     4  10  22  37  53  74 105 139 174 214 258 304
#     4   9  17  29  48  72  99 130 160 202 252 298
#     4  11  21  35  57  78  99 134 178 219 255 295
#     4   9  17  30  49  72  97 128 167 204 244 300
#     4  10  20  36  54  73 102 143 177 206 252 312
#
# _framework density 18.809607
#
# number of rings (size 3 to 8) (size 9 to 14) (size 15 to 20)
#    0.000    2.143    2.857    1.071    0.000    2.286 
#    0.000    0.357    0.000    0.857    0.000    2.000 
#    0.000    0.000    0.000    0.000    0.000    0.000 
#
# Total GULP energy -312450.077514 kJ/mol
# GULP energy per Si atom -5579.465670 kJ/mol
# Density = 1.876680 g / cm^3
# Si number density = 18.809607 Si / 1000 Ang^3
#
#
#
# Elastic Constant Matrix: (Units=GPa)
#
#
# Indices 1 2 3 4 5 6 
#
# 1 22.3148 -12.2755 -3.9683 0.0000 0.0000 0.0000
# 2 -12.2755 111.2949 32.6827 0.0000 0.0000 0.0000
# 3 -3.9683 32.6827 68.1323 0.0000 0.0000 0.0000
# 4 0.0000 0.0000 0.0000 20.4006 0.0000 0.0000
# 5 0.0000 0.0000 0.0000 0.0000 15.0926 0.0000
# 6 0.0000 0.0000 0.0000 0.0000 0.0000 17.5584
#
#
#
# Elastic Compliance Matrix: (Units=1/GPa)
#
#
# Indices 1 2 3 4 5 6 
#
# 1 0.047713 0.005176 0.000296 0.000000 0.000000 0.000000
# 2 0.005176 0.011020 -0.004985 0.000000 0.000000 0.000000
# 3 0.000296 -0.004985 0.017086 0.000000 0.000000 0.000000
# 4 0.000000 0.000000 0.000000 0.049018 0.000000 0.000000
# 5 0.000000 0.000000 0.000000 0.000000 0.066258 0.000000
# 6 0.000000 0.000000 0.000000 0.000000 0.000000 0.056953
#
#
# Mechanical properties :
#
#
# Convention : Reuss Voigt Hill
#
# Bulk Modulus (GPa) = 13.02202 26.06887 19.54545
# Shear Modulus (GPa) = 18.33716 22.96388 20.65052
#
# Velocity S-wave (km/s) = 3.12570 3.49787 3.31701
# Velocity P-wave (km/s) = 4.46819 5.49571 5.00837
#
# Compressibility (1/GPa) = 0.07679300
#
# Stress axis : x y z
#
# Youngs Moduli (GPa) = 20.95861 90.74585 58.52849
#
# Poissons Ratio (x) = -0.46967 -0.01734
# Poissons Ratio (y) = -0.10847 0.29175
# Poissons Ratio (z) = -0.00621 0.45234
#
# Static dielectric constant tensor:
#      x y z
#    x 1.676700 0.000000 0.000000 
#    y 0.000000 1.656390 0.000000 
#    z 0.000000 0.000000 1.666360 
# 
# From -- ./inp_files/21122.got.cif
#   From: 2010.05.17/outbox.cif.g08.bks.cpg/sg59_11_cif.got.tgz:21122.got - 2010.06.03 14:40:33.
