data_PCOD9447138
_publ_section_title
;
Structure prediction by ZEFSAII (Michael W. Deem and Ramdas Pophale) SiO2 
 PCOD9447138
Probable space group: P M M N
;
_chemical_formula_sum "Si O2"
_cell_formula_units_Z 64
_cell_length_a 8.726230
_cell_length_b 15.554243
_cell_length_c 23.890626
_cell_angle_alpha 90.000000
_cell_angle_beta 90.000000
_cell_angle_gamma 90.000000
_cell_volume 3242.672323
_symmetry_space_group_name_H-M "P M M N"
_symmetry_group_IT_number 59
_space_group.IT_coordinate_system_code '2'
_symmetry_cell_setting 'orthorhombic'
loop_
_space_group_symop_operation_xyz
x,y,z
1/2-x,1/2-y,z
1/2+x,-y,-z
-x,1/2+y,-z
-x,-y,-z
1/2+x,1/2+y,-z
1/2-x,y,z
x,1/2-y,z
loop_
_atom_site_type_symbol
_atom_site_label
_atom_site_fract_x
_atom_site_fract_y
_atom_site_fract_z
Si Si1 0.928038 0.891662 0.554484
Si Si2 0.433310 0.411402 0.025478
Si Si3 0.568120 0.481646 0.132145
Si Si4 0.566745 0.651467 0.317341
Si Si5 0.429888 0.652890 0.669487
Si Si6 0.929042 0.099603 0.563797
Si Si7 0.932706 0.344352 0.918131
Si Si8 0.430901 0.490687 0.252968
O O1 0.750000 0.867277 0.559335
O O2 0.025803 0.851978 0.604368
O O3 0.992083 0.869529 0.493337
O O4 0.938235 0.995385 0.562149
O O5 0.250000 0.409987 0.023162
O O6 0.490496 0.414386 0.089154
O O7 0.500000 0.500000 0.000000
O O8 0.504544 0.345078 0.981727
O O9 0.750000 0.476805 0.125949
O O10 0.511828 0.577188 0.114118
O O11 0.516126 0.468676 0.195443
O O12 0.750000 0.640770 0.314659
O O13 0.528782 0.750000 0.302530
O O14 0.510905 0.633099 0.380589
O O15 0.488684 0.581401 0.277498
O O16 0.250000 0.632995 0.676328
O O17 0.458139 0.750000 0.689792
O O18 0.528100 0.582432 0.702022
O O19 0.750000 0.123232 0.564882
O O20 0.750000 0.359298 0.918948
O O21 0.962649 0.250000 0.893305
O O22 0.250000 0.494564 0.243402
#
# Coordination Sequence:
#
# PCOD9447138 Si02
#       8
#     8   8   8   8   8   8   8   8
#     4  10  20  35  59  89 119 155 195 243 301 363
#     4  10  18  32  55  83 115 149 188 231 277 334
#     4  11  22  38  61  85 115 156 200 244 291 350
#     4  11  24  41  62  88 120 160 203 248 301 364
#     4  11  24  42  65  91 119 154 197 248 306 367
#     4  10  20  35  58  88 120 157 196 243 301 362
#     4  10  20  35  57  88 125 160 196 241 291 345
#     4  12  25  43  65  89 120 160 204 255 307 357
#
# _framework density 19.736806999999999
#
# number of rings (size 3 to 8) (size 9 to 14) (size 15 to 20)
#    0.000    1.375    1.250    6.750    0.000    5.000 
#    0.000    0.625    0.000    3.750    0.000    0.000 
#    0.000    0.000    0.000    0.000    0.000    0.000 
#
# Total GULP energy -357722.566108 kJ/mol
# GULP energy per Si atom -5589.415095 kJ/mol
# Density = 1.969188 g / cm^3
# Si number density = 19.736807 Si / 1000 Ang^3
#
#
#
# Elastic Constant Matrix: (Units=GPa)
#
#
# Indices 1 2 3 4 5 6 
#
# 1 94.8870 8.9334 -7.8523 0.0000 0.0000 0.0000
# 2 8.9334 33.2530 -14.1262 0.0000 0.0000 0.0000
# 3 -7.8523 -14.1262 66.5849 0.0000 0.0000 0.0000
# 4 0.0000 0.0000 0.0000 -2.9146 0.0000 0.0000
# 5 0.0000 0.0000 0.0000 0.0000 39.4338 0.0000
# 6 0.0000 0.0000 0.0000 0.0000 0.0000 11.2689
#
#
#
# Elastic Compliance Matrix: (Units=1/GPa)
#
#
# Indices 1 2 3 4 5 6 
#
# 1 0.010844 -0.002605 0.000726 0.000000 0.000000 0.000000
# 2 -0.002605 0.033677 0.006837 0.000000 0.000000 0.000000
# 3 0.000726 0.006837 0.016555 0.000000 0.000000 0.000000
# 4 0.000000 0.000000 0.000000 -0.343096 0.000000 0.000000
# 5 0.000000 0.000000 0.000000 0.000000 0.025359 0.000000
# 6 0.000000 0.000000 0.000000 0.000000 0.000000 0.088740
#
#
# Mechanical properties :
#
#
# Convention : Reuss Voigt Hill
#
# Bulk Modulus (GPa) = 14.08577 18.73718 16.41148
# Shear Modulus (GPa) = -32.43084 23.40894 -4.51095
#
# Velocity S-wave (km/s) = -4.05800 3.44765 -1.51344
# Velocity P-wave (km/s) = 3.84761 5.03612 2.29765
#
# Compressibility (1/GPa) = 0.07099363
#
# Stress axis : x y z
#
# Youngs Moduli (GPa) = 92.21537 29.69398 60.40596
#
# Poissons Ratio (x) = 0.07735 -0.04387
# Poissons Ratio (y) = 0.24020 -0.41303
# Poissons Ratio (z) = -0.06697 -0.20303
#
# Static dielectric constant tensor:
#      x y z
#    x 1.657560 0.000000 0.000000 
#    y 0.000000 1.699600 0.000000 
#    z 0.000000 0.000000 1.691700 
# 
# From -- ./inp_files/31641.got.cif
#   From: 2010.05.17/outbox.cif.g08.bks.cpg/sg59_16_cif.got.tgz:31641.got - 2010.06.03 14:40:33.
