data_PCOD9447711
_publ_section_title
;
Structure prediction by ZEFSAII (Michael W. Deem and Ramdas Pophale) SiO2 
 PCOD9447711
Probable space group: P M M N
;
_chemical_formula_sum "Si O2"
_cell_formula_units_Z 56
_cell_length_a 7.475717
_cell_length_b 15.984468
_cell_length_c 22.011904
_cell_angle_alpha 90.000000
_cell_angle_beta 90.000000
_cell_angle_gamma 90.000000
_cell_volume 2630.320374
_symmetry_space_group_name_H-M "P M M N"
_symmetry_group_IT_number 59
_space_group.IT_coordinate_system_code '2'
_symmetry_cell_setting 'orthorhombic'
loop_
_space_group_symop_operation_xyz
x,y,z
1/2-x,1/2-y,z
1/2+x,-y,-z
-x,1/2+y,-z
-x,-y,-z
1/2+x,1/2+y,-z
1/2-x,y,z
x,1/2-y,z
loop_
_atom_site_type_symbol
_atom_site_label
_atom_site_fract_x
_atom_site_fract_y
_atom_site_fract_z
Si Si1 0.462332 0.901172 0.001706
Si Si2 0.031526 0.842827 0.869805
Si Si3 0.965661 0.655887 0.574089
Si Si4 0.468356 0.154991 0.565330
Si Si5 0.041631 0.341530 0.865022
Si Si6 0.960687 0.507228 0.348149
Si Si7 0.469877 0.500406 0.789742
O O1 0.250000 0.888570 0.003834
O O2 0.527965 0.861704 0.938711
O O3 0.535076 0.862324 0.063529
O O4 0.500000 0.000000 0.000000
O O5 0.250000 0.844689 0.870714
O O6 0.976471 0.750000 0.851110
O O7 0.972971 0.916153 0.825005
O O8 0.750000 0.657020 0.573685
O O9 0.025488 0.750000 0.591356
O O10 0.024321 0.639734 0.504496
O O11 0.020888 0.581131 0.617802
O O12 0.250000 0.153422 0.565132
O O13 0.520590 0.250000 0.582204
O O14 0.533385 0.082550 0.610173
O O15 0.250000 0.337116 0.847791
O O16 0.961579 0.250000 0.853941
O O17 0.967727 0.419340 0.827219
O O18 0.750000 0.524613 0.342006
O O19 0.031313 0.502816 0.279733
O O20 0.250000 0.501515 0.790570
#
# Coordination Sequence:
#
# PCOD9447711 Si02
#       7
#     8   8   8   8   8   8   8
#     4  11  20  33  55  78 102 130 168 214 260 304
#     4   9  17  30  49  70  95 128 162 198 246 302
#     4   9  18  33  51  70  99 137 168 201 255 313
#     4   8  15  29  49  74 102 131 165 206 253 304
#     4  10  20  35  54  76 104 136 169 208 255 305
#     4  10  19  30  51  78 101 129 171 216 250 290
#     4   9  18  32  47  72 105 133 163 202 252 301
#
# _framework density 21.290181
#
# number of rings (size 3 to 8) (size 9 to 14) (size 15 to 20)
#    0.000    2.571    1.429    2.143    0.000    2.286 
#    0.000    5.000    0.000    1.286    0.000    0.000 
#    0.000    0.000    0.000    0.000    0.000    0.000 
#
# Total GULP energy -312729.861291 kJ/mol
# GULP energy per Si atom -5584.461809 kJ/mol
# Density = 2.124172 g / cm^3
# Si number density = 21.290181 Si / 1000 Ang^3
#
#
#
# Elastic Constant Matrix: (Units=GPa)
#
#
# Indices 1 2 3 4 5 6 
#
# 1 58.4865 -3.0741 -1.5769 0.0000 0.0000 0.0000
# 2 -3.0741 209.0887 119.1720 0.0000 0.0000 0.0000
# 3 -1.5769 119.1720 162.4612 0.0000 0.0000 0.0000
# 4 0.0000 0.0000 0.0000 -4.2229 0.0000 0.0000
# 5 0.0000 0.0000 0.0000 0.0000 -47.7839 0.0000
# 6 0.0000 0.0000 0.0000 0.0000 0.0000 1.2235
#
#
#
# Elastic Compliance Matrix: (Units=1/GPa)
#
#
# Indices 1 2 3 4 5 6 
#
# 1 0.017111 0.000270 -0.000032 0.000000 0.000000 0.000000
# 2 0.000270 0.008223 -0.006029 0.000000 0.000000 0.000000
# 3 -0.000032 -0.006029 0.010578 0.000000 0.000000 0.000000
# 4 0.000000 0.000000 0.000000 -0.236803 0.000000 0.000000
# 5 0.000000 0.000000 0.000000 0.000000 -0.020928 0.000000
# 6 0.000000 0.000000 0.000000 0.000000 0.000000 0.817320
#
#
# Mechanical properties :
#
#
# Convention : Reuss Voigt Hill
#
# Bulk Modulus (GPa) = 41.10265 73.23093 57.16679
# Shear Modulus (GPa) = 8.12752 10.87769 9.50261
#
# Velocity S-wave (km/s) = 1.95596 2.26282 2.11496
# Velocity P-wave (km/s) = 4.94458 6.42638 5.73355
#
# Compressibility (1/GPa) = 0.02432933
#
# Stress axis : x y z
#
# Youngs Moduli (GPa) = 58.44093 121.60829 94.53757
#
# Poissons Ratio (x) = -0.03279 0.00300
# Poissons Ratio (y) = -0.01576 0.57000
# Poissons Ratio (z) = 0.00185 0.73322
#
# Static dielectric constant tensor:
#      x y z
#    x 1.861800 0.000000 0.000000 
#    y 0.000000 1.748540 0.000000 
#    z 0.000000 0.000000 1.724790 
# 
# From -- ./inp_files/29008.got.cif
#   From: 2010.05.17/outbox.cif.g08.bks.cpg/sg59_15_cif.got.tgz:29008.got - 2010.06.03 14:40:33.
