data_PCOD9447749
_publ_section_title
;
Structure prediction by ZEFSAII (Michael W. Deem and Ramdas Pophale) SiO2 
 PCOD9447749
Probable space group: P M M N
;
_chemical_formula_sum "Si O2"
_cell_formula_units_Z 64
_cell_length_a 20.766518
_cell_length_b 7.688773
_cell_length_c 19.225228
_cell_angle_alpha 90.000000
_cell_angle_beta 90.000000
_cell_angle_gamma 90.000000
_cell_volume 3069.673754
_symmetry_space_group_name_H-M "P M M N"
_symmetry_group_IT_number 59
_space_group.IT_coordinate_system_code '2'
_symmetry_cell_setting 'orthorhombic'
loop_
_space_group_symop_operation_xyz
x,y,z
1/2-x,1/2-y,z
1/2+x,-y,-z
-x,1/2+y,-z
-x,-y,-z
1/2+x,1/2+y,-z
1/2-x,y,z
x,1/2-y,z
loop_
_atom_site_type_symbol
_atom_site_label
_atom_site_fract_x
_atom_site_fract_y
_atom_site_fract_z
Si Si1 0.541325 0.455292 0.206692
Si Si2 0.676191 0.537793 0.414815
Si Si3 0.071077 0.041125 0.474014
Si Si4 0.680704 0.450086 0.930983
Si Si5 0.677758 0.957967 0.255969
Si Si6 0.460232 0.956280 0.068159
Si Si7 0.558763 0.963026 0.682827
Si Si8 0.180813 0.041259 0.227379
O O1 0.540963 0.250000 0.213728
O O2 0.616355 0.506071 0.207457
O O3 0.498987 0.492892 0.137898
O O4 0.504132 0.526343 0.275192
O O5 0.750000 0.490025 0.432049
O O6 0.673519 0.750000 0.414202
O O7 0.624637 0.475345 0.471542
O O8 0.663481 0.479460 0.335177
O O9 0.079611 0.250000 0.471119
O O10 0.071358 0.974735 0.395010
O O11 0.000000 0.000000 0.500000
O O12 0.750000 0.528329 0.953076
O O13 0.680589 0.250000 0.956137
O O14 0.611298 0.533513 0.944622
O O15 0.681171 0.452264 0.847201
O O16 0.750000 0.021607 0.236028
O O17 0.682270 0.750000 0.259895
O O18 0.451581 0.750000 0.073969
O O19 0.500000 0.000000 0.000000
O O20 0.556017 0.750000 0.680356
O O21 0.620067 0.012805 0.728667
O O22 0.250000 0.008399 0.262062
O O23 0.176072 0.250000 0.215469
#
# Coordination Sequence:
#
# PCOD9447749 Si02
#       8
#     8   8   8   8   8   8   8   8
#     4  11  21  35  55  79 110 142 177 222 270 328
#     4   8  15  29  50  74 100 136 183 229 270 317
#     4  10  19  31  47  69 100 136 176 222 270 320
#     4   9  18  34  56  81 108 138 173 211 251 300
#     4   9  18  34  55  78 104 136 180 232 280 327
#     4  11  23  39  60  85 113 146 181 221 271 324
#     4   9  18  30  46  73 106 137 173 221 270 314
#     4   9  16  28  48  73 102 136 172 210 253 302
#
# _framework density 20.849121
#
# number of rings (size 3 to 8) (size 9 to 14) (size 15 to 20)
#    0.000    2.500    1.250    2.250    0.000    1.250 
#    0.000    4.375    0.000    3.375    0.000    0.000 
#    0.000    0.000    0.000    0.000    0.000    0.000 
#
# Total GULP energy -356703.205458 kJ/mol
# GULP energy per Si atom -5573.487585 kJ/mol
# Density = 2.080167 g / cm^3
# Si number density = 20.849121 Si / 1000 Ang^3
#
#
#
# Elastic Constant Matrix: (Units=GPa)
#
#
# Indices 1 2 3 4 5 6 
#
# 1 196.7071 5.5638 52.7403 0.0000 0.0000 0.0000
# 2 5.5638 38.8810 -2.9768 0.0000 0.0000 0.0000
# 3 52.7403 -2.9768 43.4500 0.0000 0.0000 0.0000
# 4 0.0000 0.0000 0.0000 6.2371 0.0000 0.0000
# 5 0.0000 0.0000 0.0000 0.0000 30.1563 0.0000
# 6 0.0000 0.0000 0.0000 0.0000 0.0000 10.6442
#
#
#
# Elastic Compliance Matrix: (Units=1/GPa)
#
#
# Indices 1 2 3 4 5 6 
#
# 1 0.007662 -0.001818 -0.009425 0.000000 0.000000 0.000000
# 2 -0.001818 0.026287 0.004008 0.000000 0.000000 0.000000
# 3 -0.009425 0.004008 0.034730 0.000000 0.000000 0.000000
# 4 0.000000 0.000000 0.000000 0.160330 0.000000 0.000000
# 5 0.000000 0.000000 0.000000 0.000000 0.033161 0.000000
# 6 0.000000 0.000000 0.000000 0.000000 0.000000 0.093948
#
#
# Mechanical properties :
#
#
# Convention : Reuss Voigt Hill
#
# Bulk Modulus (GPa) = 18.44760 43.29919 30.87339
# Shear Modulus (GPa) = 12.86484 24.32158 18.59321
#
# Velocity S-wave (km/s) = 2.48673 3.41919 2.98954
# Velocity P-wave (km/s) = 4.13672 6.03330 5.17268
#
# Compressibility (1/GPa) = 0.05420759
#
# Stress axis : x y z
#
# Youngs Moduli (GPa) = 130.51275 38.04232 28.79389
#
# Poissons Ratio (x) = 0.06916 0.27138
# Poissons Ratio (y) = 0.23727 -0.11539
# Poissons Ratio (z) = 1.23007 -0.15246
#
# Static dielectric constant tensor:
#      x y z
#    x 1.841940 0.000000 0.000000 
#    y 0.000000 1.768150 0.000000 
#    z 0.000000 0.000000 1.723140 
# 
# From -- ./inp_files/28153.got.cif
#   From: 2010.05.17/outbox.cif.g08.bks.cpg/sg59_15_cif.got.tgz:28153.got - 2010.06.03 14:40:33.
