data_PCOD9447513
_publ_section_title
;
Structure prediction by ZEFSAII (Michael W. Deem and Ramdas Pophale) SiO2 
 PCOD9447513
Probable space group: P M M N
;
_chemical_formula_sum "Si O2"
_cell_formula_units_Z 64
_cell_length_a 24.245051
_cell_length_b 7.963570
_cell_length_c 19.806665
_cell_angle_alpha 90.000000
_cell_angle_beta 90.000000
_cell_angle_gamma 90.000000
_cell_volume 3824.214643
_symmetry_space_group_name_H-M "P M M N"
_symmetry_group_IT_number 59
_space_group.IT_coordinate_system_code '2'
_symmetry_cell_setting 'orthorhombic'
loop_
_space_group_symop_operation_xyz
x,y,z
1/2-x,1/2-y,z
1/2+x,-y,-z
-x,1/2+y,-z
-x,-y,-z
1/2+x,1/2+y,-z
1/2-x,y,z
x,1/2-y,z
loop_
_atom_site_type_symbol
_atom_site_label
_atom_site_fract_x
_atom_site_fract_y
_atom_site_fract_z
Si Si1 0.022424 0.047879 0.105000
Si Si2 0.687489 0.952405 0.110046
Si Si3 0.586532 0.953316 0.022813
Si Si4 0.632380 0.048662 0.251706
Si Si5 0.494632 0.952023 0.749214
Si Si6 0.414193 0.451655 0.524140
Si Si7 0.188146 0.451583 0.608188
Si Si8 0.022994 0.550027 0.397404
O O1 0.026960 0.250000 0.106713
O O2 0.022778 0.985372 0.181792
O O3 0.068055 0.986105 0.051481
O O4 0.962990 0.004944 0.072850
O O5 0.750000 0.016351 0.103581
O O6 0.689460 0.750000 0.105027
O O7 0.644214 0.013868 0.053561
O O8 0.662255 0.994637 0.183068
O O9 0.587880 0.750000 0.021402
O O10 0.631237 0.250000 0.253568
O O11 0.568946 0.986414 0.253438
O O12 0.664889 0.986478 0.317238
O O13 0.492151 0.750000 0.753333
O O14 0.524781 0.996778 0.680008
O O15 0.413873 0.250000 0.530620
O O16 0.357069 0.516380 0.554835
O O17 0.465749 0.516484 0.569204
O O18 0.428411 0.493057 0.447054
O O19 0.250000 0.519181 0.600349
O O20 0.190872 0.250000 0.600407
O O21 0.020874 0.750000 0.399848
#
# Coordination Sequence:
#
# PCOD9447513 Si02
#       8
#     8   8   8   8   8   8   8   8
#     4   9  17  30  46  65  89 116 148 188 232 272
#     4  10  20  32  45  63  90 124 158 190 225 267
#     4   9  17  29  46  65  86 116 152 188 227 270
#     4  11  21  31  44  65  94 126 160 192 221 262
#     4  10  19  30  45  66  93 123 150 184 230 276
#     4   9  18  32  47  66  91 119 149 187 229 267
#     4  10  20  34  50  67  91 125 160 190 223 266
#     4  10  19  30  48  69  90 118 152 188 227 273
#
# _framework density 16.735461000000001
#
# number of rings (size 3 to 8) (size 9 to 14) (size 15 to 20)
#    0.000    2.250    2.500    1.125    0.000    4.000 
#    0.000    0.000    0.000    0.000    0.000    0.875 
#    0.000    5.000    0.000    0.000    0.000    0.000 
#
# Total GULP energy -356925.117621 kJ/mol
# GULP energy per Si atom -5576.954963 kJ/mol
# Density = 1.669737 g / cm^3
# Si number density = 16.735461 Si / 1000 Ang^3
#
#
#
# Elastic Constant Matrix: (Units=GPa)
#
#
# Indices 1 2 3 4 5 6 
#
# 1 114.8043 6.0572 87.2522 0.0000 0.0000 0.0000
# 2 6.0572 9.5301 1.4462 0.0000 0.0000 0.0000
# 3 87.2522 1.4462 155.3361 0.0000 0.0000 0.0000
# 4 0.0000 0.0000 0.0000 12.9161 0.0000 0.0000
# 5 0.0000 0.0000 0.0000 0.0000 14.4468 0.0000
# 6 0.0000 0.0000 0.0000 0.0000 0.0000 12.5849
#
#
#
# Elastic Compliance Matrix: (Units=1/GPa)
#
#
# Indices 1 2 3 4 5 6 
#
# 1 0.015897 -0.008761 -0.008848 0.000000 0.000000 0.000000
# 2 -0.008761 0.109908 0.003898 0.000000 0.000000 0.000000
# 3 -0.008848 0.003898 0.011371 0.000000 0.000000 0.000000
# 4 0.000000 0.000000 0.000000 0.077423 0.000000 0.000000
# 5 0.000000 0.000000 0.000000 0.000000 0.069219 0.000000
# 6 0.000000 0.000000 0.000000 0.000000 0.000000 0.079461
#
#
# Mechanical properties :
#
#
# Convention : Reuss Voigt Hill
#
# Bulk Modulus (GPa) = 9.11133 52.13131 30.62132
# Shear Modulus (GPa) = 11.70176 20.31720 16.00948
#
# Velocity S-wave (km/s) = 2.64714 3.48806 3.09628
# Velocity P-wave (km/s) = 3.84699 6.88766 5.57850
#
# Compressibility (1/GPa) = 0.10975340
#
# Stress axis : x y z
#
# Youngs Moduli (GPa) = 62.90410 9.09856 87.94131
#
# Poissons Ratio (x) = 0.07972 0.77809
# Poissons Ratio (y) = 0.55113 -0.34280
# Poissons Ratio (z) = 0.55657 -0.03547
#
# Static dielectric constant tensor:
#      x y z
#    x 1.570230 0.000000 0.000000 
#    y 0.000000 1.597710 0.000000 
#    z 0.000000 0.000000 1.568430 
# 
# From -- ./inp_files/26546.got.cif
#   From: 2010.05.17/outbox.cif.g08.bks.cpg/sg59_14_cif.got.tgz:26546.got - 2010.06.03 14:40:33.
