data_PCOD9447547
_publ_section_title
;
Structure prediction by ZEFSAII (Michael W. Deem and Ramdas Pophale) SiO2 
 PCOD9447547
Probable space group: P M M N
;
_chemical_formula_sum "Si O2"
_cell_formula_units_Z 64
_cell_length_a 18.136104
_cell_length_b 7.970034
_cell_length_c 24.100912
_cell_angle_alpha 90.000000
_cell_angle_beta 90.000000
_cell_angle_gamma 90.000000
_cell_volume 3483.675134
_symmetry_space_group_name_H-M "P M M N"
_symmetry_group_IT_number 59
_space_group.IT_coordinate_system_code '2'
_symmetry_cell_setting 'orthorhombic'
loop_
_space_group_symop_operation_xyz
x,y,z
1/2-x,1/2-y,z
1/2+x,-y,-z
-x,1/2+y,-z
-x,-y,-z
1/2+x,1/2+y,-z
1/2-x,y,z
x,1/2-y,z
loop_
_atom_site_type_symbol
_atom_site_label
_atom_site_fract_x
_atom_site_fract_y
_atom_site_fract_z
Si Si1 0.051298 0.452446 0.369156
Si Si2 0.929480 0.949753 0.963053
Si Si3 0.596360 0.050004 0.430967
Si Si4 0.167309 0.451026 0.454587
Si Si5 0.024764 0.450674 0.865208
Si Si6 0.670014 0.547824 0.320766
Si Si7 0.476680 0.452348 0.740092
Si Si8 0.166118 0.044567 0.937500
O O1 0.050325 0.250000 0.370923
O O2 0.124313 0.513406 0.400209
O O3 0.981301 0.513145 0.405906
O O4 0.037578 0.502499 0.305740
O O5 0.925004 0.750000 0.959553
O O6 0.860171 0.006905 0.000337
O O7 0.953058 0.014558 0.902915
O O8 0.000000 0.000000 0.000000
O O9 0.592508 0.250000 0.434058
O O10 0.619047 0.984949 0.490844
O O11 0.655794 0.999357 0.384532
O O12 0.250000 0.519313 0.460779
O O13 0.172537 0.250000 0.449695
O O14 0.032987 0.250000 0.862634
O O15 0.014940 0.515112 0.802744
O O16 0.100497 0.511619 0.895572
O O17 0.750000 0.486723 0.302155
O O18 0.669608 0.750000 0.317051
O O19 0.601043 0.484630 0.285203
O O20 0.473648 0.250000 0.742057
O O21 0.250000 0.990644 0.925095
O O22 0.165949 0.250000 0.936127
#
# Coordination Sequence:
#
# PCOD9447547 Si02
#       8
#     8   8   8   8   8   8   8   8
#     4   9  19  34  49  66  89 118 150 184 225 269
#     4   9  16  27  45  67  91 120 151 182 216 255
#     4  10  19  30  46  68  92 117 146 180 221 275
#     4  10  20  33  49  68  89 113 144 186 233 276
#     4   9  17  29  46  68  92 119 152 188 222 259
#     4   9  17  29  44  63  90 122 152 183 221 265
#     4   9  18  31  47  67  89 117 154 189 220 258
#     4   8  14  25  43  68  95 119 144 178 218 256
#
# _framework density 18.371402
#
# number of rings (size 3 to 8) (size 9 to 14) (size 15 to 20)
#    0.000    2.875    0.000    2.250    0.000    4.000 
#    0.000    2.500    0.000   10.125    0.000   10.500 
#    0.000    0.000    0.000    0.000    0.000    0.000 
#
# Total GULP energy -356485.443464 kJ/mol
# GULP energy per Si atom -5570.085054 kJ/mol
# Density = 1.832959 g / cm^3
# Si number density = 18.371402 Si / 1000 Ang^3
#
#
#
# Elastic Constant Matrix: (Units=GPa)
#
#
# Indices 1 2 3 4 5 6 
#
# 1 42.6953 6.7961 43.8651 0.0000 0.0000 0.0000
# 2 6.7961 11.1486 6.0597 0.0000 0.0000 0.0000
# 3 43.8651 6.0597 153.6851 0.0000 0.0000 0.0000
# 4 0.0000 0.0000 0.0000 21.9275 0.0000 0.0000
# 5 0.0000 0.0000 0.0000 0.0000 20.9413 0.0000
# 6 0.0000 0.0000 0.0000 0.0000 0.0000 13.7161
#
#
#
# Elastic Compliance Matrix: (Units=1/GPa)
#
#
# Indices 1 2 3 4 5 6 
#
# 1 0.035942 -0.016692 -0.009601 0.000000 0.000000 0.000000
# 2 -0.016692 0.099414 0.000844 0.000000 0.000000 0.000000
# 3 -0.009601 0.000844 0.009214 0.000000 0.000000 0.000000
# 4 0.000000 0.000000 0.000000 0.045605 0.000000 0.000000
# 5 0.000000 0.000000 0.000000 0.000000 0.047752 0.000000
# 6 0.000000 0.000000 0.000000 0.000000 0.000000 0.072907
#
#
# Mechanical properties :
#
#
# Convention : Reuss Voigt Hill
#
# Bulk Modulus (GPa) = 10.67535 35.66342 23.16938
# Shear Modulus (GPa) = 12.72411 21.37088 17.04749
#
# Velocity S-wave (km/s) = 2.63459 3.41437 3.04951
# Velocity P-wave (km/s) = 3.88307 5.91596 5.00384
#
# Compressibility (1/GPa) = 0.09367379
#
# Stress axis : x y z
#
# Youngs Moduli (GPa) = 27.82226 10.05896 108.53352
#
# Poissons Ratio (x) = 0.16790 1.04199
# Poissons Ratio (y) = 0.46441 -0.09165
# Poissons Ratio (z) = 0.26711 -0.00849
#
# Static dielectric constant tensor:
#      x y z
#    x 1.636900 0.000000 0.000000 
#    y 0.000000 1.671350 0.000000 
#    z 0.000000 0.000000 1.641430 
# 
# From -- ./inp_files/32294.got.cif
#   From: 2010.05.17/outbox.cif.g08.bks.cpg/sg59_17_cif.got.tgz:32294.got - 2010.06.03 14:40:33.
