data_PCOD9447531
_publ_section_title
;
Structure prediction by ZEFSAII (Michael W. Deem and Ramdas Pophale) SiO2 
 PCOD9447531
Probable space group: P M M N
;
_chemical_formula_sum "Si O2"
_cell_formula_units_Z 64
_cell_length_a 24.691060
_cell_length_b 21.215219
_cell_length_c 5.504216
_cell_angle_alpha 90.000000
_cell_angle_beta 90.000000
_cell_angle_gamma 90.000000
_cell_volume 2883.252800
_symmetry_space_group_name_H-M "P M M N"
_symmetry_group_IT_number 59
_space_group.IT_coordinate_system_code '2'
_symmetry_cell_setting 'orthorhombic'
loop_
_space_group_symop_operation_xyz
x,y,z
1/2-x,1/2-y,z
1/2+x,-y,-z
-x,1/2+y,-z
-x,-y,-z
1/2+x,1/2+y,-z
1/2-x,y,z
x,1/2-y,z
loop_
_atom_site_type_symbol
_atom_site_label
_atom_site_fract_x
_atom_site_fract_y
_atom_site_fract_z
Si Si1 0.853197 0.674356 0.391547
Si Si2 0.355067 0.173802 0.108638
Si Si3 0.151950 0.682603 0.255796
Si Si4 0.089463 0.660976 0.755244
Si Si5 0.979199 0.627105 0.859775
Si Si6 0.688017 0.460530 0.731429
Si Si7 0.045089 0.408929 0.642229
Si Si8 0.626808 0.481298 0.230793
O O1 0.850423 0.750000 0.392549
O O2 0.829390 0.650139 0.642661
O O3 0.915904 0.652415 0.388835
O O4 0.829033 0.650772 0.140089
O O5 0.353064 0.250000 0.108728
O O6 0.418314 0.153864 0.110707
O O7 0.182100 0.750000 0.267693
O O8 0.114031 0.681196 0.496851
O O9 0.183470 0.616347 0.262693
O O10 0.120352 0.682627 0.998236
O O11 0.096587 0.585539 0.761255
O O12 0.025956 0.674948 0.780533
O O13 0.976635 0.579582 0.629109
O O14 0.994408 0.602450 0.129970
O O15 0.750000 0.478909 0.755690
O O16 0.665044 0.481580 0.469457
O O17 0.655220 0.485181 0.967129
O O18 0.084303 0.463567 0.730847
#
# Coordination Sequence:
#
# PCOD9447531 Si02
#       8
#     8   8   8   8   8   8   8   8
#     4   8  14  25  39  58  87 120 157 200 240 277
#     4   8  14  23  35  53  79 114 159 206 239 270
#     4  10  21  37  56  79 107 140 180 227 280 331
#     4  10  21  35  49  72 107 142 180 223 263 311
#     4  10  19  30  45  68  98 141 186 214 253 303
#     4  10  21  39  61  82 106 134 169 223 289 352
#     4  10  19  31  49  72 102 139 181 223 259 304
#     4  10  21  36  54  78 106 134 169 220 275 325
#
# _framework density 22.197151999999999
#
# number of rings (size 3 to 8) (size 9 to 14) (size 15 to 20)
#    0.000    2.500    0.000    2.250    0.000    2.250 
#    0.000    5.000    0.000    4.500    0.000    0.000 
#    0.000    3.000    0.000    0.000    0.000    0.000 
#
# Total GULP energy -356512.401221 kJ/mol
# GULP energy per Si atom -5570.506269 kJ/mol
# Density = 2.214663 g / cm^3
# Si number density = 22.197152 Si / 1000 Ang^3
#
#
#
# Elastic Constant Matrix: (Units=GPa)
#
#
# Indices 1 2 3 4 5 6 
#
# 1 10.1141 3.7490 -4.8034 0.0000 0.0000 0.0000
# 2 3.7490 27.8516 -6.5137 0.0000 0.0000 0.0000
# 3 -4.8034 -6.5137 201.2246 0.0000 0.0000 0.0000
# 4 0.0000 0.0000 0.0000 42.8852 0.0000 0.0000
# 5 0.0000 0.0000 0.0000 0.0000 12.0492 0.0000
# 6 0.0000 0.0000 0.0000 0.0000 0.0000 36.3648
#
#
#
# Elastic Compliance Matrix: (Units=1/GPa)
#
#
# Indices 1 2 3 4 5 6 
#
# 1 0.104907 -0.013639 0.002063 0.000000 0.000000 0.000000
# 2 -0.013639 0.037952 0.000903 0.000000 0.000000 0.000000
# 3 0.002063 0.000903 0.005048 0.000000 0.000000 0.000000
# 4 0.000000 0.000000 0.000000 0.023318 0.000000 0.000000
# 5 0.000000 0.000000 0.000000 0.000000 0.082993 0.000000
# 6 0.000000 0.000000 0.000000 0.000000 0.000000 0.027499
#
#
# Mechanical properties :
#
#
# Convention : Reuss Voigt Hill
#
# Bulk Modulus (GPa) = 7.90137 24.89489 16.39813
# Shear Modulus (GPa) = 14.48228 34.71039 24.59634
#
# Velocity S-wave (km/s) = 2.55706 3.95869 3.33240
# Velocity P-wave (km/s) = 3.50506 5.66875 4.71276
#
# Compressibility (1/GPa) = 0.12656038
#
# Stress axis : x y z
#
# Youngs Moduli (GPa) = 9.53228 26.34933 198.09670
#
# Poissons Ratio (x) = 0.35937 -0.40862
# Poissons Ratio (y) = 0.13001 -0.17887
# Poissons Ratio (z) = -0.01966 -0.02379
#
# Static dielectric constant tensor:
#      x y z
#    x 1.777050 0.000000 0.000000 
#    y 0.000000 1.819240 0.000000 
#    z 0.000000 0.000000 1.926340 
# 
# From -- ./inp_files/3948.got.cif
#   From: 2010.05.17/outbox.cif.g08.bks.cpg/sg59_2_cif.got.tgz:3948.got - 2010.06.03 14:40:33.
