data_PCOD9447208
_publ_section_title
;
Structure prediction by ZEFSAII (Michael W. Deem and Ramdas Pophale) SiO2 
 PCOD9447208
Probable space group: P M M N
;
_chemical_formula_sum "Si O2"
_cell_formula_units_Z 64
_cell_length_a 7.529535
_cell_length_b 19.445189
_cell_length_c 20.481623
_cell_angle_alpha 90.000000
_cell_angle_beta 90.000000
_cell_angle_gamma 90.000000
_cell_volume 2998.780603
_symmetry_space_group_name_H-M "P M M N"
_symmetry_group_IT_number 59
_space_group.IT_coordinate_system_code '2'
_symmetry_cell_setting 'orthorhombic'
loop_
_space_group_symop_operation_xyz
x,y,z
1/2-x,1/2-y,z
1/2+x,-y,-z
-x,1/2+y,-z
-x,-y,-z
1/2+x,1/2+y,-z
1/2-x,y,z
x,1/2-y,z
loop_
_atom_site_type_symbol
_atom_site_label
_atom_site_fract_x
_atom_site_fract_y
_atom_site_fract_z
Si Si1 0.036641 0.419576 0.987873
Si Si2 0.464296 0.439664 0.214847
Si Si3 0.465711 0.170648 0.718095
Si Si4 0.539950 0.911989 0.156608
Si Si5 0.455512 0.590319 0.413764
Si Si6 0.031436 0.444507 0.365100
Si Si7 0.967379 0.670773 0.889174
Si Si8 0.457017 0.173212 0.459125
O O1 0.250000 0.412407 0.986708
O O2 0.966932 0.400520 0.915944
O O3 0.972974 0.371389 0.046736
O O4 0.000000 0.500000 0.000000
O O5 0.250000 0.438486 0.216304
O O6 0.517109 0.508602 0.176667
O O7 0.525493 0.443482 0.289681
O O8 0.523180 0.373108 0.174122
O O9 0.250000 0.168039 0.717195
O O10 0.519353 0.250000 0.715437
O O11 0.530730 0.134051 0.784160
O O12 0.529094 0.129800 0.654774
O O13 0.750000 0.897491 0.153370
O O14 0.250000 0.582917 0.431549
O O15 0.528762 0.513965 0.401444
O O16 0.536717 0.635264 0.471297
O O17 0.250000 0.446266 0.365149
O O18 0.968494 0.378165 0.404752
O O19 0.750000 0.670930 0.889607
O O20 0.024538 0.750000 0.888905
O O21 0.250000 0.180223 0.442288
O O22 0.534080 0.250000 0.462384
#
# Coordination Sequence:
#
# PCOD9447208 Si02
#       8
#     8   8   8   8   8   8   8   8
#     4  10  19  32  53  78 106 140 178 219 261 313
#     4  10  18  33  56  79 106 139 176 219 263 314
#     4  10  21  36  53  76 107 141 175 213 262 316
#     4  10  20  33  52  78 105 137 177 218 261 311
#     4  11  21  35  56  80 107 138 174 218 262 314
#     4   9  19  34  54  80 105 134 176 218 260 310
#     4   9  18  31  51  81 110 138 176 222 268 309
#     4  10  21  37  55  76 106 141 175 215 264 316
#
# _framework density 21.342008
#
# number of rings (size 3 to 8) (size 9 to 14) (size 15 to 20)
#    0.000    2.125    2.500    1.125    0.000    3.000 
#    0.000    6.250    0.000    1.500    0.000    1.750 
#    0.000    0.000    0.000    0.000    0.000    0.000 
#
# Total GULP energy -357545.190022 kJ/mol
# GULP energy per Si atom -5586.643594 kJ/mol
# Density = 2.129343 g / cm^3
# Si number density = 21.342008 Si / 1000 Ang^3
#
#
#
# Elastic Constant Matrix: (Units=GPa)
#
#
# Indices 1 2 3 4 5 6 
#
# 1 51.9199 -2.7839 -7.9935 0.0000 0.0000 0.0000
# 2 -2.7839 148.2059 42.9360 0.0000 0.0000 0.0000
# 3 -7.9935 42.9360 73.3382 0.0000 0.0000 0.0000
# 4 0.0000 0.0000 0.0000 31.7100 0.0000 0.0000
# 5 0.0000 0.0000 0.0000 0.0000 5.5253 0.0000
# 6 0.0000 0.0000 0.0000 0.0000 0.0000 15.4171
#
#
#
# Elastic Compliance Matrix: (Units=1/GPa)
#
#
# Indices 1 2 3 4 5 6 
#
# 1 0.019600 -0.000302 0.002313 0.000000 0.000000 0.000000
# 2 -0.000302 0.008130 -0.004793 0.000000 0.000000 0.000000
# 3 0.002313 -0.004793 0.016693 0.000000 0.000000 0.000000
# 4 0.000000 0.000000 0.000000 0.031536 0.000000 0.000000
# 5 0.000000 0.000000 0.000000 0.000000 0.180986 0.000000
# 6 0.000000 0.000000 0.000000 0.000000 0.000000 0.064863
#
#
# Mechanical properties :
#
#
# Convention : Reuss Voigt Hill
#
# Bulk Modulus (GPa) = 25.73283 37.53126 31.63204
# Shear Modulus (GPa) = 14.69183 26.61752 20.65467
#
# Velocity S-wave (km/s) = 2.62658 3.53539 3.11431
# Velocity P-wave (km/s) = 4.61326 5.85569 5.27121
#
# Compressibility (1/GPa) = 0.03886086
#
# Stress axis : x y z
#
# Youngs Moduli (GPa) = 51.01949 122.99854 59.90360
#
# Poissons Ratio (x) = 0.03714 -0.13856
# Poissons Ratio (y) = 0.01540 0.28710
# Poissons Ratio (z) = -0.11801 0.58950
#
# Static dielectric constant tensor:
#      x y z
#    x 1.834060 0.000000 0.000000 
#    y 0.000000 1.738200 0.000000 
#    z 0.000000 0.000000 1.744310 
# 
# From -- ./inp_files/26173.got.cif
#   From: 2010.05.17/outbox.cif.g08.bks.cpg/sg59_14_cif.got.tgz:26173.got - 2010.06.03 14:40:33.
