data_PCOD9447466
_publ_section_title
;
Structure prediction by ZEFSAII (Michael W. Deem and Ramdas Pophale) SiO2 
 PCOD9447466
Probable space group: P M M N
;
_chemical_formula_sum "Si O2"
_cell_formula_units_Z 64
_cell_length_a 7.377464
_cell_length_b 14.464556
_cell_length_c 27.117929
_cell_angle_alpha 90.000000
_cell_angle_beta 90.000000
_cell_angle_gamma 90.000000
_cell_volume 2893.801420
_symmetry_space_group_name_H-M "P M M N"
_symmetry_group_IT_number 59
_space_group.IT_coordinate_system_code '2'
_symmetry_cell_setting 'orthorhombic'
loop_
_space_group_symop_operation_xyz
x,y,z
1/2-x,1/2-y,z
1/2+x,-y,-z
-x,1/2+y,-z
-x,-y,-z
1/2+x,1/2+y,-z
1/2-x,y,z
x,1/2-y,z
loop_
_atom_site_type_symbol
_atom_site_label
_atom_site_fract_x
_atom_site_fract_y
_atom_site_fract_z
Si Si1 0.537392 0.646514 0.915712
Si Si2 0.971671 0.143021 0.776712
Si Si3 0.968204 0.355117 0.366110
Si Si4 0.036177 0.541866 0.321571
Si Si5 0.468199 0.856374 0.026674
Si Si6 0.471361 0.641621 0.419641
Si Si7 0.972178 0.461585 0.875375
Si Si8 0.037888 0.862777 0.526230
O O1 0.750000 0.654653 0.905101
O O2 0.458566 0.750000 0.913365
O O3 0.523600 0.611330 0.972263
O O4 0.465653 0.567480 0.879900
O O5 0.750000 0.142235 0.776977
O O6 0.026854 0.250000 0.775547
O O7 0.034179 0.088564 0.728076
O O8 0.029748 0.092181 0.826671
O O9 0.750000 0.351250 0.369740
O O10 0.030315 0.250000 0.356663
O O11 0.038780 0.387781 0.420186
O O12 0.013840 0.431991 0.326109
O O13 0.250000 0.562005 0.321984
O O14 0.962768 0.586585 0.372052
O O15 0.250000 0.857743 0.027285
O O16 0.528263 0.750000 0.030593
O O17 0.531189 0.911197 0.074414
O O18 0.250000 0.637960 0.421104
O O19 0.518849 0.750000 0.414707
O O20 0.536251 0.605952 0.473271
O O21 0.750000 0.461003 0.875467
O O22 0.250000 0.887349 0.526737
O O23 0.028306 0.750000 0.525099
#
# Coordination Sequence:
#
# PCOD9447466 Si02
#       8
#     8   8   8   8   8   8   8   8
#     4   9  17  28  42  63  92 121 147 180 224 269
#     4   9  17  30  48  70  95 120 149 187 228 271
#     4   9  18  33  50  65  86 121 159 188 220 271
#     4  10  19  29  46  73  96 115 146 191 238 272
#     4   9  16  26  43  67  91 116 149 186 221 259
#     4   8  13  23  41  66  95 122 148 182 226 276
#     4   9  16  27  44  65  89 120 156 187 216 257
#     4   7  11  22  41  63  86 116 153 185 214 262
#
# _framework density 22.116237999999999
#
# number of rings (size 3 to 8) (size 9 to 14) (size 15 to 20)
#    0.000    3.250    0.000    2.625    0.000    3.750 
#    0.000    0.625    0.000    5.250    0.000    3.500 
#    0.000    0.000    0.000    0.000    0.000    0.000 
#
# Total GULP energy -357215.784912 kJ/mol
# GULP energy per Si atom -5581.496639 kJ/mol
# Density = 2.206590 g / cm^3
# Si number density = 22.116238 Si / 1000 Ang^3
#
#
#
# Elastic Constant Matrix: (Units=GPa)
#
#
# Indices 1 2 3 4 5 6 
#
# 1 78.3409 -0.9974 2.2063 0.0000 0.0000 0.0000
# 2 -0.9974 139.2046 117.8594 0.0000 0.0000 0.0000
# 3 2.2063 117.8594 143.0491 0.0000 0.0000 0.0000
# 4 0.0000 0.0000 0.0000 41.6059 0.0000 0.0000
# 5 0.0000 0.0000 0.0000 0.0000 7.8395 0.0000
# 6 0.0000 0.0000 0.0000 0.0000 0.0000 3.2570
#
#
#
# Elastic Compliance Matrix: (Units=1/GPa)
#
#
# Indices 1 2 3 4 5 6 
#
# 1 0.012801 0.000856 -0.000903 0.000000 0.000000 0.000000
# 2 0.000856 0.023811 -0.019631 0.000000 0.000000 0.000000
# 3 -0.000903 -0.019631 0.023179 0.000000 0.000000 0.000000
# 4 0.000000 0.000000 0.000000 0.024035 0.000000 0.000000
# 5 0.000000 0.000000 0.000000 0.000000 0.127558 0.000000
# 6 0.000000 0.000000 0.000000 0.000000 0.000000 0.307033
#
#
# Mechanical properties :
#
#
# Convention : Reuss Voigt Hill
#
# Bulk Modulus (GPa) = 48.93574 66.52571 57.73073
# Shear Modulus (GPa) = 8.85607 26.64223 17.74915
#
# Velocity S-wave (km/s) = 2.00325 3.47457 2.83599
# Velocity P-wave (km/s) = 5.24646 6.80016 6.07320
#
# Compressibility (1/GPa) = 0.02043496
#
# Stress axis : x y z
#
# Youngs Moduli (GPa) = 78.11866 41.99796 43.14305
#
# Poissons Ratio (x) = -0.03595 0.03895
# Poissons Ratio (y) = -0.06687 0.84694
# Poissons Ratio (z) = 0.07052 0.82446
#
# Static dielectric constant tensor:
#      x y z
#    x 1.870460 0.000000 0.000000 
#    y 0.000000 1.819540 0.000000 
#    z 0.000000 0.000000 1.785830 
# 
# From -- ./inp_files/31561.got.cif
#   From: 2010.05.17/outbox.cif.g08.bks.cpg/sg59_16_cif.got.tgz:31561.got - 2010.06.03 14:40:33.
