data_PCOD9447301
_publ_section_title
;
Structure prediction by ZEFSAII (Michael W. Deem and Ramdas Pophale) SiO2 
 PCOD9447301
Probable space group: P M M N
;
_chemical_formula_sum "Si O2"
_cell_formula_units_Z 48
_cell_length_a 14.555366
_cell_length_b 8.413895
_cell_length_c 20.823590
_cell_angle_alpha 90.000000
_cell_angle_beta 90.000000
_cell_angle_gamma 90.000000
_cell_volume 2550.209285
_symmetry_space_group_name_H-M "P M M N"
_symmetry_group_IT_number 59
_space_group.IT_coordinate_system_code '2'
_symmetry_cell_setting 'orthorhombic'
loop_
_space_group_symop_operation_xyz
x,y,z
1/2-x,1/2-y,z
1/2+x,-y,-z
-x,1/2+y,-z
-x,-y,-z
1/2+x,1/2+y,-z
1/2-x,y,z
x,1/2-y,z
loop_
_atom_site_type_symbol
_atom_site_label
_atom_site_fract_x
_atom_site_fract_y
_atom_site_fract_z
Si Si1 0.250000 0.559804 0.362554
Si Si2 0.750000 0.942497 0.993350
Si Si3 0.442606 0.441722 0.060397
Si Si4 0.553346 0.559770 0.683622
Si Si5 0.549691 0.444250 0.187191
Si Si6 0.057015 0.060578 0.560896
Si Si7 0.250000 0.942217 0.858921
Si Si8 0.250000 0.941113 0.512816
O O1 0.250000 0.750000 0.363628
O O2 0.156440 0.503381 0.328386
O O3 0.250000 0.505523 0.437693
O O4 0.750000 0.750000 0.997113
O O5 0.750000 0.004266 0.066558
O O6 0.660624 0.994397 0.954078
O O7 0.443524 0.250000 0.061909
O O8 0.489998 0.496589 0.125837
O O9 0.500000 0.500000 0.000000
O O10 0.559335 0.750000 0.686295
O O11 0.501760 0.503367 0.748212
O O12 0.490483 0.509583 0.623835
O O13 0.551016 0.250000 0.188150
O O14 0.655507 0.495013 0.175728
O O15 0.052955 0.250000 0.563800
O O16 0.160228 0.003361 0.548807
O O17 0.000000 0.000000 0.500000
O O18 0.250000 0.750000 0.859002
O O19 0.250000 0.750000 0.512766
#
# Coordination Sequence:
#
# PCOD9447301 Si02
#       8
#     4   4   8   8   8   8   4   4
#     4  11  23  40  63  89 120 158 201 252 310 361
#     4  10  20  31  52  86 119 149 189 244 298 344
#     4  10  19  34  55  83 115 149 195 243 291 346
#     4  11  23  40  63  90 122 162 206 248 302 366
#     4   9  20  36  58  87 117 156 199 243 292 355
#     4  12  24  40  63  93 125 159 202 251 302 358
#     4  10  18  35  60  83 113 153 197 239 286 352
#     4  11  23  40  65  94 124 160 203 253 304 357
#
# _framework density 18.821984
#
# number of rings (size 3 to 8) (size 9 to 14) (size 15 to 20)
#    0.000    1.500    3.333    2.500    0.000    2.000 
#    0.000    7.500    0.000    1.000    0.000    0.000 
#    0.000    0.000    0.000    0.000    0.000    0.000 
#
# Total GULP energy -268088.225515 kJ/mol
# GULP energy per Si atom -5585.171365 kJ/mol
# Density = 1.877914 g / cm^3
# Si number density = 18.821984 Si / 1000 Ang^3
#
#
#
# Elastic Constant Matrix: (Units=GPa)
#
#
# Indices 1 2 3 4 5 6 
#
# 1 229.9416 26.4824 113.3426 0.0000 0.0000 0.0000
# 2 26.4824 31.9386 17.7769 0.0000 0.0000 0.0000
# 3 113.3426 17.7769 181.2097 0.0000 0.0000 0.0000
# 4 0.0000 0.0000 0.0000 26.1490 0.0000 0.0000
# 5 0.0000 0.0000 0.0000 0.0000 32.4328 0.0000
# 6 0.0000 0.0000 0.0000 0.0000 0.0000 25.9863
#
#
#
# Elastic Compliance Matrix: (Units=1/GPa)
#
#
# Indices 1 2 3 4 5 6 
#
# 1 0.006612 -0.003364 -0.003806 0.000000 0.000000 0.000000
# 2 -0.003364 0.034830 -0.001312 0.000000 0.000000 0.000000
# 3 -0.003806 -0.001312 0.008028 0.000000 0.000000 0.000000
# 4 0.000000 0.000000 0.000000 0.038242 0.000000 0.000000
# 5 0.000000 0.000000 0.000000 0.000000 0.030833 0.000000
# 6 0.000000 0.000000 0.000000 0.000000 0.000000 0.038482
#
#
# Mechanical properties :
#
#
# Convention : Reuss Voigt Hill
#
# Bulk Modulus (GPa) = 30.76471 84.25486 57.50979
# Shear Modulus (GPa) = 27.05217 35.94615 31.49916
#
# Velocity S-wave (km/s) = 3.79524 4.37486 4.09532
# Velocity P-wave (km/s) = 5.96538 8.38931 7.27895
#
# Compressibility (1/GPa) = 0.03250477
#
# Stress axis : x y z
#
# Youngs Moduli (GPa) = 151.23124 28.71065 124.56871
#
# Poissons Ratio (x) = 0.09660 0.47409
# Poissons Ratio (y) = 0.50881 0.16350
# Poissons Ratio (z) = 0.57556 0.03768
#
# Static dielectric constant tensor:
#      x y z
#    x 1.608130 0.000000 0.000000 
#    y 0.000000 1.648070 0.000000 
#    z 0.000000 0.000000 1.621710 
# 
# From -- ./inp_files/27489.got.cif
#   From: 2010.05.17/outbox.cif.g08.bks.cpg/sg59_14_cif.got.tgz:27489.got - 2010.06.03 14:40:33.
