data_PCOD9447710
_publ_section_title
;
Structure prediction by ZEFSAII (Michael W. Deem and Ramdas Pophale) SiO2 
 PCOD9447710
Probable space group: P M M N
;
_chemical_formula_sum "Si O2"
_cell_formula_units_Z 56
_cell_length_a 7.472163
_cell_length_b 15.955036
_cell_length_c 21.976906
_cell_angle_alpha 90.000000
_cell_angle_beta 90.000000
_cell_angle_gamma 90.000000
_cell_volume 2620.056618
_symmetry_space_group_name_H-M "P M M N"
_symmetry_group_IT_number 59
_space_group.IT_coordinate_system_code '2'
_symmetry_cell_setting 'orthorhombic'
loop_
_space_group_symop_operation_xyz
x,y,z
1/2-x,1/2-y,z
1/2+x,-y,-z
-x,1/2+y,-z
-x,-y,-z
1/2+x,1/2+y,-z
1/2-x,y,z
x,1/2-y,z
loop_
_atom_site_type_symbol
_atom_site_label
_atom_site_fract_x
_atom_site_fract_y
_atom_site_fract_z
Si Si1 0.470087 0.995191 0.789533
Si Si2 0.968390 0.345276 0.439267
Si Si3 0.531562 0.342443 0.125164
Si Si4 0.537592 0.401301 0.993938
Si Si5 0.965818 0.344280 0.578875
Si Si6 0.541546 0.842095 0.140225
Si Si7 0.460670 0.511511 0.651608
O O1 0.250000 0.995901 0.790216
O O2 0.533439 0.081030 0.820947
O O3 0.531584 0.987451 0.720156
O O4 0.526382 0.916861 0.830814
O O5 0.750000 0.347083 0.439693
O O6 0.020074 0.250000 0.422404
O O7 0.024705 0.360450 0.509154
O O8 0.033521 0.417082 0.393694
O O9 0.750000 0.344743 0.124207
O O10 0.477373 0.250000 0.145578
O O11 0.471740 0.358613 0.055921
O O12 0.750000 0.388716 0.991117
O O13 0.500000 0.500000 0.000000
O O14 0.464583 0.365709 0.931004
O O15 0.750000 0.343136 0.578585
O O16 0.025523 0.250000 0.596265
O O17 0.021280 0.419920 0.621958
O O18 0.750000 0.837091 0.157282
O O19 0.461507 0.750000 0.149629
O O20 0.250000 0.529670 0.656982
#
# Coordination Sequence:
#
# PCOD9447710 Si02
#       7
#     8   8   8   8   8   8   8
#     4   9  18  32  47  71 104 134 164 201 251 303
#     4   8  15  29  49  75 104 131 162 204 255 305
#     4   9  17  30  50  74  99 126 158 200 249 298
#     4  11  20  33  55  79 104 130 164 211 259 302
#     4   9  18  33  51  70  99 137 168 201 253 309
#     4  10  20  35  53  72 100 138 172 205 253 306
#     4  10  19  30  51  78 101 129 169 214 250 290
#
# _framework density 21.373584999999999
#
# number of rings (size 3 to 8) (size 9 to 14) (size 15 to 20)
#    0.000    2.571    1.429    2.143    0.000    2.286 
#    0.000    5.000    0.000    1.286    0.000    0.000 
#    0.000    0.000    0.000    0.000    0.000    0.000 
#
# Total GULP energy -312734.744446 kJ/mol
# GULP energy per Si atom -5584.549008 kJ/mol
# Density = 2.132494 g / cm^3
# Si number density = 21.373585 Si / 1000 Ang^3
#
#
#
# Elastic Constant Matrix: (Units=GPa)
#
#
# Indices 1 2 3 4 5 6 
#
# 1 59.7239 -6.6606 -4.6293 0.0000 0.0000 0.0000
# 2 -6.6606 137.8033 54.8546 0.0000 0.0000 0.0000
# 3 -4.6293 54.8546 104.4032 0.0000 0.0000 0.0000
# 4 0.0000 0.0000 0.0000 -4.8155 0.0000 0.0000
# 5 0.0000 0.0000 0.0000 0.0000 -159.3286 0.0000
# 6 0.0000 0.0000 0.0000 0.0000 0.0000 3.0957
#
#
#
# Elastic Compliance Matrix: (Units=1/GPa)
#
#
# Indices 1 2 3 4 5 6 
#
# 1 0.016848 0.000654 0.000404 0.000000 0.000000 0.000000
# 2 0.000654 0.009201 -0.004805 0.000000 0.000000 0.000000
# 3 0.000404 -0.004805 0.012121 0.000000 0.000000 0.000000
# 4 0.000000 0.000000 0.000000 -0.207664 0.000000 0.000000
# 5 0.000000 0.000000 0.000000 0.000000 -0.006276 0.000000
# 6 0.000000 0.000000 0.000000 0.000000 0.000000 0.323030
#
#
# Mechanical properties :
#
#
# Convention : Reuss Voigt Hill
#
# Bulk Modulus (GPa) = 32.60118 43.22888 37.91503
# Shear Modulus (GPa) = 30.30667 -14.98529 7.66069
#
# Velocity S-wave (km/s) = 3.76965 -2.65073 1.89525
# Velocity P-wave (km/s) = 5.85091 3.30164 4.75047
#
# Compressibility (1/GPa) = 0.03067373
#
# Stress axis : x y z
#
# Youngs Moduli (GPa) = 59.35462 108.68169 82.50169
#
# Poissons Ratio (x) = -0.07104 -0.03330
# Poissons Ratio (y) = -0.03880 0.39646
# Poissons Ratio (z) = -0.02396 0.52226
#
# Static dielectric constant tensor:
#      x y z
#    x 1.846280 0.000000 0.000000 
#    y 0.000000 1.755340 0.000000 
#    z 0.000000 0.000000 1.728640 
# 
# From -- ./inp_files/29101.got.cif
#   From: 2010.05.17/outbox.cif.g08.bks.cpg/sg59_15_cif.got.tgz:29101.got - 2010.06.03 14:40:33.
