data_PCOD9447643
_publ_section_title
;
Structure prediction by ZEFSAII (Michael W. Deem and Ramdas Pophale) SiO2 
 PCOD9447643
Probable space group: P M M N
;
_chemical_formula_sum "Si O2"
_cell_formula_units_Z 64
_cell_length_a 22.948721
_cell_length_b 9.321205
_cell_length_c 15.718510
_cell_angle_alpha 90.000000
_cell_angle_beta 90.000000
_cell_angle_gamma 90.000000
_cell_volume 3362.342276
_symmetry_space_group_name_H-M "P M M N"
_symmetry_group_IT_number 59
_space_group.IT_coordinate_system_code '2'
_symmetry_cell_setting 'orthorhombic'
loop_
_space_group_symop_operation_xyz
x,y,z
1/2-x,1/2-y,z
1/2+x,-y,-z
-x,1/2+y,-z
-x,-y,-z
1/2+x,1/2+y,-z
1/2-x,y,z
x,1/2-y,z
loop_
_atom_site_type_symbol
_atom_site_label
_atom_site_fract_x
_atom_site_fract_y
_atom_site_fract_z
Si Si1 0.502805 0.910850 0.766739
Si Si2 0.361795 0.080592 0.264120
Si Si3 0.342654 0.585265 0.089121
Si Si4 0.319998 0.085661 0.596744
Si Si5 0.628253 0.081621 0.246056
Si Si6 0.817836 0.579352 0.086435
Si Si7 0.179909 0.585507 0.430173
Si Si8 0.981230 0.403668 0.924427
O O1 0.504226 0.750000 0.805672
O O2 0.567187 0.929148 0.727543
O O3 0.439719 0.921063 0.723563
O O4 0.498997 0.030945 0.837072
O O5 0.347276 0.250000 0.261431
O O6 0.338488 0.002521 0.178059
O O7 0.336311 0.000628 0.345561
O O8 0.319419 0.750000 0.093936
O O9 0.411840 0.600428 0.077003
O O10 0.321722 0.496780 0.006426
O O11 0.250000 0.091533 0.591484
O O12 0.341643 0.250000 0.598471
O O13 0.336575 0.000753 0.681474
O O14 0.341259 0.999584 0.513607
O O15 0.644238 0.250000 0.237903
O O16 0.642198 0.003184 0.155933
O O17 0.750000 0.568227 0.114513
O O18 0.831990 0.750000 0.080768
O O19 0.250000 0.591273 0.435125
O O20 0.158374 0.750000 0.427685
O O21 0.007797 0.250000 0.937391
O O22 0.000000 0.500000 0.000000
#
# Coordination Sequence:
#
# PCOD9447643 Si02
#       8
#     8   8   8   8   8   8   8   8
#     4   9  20  36  53  77 109 144 183 226 270 323
#     4  10  20  37  60  84 114 150 186 227 276 328
#     4  10  21  36  53  76 106 141 182 224 269 322
#     4  10  21  38  60  86 114 144 183 230 278 331
#     4  11  22  37  58  83 112 147 187 230 279 332
#     4  11  24  39  54  77 110 147 189 235 282 334
#     4  10  21  38  61  88 115 143 179 225 276 330
#     4  10  19  30  48  73 100 133 175 222 267 314
#
# _framework density 19.03435
#
# number of rings (size 3 to 8) (size 9 to 14) (size 15 to 20)
#    0.000    1.875    0.000    3.750    0.000   10.500 
#    0.000    0.625    0.000    0.000    0.000    0.000 
#    0.000    0.000    0.000    0.000    0.000    0.000 
#
# Total GULP energy -356763.824776 kJ/mol
# GULP energy per Si atom -5574.434762 kJ/mol
# Density = 1.899103 g / cm^3
# Si number density = 19.034350 Si / 1000 Ang^3
#
#
#
# Elastic Constant Matrix: (Units=GPa)
#
#
# Indices 1 2 3 4 5 6 
#
# 1 31.8167 25.8972 17.2462 0.0000 0.0000 0.0000
# 2 25.8972 167.7075 65.0040 0.0000 0.0000 0.0000
# 3 17.2462 65.0040 105.3449 0.0000 0.0000 0.0000
# 4 0.0000 0.0000 0.0000 30.0794 0.0000 0.0000
# 5 0.0000 0.0000 0.0000 0.0000 -15.3166 0.0000
# 6 0.0000 0.0000 0.0000 0.0000 0.0000 21.1532
#
#
#
# Elastic Compliance Matrix: (Units=1/GPa)
#
#
# Indices 1 2 3 4 5 6 
#
# 1 0.036806 -0.004400 -0.003310 0.000000 0.000000 0.000000
# 2 -0.004400 0.008363 -0.004440 0.000000 0.000000 0.000000
# 3 -0.003310 -0.004440 0.012774 0.000000 0.000000 0.000000
# 4 0.000000 0.000000 0.000000 0.033245 0.000000 0.000000
# 5 0.000000 0.000000 0.000000 0.000000 -0.065289 0.000000
# 6 0.000000 0.000000 0.000000 0.000000 0.000000 0.047274
#
#
# Mechanical properties :
#
#
# Convention : Reuss Voigt Hill
#
# Bulk Modulus (GPa) = 29.72483 57.90710 43.81596
# Shear Modulus (GPa) = 46.00219 20.29800 33.15009
#
# Velocity S-wave (km/s) = 4.92143 3.26910 4.17777
# Velocity P-wave (km/s) = 6.92418 6.68863 6.80743
#
# Compressibility (1/GPa) = 0.03364190
#
# Stress axis : x y z
#
# Youngs Moduli (GPa) = 27.16942 119.56953 78.28118
#
# Poissons Ratio (x) = 0.52616 0.25913
# Poissons Ratio (y) = 0.11956 0.34759
# Poissons Ratio (z) = 0.08994 0.53092
#
# Static dielectric constant tensor:
#      x y z
#    x 1.698460 0.000000 0.000000 
#    y 0.000000 1.679310 0.000000 
#    z 0.000000 0.000000 1.710870 
# 
# From -- ./inp_files/24677.got.cif
#   From: 2010.05.17/outbox.cif.g08.bks.cpg/sg59_13_cif.got.tgz:24677.got - 2010.06.03 14:40:33.
