data_PCOD9447797
_publ_section_title
;
Structure prediction by ZEFSAII (Michael W. Deem and Ramdas Pophale) SiO2 
 PCOD9447797
Probable space group: P M M N
;
_chemical_formula_sum "Si O2"
_cell_formula_units_Z 40
_cell_length_a 7.634892
_cell_length_b 13.747946
_cell_length_c 15.633716
_cell_angle_alpha 90.000000
_cell_angle_beta 90.000000
_cell_angle_gamma 90.000000
_cell_volume 1640.978663
_symmetry_space_group_name_H-M "P M M N"
_symmetry_group_IT_number 59
_space_group.IT_coordinate_system_code '2'
_symmetry_cell_setting 'orthorhombic'
loop_
_space_group_symop_operation_xyz
x,y,z
1/2-x,1/2-y,z
1/2+x,-y,-z
-x,1/2+y,-z
-x,-y,-z
1/2+x,1/2+y,-z
1/2-x,y,z
x,1/2-y,z
loop_
_atom_site_type_symbol
_atom_site_label
_atom_site_fract_x
_atom_site_fract_y
_atom_site_fract_z
Si Si1 0.455244 0.576625 0.205782
Si Si2 0.537484 0.146706 0.166495
Si Si3 0.547993 0.355548 0.430492
Si Si4 0.045597 0.068740 0.607768
Si Si5 0.540892 0.110943 0.978739
O O1 0.250000 0.597834 0.208411
O O2 0.477027 0.458804 0.198451
O O3 0.531785 0.607390 0.296392
O O4 0.527108 0.624530 0.117894
O O5 0.750000 0.141946 0.168440
O O6 0.486893 0.250000 0.209085
O O7 0.478230 0.155178 0.067546
O O8 0.750000 0.352868 0.400480
O O9 0.468582 0.250000 0.411142
O O10 0.544213 0.370499 0.533087
O O11 0.473726 0.457346 0.395195
O O12 0.250000 0.064114 0.583773
O O13 0.750000 0.128522 0.975101
O O14 0.500000 0.000000 0.000000
#
# Coordination Sequence:
#
# PCOD9447797 Si02
#       5
#     8   8   8   8   8
#     4  10  19  31  48  71 100 132 167 206 249 299
#     4   9  17  30  48  69  94 126 166 211 257 302
#     4   9  19  37  58  77 100 133 171 211 258 311
#     4  10  20  34  54  80 107 135 170 211 257 309
#     4   8  15  28  45  64  88 122 161 197 236 284
#
# _framework density 24.375698
#
# number of rings (size 3 to 8) (size 9 to 14) (size 15 to 20)
#    0.000    2.800    0.000    1.200    0.000    3.200 
#    0.000    3.000    0.000    3.600    0.000    0.000 
#    0.000    0.000    0.000    0.000    0.000    0.000 
#
# Total GULP energy -222963.251716 kJ/mol
# GULP energy per Si atom -5574.081293 kJ/mol
# Density = 2.432022 g / cm^3
# Si number density = 24.375698 Si / 1000 Ang^3
#
#
#
# Elastic Constant Matrix: (Units=GPa)
#
#
# Indices 1 2 3 4 5 6 
#
# 1 56.5614 -3.7177 -5.9027 0.0000 0.0000 0.0000
# 2 -3.7177 74.5662 -8.8867 0.0000 0.0000 0.0000
# 3 -5.9027 -8.8867 159.4226 0.0000 0.0000 0.0000
# 4 0.0000 0.0000 0.0000 -8.6837 0.0000 0.0000
# 5 0.0000 0.0000 0.0000 0.0000 18.0295 0.0000
# 6 0.0000 0.0000 0.0000 0.0000 0.0000 -4.2273
#
#
#
# Elastic Compliance Matrix: (Units=1/GPa)
#
#
# Indices 1 2 3 4 5 6 
#
# 1 0.017818 0.000973 0.000714 0.000000 0.000000 0.000000
# 2 0.000973 0.013554 0.000792 0.000000 0.000000 0.000000
# 3 0.000714 0.000792 0.006343 0.000000 0.000000 0.000000
# 4 0.000000 0.000000 0.000000 -0.115158 0.000000 0.000000
# 5 0.000000 0.000000 0.000000 0.000000 0.055465 0.000000
# 6 0.000000 0.000000 0.000000 0.000000 0.000000 -0.236557
#
#
# Mechanical properties :
#
#
# Convention : Reuss Voigt Hill
#
# Bulk Modulus (GPa) = 23.43377 28.17068 25.80222
# Shear Modulus (GPa) = -20.05864 21.62751 0.78443
#
# Velocity S-wave (km/s) = -2.87173 2.98192 0.56790
# Velocity P-wave (km/s) = 1.16675 4.84125 3.32238
#
# Compressibility (1/GPa) = 0.04267346
#
# Stress axis : x y z
#
# Youngs Moduli (GPa) = 56.12180 73.78015 157.64920
#
# Poissons Ratio (x) = -0.07182 -0.11256
# Poissons Ratio (y) = -0.05463 -0.12479
# Poissons Ratio (z) = -0.04007 -0.05840
#
# Static dielectric constant tensor:
#      x y z
#    x 1.939630 0.000000 0.000000 
#    y 0.000000 1.966110 0.000000 
#    z 0.000000 0.000000 1.957830 
# 
# From -- ./inp_files/19864.got.cif
#   From: 2010.05.17/outbox.cif.g08.bks.cpg/sg59_10_cif.got.tgz:19864.got - 2010.06.03 14:40:33.
