data_PCOD9447950
_publ_section_title
;
Structure prediction by ZEFSAII (Michael W. Deem and Ramdas Pophale) SiO2 
 PCOD9447950
Probable space group: P M M N
;
_chemical_formula_sum "Si O2"
_cell_formula_units_Z 40
_cell_length_a 15.227749
_cell_length_b 9.509214
_cell_length_c 13.142732
_cell_angle_alpha 90.000000
_cell_angle_beta 90.000000
_cell_angle_gamma 90.000000
_cell_volume 1903.119165
_symmetry_space_group_name_H-M "P M M N"
_symmetry_group_IT_number 59
_space_group.IT_coordinate_system_code '2'
_symmetry_cell_setting 'orthorhombic'
loop_
_space_group_symop_operation_xyz
x,y,z
1/2-x,1/2-y,z
1/2+x,-y,-z
-x,1/2+y,-z
-x,-y,-z
1/2+x,1/2+y,-z
1/2-x,y,z
x,1/2-y,z
loop_
_atom_site_type_symbol
_atom_site_label
_atom_site_fract_x
_atom_site_fract_y
_atom_site_fract_z
Si Si1 0.396099 0.088131 0.394320
Si Si2 0.147554 0.089690 0.014594
Si Si3 0.382625 0.090496 0.782250
Si Si4 0.110705 0.911214 0.591612
Si Si5 0.092165 0.909413 0.201370
O O1 0.367105 0.250000 0.393458
O O2 0.503398 0.089970 0.400981
O O3 0.365651 0.003187 0.493336
O O4 0.370374 0.005890 0.291802
O O5 0.250000 0.094447 0.041307
O O6 0.111613 0.250000 0.022509
O O7 0.103789 0.984316 0.093178
O O8 0.140629 0.046635 0.896757
O O9 0.349943 0.250000 0.766150
O O10 0.488162 0.098024 0.778516
O O11 0.355299 0.985385 0.693693
O O12 0.138742 0.750000 0.581833
O O13 0.127018 0.750000 0.201937
#
# Coordination Sequence:
#
# PCOD9447950 Si02
#       5
#     8   8   8   8   8
#     4   9  16  27  45  70 101 132 160 195 242 294
#     4  10  21  36  52  70  96 131 168 204 244 293
#     4   9  18  32  50  73 100 130 164 202 245 293
#     4   9  16  26  44  72 102 129 159 198 244 291
#     4  10  19  31  50  75 101 128 162 205 248 290
#
# _framework density 21.018125999999999
#
# number of rings (size 3 to 8) (size 9 to 14) (size 15 to 20)
#    0.000    2.600    0.000    2.400    0.000    6.800 
#    0.000    0.000    0.000    1.200    0.000    2.800 
#    0.000    0.000    0.000    0.000    0.000    0.000 
#
# Total GULP energy -223388.482499 kJ/mol
# GULP energy per Si atom -5584.712062 kJ/mol
# Density = 2.097029 g / cm^3
# Si number density = 21.018126 Si / 1000 Ang^3
#
#
#
# Elastic Constant Matrix: (Units=GPa)
#
#
# Indices 1 2 3 4 5 6 
#
# 1 33.7530 16.8508 8.3053 0.0000 0.0000 0.0000
# 2 16.8508 195.0660 133.3747 0.0000 0.0000 0.0000
# 3 8.3053 133.3747 162.4109 0.0000 0.0000 0.0000
# 4 0.0000 0.0000 0.0000 34.1513 0.0000 0.0000
# 5 0.0000 0.0000 0.0000 0.0000 -39.0269 0.0000
# 6 0.0000 0.0000 0.0000 0.0000 0.0000 -12.9577
#
#
#
# Elastic Compliance Matrix: (Units=1/GPa)
#
#
# Indices 1 2 3 4 5 6 
#
# 1 0.031102 -0.003647 0.001405 0.000000 0.000000 0.000000
# 2 -0.003647 0.012119 -0.009766 0.000000 0.000000 0.000000
# 3 0.001405 -0.009766 0.014105 0.000000 0.000000 0.000000
# 4 0.000000 0.000000 0.000000 0.029281 0.000000 0.000000
# 5 0.000000 0.000000 0.000000 0.000000 -0.025623 0.000000
# 6 0.000000 0.000000 0.000000 0.000000 0.000000 -0.077174
#
#
# Mechanical properties :
#
#
# Convention : Reuss Voigt Hill
#
# Bulk Modulus (GPa) = 30.02124 78.69902 54.36013
# Shear Modulus (GPa) = 264.14566 11.94662 138.04614
#
# Velocity S-wave (km/s) = 11.22266 2.38669 8.11309
# Velocity P-wave (km/s) = 13.49982 6.71712 10.66220
#
# Compressibility (1/GPa) = 0.03330975
#
# Stress axis : x y z
#
# Youngs Moduli (GPa) = 32.15204 82.51769 70.89682
#
# Poissons Ratio (x) = 0.30096 -0.09958
# Poissons Ratio (y) = 0.11726 0.69234
# Poissons Ratio (z) = -0.04516 0.80583
#
# Static dielectric constant tensor:
#      x y z
#    x 1.756830 0.000000 0.000000 
#    y 0.000000 1.733820 0.000000 
#    z 0.000000 0.000000 1.710620 
# 
# From -- ./inp_files/13832.got.cif
#   From: 2010.05.17/outbox.cif.g08.bks.cpg/sg59_7_cif.got.tgz:13832.got - 2010.06.03 14:40:33.
