data_PCOD9447892
_publ_section_title
;
Structure prediction by ZEFSAII (Michael W. Deem and Ramdas Pophale) SiO2 
 PCOD9447892
Probable space group: P M M N
;
_chemical_formula_sum "Si O2"
_cell_formula_units_Z 64
_cell_length_a 24.219618
_cell_length_b 9.942804
_cell_length_c 15.181327
_cell_angle_alpha 90.000000
_cell_angle_beta 90.000000
_cell_angle_gamma 90.000000
_cell_volume 3655.829242
_symmetry_space_group_name_H-M "P M M N"
_symmetry_group_IT_number 59
_space_group.IT_coordinate_system_code '2'
_symmetry_cell_setting 'orthorhombic'
loop_
_space_group_symop_operation_xyz
x,y,z
1/2-x,1/2-y,z
1/2+x,-y,-z
-x,1/2+y,-z
-x,-y,-z
1/2+x,1/2+y,-z
1/2-x,y,z
x,1/2-y,z
loop_
_atom_site_type_symbol
_atom_site_label
_atom_site_fract_x
_atom_site_fract_y
_atom_site_fract_z
Si Si1 0.504213 0.093390 0.249121
Si Si2 0.467031 0.611446 0.547577
Si Si3 0.106594 0.409970 0.777571
Si Si4 0.847213 0.401734 0.534985
Si Si5 0.814504 0.592764 0.055397
Si Si6 0.811863 0.591415 0.384170
Si Si7 0.895511 0.410046 0.727192
Si Si8 0.685537 0.406751 0.891796
O O1 0.498228 0.250000 0.217312
O O2 0.524893 0.103556 0.349444
O O3 0.552960 0.003033 0.207066
O O4 0.447433 0.007641 0.253987
O O5 0.500000 0.500000 0.500000
O O6 0.492332 0.750000 0.514462
O O7 0.404489 0.607503 0.518095
O O8 0.092044 0.250000 0.772173
O O9 0.148063 0.428549 0.859266
O O10 0.141373 0.443908 0.688434
O O11 0.822905 0.250000 0.538280
O O12 0.814870 0.506909 0.474538
O O13 0.864992 0.441310 0.634233
O O14 0.750000 0.565093 0.075623
O O15 0.818804 0.750000 0.030795
O O16 0.830906 0.500524 0.973180
O O17 0.750000 0.572989 0.345849
O O18 0.818744 0.750000 0.403386
O O19 0.911712 0.250000 0.722130
O O20 0.852370 0.426115 0.806655
O O21 0.750000 0.434196 0.870928
O O22 0.681364 0.250000 0.917757
#
# Coordination Sequence:
#
# PCOD9447892 Si02
#       8
#     8   8   8   8   8   8   8   8
#     4  11  22  34  51  79 113 143 179 225 268 312
#     4  10  19  31  49  73 101 136 180 224 262 304
#     4  10  20  35  56  79 108 145 180 216 265 325
#     4  10  20  34  51  74 104 140 181 221 262 311
#     4   9  18  35  60  86 108 135 176 223 270 323
#     4  10  21  35  51  75 108 144 181 222 268 319
#     4  10  21  37  57  80 108 144 184 220 262 320
#     4   9  19  37  60  84 108 135 172 221 272 320
#
# _framework density 17.506287
#
# number of rings (size 3 to 8) (size 9 to 14) (size 15 to 20)
#    0.000    2.125    2.500    0.750    0.000    4.750 
#    0.000    1.875    0.000    3.750    0.000    0.000 
#    0.000    0.000    0.000    0.000    0.000    0.000 
#
# Total GULP energy -356437.388474 kJ/mol
# GULP energy per Si atom -5569.334195 kJ/mol
# Density = 1.746644 g / cm^3
# Si number density = 17.506287 Si / 1000 Ang^3
#
#
#
# Elastic Constant Matrix: (Units=GPa)
#
#
# Indices 1 2 3 4 5 6 
#
# 1 65.7859 50.7979 44.3039 0.0000 0.0000 0.0000
# 2 50.7979 87.6569 57.4241 0.0000 0.0000 0.0000
# 3 44.3039 57.4241 92.6428 0.0000 0.0000 0.0000
# 4 0.0000 0.0000 0.0000 24.1912 0.0000 0.0000
# 5 0.0000 0.0000 0.0000 0.0000 25.3855 0.0000
# 6 0.0000 0.0000 0.0000 0.0000 0.0000 23.7760
#
#
#
# Elastic Compliance Matrix: (Units=1/GPa)
#
#
# Indices 1 2 3 4 5 6 
#
# 1 0.029292 -0.013130 -0.005870 0.000000 0.000000 0.000000
# 2 -0.013130 0.025093 -0.009275 0.000000 0.000000 0.000000
# 3 -0.005870 -0.009275 0.019350 0.000000 0.000000 0.000000
# 4 0.000000 0.000000 0.000000 0.041337 0.000000 0.000000
# 5 0.000000 0.000000 0.000000 0.000000 0.039393 0.000000
# 6 0.000000 0.000000 0.000000 0.000000 0.000000 0.042059
#
#
# Mechanical properties :
#
#
# Convention : Reuss Voigt Hill
#
# Bulk Modulus (GPa) = 58.18481 61.23750 59.71116
# Shear Modulus (GPa) = 19.31982 20.90787 20.11384
#
# Velocity S-wave (km/s) = 3.32564 3.45962 3.39329
# Velocity P-wave (km/s) = 6.93219 7.14247 7.03811
#
# Compressibility (1/GPa) = 0.01718662
#
# Stress axis : x y z
#
# Youngs Moduli (GPa) = 34.13862 39.85212 51.67953
#
# Poissons Ratio (x) = 0.52325 0.30335
# Poissons Ratio (y) = 0.44823 0.47931
# Poissons Ratio (z) = 0.20039 0.36961
#
# Static dielectric constant tensor:
#      x y z
#    x 1.595470 0.000000 0.000000 
#    y 0.000000 1.630870 0.000000 
#    z 0.000000 0.000000 1.563290 
# 
# From -- ./inp_files/21419.got.cif
#   From: 2010.05.17/outbox.cif.g08.bks.cpg/sg59_11_cif.got.tgz:21419.got - 2010.06.03 14:40:33.
