data_PCOD9447258
_publ_section_title
;
Structure prediction by ZEFSAII (Michael W. Deem and Ramdas Pophale) SiO2 
 PCOD9447258
Probable space group: P M M N
;
_chemical_formula_sum "Si O2"
_cell_formula_units_Z 40
_cell_length_a 10.293600
_cell_length_b 10.203712
_cell_length_c 22.631643
_cell_angle_alpha 90.000000
_cell_angle_beta 90.000000
_cell_angle_gamma 90.000000
_cell_volume 2377.067771
_symmetry_space_group_name_H-M "P M M N"
_symmetry_group_IT_number 59
_space_group.IT_coordinate_system_code '2'
_symmetry_cell_setting 'orthorhombic'
loop_
_space_group_symop_operation_xyz
x,y,z
1/2-x,1/2-y,z
1/2+x,-y,-z
-x,1/2+y,-z
-x,-y,-z
1/2+x,1/2+y,-z
1/2-x,y,z
x,1/2-y,z
loop_
_atom_site_type_symbol
_atom_site_label
_atom_site_fract_x
_atom_site_fract_y
_atom_site_fract_z
Si Si1 0.401290 0.250000 0.455308
Si Si2 0.400176 0.591050 0.736883
Si Si3 0.024812 0.592552 0.868164
Si Si4 0.099734 0.485397 0.363581
Si Si5 0.250000 0.091546 0.075233
Si Si6 0.600599 0.250000 0.563044
Si Si7 0.250000 0.590490 0.959905
O O1 0.250000 0.250000 0.474753
O O2 0.422149 0.125045 0.413297
O O3 0.499064 0.250000 0.509782
O O4 0.250000 0.558769 0.723924
O O5 0.411627 0.750000 0.735064
O O6 0.434881 0.544991 0.803280
O O7 0.499892 0.534247 0.689500
O O8 0.034232 0.750000 0.864580
O O9 0.878972 0.561349 0.887309
O O10 0.125354 0.556110 0.919602
O O11 0.250000 0.472046 0.343143
O O12 0.084088 0.623305 0.396046
O O13 0.250000 0.250000 0.061716
O O14 0.250000 0.999214 0.017805
O O15 0.750000 0.250000 0.540397
O O16 0.250000 0.750000 0.971283
#
# Coordination Sequence:
#
# PCOD9447258 Si02
#       7
#     4   8   8   8   4   4   4
#     4  10  20  36  56  86 110 138 185 228 259 303
#     4  10  19  33  55  80 107 136 185 231 269 314
#     4   9  18  32  51  79 105 138 176 219 265 311
#     4  10  21  36  56  83 110 144 180 223 269 312
#     4  10  20  32  52  82 106 136 175 213 268 318
#     4  10  22  38  56  78 116 152 175 210 271 331
#     4  10  18  34  56  74 106 140 173 217 262 316
#
# _framework density 16.827455
#
# number of rings (size 3 to 8) (size 9 to 14) (size 15 to 20)
#    0.000    2.200    2.000    1.200    1.400    1.600 
#    0.000    0.000    4.400    0.000    0.000    0.000 
#    0.000    0.000    0.000    0.000    0.000    0.000 
#
# Total GULP energy -223064.481056 kJ/mol
# GULP energy per Si atom -5576.612026 kJ/mol
# Density = 1.678915 g / cm^3
# Si number density = 16.827455 Si / 1000 Ang^3
#
#
#
# Elastic Constant Matrix: (Units=GPa)
#
#
# Indices 1 2 3 4 5 6 
#
# 1 143.6681 41.8044 90.6511 0.0000 0.0000 0.0000
# 2 41.8044 73.0533 39.4713 0.0000 0.0000 0.0000
# 3 90.6511 39.4713 116.5828 0.0000 0.0000 0.0000
# 4 0.0000 0.0000 0.0000 8.2655 0.0000 0.0000
# 5 0.0000 0.0000 0.0000 0.0000 31.5342 0.0000
# 6 0.0000 0.0000 0.0000 0.0000 0.0000 14.6105
#
#
#
# Elastic Compliance Matrix: (Units=1/GPa)
#
#
# Indices 1 2 3 4 5 6 
#
# 1 0.014062 -0.002618 -0.010048 0.000000 0.000000 0.000000
# 2 -0.002618 0.017241 -0.003801 0.000000 0.000000 0.000000
# 3 -0.010048 -0.003801 0.017678 0.000000 0.000000 0.000000
# 4 0.000000 0.000000 0.000000 0.120984 0.000000 0.000000
# 5 0.000000 0.000000 0.000000 0.000000 0.031712 0.000000
# 6 0.000000 0.000000 0.000000 0.000000 0.000000 0.068444
#
#
# Mechanical properties :
#
#
# Convention : Reuss Voigt Hill
#
# Bulk Modulus (GPa) = 62.32212 75.23975 68.78093
# Shear Modulus (GPa) = 16.21248 21.64055 18.92652
#
# Velocity S-wave (km/s) = 3.10732 3.59001 3.35735
# Velocity P-wave (km/s) = 7.07038 7.87361 7.48278
#
# Compressibility (1/GPa) = 0.01604567
#
# Stress axis : x y z
#
# Youngs Moduli (GPa) = 71.11180 58.00205 56.56849
#
# Poissons Ratio (x) = 0.15185 0.56840
# Poissons Ratio (y) = 0.18618 0.21504
# Poissons Ratio (z) = 0.71453 0.22049
#
# Static dielectric constant tensor:
#      x y z
#    x 1.576740 0.000000 0.000000 
#    y 0.000000 1.536830 0.000000 
#    z 0.000000 0.000000 1.539470 
# 
# From -- ./inp_files/28795.got.cif
#   From: 2010.05.17/outbox.cif.g08.bks.cpg/sg59_15_cif.got.tgz:28795.got - 2010.06.03 14:40:33.
