data_PCOD9447961
_publ_section_title
;
Structure prediction by ZEFSAII (Michael W. Deem and Ramdas Pophale) SiO2 
 PCOD9447961
Probable space group: P M M N
;
_chemical_formula_sum "Si O2"
_cell_formula_units_Z 58
_cell_length_a 30.755508
_cell_length_b 7.515739
_cell_length_c 13.117000
_cell_angle_alpha 90.000000
_cell_angle_beta 90.000000
_cell_angle_gamma 90.000000
_cell_volume 3031.999416
_symmetry_space_group_name_H-M "P M M N"
_symmetry_group_IT_number 59
_space_group.IT_coordinate_system_code '2'
_symmetry_cell_setting 'orthorhombic'
loop_
_space_group_symop_operation_xyz
x,y,z
1/2-x,1/2-y,z
1/2+x,-y,-z
-x,1/2+y,-z
-x,-y,-z
1/2+x,1/2+y,-z
1/2-x,y,z
x,1/2-y,z
loop_
_atom_site_type_symbol
_atom_site_label
_atom_site_fract_x
_atom_site_fract_y
_atom_site_fract_z
Si Si1 0.448525 0.457594 0.757230
Si Si2 0.391116 0.038309 0.345929
Si Si3 0.450081 0.035758 0.530809
Si Si4 0.298121 0.962902 0.268355
Si Si5 0.250000 0.250000 0.958045
Si Si6 0.815018 0.042108 0.966362
Si Si7 0.955354 0.965614 0.829013
Si Si8 0.912472 0.533768 0.031637
O O1 0.436231 0.250000 0.751783
O O2 0.441379 0.534550 0.644707
O O3 0.499562 0.469508 0.783000
O O4 0.424150 0.533284 0.855864
O O5 0.397313 0.250000 0.346828
O O6 0.416554 0.968560 0.445090
O O7 0.415955 0.973696 0.244268
O O8 0.339726 0.008785 0.336506
O O9 0.446022 0.250000 0.534596
O O10 0.500000 0.000000 0.500000
O O11 0.250000 0.029512 0.298650
O O12 0.296281 0.750000 0.267260
O O13 0.307127 0.017856 0.151218
O O14 0.212495 0.407268 0.965900
O O15 0.802235 0.250000 0.974409
O O16 0.865339 0.025183 0.994562
O O17 0.956514 0.750000 0.828079
O O18 0.946522 0.023764 0.944561
O O19 0.913259 0.750000 0.033185
#
# Coordination Sequence:
#
# PCOD9447961 Si02
#       8
#     8   8   8   8   2   8   8   8
#     4  10  21  34  52  75 106 147 192 234 278 334
#     4  10  20  32  52  78 107 142 183 228 280 335
#     4  10  20  35  52  76 105 142 190 234 274 331
#     4  10  21  35  52  81 112 138 177 228 281 340
#     4  12  22  36  60  82 120 154 190 232 292 330
#     4  11  22  35  56  86 116 151 190 230 282 351
#     4  10  19  31  50  75 109 145 183 226 277 338
#     4  10  20  35  51  76 112 151 186 230 290 340
#
# _framework density 19.129292
#
# number of rings (size 3 to 8) (size 9 to 14) (size 15 to 20)
#    0.000    1.793    4.138    0.621    0.966    2.483 
#    0.000    0.000    0.000    0.000    1.793    0.000 
#    0.000    0.000    0.000    0.000    0.000    0.000 
#
# Total GULP energy -323237.749390 kJ/mol
# GULP energy per Si atom -5573.064645 kJ/mol
# Density = 1.908575 g / cm^3
# Si number density = 19.129292 Si / 1000 Ang^3
#
#
#
# Elastic Constant Matrix: (Units=GPa)
#
#
# Indices 1 2 3 4 5 6 
#
# 1 112.5012 -6.6751 50.8855 0.0000 0.0000 0.0000
# 2 -6.6751 65.0900 12.1492 0.0000 0.0000 0.0000
# 3 50.8855 12.1492 132.2496 0.0000 0.0000 0.0000
# 4 0.0000 0.0000 0.0000 6.6610 0.0000 0.0000
# 5 0.0000 0.0000 0.0000 0.0000 -7.4626 0.0000
# 6 0.0000 0.0000 0.0000 0.0000 0.0000 21.4810
#
#
#
# Elastic Compliance Matrix: (Units=1/GPa)
#
#
# Indices 1 2 3 4 5 6 
#
# 1 0.011000 0.001952 -0.004412 0.000000 0.000000 0.000000
# 2 0.001952 0.015978 -0.002219 0.000000 0.000000 0.000000
# 3 -0.004412 -0.002219 0.009463 0.000000 0.000000 0.000000
# 4 0.000000 0.000000 0.000000 0.150128 0.000000 0.000000
# 5 0.000000 0.000000 0.000000 0.000000 -0.134001 0.000000
# 6 0.000000 0.000000 0.000000 0.000000 0.000000 0.046553
#
#
# Mechanical properties :
#
#
# Convention : Reuss Voigt Hill
#
# Bulk Modulus (GPa) = 36.92398 46.95110 41.93754
# Shear Modulus (GPa) = 42.55125 21.03461 31.79293
#
# Velocity S-wave (km/s) = 4.72147 3.31962 4.08119
# Velocity P-wave (km/s) = 7.00481 6.26822 6.64672
#
# Compressibility (1/GPa) = 0.02708267
#
# Stress axis : x y z
#
# Youngs Moduli (GPa) = 90.90845 62.58756 105.67711
#
# Poissons Ratio (x) = -0.12214 0.46622
# Poissons Ratio (y) = -0.17741 0.23447
# Poissons Ratio (z) = 0.40107 0.13886
#
# Static dielectric constant tensor:
#      x y z
#    x 1.675280 0.000000 0.000000 
#    y 0.000000 1.721500 0.000000 
#    z 0.000000 0.000000 1.685190 
# 
# From -- ./inp_files/19177.got.cif
#   From: 2010.05.17/outbox.cif.g08.bks.cpg/sg59_10_cif.got.tgz:19177.got - 2010.06.03 14:40:33.
