data_PCOD9447939
_publ_section_title
;
Structure prediction by ZEFSAII (Michael W. Deem and Ramdas Pophale) SiO2 
 PCOD9447939
Probable space group: P M M N
;
_chemical_formula_sum "Si O2"
_cell_formula_units_Z 56
_cell_length_a 7.852287
_cell_length_b 21.790461
_cell_length_c 17.471056
_cell_angle_alpha 90.000000
_cell_angle_beta 90.000000
_cell_angle_gamma 90.000000
_cell_volume 2989.384227
_symmetry_space_group_name_H-M "P M M N"
_symmetry_group_IT_number 59
_space_group.IT_coordinate_system_code '2'
_symmetry_cell_setting 'orthorhombic'
loop_
_space_group_symop_operation_xyz
x,y,z
1/2-x,1/2-y,z
1/2+x,-y,-z
-x,1/2+y,-z
-x,-y,-z
1/2+x,1/2+y,-z
1/2-x,y,z
x,1/2-y,z
loop_
_atom_site_type_symbol
_atom_site_label
_atom_site_fract_x
_atom_site_fract_y
_atom_site_fract_z
Si Si1 0.542712 0.529067 0.881755
Si Si2 0.951459 0.595752 0.030552
Si Si3 0.053380 0.472380 0.289289
Si Si4 0.051833 0.680752 0.157428
Si Si5 0.054328 0.108774 0.698567
Si Si6 0.457645 0.319574 0.549757
Si Si7 0.456125 0.437900 0.453420
O O1 0.750000 0.527578 0.880086
O O2 0.486180 0.463915 0.916556
O O3 0.478928 0.538774 0.795369
O O4 0.488588 0.578722 0.945233
O O5 0.750000 0.605917 0.027657
O O6 0.034847 0.652389 0.073434
O O7 0.250000 0.452225 0.285273
O O8 0.978093 0.443311 0.366292
O O9 0.047511 0.545656 0.302160
O O10 0.250000 0.679505 0.179508
O O11 0.988224 0.750000 0.160287
O O12 0.956049 0.638915 0.218436
O O13 0.250000 0.092502 0.680372
O O14 0.996196 0.157615 0.635108
O O15 0.250000 0.317689 0.546198
O O16 0.517426 0.250000 0.534298
O O17 0.514054 0.375266 0.494671
O O18 0.500000 0.500000 0.500000
O O19 0.250000 0.436100 0.451079
#
# Coordination Sequence:
#
# PCOD9447939 Si02
#       7
#     8   8   8   8   8   8   8
#     4   9  18  32  49  71 100 129 159 202 255 300
#     4  10  19  31  50  73  96 127 168 207 244 292
#     4  10  19  31  50  74 104 135 162 204 258 307
#     4  11  23  36  49  69 102 139 170 203 249 304
#     4  11  20  31  50  75 102 132 169 208 250 303
#     4   9  18  32  49  71 101 135 170 211 253 297
#     4  10  19  32  51  74 101 134 173 212 254 305
#
# _framework density 18.732955
#
# number of rings (size 3 to 8) (size 9 to 14) (size 15 to 20)
#    0.000    2.000    2.857    1.714    0.000    2.286 
#    0.000    0.000    0.000    2.143    0.000    4.000 
#    0.000    0.000    0.000    0.000    0.000    0.000 
#
# Total GULP energy -312392.358787 kJ/mol
# GULP energy per Si atom -5578.434978 kJ/mol
# Density = 1.869032 g / cm^3
# Si number density = 18.732955 Si / 1000 Ang^3
#
#
#
# Elastic Constant Matrix: (Units=GPa)
#
#
# Indices 1 2 3 4 5 6 
#
# 1 25.8503 -3.6576 2.1985 0.0000 0.0000 0.0000
# 2 -3.6576 87.9537 51.7197 0.0000 0.0000 0.0000
# 3 2.1985 51.7197 143.7024 0.0000 0.0000 0.0000
# 4 0.0000 0.0000 0.0000 21.6850 0.0000 0.0000
# 5 0.0000 0.0000 0.0000 0.0000 11.1143 0.0000
# 6 0.0000 0.0000 0.0000 0.0000 0.0000 8.4784
#
#
#
# Elastic Compliance Matrix: (Units=1/GPa)
#
#
# Indices 1 2 3 4 5 6 
#
# 1 0.039168 0.002513 -0.001504 0.000000 0.000000 0.000000
# 2 0.002513 0.014583 -0.005287 0.000000 0.000000 0.000000
# 3 -0.001504 -0.005287 0.008885 0.000000 0.000000 0.000000
# 4 0.000000 0.000000 0.000000 0.046115 0.000000 0.000000
# 5 0.000000 0.000000 0.000000 0.000000 0.089974 0.000000
# 6 0.000000 0.000000 0.000000 0.000000 0.000000 0.117947
#
#
# Mechanical properties :
#
#
# Convention : Reuss Voigt Hill
#
# Bulk Modulus (GPa) = 18.49106 39.78085 29.13595
# Shear Modulus (GPa) = 14.56650 22.07193 18.31921
#
# Velocity S-wave (km/s) = 2.79155 3.43628 3.13055
# Velocity P-wave (km/s) = 4.50362 6.08489 5.35296
#
# Compressibility (1/GPa) = 0.05408020
#
# Stress axis : x y z
#
# Youngs Moduli (GPa) = 25.53118 68.57269 112.55335
#
# Poissons Ratio (x) = -0.17233 0.16925
# Poissons Ratio (y) = -0.06416 0.59507
# Poissons Ratio (z) = 0.03839 0.36255
#
# Static dielectric constant tensor:
#      x y z
#    x 1.678050 0.000000 0.000000 
#    y 0.000000 1.621540 0.000000 
#    z 0.000000 0.000000 1.678140 
# 
# From -- ./inp_files/26002.got.cif
#   From: 2010.05.17/outbox.cif.g08.bks.cpg/sg59_14_cif.got.tgz:26002.got - 2010.06.03 14:40:33.
