data_PCOD9447168
_publ_section_title
;
Structure prediction by ZEFSAII (Michael W. Deem and Ramdas Pophale) SiO2 
 PCOD9447168
Probable space group: P M M N
;
_chemical_formula_sum "Si O2"
_cell_formula_units_Z 64
_cell_length_a 14.549986
_cell_length_b 18.624569
_cell_length_c 12.494869
_cell_angle_alpha 90.000000
_cell_angle_beta 90.000000
_cell_angle_gamma 90.000000
_cell_volume 3385.949792
_symmetry_space_group_name_H-M "P M M N"
_symmetry_group_IT_number 59
_space_group.IT_coordinate_system_code '2'
_symmetry_cell_setting 'orthorhombic'
loop_
_space_group_symop_operation_xyz
x,y,z
1/2-x,1/2-y,z
1/2+x,-y,-z
-x,1/2+y,-z
-x,-y,-z
1/2+x,1/2+y,-z
1/2-x,y,z
x,1/2-y,z
loop_
_atom_site_type_symbol
_atom_site_label
_atom_site_fract_x
_atom_site_fract_y
_atom_site_fract_z
Si Si1 0.908662 0.330699 0.582598
Si Si2 0.152696 0.662769 0.202040
Si Si3 0.021438 0.663555 0.014257
Si Si4 0.144696 0.412811 0.892461
Si Si5 0.614948 0.831521 0.332746
Si Si6 0.644781 0.940817 0.511895
Si Si7 0.452389 0.931449 0.613119
Si Si8 0.360479 0.919900 0.842152
O O1 0.876707 0.250000 0.559300
O O2 0.850045 0.365733 0.677243
O O3 0.920400 0.373640 0.474682
O O4 0.006739 0.327763 0.642139
O O5 0.250000 0.643735 0.150538
O O6 0.148843 0.750000 0.211053
O O7 0.070917 0.641835 0.125569
O O8 0.013614 0.750000 0.009590
O O9 0.087449 0.633740 0.922094
O O10 0.923363 0.625514 0.024533
O O11 0.250000 0.402888 0.925056
O O12 0.133859 0.376913 0.774197
O O13 0.126707 0.497829 0.881583
O O14 0.646815 0.750000 0.317224
O O15 0.651369 0.868784 0.440565
O O16 0.750000 0.960466 0.542930
O O17 0.564058 0.935919 0.601962
O O18 0.597349 0.996328 0.428590
O O19 0.411560 0.914249 0.728213
O O20 0.250000 0.907071 0.833869
#
# Coordination Sequence:
#
# PCOD9447168 Si02
#       8
#     8   8   8   8   8   8   8   8
#     4   9  18  33  53  82 119 152 189 244 302 348
#     4   9  17  31  52  79 111 146 190 248 308 354
#     4  11  23  40  62  87 117 156 206 259 305 358
#     4  11  22  38  61  90 121 153 194 248 314 370
#     4  10  18  32  57  87 116 146 186 242 304 361
#     4  10  20  35  55  83 117 154 199 245 297 354
#     4  10  21  36  57  84 119 161 202 240 290 354
#     4  11  24  42  62  86 122 166 206 247 297 367
#
# _framework density 18.90164
#
# number of rings (size 3 to 8) (size 9 to 14) (size 15 to 20)
#    0.000    1.875    2.500    1.875    0.000    4.000 
#    0.000    0.625    0.000    0.750    0.000    0.000 
#    0.000    0.000    0.000    0.000    0.000    0.000 
#
# Total GULP energy -356729.119555 kJ/mol
# GULP energy per Si atom -5573.892493 kJ/mol
# Density = 1.885862 g / cm^3
# Si number density = 18.901640 Si / 1000 Ang^3
#
#
#
# Elastic Constant Matrix: (Units=GPa)
#
#
# Indices 1 2 3 4 5 6 
#
# 1 128.3347 15.7650 53.9290 0.0000 0.0000 0.0000
# 2 15.7650 42.5639 22.7714 0.0000 0.0000 0.0000
# 3 53.9290 22.7714 88.0993 0.0000 0.0000 0.0000
# 4 0.0000 0.0000 0.0000 24.5042 0.0000 0.0000
# 5 0.0000 0.0000 0.0000 0.0000 12.2208 0.0000
# 6 0.0000 0.0000 0.0000 0.0000 0.0000 5.2172
#
#
#
# Elastic Compliance Matrix: (Units=1/GPa)
#
#
# Indices 1 2 3 4 5 6 
#
# 1 0.010501 -0.000523 -0.006293 0.000000 0.000000 0.000000
# 2 -0.000523 0.027290 -0.006734 0.000000 0.000000 0.000000
# 3 -0.006293 -0.006734 0.016943 0.000000 0.000000 0.000000
# 4 0.000000 0.000000 0.000000 0.040809 0.000000 0.000000
# 5 0.000000 0.000000 0.000000 0.000000 0.081827 0.000000
# 6 0.000000 0.000000 0.000000 0.000000 0.000000 0.191675
#
#
# Mechanical properties :
#
#
# Convention : Reuss Voigt Hill
#
# Bulk Modulus (GPa) = 36.18509 49.32541 42.75525
# Shear Modulus (GPa) = 12.33482 19.49061 15.91272
#
# Velocity S-wave (km/s) = 2.55734 3.21465 2.90465
# Velocity P-wave (km/s) = 5.28256 6.31911 5.82394
#
# Compressibility (1/GPa) = 0.02763569
#
# Stress axis : x y z
#
# Youngs Moduli (GPa) = 95.23173 36.64308 59.01992
#
# Poissons Ratio (x) = 0.01915 0.37140
# Poissons Ratio (y) = 0.04978 0.39743
# Poissons Ratio (z) = 0.59927 0.24675
#
# Static dielectric constant tensor:
#      x y z
#    x 1.728610 0.000000 0.000000 
#    y 0.000000 1.699920 0.000000 
#    z 0.000000 0.000000 1.642120 
# 
# From -- ./inp_files/17200.got.cif
#   From: 2010.05.17/outbox.cif.g08.bks.cpg/sg59_9_cif.got.tgz:17200.got - 2010.06.03 14:40:33.
