data_PCOD9447250
_publ_section_title
;
Structure prediction by ZEFSAII (Michael W. Deem and Ramdas Pophale) SiO2 
 PCOD9447250
Probable space group: P M M N
;
_chemical_formula_sum "Si O2"
_cell_formula_units_Z 40
_cell_length_a 8.227448
_cell_length_b 9.832652
_cell_length_c 24.184409
_cell_angle_alpha 90.000000
_cell_angle_beta 90.000000
_cell_angle_gamma 90.000000
_cell_volume 1956.461444
_symmetry_space_group_name_H-M "P M M N"
_symmetry_group_IT_number 59
_space_group.IT_coordinate_system_code '2'
_symmetry_cell_setting 'orthorhombic'
loop_
_space_group_symop_operation_xyz
x,y,z
1/2-x,1/2-y,z
1/2+x,-y,-z
-x,1/2+y,-z
-x,-y,-z
1/2+x,1/2+y,-z
1/2-x,y,z
x,1/2-y,z
loop_
_atom_site_type_symbol
_atom_site_label
_atom_site_fract_x
_atom_site_fract_y
_atom_site_fract_z
Si Si1 0.443878 0.907302 0.448738
Si Si2 0.051584 0.964518 0.128781
Si Si3 0.053753 0.750000 0.038130
Si Si4 0.554648 0.750000 0.912114
Si Si5 0.943668 0.406446 0.347363
Si Si6 0.553216 0.099871 0.747184
O O1 0.250000 0.898248 0.451086
O O2 0.506554 0.750000 0.449680
O O3 0.500000 0.000000 0.500000
O O4 0.490423 0.991654 0.394126
O O5 0.250000 0.959941 0.129146
O O6 0.993944 0.116101 0.118058
O O7 0.001367 0.876784 0.075864
O O8 0.001606 0.911923 0.188791
O O9 0.250000 0.750000 0.034353
O O10 0.986697 0.750000 0.976725
O O11 0.750000 0.750000 0.907761
O O12 0.750000 0.401435 0.353329
O O13 0.004843 0.250000 0.351879
O O14 0.987581 0.477128 0.289392
O O15 0.750000 0.094181 0.745494
O O16 0.504280 0.250000 0.725905
#
# Coordination Sequence:
#
# PCOD9447250 Si02
#       6
#     8   8   4   4   8   8
#     4  11  24  42  66  97 130 165 207 250 291 342
#     4   9  18  33  54  78 105 140 184 232 284 345
#     4  10  18  34  54  74 104 142 179 226 285 344
#     4  10  20  32  50  78 108 138 181 230 279 344
#     4  11  25  42  60  88 125 161 199 246 298 353
#     4  10  20  37  61  86 111 147 198 248 294 353
#
# _framework density 20.445076
#
# number of rings (size 3 to 8) (size 9 to 14) (size 15 to 20)
#    0.000    1.800    1.000    3.000    1.400    8.400 
#    0.000    2.000    0.000    0.000    0.000    0.000 
#    0.000    0.000    0.000    0.000    0.000    0.000 
#
# Total GULP energy -223360.494014 kJ/mol
# GULP energy per Si atom -5584.012350 kJ/mol
# Density = 2.039854 g / cm^3
# Si number density = 20.445076 Si / 1000 Ang^3
#
#
#
# Elastic Constant Matrix: (Units=GPa)
#
#
# Indices 1 2 3 4 5 6 
#
# 1 24.0582 21.5248 4.6936 0.0000 0.0000 0.0000
# 2 21.5248 192.9415 50.8168 0.0000 0.0000 0.0000
# 3 4.6936 50.8168 90.8984 0.0000 0.0000 0.0000
# 4 0.0000 0.0000 0.0000 37.4799 0.0000 0.0000
# 5 0.0000 0.0000 0.0000 0.0000 33.0313 0.0000
# 6 0.0000 0.0000 0.0000 0.0000 0.0000 14.2536
#
#
#
# Elastic Compliance Matrix: (Units=1/GPa)
#
#
# Indices 1 2 3 4 5 6 
#
# 1 0.046201 -0.005307 0.000581 0.000000 0.000000 0.000000
# 2 -0.005307 0.006688 -0.003465 0.000000 0.000000 0.000000
# 3 0.000581 -0.003465 0.012908 0.000000 0.000000 0.000000
# 4 0.000000 0.000000 0.000000 0.026681 0.000000 0.000000
# 5 0.000000 0.000000 0.000000 0.000000 0.030274 0.000000
# 6 0.000000 0.000000 0.000000 0.000000 0.000000 0.070158
#
#
# Mechanical properties :
#
#
# Convention : Reuss Voigt Hill
#
# Bulk Modulus (GPa) = 20.23655 51.32984 35.78319
# Shear Modulus (GPa) = 22.14718 32.34382 27.24550
#
# Velocity S-wave (km/s) = 3.29485 3.98173 3.65447
# Velocity P-wave (km/s) = 4.93905 6.80438 5.94533
#
# Compressibility (1/GPa) = 0.04941555
#
# Stress axis : x y z
#
# Youngs Moduli (GPa) = 21.64461 149.53215 77.47037
#
# Poissons Ratio (x) = 0.79362 -0.04505
# Poissons Ratio (y) = 0.11488 0.26841
# Poissons Ratio (z) = -0.01259 0.51807
#
# Static dielectric constant tensor:
#      x y z
#    x 1.720880 0.000000 0.000000 
#    y 0.000000 1.776320 0.000000 
#    z 0.000000 0.000000 1.694940 
# 
# From -- ./inp_files/32423.got.cif
#   From: 2010.05.17/outbox.cif.g08.bks.cpg/sg59_17_cif.got.tgz:32423.got - 2010.06.03 14:40:33.
