data_PCOD9447293
_publ_section_title
;
Structure prediction by ZEFSAII (Michael W. Deem and Ramdas Pophale) SiO2 
 PCOD9447293
Probable space group: P M M N
;
_chemical_formula_sum "Si O2"
_cell_formula_units_Z 64
_cell_length_a 20.561462
_cell_length_b 18.655819
_cell_length_c 10.026746
_cell_angle_alpha 90.000000
_cell_angle_beta 90.000000
_cell_angle_gamma 90.000000
_cell_volume 3846.168657
_symmetry_space_group_name_H-M "P M M N"
_symmetry_group_IT_number 59
_space_group.IT_coordinate_system_code '2'
_symmetry_cell_setting 'orthorhombic'
loop_
_space_group_symop_operation_xyz
x,y,z
1/2-x,1/2-y,z
1/2+x,-y,-z
-x,1/2+y,-z
-x,-y,-z
1/2+x,1/2+y,-z
1/2-x,y,z
x,1/2-y,z
loop_
_atom_site_type_symbol
_atom_site_label
_atom_site_fract_x
_atom_site_fract_y
_atom_site_fract_z
Si Si1 0.588754 0.335021 0.454879
Si Si2 0.583010 0.551958 0.380528
Si Si3 0.455650 0.333299 0.821059
Si Si4 0.609517 0.166824 0.760285
Si Si5 0.173904 0.571828 0.729948
Si Si6 0.826239 0.444338 0.959124
Si Si7 0.557185 0.946034 0.947700
Si Si8 0.474271 0.064708 0.354374
O O1 0.579573 0.250000 0.450423
O O2 0.610810 0.354402 0.604647
O O3 0.641608 0.363439 0.350732
O O4 0.522822 0.376166 0.415723
O O5 0.577797 0.626670 0.303810
O O6 0.637461 0.500181 0.319401
O O7 0.584425 0.558268 0.540532
O O8 0.515191 0.509442 0.353192
O O9 0.437697 0.250000 0.830825
O O10 0.533704 0.337225 0.801810
O O11 0.439251 0.380366 0.950289
O O12 0.630081 0.250000 0.771805
O O13 0.651288 0.115681 0.854178
O O14 0.250000 0.566668 0.703278
O O15 0.164171 0.581274 0.888077
O O16 0.750000 0.461815 0.942209
O O17 0.875549 0.510417 0.943669
O O18 0.542051 0.920623 0.798118
O O19 0.500000 0.000000 0.000000
#
# Coordination Sequence:
#
# PCOD9447293 Si02
#       8
#     8   8   8   8   8   8   8   8
#     4  10  21  36  54  82 118 148 181 228 280 336
#     4  10  18  35  53  79 107 139 181 230 279 322
#     4  11  21  35  59  86 112 142 183 231 283 337
#     4  10  21  36  54  82 118 154 187 224 277 344
#     4  10  22  37  55  77 106 148 193 232 273 331
#     4  11  23  38  56  80 114 154 192 236 286 340
#     4  12  20  36  57  84 113 149 190 241 289 337
#     4  10  20  31  56  81 110 145 182 229 284 328
#
# _framework density 16.639935000000001
#
# number of rings (size 3 to 8) (size 9 to 14) (size 15 to 20)
#    0.000    1.500    5.000    0.750    3.500    2.000 
#    0.000    2.500    0.000    1.500    0.000    0.000 
#    0.000    3.000    0.000    0.000    0.000    0.000 
#
# Total GULP energy -357176.716145 kJ/mol
# GULP energy per Si atom -5580.886190 kJ/mol
# Density = 1.660206 g / cm^3
# Si number density = 16.639935 Si / 1000 Ang^3
#
#
#
# Elastic Constant Matrix: (Units=GPa)
#
#
# Indices 1 2 3 4 5 6 
#
# 1 57.8394 30.2870 41.6568 0.0000 0.0000 0.0000
# 2 30.2870 104.4760 52.9990 0.0000 0.0000 0.0000
# 3 41.6568 52.9990 130.2606 0.0000 0.0000 0.0000
# 4 0.0000 0.0000 0.0000 28.9654 0.0000 0.0000
# 5 0.0000 0.0000 0.0000 0.0000 15.6127 0.0000
# 6 0.0000 0.0000 0.0000 0.0000 0.0000 14.9838
#
#
#
# Elastic Compliance Matrix: (Units=1/GPa)
#
#
# Indices 1 2 3 4 5 6 
#
# 1 0.023600 -0.003797 -0.006003 0.000000 0.000000 0.000000
# 2 -0.003797 0.012672 -0.003942 0.000000 0.000000 0.000000
# 3 -0.006003 -0.003942 0.011200 0.000000 0.000000 0.000000
# 4 0.000000 0.000000 0.000000 0.034524 0.000000 0.000000
# 5 0.000000 0.000000 0.000000 0.000000 0.064050 0.000000
# 6 0.000000 0.000000 0.000000 0.000000 0.000000 0.066739
#
#
# Mechanical properties :
#
#
# Convention : Reuss Voigt Hill
#
# Bulk Modulus (GPa) = 50.02303 60.27352 55.14828
# Shear Modulus (GPa) = 20.24861 23.08794 21.66828
#
# Velocity S-wave (km/s) = 3.49215 3.72896 3.61249
# Velocity P-wave (km/s) = 6.81083 7.40547 7.11437
#
# Compressibility (1/GPa) = 0.01999079
#
# Stress axis : x y z
#
# Youngs Moduli (GPa) = 42.37206 78.91607 89.28381
#
# Poissons Ratio (x) = 0.29961 0.53594
# Poissons Ratio (y) = 0.16087 0.35192
# Poissons Ratio (z) = 0.25434 0.31105
#
# Static dielectric constant tensor:
#      x y z
#    x 1.550960 0.000000 0.000000 
#    y 0.000000 1.552260 0.000000 
#    z 0.000000 0.000000 1.585090 
# 
# From -- ./inp_files/11610.got.cif
#   From: 2010.05.17/outbox.cif.g08.bks.cpg/sg59_6_cif.got.tgz:11610.got - 2010.06.03 14:40:33.
