data_PCOD9447006
_publ_section_title
;
Structure prediction by ZEFSAII (Michael W. Deem and Ramdas Pophale) SiO2 
 PCOD9447006
Probable space group: P M M N
;
_chemical_formula_sum "Si O2"
_cell_formula_units_Z 48
_cell_length_a 7.582521
_cell_length_b 16.422567
_cell_length_c 17.544818
_cell_angle_alpha 90.000000
_cell_angle_beta 90.000000
_cell_angle_gamma 90.000000
_cell_volume 2184.758972
_symmetry_space_group_name_H-M "P M M N"
_symmetry_group_IT_number 59
_space_group.IT_coordinate_system_code '2'
_symmetry_cell_setting 'orthorhombic'
loop_
_space_group_symop_operation_xyz
x,y,z
1/2-x,1/2-y,z
1/2+x,-y,-z
-x,1/2+y,-z
-x,-y,-z
1/2+x,1/2+y,-z
1/2-x,y,z
x,1/2-y,z
loop_
_atom_site_type_symbol
_atom_site_label
_atom_site_fract_x
_atom_site_fract_y
_atom_site_fract_z
Si Si1 0.034316 0.841364 0.314787
Si Si2 0.462026 0.662230 0.675785
Si Si3 0.536146 0.424220 0.840728
Si Si4 0.042638 0.995419 0.411117
Si Si5 0.955108 0.110171 0.162670
Si Si6 0.964784 0.155973 0.996150
O O1 0.250000 0.840435 0.317434
O O2 0.975730 0.750000 0.335129
O O3 0.986131 0.864091 0.227791
O O4 0.968496 0.915278 0.368297
O O5 0.250000 0.664940 0.680267
O O6 0.521977 0.750000 0.644257
O O7 0.499782 0.581131 0.628610
O O8 0.531608 0.651857 0.762161
O O9 0.750000 0.427867 0.841583
O O10 0.467567 0.514022 0.823827
O O11 0.474176 0.396025 0.923980
O O12 0.250000 0.986103 0.403979
O O13 0.000000 0.000000 0.500000
O O14 0.750000 0.135476 0.158610
O O15 0.030858 0.129061 0.079277
O O16 0.750000 0.149512 0.996599
O O17 0.009084 0.250000 0.983821
#
# Coordination Sequence:
#
# PCOD9447006 Si02
#       6
#     8   8   8   8   8   8
#     4   9  18  34  57  83 110 144 185 228 276 333
#     4  10  21  38  60  84 114 155 197 234 279 338
#     4  10  18  31  53  79 107 142 187 233 277 330
#     4  11  23  40  62  88 117 147 184 235 290 347
#     4  10  19  32  52  78 111 148 187 232 280 329
#     4   9  17  29  48  76 107 143 190 235 271 320
#
# _framework density 21.970386000000001
#
# number of rings (size 3 to 8) (size 9 to 14) (size 15 to 20)
#    0.000    2.167    1.667    2.000    0.000    5.000 
#    0.000    1.667    0.000    8.000    0.000    0.000 
#    0.000    0.000    0.000    0.000    0.000    0.000 
#
# Total GULP energy -268045.205675 kJ/mol
# GULP energy per Si atom -5584.275118 kJ/mol
# Density = 2.192038 g / cm^3
# Si number density = 21.970386 Si / 1000 Ang^3
#
#
#
# Elastic Constant Matrix: (Units=GPa)
#
#
# Indices 1 2 3 4 5 6 
#
# 1 49.9848 -0.0601 6.8580 0.0000 0.0000 0.0000
# 2 -0.0601 145.1734 66.4731 0.0000 0.0000 0.0000
# 3 6.8580 66.4731 142.0434 0.0000 0.0000 0.0000
# 4 0.0000 0.0000 0.0000 10.5274 0.0000 0.0000
# 5 0.0000 0.0000 0.0000 0.0000 -26.7815 0.0000
# 6 0.0000 0.0000 0.0000 0.0000 0.0000 13.4853
#
#
#
# Elastic Compliance Matrix: (Units=1/GPa)
#
#
# Indices 1 2 3 4 5 6 
#
# 1 0.020178 0.000578 -0.001245 0.000000 0.000000 0.000000
# 2 0.000578 0.008783 -0.004138 0.000000 0.000000 0.000000
# 3 -0.001245 -0.004138 0.009037 0.000000 0.000000 0.000000
# 4 0.000000 0.000000 0.000000 0.094990 0.000000 0.000000
# 5 0.000000 0.000000 0.000000 0.000000 -0.037339 0.000000
# 6 0.000000 0.000000 0.000000 0.000000 0.000000 0.074155
#
#
# Mechanical properties :
#
#
# Convention : Reuss Voigt Hill
#
# Bulk Modulus (GPa) = 35.22595 53.74928 44.48762
# Shear Modulus (GPa) = 26.47236 17.04162 21.75699
#
# Velocity S-wave (km/s) = 3.47495 2.78809 3.15030
# Velocity P-wave (km/s) = 5.67173 5.90611 5.79011
#
# Compressibility (1/GPa) = 0.02838816
#
# Stress axis : x y z
#
# Youngs Moduli (GPa) = 49.55997 113.85027 110.65776
#
# Poissons Ratio (x) = -0.06585 0.13775
# Poissons Ratio (y) = -0.02866 0.45794
# Poissons Ratio (z) = 0.06169 0.47116
#
# Static dielectric constant tensor:
#      x y z
#    x 1.879960 0.000000 0.000000 
#    y 0.000000 1.794420 0.000000 
#    z 0.000000 0.000000 1.775670 
# 
# From -- ./inp_files/22407.got.cif
#   From: 2010.05.17/outbox.cif.g08.bks.cpg/sg59_12_cif.got.tgz:22407.got - 2010.06.03 14:40:33.
