data_PCOD9447546
_publ_section_title
;
Structure prediction by ZEFSAII (Michael W. Deem and Ramdas Pophale) SiO2 
 PCOD9447546
Probable space group: P M M N
;
_chemical_formula_sum "Si O2"
_cell_formula_units_Z 56
_cell_length_a 14.594148
_cell_length_b 8.782386
_cell_length_c 20.864875
_cell_angle_alpha 90.000000
_cell_angle_beta 90.000000
_cell_angle_gamma 90.000000
_cell_volume 2674.281097
_symmetry_space_group_name_H-M "P M M N"
_symmetry_group_IT_number 59
_space_group.IT_coordinate_system_code '2'
_symmetry_cell_setting 'orthorhombic'
loop_
_space_group_symop_operation_xyz
x,y,z
1/2-x,1/2-y,z
1/2+x,-y,-z
-x,1/2+y,-z
-x,-y,-z
1/2+x,1/2+y,-z
1/2-x,y,z
x,1/2-y,z
loop_
_atom_site_type_symbol
_atom_site_label
_atom_site_fract_x
_atom_site_fract_y
_atom_site_fract_z
Si Si1 0.553477 0.932603 0.847784
Si Si2 0.117657 0.421245 0.551177
Si Si3 0.595790 0.068835 0.976501
Si Si4 0.100968 0.576601 0.423549
Si Si5 0.649206 0.429416 0.318272
Si Si6 0.347295 0.933281 0.883540
Si Si7 0.453373 0.567423 0.285641
O O1 0.553693 0.750000 0.848348
O O2 0.446556 0.986169 0.858147
O O3 0.612362 0.992954 0.907844
O O4 0.584016 0.996573 0.779585
O O5 0.149473 0.250000 0.564686
O O6 0.141604 0.474219 0.479772
O O7 0.149368 0.537157 0.605635
O O8 0.007450 0.416446 0.559316
O O9 0.590412 0.250000 0.967765
O O10 0.654728 0.040041 0.039874
O O11 0.500000 0.000000 0.000000
O O12 0.136138 0.750000 0.426231
O O13 0.100726 0.519655 0.350301
O O14 0.750000 0.476614 0.294024
O O15 0.638228 0.250000 0.305538
O O16 0.559499 0.514528 0.292534
O O17 0.250000 0.991622 0.856816
O O18 0.348427 0.750000 0.873863
O O19 0.451157 0.750000 0.283883
#
# Coordination Sequence:
#
# PCOD9447546 Si02
#       7
#     8   8   8   8   8   8   8
#     4  10  19  30  46  67  94 126 155 188 231 281
#     4   9  16  26  43  64  84 109 142 183 225 260
#     4   9  16  28  47  67  89 118 152 192 233 273
#     4   8  15  27  42  61  84 109 139 179 224 264
#     4  10  20  32  45  62  88 123 157 186 221 269
#     4   8  15  28  46  68  91 117 152 190 226 267
#     4  10  20  32  46  65  90 120 154 190 225 265
#
# _framework density 20.940206
#
# number of rings (size 3 to 8) (size 9 to 14) (size 15 to 20)
#    0.000    2.857    0.000    3.857    0.000    5.714 
#    0.000    1.429    0.000   15.000    0.000    1.000 
#    0.000    3.429    0.000    0.000    0.000    0.000 
#
# Total GULP energy -312079.798464 kJ/mol
# GULP energy per Si atom -5572.853544 kJ/mol
# Density = 2.089255 g / cm^3
# Si number density = 20.940206 Si / 1000 Ang^3
#
#
#
# Elastic Constant Matrix: (Units=GPa)
#
#
# Indices 1 2 3 4 5 6 
#
# 1 28.7229 -1.6382 -13.0548 0.0000 0.0000 0.0000
# 2 -1.6382 37.6199 32.0569 0.0000 0.0000 0.0000
# 3 -13.0548 32.0569 159.0808 0.0000 0.0000 0.0000
# 4 0.0000 0.0000 0.0000 31.3044 0.0000 0.0000
# 5 0.0000 0.0000 0.0000 0.0000 -25.2281 0.0000
# 6 0.0000 0.0000 0.0000 0.0000 0.0000 -2.6364
#
#
#
# Elastic Compliance Matrix: (Units=1/GPa)
#
#
# Indices 1 2 3 4 5 6 
#
# 1 0.036206 -0.001153 0.003204 0.000000 0.000000 0.000000
# 2 -0.001153 0.032129 -0.006569 0.000000 0.000000 0.000000
# 3 0.003204 -0.006569 0.007873 0.000000 0.000000 0.000000
# 4 0.000000 0.000000 0.000000 0.031944 0.000000 0.000000
# 5 0.000000 0.000000 0.000000 0.000000 -0.039638 0.000000
# 6 0.000000 0.000000 0.000000 0.000000 0.000000 -0.379300
#
#
# Mechanical properties :
#
#
# Convention : Reuss Voigt Hill
#
# Bulk Modulus (GPa) = 14.88757 28.90571 21.89664
# Shear Modulus (GPa) = -17.89816 14.55861 -1.66977
#
# Velocity S-wave (km/s) = -2.92674 2.63961 -0.89394
# Velocity P-wave (km/s) = 2.07270 4.80874 3.06821
#
# Compressibility (1/GPa) = 0.06717011
#
# Stress axis : x y z
#
# Youngs Moduli (GPa) = 27.61997 31.12435 127.02004
#
# Poissons Ratio (x) = 0.03589 -0.40692
# Poissons Ratio (y) = 0.03185 0.83441
# Poissons Ratio (z) = -0.08848 0.20446
#
# Static dielectric constant tensor:
#      x y z
#    x 1.785720 0.000000 0.000000 
#    y 0.000000 1.715870 0.000000 
#    z 0.000000 0.000000 1.793680 
# 
# From -- ./inp_files/30605.got.cif
#   From: 2010.05.17/outbox.cif.g08.bks.cpg/sg59_16_cif.got.tgz:30605.got - 2010.06.03 14:40:33.
