data_PCOD9447904
_publ_section_title
;
Structure prediction by ZEFSAII (Michael W. Deem and Ramdas Pophale) SiO2 
 PCOD9447904
Probable space group: P M M N
;
_chemical_formula_sum "Si O2"
_cell_formula_units_Z 64
_cell_length_a 9.678996
_cell_length_b 20.283202
_cell_length_c 15.637938
_cell_angle_alpha 90.000000
_cell_angle_beta 90.000000
_cell_angle_gamma 90.000000
_cell_volume 3070.056111
_symmetry_space_group_name_H-M "P M M N"
_symmetry_group_IT_number 59
_space_group.IT_coordinate_system_code '2'
_symmetry_cell_setting 'orthorhombic'
loop_
_space_group_symop_operation_xyz
x,y,z
1/2-x,1/2-y,z
1/2+x,-y,-z
-x,1/2+y,-z
-x,-y,-z
1/2+x,1/2+y,-z
1/2-x,y,z
x,1/2-y,z
loop_
_atom_site_type_symbol
_atom_site_label
_atom_site_fract_x
_atom_site_fract_y
_atom_site_fract_z
Si Si1 0.095050 0.325429 0.013368
Si Si2 0.596472 0.058099 0.808039
Si Si3 0.584565 0.678089 0.473029
Si Si4 0.087726 0.463721 0.571524
Si Si5 0.098094 0.937700 0.993681
Si Si6 0.586938 0.826563 0.678086
Si Si7 0.592982 0.825147 0.195750
Si Si8 0.912836 0.052019 0.258119
O O1 0.250000 0.345267 0.040323
O O2 0.070547 0.250000 0.039178
O O3 0.095758 0.326341 0.908864
O O4 0.981279 0.375916 0.046441
O O5 0.750000 0.046998 0.770843
O O6 0.615259 0.078509 0.906298
O O7 0.510815 0.119652 0.771382
O O8 0.502161 0.992714 0.806361
O O9 0.750000 0.681757 0.460680
O O10 0.526963 0.750000 0.448055
O O11 0.537945 0.612129 0.425642
O O12 0.563047 0.669058 0.575278
O O13 0.250000 0.462337 0.547471
O O14 0.076259 0.506292 0.657056
O O15 0.000000 0.500000 0.500000
O O16 0.250000 0.951455 0.957831
O O17 0.000000 0.000000 0.000000
O O18 0.750000 0.841198 0.693045
O O19 0.563088 0.750000 0.702536
O O20 0.488600 0.878981 0.723945
O O21 0.750000 0.840192 0.224081
O O22 0.559513 0.750000 0.220417
O O23 0.750000 0.059250 0.238768
#
# Coordination Sequence:
#
# PCOD9447904 Si02
#       8
#     8   8   8   8   8   8   8   8
#     4   8  14  26  46  72 101 131 162 199 243 291
#     4  10  21  35  51  73 102 138 176 211 250 303
#     4   8  14  27  48  71  95 126 166 208 246 291
#     4  10  19  31  49  73  99 128 165 206 251 300
#     4  10  20  33  52  77 102 132 170 211 258 305
#     4   9  17  31  53  76  96 127 170 211 255 307
#     4   8  14  27  48  72  98 129 165 205 247 291
#     4  11  22  33  49  76 106 136 169 210 261 307
#
# _framework density 20.846525
#
# number of rings (size 3 to 8) (size 9 to 14) (size 15 to 20)
#    0.000    2.750    1.250    2.625    0.000    2.750 
#    0.000    3.125    0.000    3.375    0.000    5.250 
#    0.000    0.000    0.000    0.000    0.000    0.000 
#
# Total GULP energy -356906.387319 kJ/mol
# GULP energy per Si atom -5576.662302 kJ/mol
# Density = 2.079908 g / cm^3
# Si number density = 20.846525 Si / 1000 Ang^3
#
#
#
# Elastic Constant Matrix: (Units=GPa)
#
#
# Indices 1 2 3 4 5 6 
#
# 1 135.4273 92.1334 10.8274 0.0000 0.0000 0.0000
# 2 92.1334 149.4903 14.3805 0.0000 0.0000 0.0000
# 3 10.8274 14.3805 40.2378 0.0000 0.0000 0.0000
# 4 0.0000 0.0000 0.0000 16.6276 0.0000 0.0000
# 5 0.0000 0.0000 0.0000 0.0000 10.1067 0.0000
# 6 0.0000 0.0000 0.0000 0.0000 0.0000 39.6160
#
#
#
# Elastic Compliance Matrix: (Units=1/GPa)
#
#
# Indices 1 2 3 4 5 6 
#
# 1 0.012732 -0.007785 -0.000644 0.000000 0.000000 0.000000
# 2 -0.007785 0.011688 -0.002082 0.000000 0.000000 0.000000
# 3 -0.000644 -0.002082 0.025770 0.000000 0.000000 0.000000
# 4 0.000000 0.000000 0.000000 0.060141 0.000000 0.000000
# 5 0.000000 0.000000 0.000000 0.000000 0.098945 0.000000
# 6 0.000000 0.000000 0.000000 0.000000 0.000000 0.025242
#
#
# Mechanical properties :
#
#
# Convention : Reuss Voigt Hill
#
# Bulk Modulus (GPa) = 34.28489 62.20423 48.24456
# Shear Modulus (GPa) = 18.84938 27.12433 22.98686
#
# Velocity S-wave (km/s) = 3.01025 3.61105 3.32425
# Velocity P-wave (km/s) = 5.34455 6.87678 6.15850
#
# Compressibility (1/GPa) = 0.02916737
#
# Stress axis : x y z
#
# Youngs Moduli (GPa) = 78.54466 85.56085 38.80541
#
# Poissons Ratio (x) = 0.66607 0.02498
# Poissons Ratio (y) = 0.61145 0.08080
# Poissons Ratio (z) = 0.05056 0.17816
#
# Static dielectric constant tensor:
#      x y z
#    x 1.756820 0.000000 0.000000 
#    y 0.000000 1.738160 0.000000 
#    z 0.000000 0.000000 1.825780 
# 
# From -- ./inp_files/26190.got.cif
#   From: 2010.05.17/outbox.cif.g08.bks.cpg/sg59_14_cif.got.tgz:26190.got - 2010.06.03 14:40:33.
