data_PCOD9447158
_publ_section_title
;
Structure prediction by ZEFSAII (Michael W. Deem and Ramdas Pophale) SiO2 
 PCOD9447158
Probable space group: P M M N
;
_chemical_formula_sum "Si O2"
_cell_formula_units_Z 32
_cell_length_a 8.634263
_cell_length_b 14.888880
_cell_length_c 12.629496
_cell_angle_alpha 90.000000
_cell_angle_beta 90.000000
_cell_angle_gamma 90.000000
_cell_volume 1623.578615
_symmetry_space_group_name_H-M "P M M N"
_symmetry_group_IT_number 59
_space_group.IT_coordinate_system_code '2'
_symmetry_cell_setting 'orthorhombic'
loop_
_space_group_symop_operation_xyz
x,y,z
1/2-x,1/2-y,z
1/2+x,-y,-z
-x,1/2+y,-z
-x,-y,-z
1/2+x,1/2+y,-z
1/2-x,y,z
x,1/2-y,z
loop_
_atom_site_type_symbol
_atom_site_label
_atom_site_fract_x
_atom_site_fract_y
_atom_site_fract_z
Si Si1 0.434908 0.897598 0.222433
Si Si2 0.564771 0.897923 0.000633
Si Si3 0.064369 0.599228 0.780269
Si Si4 0.566089 0.750000 0.376308
Si Si5 0.564325 0.250000 0.389606
O O1 0.250000 0.897617 0.217861
O O2 0.495042 0.836296 0.317282
O O3 0.495271 0.999691 0.234313
O O4 0.500952 0.860270 0.110822
O O5 0.750000 0.897456 0.001452
O O6 0.502204 0.860582 0.889893
O O7 0.500000 0.000000 0.000000
O O8 0.250000 0.592507 0.790433
O O9 0.027023 0.663343 0.682122
O O10 0.750000 0.750000 0.363200
O O11 0.520855 0.750000 0.499067
O O12 0.750000 0.250000 0.407928
#
# Coordination Sequence:
#
# PCOD9447158 Si02
#       5
#     8   8   8   4   4
#     4  11  22  39  62  88 120 156 194 239 295 352
#     4  10  18  32  56  88 122 154 193 238 290 349
#     4  10  20  38  62  89 121 156 196 241 293 348
#     4  12  26  43  62  85 114 151 199 249 293 346
#     4  10  24  43  62  85 116 155 199 245 289 342
#
# _framework density 19.709546
#
# number of rings (size 3 to 8) (size 9 to 14) (size 15 to 20)
#    0.000    1.500    0.000    9.375    0.000    4.000 
#    0.000    3.750    0.000    0.000    0.000    0.000 
#    0.000    0.000    0.000    0.000    0.000    0.000 
#
# Total GULP energy -178889.438743 kJ/mol
# GULP energy per Si atom -5590.294961 kJ/mol
# Density = 1.966469 g / cm^3
# Si number density = 19.709546 Si / 1000 Ang^3
#
#
#
# Elastic Constant Matrix: (Units=GPa)
#
#
# Indices 1 2 3 4 5 6 
#
# 1 178.1003 56.1931 98.5386 0.0000 0.0000 0.0000
# 2 56.1931 108.2618 70.1152 0.0000 0.0000 0.0000
# 3 98.5386 70.1152 180.1708 0.0000 0.0000 0.0000
# 4 0.0000 0.0000 0.0000 29.5242 0.0000 0.0000
# 5 0.0000 0.0000 0.0000 0.0000 39.6374 0.0000
# 6 0.0000 0.0000 0.0000 0.0000 0.0000 81.6446
#
#
#
# Elastic Compliance Matrix: (Units=1/GPa)
#
#
# Indices 1 2 3 4 5 6 
#
# 1 0.008314 -0.001832 -0.003834 0.000000 0.000000 0.000000
# 2 -0.001832 0.012753 -0.003961 0.000000 0.000000 0.000000
# 3 -0.003834 -0.003961 0.009189 0.000000 0.000000 0.000000
# 4 0.000000 0.000000 0.000000 0.033871 0.000000 0.000000
# 5 0.000000 0.000000 0.000000 0.000000 0.025229 0.000000
# 6 0.000000 0.000000 0.000000 0.000000 0.000000 0.012248
#
#
# Mechanical properties :
#
#
# Convention : Reuss Voigt Hill
#
# Bulk Modulus (GPa) = 90.89770 101.80297 96.35034
# Shear Modulus (GPa) = 40.15241 46.27363 43.21302
#
# Velocity S-wave (km/s) = 4.51844 4.85064 4.68749
# Velocity P-wave (km/s) = 8.56974 9.11786 8.84805
#
# Compressibility (1/GPa) = 0.01100138
#
# Stress axis : x y z
#
# Youngs Moduli (GPa) = 120.27486 78.41176 108.82953
#
# Poissons Ratio (x) = 0.14368 0.41727
# Poissons Ratio (y) = 0.22038 0.43106
# Poissons Ratio (z) = 0.46115 0.31058
#
# Static dielectric constant tensor:
#      x y z
#    x 1.387750 0.000000 0.000000 
#    y 0.000000 1.681810 0.000000 
#    z 0.000000 0.000000 1.693650 
# 
# From -- ./inp_files/13617.got.cif
#   From: 2010.05.17/outbox.cif.g08.bks.cpg/sg59_7_cif.got.tgz:13617.got - 2010.06.03 14:40:33.
