data_PCOD9447956
_publ_section_title
;
Structure prediction by ZEFSAII (Michael W. Deem and Ramdas Pophale) SiO2 
 PCOD9447956
Probable space group: P M M N
;
_chemical_formula_sum "Si O2"
_cell_formula_units_Z 64
_cell_length_a 14.967851
_cell_length_b 8.578218
_cell_length_c 28.944846
_cell_angle_alpha 90.000000
_cell_angle_beta 90.000000
_cell_angle_gamma 90.000000
_cell_volume 3716.445542
_symmetry_space_group_name_H-M "P M M N"
_symmetry_group_IT_number 59
_space_group.IT_coordinate_system_code '2'
_symmetry_cell_setting 'orthorhombic'
loop_
_space_group_symop_operation_xyz
x,y,z
1/2-x,1/2-y,z
1/2+x,-y,-z
-x,1/2+y,-z
-x,-y,-z
1/2+x,1/2+y,-z
1/2-x,y,z
x,1/2-y,z
loop_
_atom_site_type_symbol
_atom_site_label
_atom_site_fract_x
_atom_site_fract_y
_atom_site_fract_z
Si Si1 0.144229 0.564274 0.532832
Si Si2 0.030957 0.064718 0.616444
Si Si3 0.149038 0.940088 0.426875
Si Si4 0.095390 0.937579 0.983791
Si Si5 0.147275 0.063508 0.800777
Si Si6 0.653268 0.438698 0.917842
Si Si7 0.538630 0.062994 0.113650
Si Si8 0.852451 0.436220 0.300567
O O1 0.250000 0.542170 0.541604
O O2 0.126440 0.750000 0.536570
O O3 0.086255 0.475297 0.570255
O O4 0.127387 0.514719 0.479868
O O5 0.029421 0.250000 0.623097
O O6 0.929672 0.008871 0.606977
O O7 0.080781 0.989350 0.659632
O O8 0.250000 0.991622 0.415832
O O9 0.149986 0.750000 0.426935
O O10 0.097782 0.750000 0.982712
O O11 0.100243 0.989063 0.930440
O O12 0.154321 0.984593 0.027646
O O13 0.000000 0.000000 0.000000
O O14 0.250000 0.012031 0.810079
O O15 0.145256 0.250000 0.801287
O O16 0.081308 0.999957 0.839640
O O17 0.124179 0.004960 0.749482
O O18 0.750000 0.484791 0.897634
O O19 0.646862 0.250000 0.915672
O O20 0.563002 0.506089 0.895490
O O21 0.537851 0.250000 0.114536
O O22 0.750000 0.486333 0.311561
O O23 0.852941 0.250000 0.297687
#
# Coordination Sequence:
#
# PCOD9447956 Si02
#       8
#     8   8   8   8   8   8   8   8
#     4   9  17  30  47  67  96 134 169 199 235 283
#     4  11  20  29  48  75  99 126 161 203 246 285
#     4   8  16  31  48  67  95 132 170 202 234 278
#     4   8  15  27  43  65  94 129 167 204 241 282
#     4  10  21  37  56  77 100 125 157 201 249 296
#     4   9  17  30  48  70 100 139 178 213 247 284
#     4  10  19  31  50  75 103 134 167 205 249 300
#     4  10  21  37  55  74  98 127 156 190 240 301
#
# _framework density 17.220756000000002
#
# number of rings (size 3 to 8) (size 9 to 14) (size 15 to 20)
#    0.000    2.625    0.000    3.000    0.000    4.500 
#    0.000    1.875    0.000    3.750    0.000    1.750 
#    0.000    0.000    0.000    0.000    0.000    0.000 
#
# Total GULP energy -356574.458336 kJ/mol
# GULP energy per Si atom -5571.475911 kJ/mol
# Density = 1.718156 g / cm^3
# Si number density = 17.220756 Si / 1000 Ang^3
#
#
#
# Elastic Constant Matrix: (Units=GPa)
#
#
# Indices 1 2 3 4 5 6 
#
# 1 107.2942 27.7117 88.3977 0.0000 0.0000 0.0000
# 2 27.7117 25.6531 27.5828 0.0000 0.0000 0.0000
# 3 88.3977 27.5828 120.3899 0.0000 0.0000 0.0000
# 4 0.0000 0.0000 0.0000 24.7529 0.0000 0.0000
# 5 0.0000 0.0000 0.0000 0.0000 27.5480 0.0000
# 6 0.0000 0.0000 0.0000 0.0000 0.0000 16.2870
#
#
#
# Elastic Compliance Matrix: (Units=1/GPa)
#
#
# Indices 1 2 3 4 5 6 
#
# 1 0.025310 -0.009764 -0.016347 0.000000 0.000000 0.000000
# 2 -0.009764 0.055491 -0.005544 0.000000 0.000000 0.000000
# 3 -0.016347 -0.005544 0.021580 0.000000 0.000000 0.000000
# 4 0.000000 0.000000 0.000000 0.040399 0.000000 0.000000
# 5 0.000000 0.000000 0.000000 0.000000 0.036300 0.000000
# 6 0.000000 0.000000 0.000000 0.000000 0.000000 0.061399
#
#
# Mechanical properties :
#
#
# Convention : Reuss Voigt Hill
#
# Bulk Modulus (GPa) = 25.59549 60.08018 42.83784
# Shear Modulus (GPa) = 15.78217 21.02724 18.40471
#
# Velocity S-wave (km/s) = 3.03060 3.49813 3.27272
# Velocity P-wave (km/s) = 5.20975 7.16100 6.26184
#
# Compressibility (1/GPa) = 0.03906938
#
# Stress axis : x y z
#
# Youngs Moduli (GPa) = 39.50963 18.02107 46.33987
#
# Poissons Ratio (x) = 0.17597 0.75753
# Poissons Ratio (y) = 0.38579 0.25691
# Poissons Ratio (z) = 0.64587 0.09991
#
# Static dielectric constant tensor:
#      x y z
#    x 1.601440 0.000000 0.000000 
#    y 0.000000 1.585370 0.000000 
#    z 0.000000 0.000000 1.571560 
# 
# From -- ./inp_files/32239.got.cif
#   From: 2010.05.17/outbox.cif.g08.bks.cpg/sg59_17_cif.got.tgz:32239.got - 2010.06.03 14:40:33.
