data_PCOD9447511
_publ_section_title
;
Structure prediction by ZEFSAII (Michael W. Deem and Ramdas Pophale) SiO2 
 PCOD9447511
Probable space group: P M M N
;
_chemical_formula_sum "Si O2"
_cell_formula_units_Z 56
_cell_length_a 9.069155
_cell_length_b 25.190736
_cell_length_c 16.589198
_cell_angle_alpha 90.000000
_cell_angle_beta 90.000000
_cell_angle_gamma 90.000000
_cell_volume 3789.946432
_symmetry_space_group_name_H-M "P M M N"
_symmetry_group_IT_number 59
_space_group.IT_coordinate_system_code '2'
_symmetry_cell_setting 'orthorhombic'
loop_
_space_group_symop_operation_xyz
x,y,z
1/2-x,1/2-y,z
1/2+x,-y,-z
-x,1/2+y,-z
-x,-y,-z
1/2+x,1/2+y,-z
1/2-x,y,z
x,1/2-y,z
loop_
_atom_site_type_symbol
_atom_site_label
_atom_site_fract_x
_atom_site_fract_y
_atom_site_fract_z
Si Si1 0.427076 0.984484 0.378324
Si Si2 0.926897 0.015345 0.808810
Si Si3 0.573369 0.552151 0.039534
Si Si4 0.427695 0.688824 0.582977
Si Si5 0.425762 0.101426 0.122029
Si Si6 0.926239 0.914608 0.514760
Si Si7 0.427097 0.689956 0.770656
O O1 0.250000 0.977770 0.385791
O O2 0.466935 0.978722 0.284679
O O3 0.507964 0.942267 0.435170
O O4 0.461619 0.043269 0.413271
O O5 0.750000 0.021364 0.816976
O O6 0.007108 0.054672 0.871136
O O7 0.963649 0.955319 0.837184
O O8 0.750000 0.545920 0.042445
O O9 0.500000 0.500000 0.000000
O O10 0.539201 0.597254 0.973304
O O11 0.250000 0.684569 0.576476
O O12 0.467022 0.750000 0.561989
O O13 0.503670 0.642487 0.532487
O O14 0.468091 0.680392 0.677155
O O15 0.250000 0.107627 0.129751
O O16 0.505107 0.147619 0.169592
O O17 0.750000 0.910530 0.509216
O O18 0.250000 0.687515 0.774248
O O19 0.472893 0.750000 0.791111
#
# Coordination Sequence:
#
# PCOD9447511 Si02
#       7
#     8   8   8   8   8   8   8
#     4   9  18  31  45  63  91 122 147 178 221 265
#     4   9  17  29  44  63  87 114 145 177 210 251
#     4   9  17  28  41  60  86 112 141 174 207 248
#     4   9  18  32  47  63  87 118 148 180 220 262
#     4   9  17  28  42  62  88 115 141 173 212 250
#     4  10  19  30  45  66  90 116 149 184 217 259
#     4   9  18  30  43  62  86 112 145 179 208 247
#
# _framework density 14.775933999999999
#
# number of rings (size 3 to 8) (size 9 to 14) (size 15 to 20)
#    0.000    2.857    0.000    3.429    0.000    6.286 
#    0.000    1.429    0.000    0.000    0.000    1.000 
#    0.000    5.714    0.000    0.000    0.000    0.000 
#
# Total GULP energy -311897.587301 kJ/mol
# GULP energy per Si atom -5569.599773 kJ/mol
# Density = 1.474230 g / cm^3
# Si number density = 14.775934 Si / 1000 Ang^3
#
#
#
# Elastic Constant Matrix: (Units=GPa)
#
#
# Indices 1 2 3 4 5 6 
#
# 1 29.2996 38.3436 43.0532 0.0000 0.0000 0.0000
# 2 38.3436 95.9373 59.1639 0.0000 0.0000 0.0000
# 3 43.0532 59.1639 119.0343 0.0000 0.0000 0.0000
# 4 0.0000 0.0000 0.0000 25.0524 0.0000 0.0000
# 5 0.0000 0.0000 0.0000 0.0000 24.9918 0.0000
# 6 0.0000 0.0000 0.0000 0.0000 0.0000 25.3587
#
#
#
# Elastic Compliance Matrix: (Units=1/GPa)
#
#
# Indices 1 2 3 4 5 6 
#
# 1 0.106246 -0.027060 -0.024978 0.000000 0.000000 0.000000
# 2 -0.027060 0.021922 -0.001109 0.000000 0.000000 0.000000
# 3 -0.024978 -0.001109 0.017986 0.000000 0.000000 0.000000
# 4 0.000000 0.000000 0.000000 0.039916 0.000000 0.000000
# 5 0.000000 0.000000 0.000000 0.000000 0.040013 0.000000
# 6 0.000000 0.000000 0.000000 0.000000 0.000000 0.039434
#
#
# Mechanical properties :
#
#
# Convention : Reuss Voigt Hill
#
# Bulk Modulus (GPa) = 25.08724 58.37693 41.73209
# Shear Modulus (GPa) = 12.98365 21.99462 17.48914
#
# Velocity S-wave (km/s) = 2.96751 3.86235 3.44411
# Velocity P-wave (km/s) = 5.36253 7.71260 6.64233
#
# Compressibility (1/GPa) = 0.03986090
#
# Stress axis : x y z
#
# Youngs Moduli (GPa) = 9.41211 45.61528 55.59748
#
# Poissons Ratio (x) = 1.23434 1.38873
# Poissons Ratio (y) = 0.25469 0.06166
# Poissons Ratio (z) = 0.23510 0.05059
#
# Static dielectric constant tensor:
#      x y z
#    x 1.492210 0.000000 0.000000 
#    y 0.000000 1.471380 0.000000 
#    z 0.000000 0.000000 1.499090 
# 
# From -- ./inp_files/26419.got.cif
#   From: 2010.05.17/outbox.cif.g08.bks.cpg/sg59_14_cif.got.tgz:26419.got - 2010.06.03 14:40:33.
