data_PCOD9447799
_publ_section_title
;
Structure prediction by ZEFSAII (Michael W. Deem and Ramdas Pophale) SiO2 
 PCOD9447799
Probable space group: P M M N
;
_chemical_formula_sum "Si O2"
_cell_formula_units_Z 56
_cell_length_a 8.757741
_cell_length_b 18.876581
_cell_length_c 19.567875
_cell_angle_alpha 90.000000
_cell_angle_beta 90.000000
_cell_angle_gamma 90.000000
_cell_volume 3234.886881
_symmetry_space_group_name_H-M "P M M N"
_symmetry_group_IT_number 59
_space_group.IT_coordinate_system_code '2'
_symmetry_cell_setting 'orthorhombic'
loop_
_space_group_symop_operation_xyz
x,y,z
1/2-x,1/2-y,z
1/2+x,-y,-z
-x,1/2+y,-z
-x,-y,-z
1/2+x,1/2+y,-z
1/2-x,y,z
x,1/2-y,z
loop_
_atom_site_type_symbol
_atom_site_label
_atom_site_fract_x
_atom_site_fract_y
_atom_site_fract_z
Si Si1 0.934934 0.833221 0.412378
Si Si2 0.432659 0.594108 0.279311
Si Si3 0.934093 0.330977 0.862460
Si Si4 0.567271 0.967140 0.068645
Si Si5 0.565045 0.832400 0.711183
Si Si6 0.927312 0.836172 0.561405
Si Si7 0.432483 0.541486 0.790165
O O1 0.750000 0.837772 0.412282
O O2 0.974128 0.750000 0.404398
O O3 0.991828 0.857683 0.487675
O O4 0.001889 0.876206 0.349600
O O5 0.250000 0.590434 0.282779
O O6 0.474044 0.644889 0.214983
O O7 0.499605 0.517751 0.260362
O O8 0.750000 0.334288 0.867980
O O9 0.982382 0.250000 0.874626
O O10 0.004895 0.389060 0.912984
O O11 0.750000 0.964516 0.064388
O O12 0.524415 0.016253 0.133648
O O13 0.500000 0.000000 0.000000
O O14 0.750000 0.836414 0.710719
O O15 0.524341 0.750000 0.720837
O O16 0.507859 0.856211 0.635382
O O17 0.498439 0.883302 0.768211
O O18 0.750000 0.858716 0.561742
O O19 0.926973 0.750000 0.560906
O O20 0.250000 0.541555 0.785507
#
# Coordination Sequence:
#
# PCOD9447799 Si02
#       7
#     8   8   8   8   8   8   8
#     4   9  16  27  45  69  98 132 168 207 251 296
#     4  10  19  31  48  71 101 135 170 207 247 292
#     4   9  18  33  53  77 105 136 168 204 247 293
#     4  10  21  37  57  79 104 135 167 201 244 294
#     4   9  17  32  55  78  98 125 165 210 252 296
#     4   7  12  25  45  68  94 126 164 205 250 296
#     4  10  21  36  53  75 101 128 161 200 246 299
#
# _framework density 17.311268999999999
#
# number of rings (size 3 to 8) (size 9 to 14) (size 15 to 20)
#    0.000    2.857    0.000    3.429    0.000    3.714 
#    0.000    2.143    0.000    3.429    0.000    0.000 
#    0.000    0.000    0.000    0.000    0.000    0.000 
#
# Total GULP energy -312041.801989 kJ/mol
# GULP energy per Si atom -5572.175036 kJ/mol
# Density = 1.727187 g / cm^3
# Si number density = 17.311269 Si / 1000 Ang^3
#
#
#
# Elastic Constant Matrix: (Units=GPa)
#
#
# Indices 1 2 3 4 5 6 
#
# 1 22.1551 35.1764 32.3165 0.0000 0.0000 0.0000
# 2 35.1764 108.2193 77.6407 0.0000 0.0000 0.0000
# 3 32.3165 77.6407 108.4916 0.0000 0.0000 0.0000
# 4 0.0000 0.0000 0.0000 25.5266 0.0000 0.0000
# 5 0.0000 0.0000 0.0000 0.0000 25.0551 0.0000
# 6 0.0000 0.0000 0.0000 0.0000 0.0000 25.6329
#
#
#
# Elastic Compliance Matrix: (Units=1/GPa)
#
#
# Indices 1 2 3 4 5 6 
#
# 1 0.102337 -0.023418 -0.013725 0.000000 0.000000 0.000000
# 2 -0.023418 0.024350 -0.010450 0.000000 0.000000 0.000000
# 3 -0.013725 -0.010450 0.020784 0.000000 0.000000 0.000000
# 4 0.000000 0.000000 0.000000 0.039175 0.000000 0.000000
# 5 0.000000 0.000000 0.000000 0.000000 0.039912 0.000000
# 6 0.000000 0.000000 0.000000 0.000000 0.000000 0.039012
#
#
# Mechanical properties :
#
#
# Convention : Reuss Voigt Hill
#
# Bulk Modulus (GPa) = 19.12567 58.79257 38.95912
# Shear Modulus (GPa) = 13.22110 21.49174 17.35642
#
# Velocity S-wave (km/s) = 2.76656 3.52730 3.16983
# Velocity P-wave (km/s) = 4.61273 7.11512 5.99592
#
# Compressibility (1/GPa) = 0.05228575
#
# Stress axis : x y z
#
# Youngs Moduli (GPa) = 9.77163 41.06841 48.11424
#
# Poissons Ratio (x) = 0.96173 0.66035
# Poissons Ratio (y) = 0.22883 0.50279
# Poissons Ratio (z) = 0.13411 0.42916
#
# Static dielectric constant tensor:
#      x y z
#    x 1.581580 0.000000 0.000000 
#    y 0.000000 1.570740 0.000000 
#    z 0.000000 0.000000 1.596800 
# 
# From -- ./inp_files/29304.got.cif
#   From: 2010.05.17/outbox.cif.g08.bks.cpg/sg59_15_cif.got.tgz:29304.got - 2010.06.03 14:40:33.
