data_PCOD9447723
_publ_section_title
;
Structure prediction by ZEFSAII (Michael W. Deem and Ramdas Pophale) SiO2 
 PCOD9447723
Probable space group: P M M N
;
_chemical_formula_sum "Si O2"
_cell_formula_units_Z 64
_cell_length_a 22.161920
_cell_length_b 7.537438
_cell_length_c 20.095569
_cell_angle_alpha 90.000000
_cell_angle_beta 90.000000
_cell_angle_gamma 90.000000
_cell_volume 3356.846197
_symmetry_space_group_name_H-M "P M M N"
_symmetry_group_IT_number 59
_space_group.IT_coordinate_system_code '2'
_symmetry_cell_setting 'orthorhombic'
loop_
_space_group_symop_operation_xyz
x,y,z
1/2-x,1/2-y,z
1/2+x,-y,-z
-x,1/2+y,-z
-x,-y,-z
1/2+x,1/2+y,-z
1/2-x,y,z
x,1/2-y,z
loop_
_atom_site_type_symbol
_atom_site_label
_atom_site_fract_x
_atom_site_fract_y
_atom_site_fract_z
Si Si1 0.975935 0.450848 0.317464
Si Si2 0.318574 0.533827 0.463776
Si Si3 0.061380 0.536238 0.542165
Si Si4 0.608846 0.453454 0.662118
Si Si5 0.388327 0.033331 0.092171
Si Si6 0.493276 0.543940 0.828748
Si Si7 0.937571 0.960526 0.039502
Si Si8 0.316161 0.035462 0.213264
O O1 0.951980 0.250000 0.310465
O O2 0.046161 0.445226 0.338751
O O3 0.975818 0.533349 0.243174
O O4 0.944450 0.533072 0.382165
O O5 0.250000 0.472532 0.478147
O O6 0.316505 0.750000 0.467074
O O7 0.375861 0.475919 0.508499
O O8 0.340333 0.483981 0.389389
O O9 0.064322 0.750000 0.545489
O O10 0.000000 0.500000 0.500000
O O11 0.594347 0.250000 0.644460
O O12 0.635378 0.463851 0.735553
O O13 0.392452 0.250000 0.089576
O O14 0.447157 0.970125 0.134192
O O15 0.332359 0.985842 0.137981
O O16 0.389975 0.974051 0.015693
O O17 0.507966 0.750000 0.814911
O O18 0.442993 0.536667 0.886599
O O19 0.931833 0.750000 0.047667
O O20 0.000000 0.000000 0.000000
O O21 0.250000 0.974435 0.232477
O O22 0.318470 0.250000 0.217261
#
# Coordination Sequence:
#
# PCOD9447723 Si02
#       8
#     8   8   8   8   8   8   8   8
#     4  10  19  31  48  68  94 125 157 196 241 286
#     4   9  18  32  48  68  96 127 158 195 242 290
#     4  10  19  32  51  72  95 125 160 200 243 289
#     4  11  20  30  46  67  94 127 160 196 235 280
#     4   8  14  26  41  58  83 114 144 181 223 259
#     4   9  16  28  43  60  87 115 144 184 227 271
#     4   9  16  26  41  61  86 113 143 177 217 265
#     4  10  19  31  46  63  88 125 163 193 226 274
#
# _framework density 19.065515000000001
#
# number of rings (size 3 to 8) (size 9 to 14) (size 15 to 20)
#    0.000    2.500    2.500    1.875    0.000    1.250 
#    0.000    0.625    0.000    1.125    0.000    0.875 
#    0.000    1.000    0.000    0.000    0.000    0.000 
#
# Total GULP energy -356452.207090 kJ/mol
# GULP energy per Si atom -5569.565736 kJ/mol
# Density = 1.902212 g / cm^3
# Si number density = 19.065515 Si / 1000 Ang^3
#
#
#
# Elastic Constant Matrix: (Units=GPa)
#
#
# Indices 1 2 3 4 5 6 
#
# 1 73.2495 -2.4261 44.7663 0.0000 0.0000 0.0000
# 2 -2.4261 49.8137 -0.2738 0.0000 0.0000 0.0000
# 3 44.7663 -0.2738 135.0566 0.0000 0.0000 0.0000
# 4 0.0000 0.0000 0.0000 4.9365 0.0000 0.0000
# 5 0.0000 0.0000 0.0000 0.0000 25.8875 0.0000
# 6 0.0000 0.0000 0.0000 0.0000 0.0000 5.3567
#
#
#
# Elastic Compliance Matrix: (Units=1/GPa)
#
#
# Indices 1 2 3 4 5 6 
#
# 1 0.017152 0.000804 -0.005684 0.000000 0.000000 0.000000
# 2 0.000804 0.020113 -0.000226 0.000000 0.000000 0.000000
# 3 -0.005684 -0.000226 0.009288 0.000000 0.000000 0.000000
# 4 0.000000 0.000000 0.000000 0.202572 0.000000 0.000000
# 5 0.000000 0.000000 0.000000 0.000000 0.038629 0.000000
# 6 0.000000 0.000000 0.000000 0.000000 0.000000 0.186681
#
#
# Mechanical properties :
#
#
# Convention : Reuss Voigt Hill
#
# Bulk Modulus (GPa) = 27.51636 38.02806 32.77221
# Shear Modulus (GPa) = 10.06525 21.63972 15.85248
#
# Velocity S-wave (km/s) = 2.30016 3.37266 2.88666
# Velocity P-wave (km/s) = 4.63877 5.92923 5.32325
#
# Compressibility (1/GPa) = 0.03634202
#
# Stress axis : x y z
#
# Youngs Moduli (GPa) = 58.30169 49.71982 107.66843
#
# Poissons Ratio (x) = -0.03998 0.61195
# Poissons Ratio (y) = -0.04688 0.02431
# Poissons Ratio (z) = 0.33137 0.01122
#
# Static dielectric constant tensor:
#      x y z
#    x 1.653910 0.000000 0.000000 
#    y 0.000000 1.746520 0.000000 
#    z 0.000000 0.000000 1.710770 
# 
# From -- ./inp_files/28457.got.cif
#   From: 2010.05.17/outbox.cif.g08.bks.cpg/sg59_15_cif.got.tgz:28457.got - 2010.06.03 14:40:33.
