data_PCOD9447998
_publ_section_title
;
Structure prediction by ZEFSAII (Michael W. Deem and Ramdas Pophale) SiO2 
 PCOD9447998
Probable space group: P M M N
;
_chemical_formula_sum "Si O2"
_cell_formula_units_Z 56
_cell_length_a 21.751349
_cell_length_b 9.269556
_cell_length_c 17.034738
_cell_angle_alpha 90.000000
_cell_angle_beta 90.000000
_cell_angle_gamma 90.000000
_cell_volume 3434.634971
_symmetry_space_group_name_H-M "P M M N"
_symmetry_group_IT_number 59
_space_group.IT_coordinate_system_code '2'
_symmetry_cell_setting 'orthorhombic'
loop_
_space_group_symop_operation_xyz
x,y,z
1/2-x,1/2-y,z
1/2+x,-y,-z
-x,1/2+y,-z
-x,-y,-z
1/2+x,1/2+y,-z
1/2-x,y,z
x,1/2-y,z
loop_
_atom_site_type_symbol
_atom_site_label
_atom_site_fract_x
_atom_site_fract_y
_atom_site_fract_z
Si Si1 0.589961 0.079797 0.484710
Si Si2 0.819507 0.423475 0.048652
Si Si3 0.443004 0.923985 0.044224
Si Si4 0.485916 0.578834 0.213949
Si Si5 0.529955 0.578929 0.622200
Si Si6 0.869743 0.579504 0.199847
Si Si7 0.822981 0.083814 0.350047
O O1 0.587039 0.250000 0.503896
O O2 0.534852 0.049695 0.422530
O O3 0.651111 0.048116 0.435861
O O4 0.579377 0.988730 0.562692
O O5 0.750000 0.461514 0.022099
O O6 0.821374 0.250000 0.057568
O O7 0.833258 0.496670 0.132096
O O8 0.876869 0.463737 0.992655
O O9 0.450568 0.750000 0.036906
O O10 0.447250 0.959633 0.136575
O O11 0.500000 0.000000 0.000000
O O12 0.479272 0.750000 0.229185
O O13 0.470157 0.493318 0.292690
O O14 0.557330 0.552799 0.191954
O O15 0.536934 0.750000 0.628906
O O16 0.858778 0.750000 0.194001
O O17 0.849829 0.519463 0.284013
O O18 0.750000 0.078137 0.347906
O O19 0.842815 0.250000 0.333420
#
# Coordination Sequence:
#
# PCOD9447998 Si02
#       7
#     8   8   8   8   8   8   8
#     4   9  18  32  49  71  99 129 163 204 246 289
#     4  10  21  36  54  75 102 138 177 216 259 311
#     4  10  20  35  54  76 103 135 173 216 262 308
#     4  10  20  33  50  74 104 135 167 210 258 302
#     4  10  19  31  51  75  97 128 165 203 251 299
#     4  11  21  32  49  75 107 139 172 207 254 307
#     4  10  20  34  51  72 102 139 174 204 243 301
#
# _framework density 16.304499
#
# number of rings (size 3 to 8) (size 9 to 14) (size 15 to 20)
#    0.000    2.000    2.857    1.286    0.000    4.571 
#    0.000    0.000    0.000    0.857    0.000    4.000 
#    0.000    0.000    0.000    0.000    0.000    0.000 
#
# Total GULP energy -312368.960301 kJ/mol
# GULP energy per Si atom -5578.017148 kJ/mol
# Density = 1.626739 g / cm^3
# Si number density = 16.304499 Si / 1000 Ang^3
#
#
#
# Elastic Constant Matrix: (Units=GPa)
#
#
# Indices 1 2 3 4 5 6 
#
# 1 79.1433 35.0754 44.8944 0.0000 0.0000 0.0000
# 2 35.0754 31.2867 45.8072 0.0000 0.0000 0.0000
# 3 44.8944 45.8072 108.3492 0.0000 0.0000 0.0000
# 4 0.0000 0.0000 0.0000 26.6208 0.0000 0.0000
# 5 0.0000 0.0000 0.0000 0.0000 21.2218 0.0000
# 6 0.0000 0.0000 0.0000 0.0000 0.0000 16.7506
#
#
#
# Elastic Compliance Matrix: (Units=1/GPa)
#
#
# Indices 1 2 3 4 5 6 
#
# 1 0.025767 -0.034790 0.004032 0.000000 0.000000 0.000000
# 2 -0.034790 0.130863 -0.040910 0.000000 0.000000 0.000000
# 3 0.004032 -0.040910 0.024854 0.000000 0.000000 0.000000
# 4 0.000000 0.000000 0.000000 0.037565 0.000000 0.000000
# 5 0.000000 0.000000 0.000000 0.000000 0.047121 0.000000
# 6 0.000000 0.000000 0.000000 0.000000 0.000000 0.059699
#
#
# Mechanical properties :
#
#
# Convention : Reuss Voigt Hill
#
# Bulk Modulus (GPa) = 26.21428 52.25926 39.23677
# Shear Modulus (GPa) = 10.37514 19.11878 14.74696
#
# Velocity S-wave (km/s) = 2.52531 3.42805 3.01071
# Velocity P-wave (km/s) = 4.96143 6.91306 6.01690
#
# Compressibility (1/GPa) = 0.03814715
#
# Stress axis : x y z
#
# Youngs Moduli (GPa) = 38.80952 7.64161 40.23439
#
# Poissons Ratio (x) = 0.26586 -0.16223
# Poissons Ratio (y) = 1.35020 1.64598
# Poissons Ratio (z) = -0.15648 0.31262
#
# Static dielectric constant tensor:
#      x y z
#    x 1.556850 0.000000 0.000000 
#    y 0.000000 1.549120 0.000000 
#    z 0.000000 0.000000 1.527910 
# 
# From -- ./inp_files/28115.got.cif
#   From: 2010.05.17/outbox.cif.g08.bks.cpg/sg59_15_cif.got.tgz:28115.got - 2010.06.03 14:40:33.
