data_PCOD9447455
_publ_section_title
;
Structure prediction by ZEFSAII (Michael W. Deem and Ramdas Pophale) SiO2 
 PCOD9447455
Probable space group: P M M N
;
_chemical_formula_sum "Si O2"
_cell_formula_units_Z 56
_cell_length_a 20.239539
_cell_length_b 9.059954
_cell_length_c 18.450888
_cell_angle_alpha 90.000000
_cell_angle_beta 90.000000
_cell_angle_gamma 90.000000
_cell_volume 3383.326275
_symmetry_space_group_name_H-M "P M M N"
_symmetry_group_IT_number 59
_space_group.IT_coordinate_system_code '2'
_symmetry_cell_setting 'orthorhombic'
loop_
_space_group_symop_operation_xyz
x,y,z
1/2-x,1/2-y,z
1/2+x,-y,-z
-x,1/2+y,-z
-x,-y,-z
1/2+x,1/2+y,-z
1/2-x,y,z
x,1/2-y,z
loop_
_atom_site_type_symbol
_atom_site_label
_atom_site_fract_x
_atom_site_fract_y
_atom_site_fract_z
Si Si1 0.572180 0.926696 0.491852
Si Si2 0.559901 0.921330 0.334119
Si Si3 0.327030 0.422961 0.070378
Si Si4 0.066520 0.574565 0.969712
Si Si5 0.612160 0.072223 0.792946
Si Si6 0.969032 0.075934 0.192961
Si Si7 0.598374 0.078547 0.632947
O O1 0.565637 0.750000 0.494989
O O2 0.594508 0.964584 0.409906
O O3 0.500000 0.000000 0.500000
O O4 0.612298 0.985226 0.561018
O O5 0.574574 0.750000 0.318284
O O6 0.480843 0.929608 0.351030
O O7 0.570193 0.019369 0.263392
O O8 0.250000 0.434910 0.052448
O O9 0.345086 0.250000 0.075293
O O10 0.341442 0.500351 0.147204
O O11 0.372545 0.501810 0.011147
O O12 0.064543 0.750000 0.983769
O O13 0.067335 0.551653 0.883186
O O14 0.000000 0.500000 0.000000
O O15 0.611859 0.250000 0.797781
O O16 0.629584 0.032154 0.709674
O O17 0.538393 0.011832 0.808793
O O18 0.983258 0.250000 0.200030
O O19 0.613730 0.250000 0.619144
#
# Coordination Sequence:
#
# PCOD9447455 Si02
#       7
#     8   8   8   8   8   8   8
#     4   9  15  22  33  52  80 117 155 189 229 277
#     4   8  15  25  36  55  86 121 156 192 235 284
#     4  11  24  39  54  74 100 130 167 210 255 304
#     4  11  22  35  54  77 101 130 167 209 254 305
#     4  10  19  31  48  68  93 126 162 200 245 295
#     4  10  19  29  45  70  95 122 161 204 244 292
#     4   8  15  25  37  57  83 115 155 192 229 278
#
# _framework density 16.551759000000001
#
# number of rings (size 3 to 8) (size 9 to 14) (size 15 to 20)
#    0.000    2.429    1.429    3.857    0.000    9.143 
#    0.000    0.000    0.000    0.000    0.000    0.000 
#    0.000    1.143    0.000   12.571    0.000   11.286 
#
# Total GULP energy -311982.466329 kJ/mol
# GULP energy per Si atom -5571.115470 kJ/mol
# Density = 1.651409 g / cm^3
# Si number density = 16.551759 Si / 1000 Ang^3
#
#
#
# Elastic Constant Matrix: (Units=GPa)
#
#
# Indices 1 2 3 4 5 6 
#
# 1 30.0835 28.6820 34.1629 0.0000 0.0000 0.0000
# 2 28.6820 90.9235 81.6261 0.0000 0.0000 0.0000
# 3 34.1629 81.6261 151.1487 0.0000 0.0000 0.0000
# 4 0.0000 0.0000 0.0000 34.3033 0.0000 0.0000
# 5 0.0000 0.0000 0.0000 0.0000 11.2778 0.0000
# 6 0.0000 0.0000 0.0000 0.0000 0.0000 14.6646
#
#
#
# Elastic Compliance Matrix: (Units=1/GPa)
#
#
# Indices 1 2 3 4 5 6 
#
# 1 0.049686 -0.010854 -0.005369 0.000000 0.000000 0.000000
# 2 -0.010854 0.023719 -0.010356 0.000000 0.000000 0.000000
# 3 -0.005369 -0.010356 0.013422 0.000000 0.000000 0.000000
# 4 0.000000 0.000000 0.000000 0.029152 0.000000 0.000000
# 5 0.000000 0.000000 0.000000 0.000000 0.088670 0.000000
# 6 0.000000 0.000000 0.000000 0.000000 0.000000 0.068191
#
#
# Mechanical properties :
#
#
# Convention : Reuss Voigt Hill
#
# Bulk Modulus (GPa) = 29.70005 62.34416 46.02210
# Shear Modulus (GPa) = 14.82710 20.56144 17.69427
#
# Velocity S-wave (km/s) = 2.99624 3.52838 3.27314
# Velocity P-wave (km/s) = 5.47290 7.37206 6.49230
#
# Compressibility (1/GPa) = 0.03366998
#
# Stress axis : x y z
#
# Youngs Moduli (GPa) = 20.12659 42.15983 74.50397
#
# Poissons Ratio (x) = 0.45759 0.39998
# Poissons Ratio (y) = 0.21845 0.77157
# Poissons Ratio (z) = 0.10805 0.43661
#
# Static dielectric constant tensor:
#      x y z
#    x 1.538410 0.000000 0.000000 
#    y 0.000000 1.553300 0.000000 
#    z 0.000000 0.000000 1.614730 
# 
# From -- ./inp_files/30580.got.cif
#   From: 2010.05.17/outbox.cif.g08.bks.cpg/sg59_16_cif.got.tgz:30580.got - 2010.06.03 14:40:33.
