data_PCOD9447288
_publ_section_title
;
Structure prediction by ZEFSAII (Michael W. Deem and Ramdas Pophale) SiO2 
 PCOD9447288
Probable space group: P M M N
;
_chemical_formula_sum "Si O2"
_cell_formula_units_Z 64
_cell_length_a 8.468287
_cell_length_b 31.910489
_cell_length_c 12.219702
_cell_angle_alpha 90.000000
_cell_angle_beta 90.000000
_cell_angle_gamma 90.000000
_cell_volume 3302.095602
_symmetry_space_group_name_H-M "P M M N"
_symmetry_group_IT_number 59
_space_group.IT_coordinate_system_code '2'
_symmetry_cell_setting 'orthorhombic'
loop_
_space_group_symop_operation_xyz
x,y,z
1/2-x,1/2-y,z
1/2+x,-y,-z
-x,1/2+y,-z
-x,-y,-z
1/2+x,1/2+y,-z
1/2-x,y,z
x,1/2-y,z
loop_
_atom_site_type_symbol
_atom_site_label
_atom_site_fract_x
_atom_site_fract_y
_atom_site_fract_z
Si Si1 0.059279 0.453653 0.233596
Si Si2 0.061847 0.953098 0.240816
Si Si3 0.061283 0.375688 0.619018
Si Si4 0.057057 0.296666 0.762916
Si Si5 0.062987 0.624554 0.626866
Si Si6 0.441605 0.327545 0.999555
Si Si7 0.940753 0.573975 0.007752
Si Si8 0.441167 0.296905 0.236866
O O1 0.250000 0.452223 0.235136
O O2 0.009162 0.499878 0.271482
O O3 0.998463 0.415863 0.307227
O O4 0.011204 0.446422 0.107271
O O5 0.250000 0.950372 0.255009
O O6 0.982858 0.916622 0.311228
O O7 0.019871 0.945946 0.113704
O O8 0.250000 0.373253 0.610449
O O9 0.005090 0.334307 0.684483
O O10 0.990931 0.377595 0.498406
O O11 0.250000 0.297450 0.763416
O O12 0.008055 0.250000 0.729012
O O13 0.004990 0.305987 0.887413
O O14 0.250000 0.625152 0.632766
O O15 0.997885 0.666477 0.684047
O O16 0.250000 0.324929 0.999980
O O17 0.481388 0.376689 0.997025
O O18 0.495433 0.306957 0.112765
O O19 0.750000 0.570763 0.018813
O O20 0.250000 0.297798 0.236430
O O21 0.491323 0.250000 0.268605
#
# Coordination Sequence:
#
# PCOD9447288 Si02
#       8
#     8   8   8   8   8   8   8   8
#     4  10  22  41  63  87 119 159 202 246 291 358
#     4  11  23  38  60  91 124 156 194 244 303 360
#     4  11  23  41  63  85 114 157 203 250 300 360
#     4   9  17  31  56  90 118 144 188 241 287 335
#     4  12  26  42  61  86 118 156 199 256 313 358
#     4   9  15  29  57  91 121 150 191 241 288 336
#     4  10  18  34  61  89 121 159 198 239 291 354
#     4  10  20  37  64  93 122 160 202 243 291 354
#
# _framework density 19.381630999999999
#
# number of rings (size 3 to 8) (size 9 to 14) (size 15 to 20)
#    0.000    1.750    2.500    2.625    0.000    4.250 
#    0.000    1.250    0.000    1.125    0.000    0.000 
#    0.000    0.000    0.000    0.000    0.000    0.000 
#
# Total GULP energy -357561.125253 kJ/mol
# GULP energy per Si atom -5586.892582 kJ/mol
# Density = 1.933752 g / cm^3
# Si number density = 19.381631 Si / 1000 Ang^3
#
#
#
# Elastic Constant Matrix: (Units=GPa)
#
#
# Indices 1 2 3 4 5 6 
#
# 1 10.3417 16.4091 6.0872 0.0000 0.0000 0.0000
# 2 16.4091 172.7931 66.8633 0.0000 0.0000 0.0000
# 3 6.0872 66.8633 124.5120 0.0000 0.0000 0.0000
# 4 0.0000 0.0000 0.0000 -6.4692 0.0000 0.0000
# 5 0.0000 0.0000 0.0000 0.0000 14.9915 0.0000
# 6 0.0000 0.0000 0.0000 0.0000 0.0000 19.9182
#
#
#
# Elastic Compliance Matrix: (Units=1/GPa)
#
#
# Indices 1 2 3 4 5 6 
#
# 1 0.113860 -0.010930 0.000303 0.000000 0.000000 0.000000
# 2 -0.010930 0.008354 -0.003952 0.000000 0.000000 0.000000
# 3 0.000303 -0.003952 0.010139 0.000000 0.000000 0.000000
# 4 0.000000 0.000000 0.000000 -0.154578 0.000000 0.000000
# 5 0.000000 0.000000 0.000000 0.000000 0.066705 0.000000
# 6 0.000000 0.000000 0.000000 0.000000 0.000000 0.050205
#
#
# Mechanical properties :
#
#
# Convention : Reuss Voigt Hill
#
# Bulk Modulus (GPa) = 9.69033 54.04067 31.86550
# Shear Modulus (GPa) = 31.59729 20.24058 25.91894
#
# Velocity S-wave (km/s) = 4.04204 3.23510 3.66087
# Velocity P-wave (km/s) = 5.17636 6.47282 5.86055
#
# Compressibility (1/GPa) = 0.10319569
#
# Stress axis : x y z
#
# Youngs Moduli (GPa) = 8.78269 119.69640 98.63102
#
# Poissons Ratio (x) = 1.30826 -0.02988
# Poissons Ratio (y) = 0.09599 0.38979
# Poissons Ratio (z) = -0.00266 0.47304
#
# Static dielectric constant tensor:
#      x y z
#    x 1.667100 0.000000 0.000000 
#    y 0.000000 1.677120 0.000000 
#    z 0.000000 0.000000 1.645800 
# 
# From -- ./inp_files/15057.got.cif
#   From: 2010.05.17/outbox.cif.g08.bks.cpg/sg59_8_cif.got.tgz:15057.got - 2010.06.03 14:40:33.
