data_PCOD9447249
_publ_section_title
;
Structure prediction by ZEFSAII (Michael W. Deem and Ramdas Pophale) SiO2 
 PCOD9447249
Probable space group: P M M N
;
_chemical_formula_sum "Si O2"
_cell_formula_units_Z 48
_cell_length_a 9.690132
_cell_length_b 8.341924
_cell_length_c 29.414363
_cell_angle_alpha 90.000000
_cell_angle_beta 90.000000
_cell_angle_gamma 90.000000
_cell_volume 2377.690758
_symmetry_space_group_name_H-M "P M M N"
_symmetry_group_IT_number 59
_space_group.IT_coordinate_system_code '2'
_symmetry_cell_setting 'orthorhombic'
loop_
_space_group_symop_operation_xyz
x,y,z
1/2-x,1/2-y,z
1/2+x,-y,-z
-x,1/2+y,-z
-x,-y,-z
1/2+x,1/2+y,-z
1/2-x,y,z
x,1/2-y,z
loop_
_atom_site_type_symbol
_atom_site_label
_atom_site_fract_x
_atom_site_fract_y
_atom_site_fract_z
Si Si1 0.250000 0.556944 0.928017
Si Si2 0.097538 0.055953 0.209182
Si Si3 0.089840 0.058435 0.371731
Si Si4 0.037506 0.054582 0.106948
Si Si5 0.090869 0.058768 0.712296
Si Si6 0.750000 0.943374 0.968954
Si Si7 0.410524 0.441818 0.542875
O O1 0.250000 0.750000 0.926137
O O2 0.383902 0.498980 0.901959
O O3 0.250000 0.510793 0.980732
O O4 0.250000 0.011375 0.227061
O O5 0.087787 0.250000 0.210591
O O6 0.088880 0.004940 0.156443
O O7 0.975868 0.985325 0.239345
O O8 0.250000 0.000376 0.372834
O O9 0.094676 0.250000 0.375827
O O10 0.010570 0.014021 0.325514
O O11 0.995649 0.992609 0.412566
O O12 0.044388 0.250000 0.107340
O O13 0.122752 0.004897 0.062644
O O14 0.250000 0.002150 0.708104
O O15 0.091490 0.250000 0.706587
O O16 0.750000 0.750000 0.972435
O O17 0.500000 0.500000 0.500000
O O18 0.250000 0.500407 0.542710
O O19 0.404376 0.250000 0.541434
#
# Coordination Sequence:
#
# PCOD9447249 Si02
#       7
#     4   8   8   8   8   4   8
#     4  10  20  32  50  78 108 138 180 226 271 332
#     4  10  20  37  61  86 110 144 193 241 286 346
#     4  11  24  42  65  94 125 160 207 256 301 358
#     4   9  18  33  54  78 105 139 181 227 276 334
#     4  11  25  42  60  87 122 156 192 240 298 359
#     4  10  18  34  54  74 104 142 178 222 277 332
#     4  11  24  41  63  94 131 171 216 263 310 362
#
# _framework density 20.187654999999999
#
# number of rings (size 3 to 8) (size 9 to 14) (size 15 to 20)
#    0.000    1.667    0.833    3.500    1.167   10.333 
#    0.000    1.667    0.000    0.000    0.000    0.000 
#    0.000    0.000    0.000    0.000    0.000    0.000 
#
# Total GULP energy -268063.075279 kJ/mol
# GULP energy per Si atom -5584.647402 kJ/mol
# Density = 2.014171 g / cm^3
# Si number density = 20.187655 Si / 1000 Ang^3
#
#
#
# Elastic Constant Matrix: (Units=GPa)
#
#
# Indices 1 2 3 4 5 6 
#
# 1 189.8355 24.7873 52.5313 0.0000 0.0000 0.0000
# 2 24.7873 27.9481 6.3482 0.0000 0.0000 0.0000
# 3 52.5313 6.3482 99.3795 0.0000 0.0000 0.0000
# 4 0.0000 0.0000 0.0000 34.8050 0.0000 0.0000
# 5 0.0000 0.0000 0.0000 0.0000 36.6491 0.0000
# 6 0.0000 0.0000 0.0000 0.0000 0.0000 9.4952
#
#
#
# Elastic Compliance Matrix: (Units=1/GPa)
#
#
# Indices 1 2 3 4 5 6 
#
# 1 0.006878 -0.005352 -0.003294 0.000000 0.000000 0.000000
# 2 -0.005352 0.040472 0.000244 0.000000 0.000000 0.000000
# 3 -0.003294 0.000244 0.011788 0.000000 0.000000 0.000000
# 4 0.000000 0.000000 0.000000 0.028732 0.000000 0.000000
# 5 0.000000 0.000000 0.000000 0.000000 0.027286 0.000000
# 6 0.000000 0.000000 0.000000 0.000000 0.000000 0.105317
#
#
# Mechanical properties :
#
#
# Convention : Reuss Voigt Hill
#
# Bulk Modulus (GPa) = 23.62175 53.83297 38.72736
# Shear Modulus (GPa) = 19.88963 31.75626 25.82295
#
# Velocity S-wave (km/s) = 3.14225 3.97048 3.58039
# Velocity P-wave (km/s) = 4.98914 6.90969 6.02641
#
# Compressibility (1/GPa) = 0.04233387
#
# Stress axis : x y z
#
# Youngs Moduli (GPa) = 145.39102 24.70846 84.83245
#
# Poissons Ratio (x) = 0.13224 0.27942
# Poissons Ratio (y) = 0.77813 -0.02068
# Poissons Ratio (z) = 0.47889 -0.00602
#
# Static dielectric constant tensor:
#      x y z
#    x 1.813980 0.000000 0.000000 
#    y 0.000000 1.704990 0.000000 
#    z 0.000000 0.000000 1.684270 
# 
# From -- ./inp_files/32932.got.cif
#   From: 2010.05.17/outbox.cif.g08.bks.cpg/sg59_17_cif.got.tgz:32932.got - 2010.06.03 14:40:33.
