data_PCOD9447283
_publ_section_title
;
Structure prediction by ZEFSAII (Michael W. Deem and Ramdas Pophale) SiO2 
 PCOD9447283
Probable space group: P M M N
;
_chemical_formula_sum "Si O2"
_cell_formula_units_Z 56
_cell_length_a 15.431660
_cell_length_b 8.614790
_cell_length_c 22.499577
_cell_angle_alpha 90.000000
_cell_angle_beta 90.000000
_cell_angle_gamma 90.000000
_cell_volume 2991.105247
_symmetry_space_group_name_H-M "P M M N"
_symmetry_group_IT_number 59
_space_group.IT_coordinate_system_code '2'
_symmetry_cell_setting 'orthorhombic'
loop_
_space_group_symop_operation_xyz
x,y,z
1/2-x,1/2-y,z
1/2+x,-y,-z
-x,1/2+y,-z
-x,-y,-z
1/2+x,1/2+y,-z
1/2-x,y,z
x,1/2-y,z
loop_
_atom_site_type_symbol
_atom_site_label
_atom_site_fract_x
_atom_site_fract_y
_atom_site_fract_z
Si Si1 0.564254 0.439146 0.335727
Si Si2 0.750000 0.061793 0.387251
Si Si3 0.904160 0.564203 0.988771
Si Si4 0.345109 0.063460 0.881288
Si Si5 0.652963 0.435514 0.861906
Si Si6 0.990611 0.435266 0.204945
Si Si7 0.750000 0.562387 0.521526
Si Si8 0.056726 0.062033 0.444849
O O1 0.564963 0.250000 0.335160
O O2 0.661114 0.487879 0.354904
O O3 0.538070 0.492144 0.270019
O O4 0.493618 0.486824 0.385040
O O5 0.750000 0.250000 0.389701
O O6 0.750000 0.997834 0.454024
O O7 0.906251 0.750000 0.982720
O O8 0.852736 0.525162 0.048928
O O9 0.867062 0.494168 0.928439
O O10 0.000000 0.500000 0.000000
O O11 0.250000 0.018627 0.859073
O O12 0.354474 0.250000 0.876686
O O13 0.419905 0.985355 0.843573
O O14 0.750000 0.484036 0.845459
O O15 0.647781 0.250000 0.862417
O O16 0.581892 0.500033 0.817058
O O17 0.995322 0.250000 0.206516
O O18 0.750000 0.750000 0.521488
O O19 0.842173 0.512732 0.550435
O O20 0.055440 0.250000 0.447132
O O21 0.000000 0.000000 0.500000
#
# Coordination Sequence:
#
# PCOD9447283 Si02
#       8
#     8   4   8   8   8   8   4   8
#     4   9  20  36  56  83 113 150 191 233 283 338
#     4  10  18  34  60  84 114 150 187 226 275 344
#     4  11  21  36  61  89 118 151 190 239 294 347
#     4  10  22  39  58  83 117 153 186 229 288 347
#     4  11  24  42  63  85 114 153 197 245 298 351
#     4  11  23  39  60  85 113 151 197 242 287 342
#     4  10  20  32  54  88 118 142 181 236 289 334
#     4  10  19  35  56  82 114 147 185 233 284 333
#
# _framework density 18.722175
#
# number of rings (size 3 to 8) (size 9 to 14) (size 15 to 20)
#    0.000    1.714    2.857    1.714    1.000    2.571 
#    1.286    2.857    0.000    0.000    0.000    0.000 
#    0.000    0.000    0.000    0.000    0.000    0.000 
#
# Total GULP energy -312718.549233 kJ/mol
# GULP energy per Si atom -5584.259808 kJ/mol
# Density = 1.867956 g / cm^3
# Si number density = 18.722175 Si / 1000 Ang^3
#
#
#
# Elastic Constant Matrix: (Units=GPa)
#
#
# Indices 1 2 3 4 5 6 
#
# 1 203.5103 35.7348 87.2030 0.0000 0.0000 0.0000
# 2 35.7348 15.2320 21.7412 0.0000 0.0000 0.0000
# 3 87.2030 21.7412 129.4782 0.0000 0.0000 0.0000
# 4 0.0000 0.0000 0.0000 26.0518 0.0000 0.0000
# 5 0.0000 0.0000 0.0000 0.0000 -2.0218 0.0000
# 6 0.0000 0.0000 0.0000 0.0000 0.0000 12.8454
#
#
#
# Elastic Compliance Matrix: (Units=1/GPa)
#
#
# Indices 1 2 3 4 5 6 
#
# 1 0.009402 -0.017122 -0.003457 0.000000 0.000000 0.000000
# 2 -0.017122 0.117529 -0.008203 0.000000 0.000000 0.000000
# 3 -0.003457 -0.008203 0.011429 0.000000 0.000000 0.000000
# 4 0.000000 0.000000 0.000000 0.038385 0.000000 0.000000
# 5 0.000000 0.000000 0.000000 0.000000 -0.494615 0.000000
# 6 0.000000 0.000000 0.000000 0.000000 0.000000 0.077849
#
#
# Mechanical properties :
#
#
# Convention : Reuss Voigt Hill
#
# Bulk Modulus (GPa) = 12.37691 70.84203 41.60947
# Shear Modulus (GPa) = -32.14899 20.94454 -5.60223
#
# Velocity S-wave (km/s) = -4.14836 3.34833 -1.73170
# Velocity P-wave (km/s) = 4.03980 7.27112 4.27488
#
# Compressibility (1/GPa) = 0.08079558
#
# Stress axis : x y z
#
# Youngs Moduli (GPa) = 106.36584 8.50850 87.49780
#
# Poissons Ratio (x) = 0.14569 0.30246
# Poissons Ratio (y) = 1.82123 0.71775
# Poissons Ratio (z) = 0.36769 0.06980
#
# Static dielectric constant tensor:
#      x y z
#    x 1.656470 0.000000 0.000000 
#    y 0.000000 1.637550 0.000000 
#    z 0.000000 0.000000 1.623890 
# 
# From -- ./inp_files/30469.got.cif
#   From: 2010.05.17/outbox.cif.g08.bks.cpg/sg59_16_cif.got.tgz:30469.got - 2010.06.03 14:40:33.
