data_PCOD9447765
_publ_section_title
;
Structure prediction by ZEFSAII (Michael W. Deem and Ramdas Pophale) SiO2 
 PCOD9447765
Probable space group: P M M N
;
_chemical_formula_sum "Si O2"
_cell_formula_units_Z 64
_cell_length_a 9.195456
_cell_length_b 29.259773
_cell_length_c 15.866959
_cell_angle_alpha 90.000000
_cell_angle_beta 90.000000
_cell_angle_gamma 90.000000
_cell_volume 4269.115677
_symmetry_space_group_name_H-M "P M M N"
_symmetry_group_IT_number 59
_space_group.IT_coordinate_system_code '2'
_symmetry_cell_setting 'orthorhombic'
loop_
_space_group_symop_operation_xyz
x,y,z
1/2-x,1/2-y,z
1/2+x,-y,-z
-x,1/2+y,-z
-x,-y,-z
1/2+x,1/2+y,-z
1/2-x,y,z
x,1/2-y,z
loop_
_atom_site_type_symbol
_atom_site_label
_atom_site_fract_x
_atom_site_fract_y
_atom_site_fract_z
Si Si1 0.082745 0.194544 0.508106
Si Si2 0.424490 0.051614 0.909207
Si Si3 0.924007 0.448875 0.089675
Si Si4 0.575895 0.146374 0.164586
Si Si5 0.423018 0.804110 0.322252
Si Si6 0.425340 0.303915 0.319092
Si Si7 0.075723 0.145881 0.831830
Si Si8 0.577377 0.695671 0.991439
O O1 0.250000 0.179974 0.520987
O O2 0.083230 0.250000 0.506062
O O3 0.034350 0.180933 0.414147
O O4 0.985694 0.180754 0.587134
O O5 0.250000 0.054302 0.920192
O O6 0.465855 0.093132 0.848378
O O7 0.461169 0.000152 0.880170
O O8 0.497855 0.058333 0.000170
O O9 0.750000 0.447527 0.075867
O O10 0.960722 0.407104 0.150806
O O11 0.750000 0.151227 0.168238
O O12 0.502983 0.167396 0.247186
O O13 0.513682 0.172846 0.083122
O O14 0.250000 0.808956 0.320655
O O15 0.457916 0.750000 0.312187
O O16 0.495694 0.831691 0.246601
O O17 0.250000 0.307555 0.312149
O O18 0.461190 0.250000 0.309094
O O19 0.250000 0.148655 0.818946
O O20 0.042650 0.173053 0.918435
O O21 0.750000 0.688024 0.975635
O O22 0.552653 0.750000 0.994326
#
# Coordination Sequence:
#
# PCOD9447765 Si02
#       8
#     8   8   8   8   8   8   8   8
#     4   8  15  30  50  68  87 115 152 192 228 261
#     4   9  17  31  50  67  84 113 154 195 232 269
#     4   9  18  31  46  66  91 116 146 190 238 275
#     4  11  21  30  43  66  95 124 151 183 228 278
#     4  10  20  31  45  68  97 125 150 181 225 275
#     4   9  18  32  49  68  91 121 157 193 224 260
#     4  10  19  31  48  67  87 118 159 194 224 264
#     4  10  20  32  44  60  87 123 161 194 219 253
#
# _framework density 14.991395000000001
#
# number of rings (size 3 to 8) (size 9 to 14) (size 15 to 20)
#    0.000    2.500    1.250    2.250    0.000    5.250 
#    0.000    1.250    0.000    0.000    0.000    0.875 
#    0.000    0.000    0.000    0.000    0.000    0.000 
#
# Total GULP energy -356735.678033 kJ/mol
# GULP energy per Si atom -5573.994969 kJ/mol
# Density = 1.495727 g / cm^3
# Si number density = 14.991395 Si / 1000 Ang^3
#
#
#
# Elastic Constant Matrix: (Units=GPa)
#
#
# Indices 1 2 3 4 5 6 
#
# 1 34.5115 47.1146 57.7276 0.0000 0.0000 0.0000
# 2 47.1146 104.0035 77.4807 0.0000 0.0000 0.0000
# 3 57.7276 77.4807 139.8773 0.0000 0.0000 0.0000
# 4 0.0000 0.0000 0.0000 6.8854 0.0000 0.0000
# 5 0.0000 0.0000 0.0000 0.0000 15.6060 0.0000
# 6 0.0000 0.0000 0.0000 0.0000 0.0000 18.4686
#
#
#
# Elastic Compliance Matrix: (Units=1/GPa)
#
#
# Indices 1 2 3 4 5 6 
#
# 1 0.144182 -0.035731 -0.039712 0.000000 0.000000 0.000000
# 2 -0.035731 0.025225 0.000774 0.000000 0.000000 0.000000
# 3 -0.039712 0.000774 0.023110 0.000000 0.000000 0.000000
# 4 0.000000 0.000000 0.000000 0.145236 0.000000 0.000000
# 5 0.000000 0.000000 0.000000 0.000000 0.064078 0.000000
# 6 0.000000 0.000000 0.000000 0.000000 0.000000 0.054146
#
#
# Mechanical properties :
#
#
# Convention : Reuss Voigt Hill
#
# Bulk Modulus (GPa) = 23.15993 71.44868 47.30430
# Shear Modulus (GPa) = 8.06830 14.59661 11.33245
#
# Velocity S-wave (km/s) = 2.32242 3.12375 2.75240
# Velocity P-wave (km/s) = 4.76171 7.79575 6.45939
#
# Compressibility (1/GPa) = 0.04317803
#
# Stress axis : x y z
#
# Youngs Moduli (GPa) = 6.93566 39.64257 43.27152
#
# Poissons Ratio (x) = 1.41648 1.71840
# Poissons Ratio (y) = 0.24782 -0.03347
# Poissons Ratio (z) = 0.27543 -0.03066
#
# Static dielectric constant tensor:
#      x y z
#    x 1.497150 0.000000 0.000000 
#    y 0.000000 1.504750 0.000000 
#    z 0.000000 0.000000 1.473110 
# 
# From -- ./inp_files/21848.got.cif
#   From: 2010.05.17/outbox.cif.g08.bks.cpg/sg59_11_cif.got.tgz:21848.got - 2010.06.03 14:40:33.
