data_PCOD9447264
_publ_section_title
;
Structure prediction by ZEFSAII (Michael W. Deem and Ramdas Pophale) SiO2 
 PCOD9447264
Probable space group: P M M N
;
_chemical_formula_sum "Si O2"
_cell_formula_units_Z 48
_cell_length_a 16.338804
_cell_length_b 16.961742
_cell_length_c 9.304487
_cell_angle_alpha 90.000000
_cell_angle_beta 90.000000
_cell_angle_gamma 90.000000
_cell_volume 2578.595079
_symmetry_space_group_name_H-M "P M M N"
_symmetry_group_IT_number 59
_space_group.IT_coordinate_system_code '2'
_symmetry_cell_setting 'orthorhombic'
loop_
_space_group_symop_operation_xyz
x,y,z
1/2-x,1/2-y,z
1/2+x,-y,-z
-x,1/2+y,-z
-x,-y,-z
1/2+x,1/2+y,-z
1/2-x,y,z
x,1/2-y,z
loop_
_atom_site_type_symbol
_atom_site_label
_atom_site_fract_x
_atom_site_fract_y
_atom_site_fract_z
Si Si1 0.076829 0.344864 0.687223
Si Si2 0.586775 0.398656 0.519649
Si Si3 0.995750 0.408998 0.956167
Si Si4 0.013667 0.157765 0.268093
Si Si5 0.158496 0.658421 0.206045
Si Si6 0.844365 0.573791 0.559017
O O1 0.072231 0.250000 0.693780
O O2 0.150076 0.375011 0.587557
O O3 0.998845 0.379571 0.599840
O O4 0.066285 0.382083 0.844566
O O5 0.564673 0.373772 0.358358
O O6 0.648799 0.351480 0.621802
O O7 0.616507 0.488252 0.527485
O O8 0.001490 0.358822 0.101072
O O9 0.910500 0.391568 0.874296
O O10 0.000000 0.500000 0.000000
O O11 0.022062 0.250000 0.299307
O O12 0.095518 0.114210 0.324928
O O13 0.250000 0.635568 0.163840
O O14 0.144515 0.750000 0.170960
O O15 0.750000 0.566680 0.605130
#
# Coordination Sequence:
#
# PCOD9447264 Si02
#       6
#     8   8   8   8   8   8
#     4  10  20  37  59  79 106 147 190 223 262 331
#     4  10  18  34  56  82 108 138 181 222 267 326
#     4  11  21  37  58  82 113 147 186 226 272 333
#     4  11  21  35  58  84 111 143 183 232 279 324
#     4  10  20  36  58  82 111 147 184 224 273 331
#     4  11  22  36  56  82 113 147 184 231 280 322
#
# _framework density 18.614787
#
# number of rings (size 3 to 8) (size 9 to 14) (size 15 to 20)
#    0.000    1.500    0.000   11.000    0.000    1.333 
#    0.000    5.000    0.000    6.000    0.000    0.000 
#    0.000    0.000    0.000    0.000    0.000    0.000 
#
# Total GULP energy -267726.371324 kJ/mol
# GULP energy per Si atom -5577.632736 kJ/mol
# Density = 1.857242 g / cm^3
# Si number density = 18.614787 Si / 1000 Ang^3
#
#
#
# Elastic Constant Matrix: (Units=GPa)
#
#
# Indices 1 2 3 4 5 6 
#
# 1 43.4985 30.8712 -12.1192 0.0000 0.0000 0.0000
# 2 30.8712 86.1529 -0.1123 0.0000 0.0000 0.0000
# 3 -12.1192 -0.1123 77.3626 0.0000 0.0000 0.0000
# 4 0.0000 0.0000 0.0000 35.3636 0.0000 0.0000
# 5 0.0000 0.0000 0.0000 0.0000 14.3842 0.0000
# 6 0.0000 0.0000 0.0000 0.0000 0.0000 20.6737
#
#
#
# Elastic Compliance Matrix: (Units=1/GPa)
#
#
# Indices 1 2 3 4 5 6 
#
# 1 0.032733 -0.011722 0.005111 0.000000 0.000000 0.000000
# 2 -0.011722 0.015805 -0.001813 0.000000 0.000000 0.000000
# 3 0.005111 -0.001813 0.013724 0.000000 0.000000 0.000000
# 4 0.000000 0.000000 0.000000 0.028278 0.000000 0.000000
# 5 0.000000 0.000000 0.000000 0.000000 0.069521 0.000000
# 6 0.000000 0.000000 0.000000 0.000000 0.000000 0.048371
#
#
# Mechanical properties :
#
#
# Convention : Reuss Voigt Hill
#
# Bulk Modulus (GPa) = 22.02068 27.14371 24.58220
# Shear Modulus (GPa) = 20.79702 26.64257 23.71979
#
# Velocity S-wave (km/s) = 3.34613 3.78730 3.57353
# Velocity P-wave (km/s) = 5.17534 5.80847 5.50102
#
# Compressibility (1/GPa) = 0.04541186
#
# Stress axis : x y z
#
# Youngs Moduli (GPa) = 30.55050 63.26942 72.86438
#
# Poissons Ratio (x) = 0.74167 -0.37239
# Poissons Ratio (y) = 0.35813 0.13213
# Poissons Ratio (z) = -0.15613 0.11474
#
# Static dielectric constant tensor:
#      x y z
#    x 1.671160 0.000000 0.000000 
#    y 0.000000 1.640110 0.000000 
#    z 0.000000 0.000000 1.676500 
# 
# From -- ./inp_files/10253.got.cif
#   From: 2010.05.17/outbox.cif.g08.bks.cpg/sg59_6_cif.got.tgz:10253.got - 2010.06.03 14:40:33.
