data_PCOD9447918
_publ_section_title
;
Structure prediction by ZEFSAII (Michael W. Deem and Ramdas Pophale) SiO2 
 PCOD9447918
Probable space group: P M M N
;
_chemical_formula_sum "Si O2"
_cell_formula_units_Z 64
_cell_length_a 8.212142
_cell_length_b 15.123633
_cell_length_c 27.212254
_cell_angle_alpha 90.000000
_cell_angle_beta 90.000000
_cell_angle_gamma 90.000000
_cell_volume 3379.691787
_symmetry_space_group_name_H-M "P M M N"
_symmetry_group_IT_number 59
_space_group.IT_coordinate_system_code '2'
_symmetry_cell_setting 'orthorhombic'
loop_
_space_group_symop_operation_xyz
x,y,z
1/2-x,1/2-y,z
1/2+x,-y,-z
-x,1/2+y,-z
-x,-y,-z
1/2+x,1/2+y,-z
1/2-x,y,z
x,1/2-y,z
loop_
_atom_site_type_symbol
_atom_site_label
_atom_site_fract_x
_atom_site_fract_y
_atom_site_fract_z
Si Si1 0.946492 0.647654 0.127853
Si Si2 0.055669 0.505535 0.425630
Si Si3 0.448588 0.148619 0.761782
Si Si4 0.553283 0.648570 0.868845
Si Si5 0.445778 0.351681 0.498369
Si Si6 0.947418 0.499789 0.313610
Si Si7 0.442966 0.003073 0.055819
Si Si8 0.946473 0.350853 0.238937
O O1 0.750000 0.643518 0.126777
O O2 0.993301 0.750000 0.120632
O O3 0.999735 0.621218 0.183117
O O4 0.012744 0.584355 0.086127
O O5 0.250000 0.507833 0.430617
O O6 0.995710 0.417355 0.454659
O O7 0.988122 0.592959 0.452654
O O8 0.009086 0.502007 0.368872
O O9 0.250000 0.147468 0.762103
O O10 0.498898 0.250000 0.753812
O O11 0.502226 0.083325 0.719044
O O12 0.750000 0.649120 0.869836
O O13 0.496626 0.750000 0.874502
O O14 0.491027 0.585179 0.911899
O O15 0.500048 0.616845 0.814855
O O16 0.250000 0.346850 0.494857
O O17 0.506968 0.250000 0.497216
O O18 0.750000 0.500307 0.314984
O O19 0.000954 0.413744 0.282895
O O20 0.250000 0.012352 0.054785
O O21 0.500000 0.000000 0.000000
O O22 0.750000 0.350315 0.239244
O O23 0.004974 0.250000 0.244574
#
# Coordination Sequence:
#
# PCOD9447918 Si02
#       8
#     8   8   8   8   8   8   8   8
#     4   9  18  35  58  79 101 133 172 214 260 309
#     4  10  21  35  52  79 109 134 170 218 262 303
#     4   8  15  29  50  74  97 128 171 207 239 293
#     4   9  19  36  55  74  99 133 172 214 262 313
#     4   9  19  38  60  76  96 134 179 217 258 311
#     4  10  19  31  49  74 107 141 169 204 250 301
#     4  11  23  36  52  76 104 134 171 215 264 316
#     4   9  18  32  51  76 103 133 172 213 251 297
#
# _framework density 18.936637999999999
#
# number of rings (size 3 to 8) (size 9 to 14) (size 15 to 20)
#    0.000    2.625    0.000    2.250    0.000    5.000 
#    0.000    3.125    0.000    0.750    0.000    0.000 
#    0.000    0.000    0.000    0.000    0.000    0.000 
#
# Total GULP energy -357018.001578 kJ/mol
# GULP energy per Si atom -5578.406275 kJ/mol
# Density = 1.889354 g / cm^3
# Si number density = 18.936638 Si / 1000 Ang^3
#
#
#
# Elastic Constant Matrix: (Units=GPa)
#
#
# Indices 1 2 3 4 5 6 
#
# 1 6.2711 13.9302 9.3428 0.0000 0.0000 0.0000
# 2 13.9302 132.3560 100.3053 0.0000 0.0000 0.0000
# 3 9.3428 100.3053 187.4081 0.0000 0.0000 0.0000
# 4 0.0000 0.0000 0.0000 -77.4220 0.0000 0.0000
# 5 0.0000 0.0000 0.0000 0.0000 30.1879 0.0000
# 6 0.0000 0.0000 0.0000 0.0000 0.0000 17.7075
#
#
#
# Elastic Compliance Matrix: (Units=1/GPa)
#
#
# Indices 1 2 3 4 5 6 
#
# 1 0.208691 -0.023688 0.002275 0.000000 0.000000 0.000000
# 2 -0.023688 0.015400 -0.007062 0.000000 0.000000 0.000000
# 3 0.002275 -0.007062 0.009002 0.000000 0.000000 0.000000
# 4 0.000000 0.000000 0.000000 -0.012916 0.000000 0.000000
# 5 0.000000 0.000000 0.000000 0.000000 0.033126 0.000000
# 6 0.000000 0.000000 0.000000 0.000000 0.000000 0.056473
#
#
# Mechanical properties :
#
#
# Convention : Reuss Voigt Hill
#
# Bulk Modulus (GPa) = 5.67721 63.68800 34.68260
# Shear Modulus (GPa) = 11.75254 7.59182 9.67218
#
# Velocity S-wave (km/s) = 2.49394 2.00444 2.26246
# Velocity P-wave (km/s) = 3.36117 6.24998 5.01795
#
# Compressibility (1/GPa) = 0.17614289
#
# Stress axis : x y z
#
# Youngs Moduli (GPa) = 4.79178 64.93479 111.08547
#
# Poissons Ratio (x) = 1.53818 -0.25267
# Poissons Ratio (y) = 0.11351 0.78444
# Poissons Ratio (z) = -0.01090 0.45854
#
# Static dielectric constant tensor:
#      x y z
#    x 1.667640 0.000000 0.000000 
#    y 0.000000 1.673990 0.000000 
#    z 0.000000 0.000000 1.640890 
# 
# From -- ./inp_files/31638.got.cif
#   From: 2010.05.17/outbox.cif.g08.bks.cpg/sg59_16_cif.got.tgz:31638.got - 2010.06.03 14:40:33.
