data_PCOD9447659
_publ_section_title
;
Structure prediction by ZEFSAII (Michael W. Deem and Ramdas Pophale) SiO2 
 PCOD9447659
Probable space group: P M M N
;
_chemical_formula_sum "Si O2"
_cell_formula_units_Z 56
_cell_length_a 18.636136
_cell_length_b 8.981913
_cell_length_c 19.578467
_cell_angle_alpha 90.000000
_cell_angle_beta 90.000000
_cell_angle_gamma 90.000000
_cell_volume 3277.203414
_symmetry_space_group_name_H-M "P M M N"
_symmetry_group_IT_number 59
_space_group.IT_coordinate_system_code '2'
_symmetry_cell_setting 'orthorhombic'
loop_
_space_group_symop_operation_xyz
x,y,z
1/2-x,1/2-y,z
1/2+x,-y,-z
-x,1/2+y,-z
-x,-y,-z
1/2+x,1/2+y,-z
1/2-x,y,z
x,1/2-y,z
loop_
_atom_site_type_symbol
_atom_site_label
_atom_site_fract_x
_atom_site_fract_y
_atom_site_fract_z
Si Si1 0.414261 0.427420 0.072015
Si Si2 0.549045 0.572647 0.711412
Si Si3 0.170760 0.568704 0.640703
Si Si4 0.024239 0.570180 0.570658
Si Si5 0.428489 0.073146 0.917910
Si Si6 0.604161 0.427400 0.217203
Si Si7 0.332948 0.572207 0.196416
O O1 0.416907 0.250000 0.082846
O O2 0.493836 0.493722 0.082950
O O3 0.361320 0.500609 0.126152
O O4 0.395439 0.456611 0.992682
O O5 0.562362 0.750000 0.713610
O O6 0.527958 0.531201 0.634046
O O7 0.477359 0.545727 0.756454
O O8 0.615254 0.487452 0.744118
O O9 0.250000 0.518721 0.619925
O O10 0.169726 0.750000 0.639969
O O11 0.104297 0.521431 0.593608
O O12 0.153616 0.526498 0.719076
O O13 0.024498 0.750000 0.565615
O O14 0.000000 0.500000 0.500000
O O15 0.438928 0.250000 0.911685
O O16 0.385032 0.011417 0.853577
O O17 0.612067 0.250000 0.207049
O O18 0.250000 0.532747 0.208230
O O19 0.339038 0.750000 0.191907
#
# Coordination Sequence:
#
# PCOD9447659 Si02
#       7
#     8   8   8   8   8   8   8
#     4  10  20  33  49  70  98 134 174 212 259 315
#     4   9  18  33  52  74 100 133 173 209 248 306
#     4   8  15  30  52  77 104 135 170 207 250 302
#     4   9  18  33  55  82 108 136 171 209 248 300
#     4  10  19  30  48  74 100 128 167 217 263 303
#     4   9  16  28  50  76  99 128 169 211 251 303
#     4  11  23  36  51  74 102 133 175 226 271 309
#
# _framework density 17.08774
#
# number of rings (size 3 to 8) (size 9 to 14) (size 15 to 20)
#    0.000    2.571    1.429    3.000    0.000    3.429 
#    0.000    3.571    0.000    6.857    0.000    0.000 
#    0.000    0.000    0.000    0.000    0.000    0.000 
#
# Total GULP energy -312243.878495 kJ/mol
# GULP energy per Si atom -5575.783545 kJ/mol
# Density = 1.704885 g / cm^3
# Si number density = 17.087740 Si / 1000 Ang^3
#
#
#
# Elastic Constant Matrix: (Units=GPa)
#
#
# Indices 1 2 3 4 5 6 
#
# 1 106.6556 40.5973 64.8608 0.0000 0.0000 0.0000
# 2 40.5973 35.9487 46.8094 0.0000 0.0000 0.0000
# 3 64.8608 46.8094 149.9263 0.0000 0.0000 0.0000
# 4 0.0000 0.0000 0.0000 34.0147 0.0000 0.0000
# 5 0.0000 0.0000 0.0000 0.0000 17.1730 0.0000
# 6 0.0000 0.0000 0.0000 0.0000 0.0000 18.3329
#
#
#
# Elastic Compliance Matrix: (Units=1/GPa)
#
#
# Indices 1 2 3 4 5 6 
#
# 1 0.016895 -0.016113 -0.002278 0.000000 0.000000 0.000000
# 2 -0.016113 0.062241 -0.012462 0.000000 0.000000 0.000000
# 3 -0.002278 -0.012462 0.011546 0.000000 0.000000 0.000000
# 4 0.000000 0.000000 0.000000 0.029399 0.000000 0.000000
# 5 0.000000 0.000000 0.000000 0.000000 0.058231 0.000000
# 6 0.000000 0.000000 0.000000 0.000000 0.000000 0.054547
#
#
# Mechanical properties :
#
#
# Convention : Reuss Voigt Hill
#
# Bulk Modulus (GPa) = 34.51152 66.34062 50.42607
# Shear Modulus (GPa) = 16.43533 23.25499 19.84516
#
# Velocity S-wave (km/s) = 3.10469 3.69306 3.41158
# Velocity P-wave (km/s) = 5.75262 7.55597 6.71511
#
# Compressibility (1/GPa) = 0.02897583
#
# Stress axis : x y z
#
# Youngs Moduli (GPa) = 59.19051 16.06669 86.60758
#
# Poissons Ratio (x) = 0.25888 0.19731
# Poissons Ratio (y) = 0.95372 1.07929
# Poissons Ratio (z) = 0.13485 0.20022
#
# Static dielectric constant tensor:
#      x y z
#    x 1.572670 0.000000 0.000000 
#    y 0.000000 1.569820 0.000000 
#    z 0.000000 0.000000 1.581290 
# 
# From -- ./inp_files/30561.got.cif
#   From: 2010.05.17/outbox.cif.g08.bks.cpg/sg59_16_cif.got.tgz:30561.got - 2010.06.03 14:40:33.
