data_PCOD9447777
_publ_section_title
;
Structure prediction by ZEFSAII (Michael W. Deem and Ramdas Pophale) SiO2 
 PCOD9447777
Probable space group: P M M N
;
_chemical_formula_sum "Si O2"
_cell_formula_units_Z 48
_cell_length_a 19.319492
_cell_length_b 7.633749
_cell_length_c 16.605239
_cell_angle_alpha 90.000000
_cell_angle_beta 90.000000
_cell_angle_gamma 90.000000
_cell_volume 2448.943184
_symmetry_space_group_name_H-M "P M M N"
_symmetry_group_IT_number 59
_space_group.IT_coordinate_system_code '2'
_symmetry_cell_setting 'orthorhombic'
loop_
_space_group_symop_operation_xyz
x,y,z
1/2-x,1/2-y,z
1/2+x,-y,-z
-x,1/2+y,-z
-x,-y,-z
1/2+x,1/2+y,-z
1/2-x,y,z
x,1/2-y,z
loop_
_atom_site_type_symbol
_atom_site_label
_atom_site_fract_x
_atom_site_fract_y
_atom_site_fract_z
Si Si1 0.540622 0.545764 0.765867
Si Si2 0.328446 0.035256 0.827980
Si Si3 0.590398 0.537805 0.332470
Si Si4 0.542286 0.947340 0.078357
Si Si5 0.328848 0.035871 0.329092
Si Si6 0.670499 0.536455 0.488061
O O1 0.548527 0.750000 0.786696
O O2 0.484420 0.529162 0.694474
O O3 0.507552 0.456825 0.843868
O O4 0.613400 0.475787 0.733465
O O5 0.250000 0.977306 0.841558
O O6 0.328252 0.250000 0.829221
O O7 0.356773 0.987567 0.739289
O O8 0.385740 0.967099 0.891577
O O9 0.587011 0.750000 0.333228
O O10 0.619047 0.476918 0.418253
O O11 0.562599 0.750000 0.061632
O O12 0.500000 0.000000 0.000000
O O13 0.250000 0.983085 0.311183
O O14 0.330344 0.250000 0.328688
O O15 0.345810 0.981090 0.420752
O O16 0.750000 0.485407 0.470252
O O17 0.669392 0.750000 0.487539
#
# Coordination Sequence:
#
# PCOD9447777 Si02
#       6
#     8   8   8   8   8   8
#     4  10  19  31  48  69  94 124 156 192 236 283
#     4   8  14  26  46  71  94 117 150 188 222 263
#     4   9  16  26  44  70  97 124 155 194 238 280
#     4  10  20  35  55  75  96 121 149 187 234 284
#     4   8  15  28  45  66  92 124 166 209 237 261
#     4   8  13  23  42  67  93 124 165 207 237 263
#
# _framework density 19.600293000000001
#
# number of rings (size 3 to 8) (size 9 to 14) (size 15 to 20)
#    0.000    3.167    0.000    3.500    0.000    2.667 
#    0.000    0.833    0.000   25.000    0.000    4.667 
#    0.000    0.000    0.000    0.000    0.000    0.000 
#
# Total GULP energy -267501.308052 kJ/mol
# GULP energy per Si atom -5572.943918 kJ/mol
# Density = 1.955568 g / cm^3
# Si number density = 19.600293 Si / 1000 Ang^3
#
#
#
# Elastic Constant Matrix: (Units=GPa)
#
#
# Indices 1 2 3 4 5 6 
#
# 1 140.7642 -5.9112 64.5838 0.0000 0.0000 0.0000
# 2 -5.9112 31.6612 -9.4376 0.0000 0.0000 0.0000
# 3 64.5838 -9.4376 54.8490 0.0000 0.0000 0.0000
# 4 0.0000 0.0000 0.0000 12.9891 0.0000 0.0000
# 5 0.0000 0.0000 0.0000 0.0000 27.7770 0.0000
# 6 0.0000 0.0000 0.0000 0.0000 0.0000 14.6695
#
#
#
# Elastic Compliance Matrix: (Units=1/GPa)
#
#
# Indices 1 2 3 4 5 6 
#
# 1 0.015670 -0.002713 -0.018918 0.000000 0.000000 0.000000
# 2 -0.002713 0.033762 0.009004 0.000000 0.000000 0.000000
# 3 -0.018918 0.009004 0.042057 0.000000 0.000000 0.000000
# 4 0.000000 0.000000 0.000000 0.076987 0.000000 0.000000
# 5 0.000000 0.000000 0.000000 0.000000 0.036001 0.000000
# 6 0.000000 0.000000 0.000000 0.000000 0.000000 0.068169
#
#
# Mechanical properties :
#
#
# Convention : Reuss Voigt Hill
#
# Bulk Modulus (GPa) = 15.09793 36.19379 25.64586
# Shear Modulus (GPa) = 15.62611 22.95643 19.29127
#
# Velocity S-wave (km/s) = 2.82660 3.42603 3.14065
# Velocity P-wave (km/s) = 4.28632 5.84434 5.12488
#
# Compressibility (1/GPa) = 0.06623426
#
# Stress axis : x y z
#
# Youngs Moduli (GPa) = 63.81715 29.61928 23.77749
#
# Poissons Ratio (x) = 0.08037 0.44982
# Poissons Ratio (y) = 0.17316 -0.21410
# Poissons Ratio (z) = 1.20728 -0.26670
#
# Static dielectric constant tensor:
#      x y z
#    x 1.698030 0.000000 0.000000 
#    y 0.000000 1.739360 0.000000 
#    z 0.000000 0.000000 1.669710 
# 
# From -- ./inp_files/25756.got.cif
#   From: 2010.05.17/outbox.cif.g08.bks.cpg/sg59_13_cif.got.tgz:25756.got - 2010.06.03 14:40:33.
