data_PCOD9447130
_publ_section_title
;
Structure prediction by ZEFSAII (Michael W. Deem and Ramdas Pophale) SiO2 
 PCOD9447130
Probable space group: P M M N
;
_chemical_formula_sum "Si O2"
_cell_formula_units_Z 36
_cell_length_a 9.452266
_cell_length_b 14.561231
_cell_length_c 14.906635
_cell_angle_alpha 90.000000
_cell_angle_beta 90.000000
_cell_angle_gamma 90.000000
_cell_volume 2051.698987
_symmetry_space_group_name_H-M "P M M N"
_symmetry_group_IT_number 59
_space_group.IT_coordinate_system_code '2'
_symmetry_cell_setting 'orthorhombic'
loop_
_space_group_symop_operation_xyz
x,y,z
1/2-x,1/2-y,z
1/2+x,-y,-z
-x,1/2+y,-z
-x,-y,-z
1/2+x,1/2+y,-z
1/2-x,y,z
x,1/2-y,z
loop_
_atom_site_type_symbol
_atom_site_label
_atom_site_fract_x
_atom_site_fract_y
_atom_site_fract_z
Si Si1 0.087413 0.250000 0.890764
Si Si2 0.916523 0.433964 0.932879
Si Si3 0.516250 0.250000 0.694555
Si Si4 0.583560 0.448703 0.421738
Si Si5 0.904518 0.459104 0.725686
Si Si6 0.082350 0.750000 0.502858
O O1 0.250000 0.250000 0.921148
O O2 0.087242 0.250000 0.781062
O O3 0.000747 0.338227 0.924622
O O4 0.750000 0.421716 0.956777
O O5 0.918924 0.473424 0.831625
O O6 0.000000 0.500000 0.000000
O O7 0.590286 0.150974 0.708379
O O8 0.487220 0.250000 0.587569
O O9 0.500000 0.500000 0.500000
O O10 0.750000 0.466565 0.428742
O O11 0.523556 0.488989 0.329650
O O12 0.559976 0.340887 0.438949
O O13 0.750000 0.491680 0.694898
O O14 0.250000 0.750000 0.473768
#
# Coordination Sequence:
#
# PCOD9447130 Si02
#       6
#     4   8   4   8   8   4
#     4  10  21  36  56  87 119 143 185 239 288 343
#     4  10  21  38  61  86 115 151 190 235 292 348
#     4  10  18  32  55  80 111 146 179 224 280 335
#     4  11  22  36  54  77 107 146 187 227 274 330
#     4  10  20  36  57  82 111 146 183 226 280 335
#     4  10  20  36  53  73 108 151 186 223 276 334
#
# _framework density 17.546431999999999
#
# number of rings (size 3 to 8) (size 9 to 14) (size 15 to 20)
#    0.000    1.778    2.222    2.667    0.000    8.000 
#    0.000    3.333    0.000    5.333    0.000    0.000 
#    0.000    0.000    0.000    0.000    0.000    0.000 
#
# Total GULP energy -200627.117472 kJ/mol
# GULP energy per Si atom -5572.975485 kJ/mol
# Density = 1.750650 g / cm^3
# Si number density = 17.546432 Si / 1000 Ang^3
#
#
#
# Elastic Constant Matrix: (Units=GPa)
#
#
# Indices 1 2 3 4 5 6 
#
# 1 150.5207 75.5587 56.6478 0.0000 0.0000 0.0000
# 2 75.5587 114.0694 55.0734 0.0000 0.0000 0.0000
# 3 56.6478 55.0734 82.8489 0.0000 0.0000 0.0000
# 4 0.0000 0.0000 0.0000 31.9626 0.0000 0.0000
# 5 0.0000 0.0000 0.0000 0.0000 25.7031 0.0000
# 6 0.0000 0.0000 0.0000 0.0000 0.0000 9.1767
#
#
#
# Elastic Compliance Matrix: (Units=1/GPa)
#
#
# Indices 1 2 3 4 5 6 
#
# 1 0.010725 -0.005248 -0.003845 0.000000 0.000000 0.000000
# 2 -0.005248 0.015478 -0.006701 0.000000 0.000000 0.000000
# 3 -0.003845 -0.006701 0.019153 0.000000 0.000000 0.000000
# 4 0.000000 0.000000 0.000000 0.031287 0.000000 0.000000
# 5 0.000000 0.000000 0.000000 0.000000 0.038906 0.000000
# 6 0.000000 0.000000 0.000000 0.000000 0.000000 0.108971
#
#
# Mechanical properties :
#
#
# Convention : Reuss Voigt Hill
#
# Bulk Modulus (GPa) = 72.62349 80.22208 76.42278
# Shear Modulus (GPa) = 19.17947 24.04575 21.61261
#
# Velocity S-wave (km/s) = 3.30975 3.70592 3.51342
# Velocity P-wave (km/s) = 7.48900 8.00818 7.75293
#
# Compressibility (1/GPa) = 0.01376965
#
# Stress axis : x y z
#
# Youngs Moduli (GPa) = 93.24153 64.60864 52.21090
#
# Poissons Ratio (x) = 0.33906 0.20073
# Poissons Ratio (y) = 0.48932 0.34984
# Poissons Ratio (z) = 0.35848 0.43292
#
# Static dielectric constant tensor:
#      x y z
#    x 1.606960 0.000000 0.000000 
#    y 0.000000 1.673670 0.000000 
#    z 0.000000 0.000000 1.595450 
# 
# From -- ./inp_files/19796.got.cif
#   From: 2010.05.17/outbox.cif.g08.bks.cpg/sg59_10_cif.got.tgz:19796.got - 2010.06.03 14:40:33.
