data_PCOD9447943
_publ_section_title
;
Structure prediction by ZEFSAII (Michael W. Deem and Ramdas Pophale) SiO2 
 PCOD9447943
Probable space group: P M M N
;
_chemical_formula_sum "Si O2"
_cell_formula_units_Z 64
_cell_length_a 8.775788
_cell_length_b 21.255696
_cell_length_c 21.082685
_cell_angle_alpha 90.000000
_cell_angle_beta 90.000000
_cell_angle_gamma 90.000000
_cell_volume 3932.668806
_symmetry_space_group_name_H-M "P M M N"
_symmetry_group_IT_number 59
_space_group.IT_coordinate_system_code '2'
_symmetry_cell_setting 'orthorhombic'
loop_
_space_group_symop_operation_xyz
x,y,z
1/2-x,1/2-y,z
1/2+x,-y,-z
-x,1/2+y,-z
-x,-y,-z
1/2+x,1/2+y,-z
1/2-x,y,z
x,1/2-y,z
loop_
_atom_site_type_symbol
_atom_site_label
_atom_site_fract_x
_atom_site_fract_y
_atom_site_fract_z
Si Si1 0.576134 0.989084 0.810993
Si Si2 0.068185 0.319661 0.474423
Si Si3 0.933285 0.553200 0.452769
Si Si4 0.432244 0.959725 0.942898
Si Si5 0.934140 0.999624 0.672397
Si Si6 0.068844 0.859693 0.656975
Si Si7 0.932768 0.317830 0.080249
Si Si8 0.924210 0.660418 0.785972
O O1 0.750000 0.009519 0.824060
O O2 0.481078 0.990417 0.875571
O O3 0.579470 0.915254 0.792861
O O4 0.521598 0.019191 0.744515
O O5 0.250000 0.323951 0.462087
O O6 0.036565 0.250000 0.500771
O O7 0.028721 0.378235 0.519160
O O8 0.982875 0.328095 0.407990
O O9 0.750000 0.546361 0.450388
O O10 0.000000 0.500000 0.500000
O O11 0.003945 0.543318 0.383401
O O12 0.250000 0.959133 0.946675
O O13 0.487250 0.886211 0.944881
O O14 0.500000 0.000000 0.000000
O O15 0.750000 0.995642 0.670802
O O16 0.002445 0.930707 0.657412
O O17 0.250000 0.861990 0.662208
O O18 0.999009 0.826020 0.718574
O O19 0.750000 0.318840 0.075267
O O20 0.986159 0.250000 0.052750
O O21 0.980573 0.317470 0.153888
O O22 0.750000 0.681673 0.789153
#
# Coordination Sequence:
#
# PCOD9447943 Si02
#       8
#     8   8   8   8   8   8   8   8
#     4   8  16  30  47  69  97 127 160 199 239 284
#     4  10  22  38  51  65  92 129 166 205 252 305
#     4  11  21  33  53  76  98 126 164 210 256 301
#     4  10  19  31  50  74 102 134 164 200 243 290
#     4  10  19  32  51  74 101 129 161 205 252 298
#     4  11  20  30  47  69  94 127 166 206 245 287
#     4   9  18  32  48  68  95 128 168 207 239 279
#     4   9  17  29  45  65  93 128 163 199 239 283
#
# _framework density 16.273935999999999
#
# number of rings (size 3 to 8) (size 9 to 14) (size 15 to 20)
#    0.000    2.250    1.250    3.375    0.000    5.500 
#    0.000    0.000    0.000    0.000    0.000    0.875 
#    0.000    1.000    0.000    0.000    0.000    0.000 
#
# Total GULP energy -356695.378206 kJ/mol
# GULP energy per Si atom -5573.365284 kJ/mol
# Density = 1.623690 g / cm^3
# Si number density = 16.273936 Si / 1000 Ang^3
#
#
#
# Elastic Constant Matrix: (Units=GPa)
#
#
# Indices 1 2 3 4 5 6 
#
# 1 32.1407 24.1262 32.6992 0.0000 0.0000 0.0000
# 2 24.1262 89.0448 56.3966 0.0000 0.0000 0.0000
# 3 32.6992 56.3966 112.4648 0.0000 0.0000 0.0000
# 4 0.0000 0.0000 0.0000 -13.5283 0.0000 0.0000
# 5 0.0000 0.0000 0.0000 0.0000 28.8467 0.0000
# 6 0.0000 0.0000 0.0000 0.0000 0.0000 8.0033
#
#
#
# Elastic Compliance Matrix: (Units=1/GPa)
#
#
# Indices 1 2 3 4 5 6 
#
# 1 0.046189 -0.005875 -0.010483 0.000000 0.000000 0.000000
# 2 -0.005875 0.017204 -0.006919 0.000000 0.000000 0.000000
# 3 -0.010483 -0.006919 0.015409 0.000000 0.000000 0.000000
# 4 0.000000 0.000000 0.000000 -0.073919 0.000000 0.000000
# 5 0.000000 0.000000 0.000000 0.000000 0.034666 0.000000
# 6 0.000000 0.000000 0.000000 0.000000 0.000000 0.124949
#
#
# Mechanical properties :
#
#
# Convention : Reuss Voigt Hill
#
# Bulk Modulus (GPa) = 31.01005 51.12157 41.06581
# Shear Modulus (GPa) = 22.54260 12.69289 17.61774
#
# Velocity S-wave (km/s) = 3.72586 2.79579 3.29382
# Velocity P-wave (km/s) = 6.13236 6.47327 6.30512
#
# Compressibility (1/GPa) = 0.03224761
#
# Stress axis : x y z
#
# Youngs Moduli (GPa) = 21.65027 58.12496 64.89545
#
# Poissons Ratio (x) = 0.34148 0.68033
# Poissons Ratio (y) = 0.12719 0.44902
# Poissons Ratio (z) = 0.22697 0.40217
#
# Static dielectric constant tensor:
#      x y z
#    x 1.552640 0.000000 0.000000 
#    y 0.000000 1.579230 0.000000 
#    z 0.000000 0.000000 1.541260 
# 
# From -- ./inp_files/29774.got.cif
#   From: 2010.05.17/outbox.cif.g08.bks.cpg/sg59_15_cif.got.tgz:29774.got - 2010.06.03 14:40:33.
