data_PCOD9447945
_publ_section_title
;
Structure prediction by ZEFSAII (Michael W. Deem and Ramdas Pophale) SiO2 
 PCOD9447945
Probable space group: P M M N
;
_chemical_formula_sum "Si O2"
_cell_formula_units_Z 48
_cell_length_a 14.310860
_cell_length_b 7.821125
_cell_length_c 21.605606
_cell_angle_alpha 90.000000
_cell_angle_beta 90.000000
_cell_angle_gamma 90.000000
_cell_volume 2418.251201
_symmetry_space_group_name_H-M "P M M N"
_symmetry_group_IT_number 59
_space_group.IT_coordinate_system_code '2'
_symmetry_cell_setting 'orthorhombic'
loop_
_space_group_symop_operation_xyz
x,y,z
1/2-x,1/2-y,z
1/2+x,-y,-z
-x,1/2+y,-z
-x,-y,-z
1/2+x,1/2+y,-z
1/2-x,y,z
x,1/2-y,z
loop_
_atom_site_type_symbol
_atom_site_label
_atom_site_fract_x
_atom_site_fract_y
_atom_site_fract_z
Si Si1 0.856608 0.543576 0.396718
Si Si2 0.356203 0.044915 0.219272
Si Si3 0.639924 0.543079 0.534370
Si Si4 0.959313 0.453460 0.906400
Si Si5 0.958098 0.954297 0.657757
Si Si6 0.355556 0.955711 0.970003
O O1 0.750000 0.487172 0.385816
O O2 0.855716 0.750000 0.398536
O O3 0.886596 0.480805 0.465632
O O4 0.931851 0.487264 0.346754
O O5 0.250000 0.978774 0.213763
O O6 0.350273 0.250000 0.225341
O O7 0.407506 0.978439 0.280993
O O8 0.415689 0.010075 0.158049
O O9 0.750000 0.508507 0.542005
O O10 0.629377 0.750000 0.533355
O O11 0.585721 0.475124 0.593889
O O12 0.953704 0.250000 0.908578
O O13 0.066777 0.502341 0.918708
O O14 0.898406 0.521106 0.964748
O O15 0.943388 0.750000 0.656988
O O16 0.250000 0.018922 0.959647
O O17 0.351050 0.750000 0.973877
#
# Coordination Sequence:
#
# PCOD9447945 Si02
#       6
#     8   8   8   8   8   8
#     4   9  18  32  49  69  95 128 163 201 251 306
#     4  10  21  36  53  74 102 136 171 205 246 300
#     4   8  14  27  48  72  97 125 158 199 249 302
#     4  10  20  34  54  81 110 138 170 208 251 297
#     4  10  19  31  50  74  97 125 165 209 248 290
#     4   9  18  34  56  81 109 139 171 208 249 294
#
# _framework density 19.849053000000001
#
# number of rings (size 3 to 8) (size 9 to 14) (size 15 to 20)
#    0.000    2.667    0.000    3.000    0.000    5.000 
#    0.000    0.833    0.000    3.500    0.000    0.000 
#    0.000    0.000    0.000    0.000    0.000    0.000 
#
# Total GULP energy -267792.421234 kJ/mol
# GULP energy per Si atom -5579.008776 kJ/mol
# Density = 1.980388 g / cm^3
# Si number density = 19.849053 Si / 1000 Ang^3
#
#
#
# Elastic Constant Matrix: (Units=GPa)
#
#
# Indices 1 2 3 4 5 6 
#
# 1 168.1564 6.0593 103.9107 0.0000 0.0000 0.0000
# 2 6.0593 25.8704 4.8933 0.0000 0.0000 0.0000
# 3 103.9107 4.8933 114.4083 0.0000 0.0000 0.0000
# 4 0.0000 0.0000 0.0000 15.6517 0.0000 0.0000
# 5 0.0000 0.0000 0.0000 0.0000 -24.8726 0.0000
# 6 0.0000 0.0000 0.0000 0.0000 0.0000 19.7199
#
#
#
# Elastic Compliance Matrix: (Units=1/GPa)
#
#
# Indices 1 2 3 4 5 6 
#
# 1 0.013572 -0.000854 -0.012291 0.000000 0.000000 0.000000
# 2 -0.000854 0.039023 -0.000893 0.000000 0.000000 0.000000
# 3 -0.012291 -0.000893 0.019942 0.000000 0.000000 0.000000
# 4 0.000000 0.000000 0.000000 0.063891 0.000000 0.000000
# 5 0.000000 0.000000 0.000000 0.000000 -0.040205 0.000000
# 6 0.000000 0.000000 0.000000 0.000000 0.000000 0.050710
#
#
# Mechanical properties :
#
#
# Convention : Reuss Voigt Hill
#
# Bulk Modulus (GPa) = 22.49146 59.79574 41.14360
# Shear Modulus (GPa) = 26.33937 15.00460 20.67198
#
# Velocity S-wave (km/s) = 3.64673 2.75241 3.23067
# Velocity P-wave (km/s) = 5.39327 6.34757 5.88978
#
# Compressibility (1/GPa) = 0.04446132
#
# Stress axis : x y z
#
# Youngs Moduli (GPa) = 73.67842 25.62578 50.14613
#
# Poissons Ratio (x) = 0.02189 0.61633
# Poissons Ratio (y) = 0.06293 0.04479
# Poissons Ratio (z) = 0.90555 0.02289
#
# Static dielectric constant tensor:
#      x y z
#    x 1.708110 0.000000 0.000000 
#    y 0.000000 1.729790 0.000000 
#    z 0.000000 0.000000 1.691390 
# 
# From -- ./inp_files/27382.got.cif
#   From: 2010.05.17/outbox.cif.g08.bks.cpg/sg59_14_cif.got.tgz:27382.got - 2010.06.03 14:40:33.
