data_PCOD9447830
_publ_section_title
;
Structure prediction by ZEFSAII (Michael W. Deem and Ramdas Pophale) SiO2 
 PCOD9447830
Probable space group: P M M N
;
_chemical_formula_sum "Si O2"
_cell_formula_units_Z 64
_cell_length_a 28.762803
_cell_length_b 13.790016
_cell_length_c 9.429855
_cell_angle_alpha 90.000000
_cell_angle_beta 90.000000
_cell_angle_gamma 90.000000
_cell_volume 3740.253100
_symmetry_space_group_name_H-M "P M M N"
_symmetry_group_IT_number 59
_space_group.IT_coordinate_system_code '2'
_symmetry_cell_setting 'orthorhombic'
loop_
_space_group_symop_operation_xyz
x,y,z
1/2-x,1/2-y,z
1/2+x,-y,-z
-x,1/2+y,-z
-x,-y,-z
1/2+x,1/2+y,-z
1/2-x,y,z
x,1/2-y,z
loop_
_atom_site_type_symbol
_atom_site_label
_atom_site_fract_x
_atom_site_fract_y
_atom_site_fract_z
Si Si1 0.302669 0.360668 0.407172
Si Si2 0.800530 0.636607 0.250660
Si Si3 0.889913 0.512333 0.626724
Si Si4 0.524137 0.363800 0.139369
Si Si5 0.403427 0.367525 0.836827
Si Si6 0.063368 0.637100 0.550934
Si Si7 0.938936 0.498973 0.910490
Si Si8 0.539047 0.865771 0.447147
O O1 0.250000 0.378515 0.357881
O O2 0.315597 0.250000 0.367655
O O3 0.302252 0.364876 0.578524
O O4 0.340383 0.437334 0.359763
O O5 0.750000 0.593967 0.207127
O O6 0.799474 0.750000 0.208787
O O7 0.850569 0.600514 0.198925
O O8 0.895511 0.426562 0.512975
O O9 0.905941 0.477594 0.779883
O O10 0.926375 0.590954 0.564146
O O11 0.509863 0.250000 0.130307
O O12 0.555197 0.373135 0.280783
O O13 0.482819 0.441854 0.151930
O O14 0.548279 0.401635 0.995858
O O15 0.404544 0.250000 0.855254
O O16 0.438494 0.389842 0.705905
O O17 0.418846 0.425609 0.974607
O O18 0.070307 0.750000 0.520291
O O19 0.014549 0.605838 0.475150
O O20 0.540000 0.750000 0.460533
#
# Coordination Sequence:
#
# PCOD9447830 Si02
#       8
#     8   8   8   8   8   8   8   8
#     4   9  18  33  55  83 110 137 171 215 267 315
#     4   8  14  27  48  73 100 132 172 214 255 302
#     4  12  21  33  55  78 108 135 179 221 264 316
#     4  10  22  39  51  68 105 145 180 220 260 305
#     4  10  19  31  48  74 106 141 180 216 257 311
#     4  10  22  37  54  76 103 139 184 226 263 303
#     4  11  24  33  50  76 105 143 180 211 262 319
#     4  10  19  31  51  75 103 140 178 219 261 305
#
# _framework density 17.111141
#
# number of rings (size 3 to 8) (size 9 to 14) (size 15 to 20)
#    0.000    2.000    2.500    2.625    3.500    2.000 
#    0.000    0.625    0.000    1.875    0.000    0.000 
#    0.000    1.500    0.000    0.000    0.000    0.000 
#
# Total GULP energy -356814.588921 kJ/mol
# GULP energy per Si atom -5575.227952 kJ/mol
# Density = 1.707220 g / cm^3
# Si number density = 17.111141 Si / 1000 Ang^3
#
#
#
# Elastic Constant Matrix: (Units=GPa)
#
#
# Indices 1 2 3 4 5 6 
#
# 1 60.0774 25.5565 11.0154 0.0000 0.0000 0.0000
# 2 25.5565 71.3679 16.2608 0.0000 0.0000 0.0000
# 3 11.0154 16.2608 57.9504 0.0000 0.0000 0.0000
# 4 0.0000 0.0000 0.0000 19.9006 0.0000 0.0000
# 5 0.0000 0.0000 0.0000 0.0000 4.0551 0.0000
# 6 0.0000 0.0000 0.0000 0.0000 0.0000 15.5692
#
#
#
# Elastic Compliance Matrix: (Units=1/GPa)
#
#
# Indices 1 2 3 4 5 6 
#
# 1 0.019830 -0.006669 -0.001898 0.000000 0.000000 0.000000
# 2 -0.006669 0.017211 -0.003562 0.000000 0.000000 0.000000
# 3 -0.001898 -0.003562 0.018616 0.000000 0.000000 0.000000
# 4 0.000000 0.000000 0.000000 0.050250 0.000000 0.000000
# 5 0.000000 0.000000 0.000000 0.000000 0.246601 0.000000
# 6 0.000000 0.000000 0.000000 0.000000 0.000000 0.064230
#
#
# Mechanical properties :
#
#
# Convention : Reuss Voigt Hill
#
# Bulk Modulus (GPa) = 31.84656 32.78458 32.31557
# Shear Modulus (GPa) = 11.07513 17.00917 14.04215
#
# Velocity S-wave (km/s) = 2.54686 3.15626 2.86780
# Velocity P-wave (km/s) = 5.22501 5.69948 5.46739
#
# Compressibility (1/GPa) = 0.03140056
#
# Stress axis : x y z
#
# Youngs Moduli (GPa) = 50.42864 58.10083 53.71601
#
# Poissons Ratio (x) = 0.38745 0.10196
# Poissons Ratio (y) = 0.33629 0.19133
# Poissons Ratio (z) = 0.09572 0.20695
#
# Static dielectric constant tensor:
#      x y z
#    x 1.615330 0.000000 0.000000 
#    y 0.000000 1.588020 0.000000 
#    z 0.000000 0.000000 1.586510 
# 
# From -- ./inp_files/13253.got.cif
#   From: 2010.05.17/outbox.cif.g08.bks.cpg/sg59_7_cif.got.tgz:13253.got - 2010.06.03 14:40:33.
