data_PCOD9447567
_publ_section_title
;
Structure prediction by ZEFSAII (Michael W. Deem and Ramdas Pophale) SiO2 
 PCOD9447567
Probable space group: P M M N
;
_chemical_formula_sum "Si O2"
_cell_formula_units_Z 56
_cell_length_a 18.812493
_cell_length_b 8.313666
_cell_length_c 19.764703
_cell_angle_alpha 90.000000
_cell_angle_beta 90.000000
_cell_angle_gamma 90.000000
_cell_volume 3091.215033
_symmetry_space_group_name_H-M "P M M N"
_symmetry_group_IT_number 59
_space_group.IT_coordinate_system_code '2'
_symmetry_cell_setting 'orthorhombic'
loop_
_space_group_symop_operation_xyz
x,y,z
1/2-x,1/2-y,z
1/2+x,-y,-z
-x,1/2+y,-z
-x,-y,-z
1/2+x,1/2+y,-z
1/2-x,y,z
x,1/2-y,z
loop_
_atom_site_type_symbol
_atom_site_label
_atom_site_fract_x
_atom_site_fract_y
_atom_site_fract_z
Si Si1 0.412983 0.441347 0.070721
Si Si2 0.541048 0.444930 0.710231
Si Si3 0.170850 0.555411 0.639064
Si Si4 0.027943 0.441991 0.571873
Si Si5 0.421049 0.944582 0.924468
Si Si6 0.602921 0.443643 0.222171
Si Si7 0.329986 0.556733 0.200770
O O1 0.411375 0.250000 0.078231
O O2 0.495532 0.494087 0.079266
O O3 0.364293 0.516216 0.128448
O O4 0.391374 0.488413 0.994610
O O5 0.539800 0.250000 0.711660
O O6 0.522415 0.497819 0.634061
O O7 0.476652 0.506996 0.756630
O O8 0.615216 0.501380 0.741713
O O9 0.250000 0.501752 0.619910
O O10 0.170035 0.750000 0.639177
O O11 0.107244 0.499023 0.590960
O O12 0.152186 0.500327 0.715836
O O13 0.027738 0.250000 0.572216
O O14 0.000000 0.500000 0.500000
O O15 0.419163 0.750000 0.927812
O O16 0.384172 0.998365 0.854663
O O17 0.606867 0.250000 0.221257
O O18 0.250000 0.493063 0.206818
O O19 0.326973 0.750000 0.206466
#
# Coordination Sequence:
#
# PCOD9447567 Si02
#       7
#     8   8   8   8   8   8   8
#     4  10  19  30  46  69  97 130 169 214 259 304
#     4   9  18  32  51  74  99 127 167 210 250 300
#     4   9  18  33  54  80 108 138 170 208 258 313
#     4  10  20  35  56  82 109 139 173 212 253 301
#     4   9  17  29  46  70  98 129 167 213 259 304
#     4   9  16  29  50  74 100 130 168 211 253 299
#     4  10  20  34  51  70  96 131 169 213 263 310
#
# _framework density 18.115853999999999
#
# number of rings (size 3 to 8) (size 9 to 14) (size 15 to 20)
#    0.000    2.571    1.429    0.857    0.000    2.286 
#    0.000    1.429    0.000    5.143    0.000    0.000 
#    0.000    0.000    0.000    0.000    0.000    0.000 
#
# Total GULP energy -312185.835916 kJ/mol
# GULP energy per Si atom -5574.747070 kJ/mol
# Density = 1.807462 g / cm^3
# Si number density = 18.115854 Si / 1000 Ang^3
#
#
#
# Elastic Constant Matrix: (Units=GPa)
#
#
# Indices 1 2 3 4 5 6 
#
# 1 122.4397 13.6028 72.5856 0.0000 0.0000 0.0000
# 2 13.6028 4.2704 12.5850 0.0000 0.0000 0.0000
# 3 72.5856 12.5850 150.2949 0.0000 0.0000 0.0000
# 4 0.0000 0.0000 0.0000 21.3902 0.0000 0.0000
# 5 0.0000 0.0000 0.0000 0.0000 16.7701 0.0000
# 6 0.0000 0.0000 0.0000 0.0000 0.0000 19.0020
#
#
#
# Elastic Compliance Matrix: (Units=1/GPa)
#
#
# Indices 1 2 3 4 5 6 
#
# 1 0.014331 -0.033525 -0.004114 0.000000 0.000000 0.000000
# 2 -0.033525 0.389319 -0.016409 0.000000 0.000000 0.000000
# 3 -0.004114 -0.016409 0.010014 0.000000 0.000000 0.000000
# 4 0.000000 0.000000 0.000000 0.046750 0.000000 0.000000
# 5 0.000000 0.000000 0.000000 0.000000 0.059630 0.000000
# 6 0.000000 0.000000 0.000000 0.000000 0.000000 0.052626
#
#
# Mechanical properties :
#
#
# Convention : Reuss Voigt Hill
#
# Bulk Modulus (GPa) = 3.27259 52.72797 28.00028
# Shear Modulus (GPa) = 6.38879 23.31458 14.85168
#
# Velocity S-wave (km/s) = 1.87997 3.59133 2.86635
# Velocity P-wave (km/s) = 2.55397 6.80926 5.14241
#
# Compressibility (1/GPa) = 0.30556879
#
# Stress axis : x y z
#
# Youngs Moduli (GPa) = 69.78054 2.56859 99.85686
#
# Poissons Ratio (x) = 0.08611 0.41079
# Poissons Ratio (y) = 2.33940 1.63850
# Poissons Ratio (z) = 0.28706 0.04215
#
# Static dielectric constant tensor:
#      x y z
#    x 1.620570 0.000000 0.000000 
#    y 0.000000 1.630050 0.000000 
#    z 0.000000 0.000000 1.634040 
# 
# From -- ./inp_files/30562.got.cif
#   From: 2010.05.17/outbox.cif.g08.bks.cpg/sg59_16_cif.got.tgz:30562.got - 2010.06.03 14:40:33.
