data_PCOD9447902
_publ_section_title
;
Structure prediction by ZEFSAII (Michael W. Deem and Ramdas Pophale) SiO2 
 PCOD9447902
Probable space group: P M M N
;
_chemical_formula_sum "Si O2"
_cell_formula_units_Z 64
_cell_length_a 7.462790
_cell_length_b 19.043758
_cell_length_c 21.299818
_cell_angle_alpha 90.000000
_cell_angle_beta 90.000000
_cell_angle_gamma 90.000000
_cell_volume 3027.120906
_symmetry_space_group_name_H-M "P M M N"
_symmetry_group_IT_number 59
_space_group.IT_coordinate_system_code '2'
_symmetry_cell_setting 'orthorhombic'
loop_
_space_group_symop_operation_xyz
x,y,z
1/2-x,1/2-y,z
1/2+x,-y,-z
-x,1/2+y,-z
-x,-y,-z
1/2+x,1/2+y,-z
1/2-x,y,z
x,1/2-y,z
loop_
_atom_site_type_symbol
_atom_site_label
_atom_site_fract_x
_atom_site_fract_y
_atom_site_fract_z
Si Si1 0.464852 0.329942 0.999132
Si Si2 0.964625 0.082270 0.498858
Si Si3 0.463751 0.169995 0.238373
Si Si4 0.969810 0.581315 0.880599
Si Si5 0.468367 0.668987 0.381991
Si Si6 0.036005 0.921399 0.124105
Si Si7 0.464940 0.830268 0.619879
Si Si8 0.031287 0.669007 0.240885
O O1 0.250000 0.325709 0.004919
O O2 0.533326 0.250000 0.996407
O O3 0.503210 0.373311 0.936338
O O4 0.529266 0.372953 0.059777
O O5 0.750000 0.091498 0.498928
O O6 0.032456 0.120015 0.561866
O O7 0.032703 0.120312 0.435825
O O8 0.000000 0.000000 0.500000
O O9 0.250000 0.174297 0.230425
O O10 0.534583 0.250000 0.232844
O O11 0.528776 0.118993 0.183637
O O12 0.496046 0.145063 0.309424
O O13 0.750000 0.580797 0.881322
O O14 0.030895 0.500747 0.884356
O O15 0.250000 0.667362 0.381839
O O16 0.519617 0.750000 0.393162
O O17 0.524934 0.649089 0.311483
O O18 0.250000 0.926920 0.131610
O O19 0.967264 0.882285 0.186329
O O20 0.250000 0.827215 0.614550
O O21 0.532354 0.750000 0.613705
O O22 0.250000 0.668455 0.240274
O O23 0.978100 0.750000 0.229216
#
# Coordination Sequence:
#
# PCOD9447902 Si02
#       8
#     8   8   8   8   8   8   8   8
#     4  10  20  34  51  69  93 128 165 198 235 283
#     4  10  20  32  48  71  98 127 159 198 242 286
#     4   9  17  31  52  75  97 125 164 204 238 280
#     4   9  18  32  50  72  98 128 161 197 238 284
#     4   8  14  27  48  70  90 119 161 198 226 269
#     4  10  19  31  49  73  99 124 153 195 244 287
#     4   9  18  33  51  71  98 131 165 202 245 290
#     4   8  14  25  43  68  93 114 144 191 237 270
#
# _framework density 21.142199999999999
#
# number of rings (size 3 to 8) (size 9 to 14) (size 15 to 20)
#    0.000    2.875    0.000    2.250    0.000    5.250 
#    0.000    3.750    0.000    3.375    0.000    1.750 
#    0.000    0.000    0.000    0.000    0.000    0.000 
#
# Total GULP energy -357334.222852 kJ/mol
# GULP energy per Si atom -5583.347232 kJ/mol
# Density = 2.109408 g / cm^3
# Si number density = 21.142200 Si / 1000 Ang^3
#
#
#
# Elastic Constant Matrix: (Units=GPa)
#
#
# Indices 1 2 3 4 5 6 
#
# 1 61.4384 3.7198 0.7163 0.0000 0.0000 0.0000
# 2 3.7198 182.4648 157.4666 0.0000 0.0000 0.0000
# 3 0.7163 157.4666 233.5762 0.0000 0.0000 0.0000
# 4 0.0000 0.0000 0.0000 -105.9765 0.0000 0.0000
# 5 0.0000 0.0000 0.0000 0.0000 -76.6445 0.0000
# 6 0.0000 0.0000 0.0000 0.0000 0.0000 8.5621
#
#
#
# Elastic Compliance Matrix: (Units=1/GPa)
#
#
# Indices 1 2 3 4 5 6 
#
# 1 0.016314 -0.000692 0.000416 0.000000 0.000000 0.000000
# 2 -0.000692 0.013134 -0.008852 0.000000 0.000000 0.000000
# 3 0.000416 -0.008852 0.010248 0.000000 0.000000 0.000000
# 4 0.000000 0.000000 0.000000 -0.009436 0.000000 0.000000
# 5 0.000000 0.000000 0.000000 0.000000 -0.013047 0.000000
# 6 0.000000 0.000000 0.000000 0.000000 0.000000 0.116794
#
#
# Mechanical properties :
#
#
# Convention : Reuss Voigt Hill
#
# Bulk Modulus (GPa) = 46.64225 89.03166 67.83695
# Shear Modulus (GPa) = 31.36587 -13.77333 8.79627
#
# Velocity S-wave (km/s) = 3.85589 -2.55514 2.04195
# Velocity P-wave (km/s) = 6.47556 5.78768 6.14126
#
# Compressibility (1/GPa) = 0.02143979
#
# Stress axis : x y z
#
# Youngs Moduli (GPa) = 61.29889 76.13727 97.58153
#
# Poissons Ratio (x) = 0.05269 -0.04064
# Poissons Ratio (y) = 0.04242 0.86383
# Poissons Ratio (z) = -0.02553 0.67399
#
# Static dielectric constant tensor:
#      x y z
#    x 1.828350 0.000000 0.000000 
#    y 0.000000 1.731450 0.000000 
#    z 0.000000 0.000000 1.733440 
# 
# From -- ./inp_files/27170.got.cif
#   From: 2010.05.17/outbox.cif.g08.bks.cpg/sg59_14_cif.got.tgz:27170.got - 2010.06.03 14:40:33.
