data_PCOD9447870
_publ_section_title
;
Structure prediction by ZEFSAII (Michael W. Deem and Ramdas Pophale) SiO2 
 PCOD9447870
Probable space group: P M M N
;
_chemical_formula_sum "Si O2"
_cell_formula_units_Z 64
_cell_length_a 15.890216
_cell_length_b 9.331387
_cell_length_c 21.949589
_cell_angle_alpha 90.000000
_cell_angle_beta 90.000000
_cell_angle_gamma 90.000000
_cell_volume 3254.635780
_symmetry_space_group_name_H-M "P M M N"
_symmetry_group_IT_number 59
_space_group.IT_coordinate_system_code '2'
_symmetry_cell_setting 'orthorhombic'
loop_
_space_group_symop_operation_xyz
x,y,z
1/2-x,1/2-y,z
1/2+x,-y,-z
-x,1/2+y,-z
-x,-y,-z
1/2+x,1/2+y,-z
1/2-x,y,z
x,1/2-y,z
loop_
_atom_site_type_symbol
_atom_site_label
_atom_site_fract_x
_atom_site_fract_y
_atom_site_fract_z
Si Si1 0.104694 0.414343 0.555431
Si Si2 0.398568 0.584969 0.437317
Si Si3 0.590297 0.920452 0.681225
Si Si4 0.350608 0.587801 0.936191
Si Si5 0.910480 0.578234 0.312684
Si Si6 0.913842 0.920351 0.814678
Si Si7 0.408601 0.419876 0.819428
Si Si8 0.149542 0.587035 0.071046
O O1 0.127026 0.250000 0.541716
O O2 0.131415 0.514612 0.500199
O O3 0.135684 0.451460 0.623523
O O4 0.001776 0.420723 0.559875
O O5 0.374423 0.750000 0.432582
O O6 0.371186 0.498463 0.377313
O O7 0.587731 0.750000 0.671117
O O8 0.628690 0.947392 0.748496
O O9 0.495430 0.984056 0.685696
O O10 0.250000 0.595560 0.940066
O O11 0.382513 0.750000 0.924930
O O12 0.369777 0.487597 0.879571
O O13 0.381699 0.542245 0.003552
O O14 0.932066 0.750000 0.314459
O O15 0.867199 0.552564 0.247273
O O16 0.927810 0.750000 0.818506
O O17 0.869389 0.979660 0.874546
O O18 0.000618 0.007212 0.814322
O O19 0.414611 0.250000 0.826552
O O20 0.250000 0.596504 0.067337
O O21 0.117938 0.750000 0.083319
#
# Coordination Sequence:
#
# PCOD9447870 Si02
#       8
#     8   8   8   8   8   8   8   8
#     4   8  13  21  32  47  72 107 144 180 218 262
#     4   9  15  21  31  49  74 107 146 183 219 262
#     4   9  16  25  37  55  81 113 147 182 222 267
#     4   9  19  36  54  71  94 123 154 190 233 280
#     4   8  15  26  38  55  81 113 147 183 224 266
#     4  10  20  32  48  71  97 125 157 193 234 279
#     4  10  19  31  49  72  97 125 158 195 233 276
#     4   9  19  36  55  72  92 121 155 191 233 279
#
# _framework density 19.664258
#
# number of rings (size 3 to 8) (size 9 to 14) (size 15 to 20)
#    0.000    3.000    0.000    3.000    0.000    6.500 
#    0.000    1.250    0.000    0.000    0.000    0.000 
#    0.000    1.000    0.000    9.500    0.000    9.750 
#
# Total GULP energy -356323.953092 kJ/mol
# GULP energy per Si atom -5567.561767 kJ/mol
# Density = 1.961950 g / cm^3
# Si number density = 19.664258 Si / 1000 Ang^3
#
#
#
# Elastic Constant Matrix: (Units=GPa)
#
#
# Indices 1 2 3 4 5 6 
#
# 1 7.1999 5.9678 17.0890 0.0000 0.0000 0.0000
# 2 5.9678 106.4520 115.4304 0.0000 0.0000 0.0000
# 3 17.0890 115.4304 233.8100 0.0000 0.0000 0.0000
# 4 0.0000 0.0000 0.0000 39.8566 0.0000 0.0000
# 5 0.0000 0.0000 0.0000 0.0000 61.0145 0.0000
# 6 0.0000 0.0000 0.0000 0.0000 0.0000 11.1404
#
#
#
# Elastic Compliance Matrix: (Units=1/GPa)
#
#
# Indices 1 2 3 4 5 6 
#
# 1 0.171596 0.008565 -0.016770 0.000000 0.000000 0.000000
# 2 0.008565 0.020644 -0.010818 0.000000 0.000000 0.000000
# 3 -0.016770 -0.010818 0.010843 0.000000 0.000000 0.000000
# 4 0.000000 0.000000 0.000000 0.025090 0.000000 0.000000
# 5 0.000000 0.000000 0.000000 0.000000 0.016390 0.000000
# 6 0.000000 0.000000 0.000000 0.000000 0.000000 0.089763
#
#
# Mechanical properties :
#
#
# Convention : Reuss Voigt Hill
#
# Bulk Modulus (GPa) = 6.05924 69.38181 37.72053
# Shear Modulus (GPa) = 11.69905 36.33393 24.01649
#
# Velocity S-wave (km/s) = 2.44178 4.30317 3.49854
# Velocity P-wave (km/s) = 3.32232 7.74916 5.96185
#
# Compressibility (1/GPa) = 0.16503708
#
# Stress axis : x y z
#
# Youngs Moduli (GPa) = 5.82763 48.44049 92.22249
#
# Poissons Ratio (x) = -0.41488 1.54659
# Poissons Ratio (y) = -0.04991 0.99764
# Poissons Ratio (z) = 0.09773 0.52402
#
# Static dielectric constant tensor:
#      x y z
#    x 1.691780 0.000000 0.000000 
#    y 0.000000 1.663060 0.000000 
#    z 0.000000 0.000000 1.767280 
# 
# From -- ./inp_files/30704.got.cif
#   From: 2010.05.17/outbox.cif.g08.bks.cpg/sg59_16_cif.got.tgz:30704.got - 2010.06.03 14:40:33.
