data_PCOD9447444
_publ_section_title
;
Structure prediction by ZEFSAII (Michael W. Deem and Ramdas Pophale) SiO2 
 PCOD9447444
Probable space group: P M M N
;
_chemical_formula_sum "Si O2"
_cell_formula_units_Z 64
_cell_length_a 34.959230
_cell_length_b 7.613796
_cell_length_c 11.696183
_cell_angle_alpha 90.000000
_cell_angle_beta 90.000000
_cell_angle_gamma 90.000000
_cell_volume 3113.201633
_symmetry_space_group_name_H-M "P M M N"
_symmetry_group_IT_number 59
_space_group.IT_coordinate_system_code '2'
_symmetry_cell_setting 'orthorhombic'
loop_
_space_group_symop_operation_xyz
x,y,z
1/2-x,1/2-y,z
1/2+x,-y,-z
-x,1/2+y,-z
-x,-y,-z
1/2+x,1/2+y,-z
1/2-x,y,z
x,1/2-y,z
loop_
_atom_site_type_symbol
_atom_site_label
_atom_site_fract_x
_atom_site_fract_y
_atom_site_fract_z
Si Si1 0.871711 0.039703 0.636588
Si Si2 0.978754 0.038644 0.275297
Si Si3 0.293318 0.038798 0.245510
Si Si4 0.598223 0.034776 0.392653
Si Si5 0.707306 0.960592 0.012730
Si Si6 0.941158 0.464324 0.040252
Si Si7 0.940788 0.458358 0.786394
Si Si8 0.864794 0.040903 0.159478
O O1 0.876339 0.250000 0.633574
O O2 0.884950 0.973294 0.512649
O O3 0.901924 0.971033 0.730685
O O4 0.828019 0.007151 0.671365
O O5 0.977734 0.250000 0.274495
O O6 0.945322 0.980823 0.361852
O O7 0.966500 0.975590 0.147744
O O8 0.022348 0.984360 0.293734
O O9 0.250000 0.977791 0.274606
O O10 0.291734 0.250000 0.242484
O O11 0.302451 0.976096 0.115862
O O12 0.598239 0.250000 0.394406
O O13 0.624402 0.975959 0.285712
O O14 0.750000 0.024470 0.040481
O O15 0.708772 0.750000 0.005944
O O16 0.676134 0.003602 0.106961
O O17 0.943716 0.250000 0.040459
O O18 0.897991 0.517824 0.072764
O O19 0.949676 0.530094 0.913196
O O20 0.935497 0.250000 0.800920
O O21 0.868767 0.250000 0.165893
#
# Coordination Sequence:
#
# PCOD9447444 Si02
#       8
#     8   8   8   8   8   8   8   8
#     4  10  20  34  52  73  98 130 167 205 243 282
#     4   9  17  31  49  65  89 129 166 194 237 294
#     4   9  19  36  55  75 101 129 155 191 241 291
#     4   8  17  34  51  68  95 130 166 205 244 278
#     4   9  18  32  49  72 103 129 147 182 242 300
#     4   8  15  28  45  66  92 121 154 197 247 290
#     4  10  19  29  44  70 100 123 153 203 248 280
#     4   9  16  30  52  71  90 123 165 201 234 281
#
# _framework density 20.557614999999998
#
# number of rings (size 3 to 8) (size 9 to 14) (size 15 to 20)
#    0.000    3.000    0.000    3.375    0.000    3.000 
#    0.000    6.250    0.000    3.750    0.000    0.000 
#    0.000    0.000    0.000    0.000    0.000    0.000 
#
# Total GULP energy -356881.752338 kJ/mol
# GULP energy per Si atom -5576.277380 kJ/mol
# Density = 2.051082 g / cm^3
# Si number density = 20.557615 Si / 1000 Ang^3
#
#
#
# Elastic Constant Matrix: (Units=GPa)
#
#
# Indices 1 2 3 4 5 6 
#
# 1 116.0796 -6.1337 33.2950 0.0000 0.0000 0.0000
# 2 -6.1337 36.1420 3.4987 0.0000 0.0000 0.0000
# 3 33.2950 3.4987 29.2691 0.0000 0.0000 0.0000
# 4 0.0000 0.0000 0.0000 -3.7988 0.0000 0.0000
# 5 0.0000 0.0000 0.0000 0.0000 20.1813 0.0000
# 6 0.0000 0.0000 0.0000 0.0000 0.0000 19.3923
#
#
#
# Elastic Compliance Matrix: (Units=1/GPa)
#
#
# Indices 1 2 3 4 5 6 
#
# 1 0.013273 0.003758 -0.015548 0.000000 0.000000 0.000000
# 2 0.003758 0.029056 -0.007748 0.000000 0.000000 0.000000
# 3 -0.015548 -0.007748 0.052778 0.000000 0.000000 0.000000
# 4 0.000000 0.000000 0.000000 -0.263239 0.000000 0.000000
# 5 0.000000 0.000000 0.000000 0.000000 0.049551 0.000000
# 6 0.000000 0.000000 0.000000 0.000000 0.000000 0.051567
#
#
# Mechanical properties :
#
#
# Convention : Reuss Voigt Hill
#
# Bulk Modulus (GPa) = 17.84705 26.97897 22.41301
# Shear Modulus (GPa) = -539.90838 17.21033 -261.34902
#
# Velocity S-wave (km/s) = -16.22350 2.89654 -11.28743
# Velocity P-wave (km/s) = 18.49961 4.93342 12.60748
#
# Compressibility (1/GPa) = 0.05603166
#
# Stress axis : x y z
#
# Youngs Moduli (GPa) = 75.34169 34.41581 18.94726
#
# Poissons Ratio (x) = -0.12932 0.29459
# Poissons Ratio (y) = -0.28311 0.14680
# Poissons Ratio (z) = 1.17139 0.26665
#
# Static dielectric constant tensor:
#      x y z
#    x 1.737210 0.000000 0.000000 
#    y 0.000000 1.772200 0.000000 
#    z 0.000000 0.000000 1.735490 
# 
# From -- ./inp_files/19351.got.cif
#   From: 2010.05.17/outbox.cif.g08.bks.cpg/sg59_10_cif.got.tgz:19351.got - 2010.06.03 14:40:33.
