data_PCOD9447107
_publ_section_title
;
Structure prediction by ZEFSAII (Michael W. Deem and Ramdas Pophale) SiO2 
 PCOD9447107
Probable space group: P M M N
;
_chemical_formula_sum "Si O2"
_cell_formula_units_Z 40
_cell_length_a 8.561763
_cell_length_b 27.295666
_cell_length_c 9.258634
_cell_angle_alpha 90.000000
_cell_angle_beta 90.000000
_cell_angle_gamma 90.000000
_cell_volume 2163.733722
_symmetry_space_group_name_H-M "P M M N"
_symmetry_group_IT_number 59
_space_group.IT_coordinate_system_code '2'
_symmetry_cell_setting 'orthorhombic'
loop_
_space_group_symop_operation_xyz
x,y,z
1/2-x,1/2-y,z
1/2+x,-y,-z
-x,1/2+y,-z
-x,-y,-z
1/2+x,1/2+y,-z
1/2-x,y,z
x,1/2-y,z
loop_
_atom_site_type_symbol
_atom_site_label
_atom_site_fract_x
_atom_site_fract_y
_atom_site_fract_z
Si Si1 0.061994 0.250000 0.175355
Si Si2 0.563344 0.655279 0.336836
Si Si3 0.935416 0.053767 0.672682
Si Si4 0.559908 0.750000 0.157104
Si Si5 0.437538 0.447324 0.345137
Si Si6 0.435931 0.845409 0.663263
O O1 0.250000 0.250000 0.182138
O O2 0.999333 0.201573 0.253317
O O3 0.010787 0.250000 0.008660
O O4 0.750000 0.657264 0.353933
O O5 0.518163 0.602516 0.270353
O O6 0.510367 0.701002 0.240664
O O7 0.488724 0.658875 0.495900
O O8 0.750000 0.059986 0.685661
O O9 0.981560 0.052215 0.502817
O O10 0.977908 0.999353 0.728730
O O11 0.750000 0.750000 0.158306
O O12 0.250000 0.446239 0.364956
O O13 0.493119 0.396462 0.276930
O O14 0.250000 0.847646 0.669988
#
# Coordination Sequence:
#
# PCOD9447107 Si02
#       6
#     4   8   8   4   8   8
#     4  11  22  39  56  70  96 133 170 209 254 300
#     4  10  18  32  54  78 103 134 170 206 250 300
#     4   9  16  26  43  72 105 132 163 204 248 293
#     4   9  21  37  54  74  96 129 172 211 248 300
#     4   9  16  27  45  70 101 136 167 199 245 295
#     4  11  21  33  51  79 107 131 166 208 249 295
#
# _framework density 18.486564000000001
#
# number of rings (size 3 to 8) (size 9 to 14) (size 15 to 20)
#    0.000    2.200    0.000    6.900    0.000    3.200 
#    0.000    5.500    0.000    1.200    0.000    0.000 
#    0.000    0.000    0.000    0.000    0.000    0.000 
#
# Total GULP energy -223015.706863 kJ/mol
# GULP energy per Si atom -5575.392672 kJ/mol
# Density = 1.844449 g / cm^3
# Si number density = 18.486564 Si / 1000 Ang^3
#
#
#
# Elastic Constant Matrix: (Units=GPa)
#
#
# Indices 1 2 3 4 5 6 
#
# 1 41.4129 15.8488 13.7504 0.0000 0.0000 0.0000
# 2 15.8488 200.2596 56.6086 0.0000 0.0000 0.0000
# 3 13.7504 56.6086 49.1178 0.0000 0.0000 0.0000
# 4 0.0000 0.0000 0.0000 -5.9598 0.0000 0.0000
# 5 0.0000 0.0000 0.0000 0.0000 -11.2196 0.0000
# 6 0.0000 0.0000 0.0000 0.0000 0.0000 35.0239
#
#
#
# Elastic Compliance Matrix: (Units=1/GPa)
#
#
# Indices 1 2 3 4 5 6 
#
# 1 0.026622 0.000000 -0.007452 0.000000 0.000000 0.000000
# 2 0.000000 0.007406 -0.008536 0.000000 0.000000 0.000000
# 3 -0.007452 -0.008536 0.032283 0.000000 0.000000 0.000000
# 4 0.000000 0.000000 0.000000 -0.167790 0.000000 0.000000
# 5 0.000000 0.000000 0.000000 0.000000 -0.089130 0.000000
# 6 0.000000 0.000000 0.000000 0.000000 0.000000 0.028552
#
#
# Mechanical properties :
#
#
# Convention : Reuss Voigt Hill
#
# Bulk Modulus (GPa) = 29.12548 51.46733 40.29640
# Shear Modulus (GPa) = -42.14597 17.20773 -12.46912
#
# Velocity S-wave (km/s) = -4.77992 3.05425 -2.59992
# Velocity P-wave (km/s) = 3.83072 6.35128 3.58220
#
# Compressibility (1/GPa) = 0.03433420
#
# Stress axis : x y z
#
# Youngs Moduli (GPa) = 37.56346 135.01771 30.97586
#
# Poissons Ratio (x) = 0.00004 0.23084
# Poissons Ratio (y) = 0.00001 0.26441
# Poissons Ratio (z) = 0.27994 1.15250
#
# Static dielectric constant tensor:
#      x y z
#    x 1.620670 0.000000 0.000000 
#    y 0.000000 1.705300 0.000000 
#    z 0.000000 0.000000 1.595700 
# 
# From -- ./inp_files/5897.got.cif
#   From: 2010.05.17/outbox.cif.g08.bks.cpg/sg59_3_cif.got.tgz:5897.got - 2010.06.03 14:40:33.
