data_PCOD9447555
_publ_section_title
;
Structure prediction by ZEFSAII (Michael W. Deem and Ramdas Pophale) SiO2 
 PCOD9447555
Probable space group: P M M N
;
_chemical_formula_sum "Si O2"
_cell_formula_units_Z 48
_cell_length_a 24.320066
_cell_length_b 8.905750
_cell_length_c 14.059628
_cell_angle_alpha 90.000000
_cell_angle_beta 90.000000
_cell_angle_gamma 90.000000
_cell_volume 3045.152724
_symmetry_space_group_name_H-M "P M M N"
_symmetry_group_IT_number 59
_space_group.IT_coordinate_system_code '2'
_symmetry_cell_setting 'orthorhombic'
loop_
_space_group_symop_operation_xyz
x,y,z
1/2-x,1/2-y,z
1/2+x,-y,-z
-x,1/2+y,-z
-x,-y,-z
1/2+x,1/2+y,-z
1/2-x,y,z
x,1/2-y,z
loop_
_atom_site_type_symbol
_atom_site_label
_atom_site_fract_x
_atom_site_fract_y
_atom_site_fract_z
Si Si1 0.413935 0.429425 0.468691
Si Si2 0.978773 0.929283 0.150304
Si Si3 0.687474 0.930204 0.847146
Si Si4 0.080646 0.069765 0.040701
Si Si5 0.186312 0.929530 0.359426
Si Si6 0.025023 0.929362 0.644246
O O1 0.409957 0.250000 0.476013
O O2 0.357571 0.497500 0.429834
O O3 0.433216 0.498473 0.568662
O O4 0.463544 0.464844 0.394714
O O5 0.980728 0.750000 0.161755
O O6 0.036290 0.988330 0.107394
O O7 0.967752 0.005861 0.250799
O O8 0.934185 0.966493 0.068280
O O9 0.750000 0.968320 0.875346
O O10 0.684952 0.750000 0.832201
O O11 0.641528 0.969586 0.924424
O O12 0.675473 0.009261 0.746872
O O13 0.073360 0.250000 0.051777
O O14 0.250000 0.967671 0.382151
O O15 0.180815 0.750000 0.360558
O O16 0.030976 0.750000 0.644165
#
# Coordination Sequence:
#
# PCOD9447555 Si02
#       6
#     8   8   8   8   8   8
#     4  10  20  33  50  71  94 122 157 194 232 278
#     4  10  19  30  46  68  94 124 156 190 230 278
#     4   9  17  30  48  68  91 121 155 190 228 270
#     4   9  18  31  46  67  94 122 154 192 232 274
#     4  10  20  32  47  70  99 127 154 188 232 279
#     4  10  20  33  49  70  96 124 154 192 238 283
#
# _framework density 15.762756
#
# number of rings (size 3 to 8) (size 9 to 14) (size 15 to 20)
#    0.000    2.333    0.000    3.000    0.000    8.333 
#    0.000    0.000    0.000    1.000    0.000    2.333 
#    0.000    0.000    0.000    0.000    0.000    0.000 
#
# Total GULP energy -267782.677726 kJ/mol
# GULP energy per Si atom -5578.805786 kJ/mol
# Density = 1.572688 g / cm^3
# Si number density = 15.762756 Si / 1000 Ang^3
#
#
#
# Elastic Constant Matrix: (Units=GPa)
#
#
# Indices 1 2 3 4 5 6 
#
# 1 115.3934 50.5670 88.7523 0.0000 0.0000 0.0000
# 2 50.5670 45.1000 56.9020 0.0000 0.0000 0.0000
# 3 88.7523 56.9020 141.4307 0.0000 0.0000 0.0000
# 4 0.0000 0.0000 0.0000 28.1759 0.0000 0.0000
# 5 0.0000 0.0000 0.0000 0.0000 23.5523 0.0000
# 6 0.0000 0.0000 0.0000 0.0000 0.0000 24.1027
#
#
#
# Elastic Compliance Matrix: (Units=1/GPa)
#
#
# Indices 1 2 3 4 5 6 
#
# 1 0.020098 -0.013448 -0.007202 0.000000 0.000000 0.000000
# 2 -0.013448 0.054030 -0.013299 0.000000 0.000000 0.000000
# 3 -0.007202 -0.013299 0.016940 0.000000 0.000000 0.000000
# 4 0.000000 0.000000 0.000000 0.035491 0.000000 0.000000
# 5 0.000000 0.000000 0.000000 0.000000 0.042459 0.000000
# 6 0.000000 0.000000 0.000000 0.000000 0.000000 0.041489
#
#
# Mechanical properties :
#
#
# Convention : Reuss Voigt Hill
#
# Bulk Modulus (GPa) = 43.15663 77.15186 60.15424
# Shear Modulus (GPa) = 17.47461 22.21303 19.84382
#
# Velocity S-wave (km/s) = 3.33318 3.75802 3.55195
# Velocity P-wave (km/s) = 6.50013 8.23906 7.42071
#
# Compressibility (1/GPa) = 0.02317141
#
# Stress axis : x y z
#
# Youngs Moduli (GPa) = 49.75574 18.50810 59.03065
#
# Poissons Ratio (x) = 0.24890 0.42511
# Poissons Ratio (y) = 0.66913 0.78504
# Poissons Ratio (z) = 0.35832 0.24614
#
# Static dielectric constant tensor:
#      x y z
#    x 1.521030 0.000000 0.000000 
#    y 0.000000 1.526230 0.000000 
#    z 0.000000 0.000000 1.499840 
# 
# From -- ./inp_files/14344.got.cif
#   From: 2010.05.17/outbox.cif.g08.bks.cpg/sg59_8_cif.got.tgz:14344.got - 2010.06.03 14:40:33.
