data_PCOD9447755
_publ_section_title
;
Structure prediction by ZEFSAII (Michael W. Deem and Ramdas Pophale) SiO2 
 PCOD9447755
Probable space group: P M M N
;
_chemical_formula_sum "Si O2"
_cell_formula_units_Z 48
_cell_length_a 9.131679
_cell_length_b 8.027580
_cell_length_c 35.442832
_cell_angle_alpha 90.000000
_cell_angle_beta 90.000000
_cell_angle_gamma 90.000000
_cell_volume 2598.146855
_symmetry_space_group_name_H-M "P M M N"
_symmetry_group_IT_number 59
_space_group.IT_coordinate_system_code '2'
_symmetry_cell_setting 'orthorhombic'
loop_
_space_group_symop_operation_xyz
x,y,z
1/2-x,1/2-y,z
1/2+x,-y,-z
-x,1/2+y,-z
-x,-y,-z
1/2+x,1/2+y,-z
1/2-x,y,z
x,1/2-y,z
loop_
_atom_site_type_symbol
_atom_site_label
_atom_site_fract_x
_atom_site_fract_y
_atom_site_fract_z
Si Si1 0.421178 0.948456 0.961783
Si Si2 0.584713 0.051580 0.462374
Si Si3 0.571891 0.250000 0.255857
Si Si4 0.583719 0.049754 0.613057
Si Si5 0.426614 0.444757 0.690916
Si Si6 0.570894 0.250000 0.169196
Si Si7 0.428668 0.434972 0.880342
O O1 0.250000 0.991990 0.965594
O O2 0.432048 0.750000 0.956428
O O3 0.477263 0.033279 0.923428
O O4 0.500000 0.000000 0.000000
O O5 0.750000 0.982119 0.462242
O O6 0.593768 0.250000 0.462654
O O7 0.500000 0.000000 0.500000
O O8 0.499704 0.001049 0.424705
O O9 0.750000 0.250000 0.255413
O O10 0.528550 0.418636 0.277966
O O11 0.522495 0.250000 0.212536
O O12 0.750000 0.984865 0.613290
O O13 0.590005 0.250000 0.613093
O O14 0.497711 0.003878 0.651084
O O15 0.250000 0.450025 0.687503
O O16 0.465744 0.250000 0.699184
O O17 0.750000 0.250000 0.169090
O O18 0.523712 0.415153 0.146659
O O19 0.250000 0.440684 0.881005
O O20 0.471980 0.250000 0.867823
#
# Coordination Sequence:
#
# PCOD9447755 Si02
#       7
#     8   8   4   8   8   4   8
#     4  10  19  31  47  70 101 134 173 221 267 316
#     4  11  24  39  56  80 110 144 182 223 266 315
#     4   9  18  30  49  75 105 137 175 219 263 321
#     4  10  21  37  57  81 108 139 178 223 267 314
#     4   9  18  33  52  76 108 141 171 212 267 320
#     4   9  16  28  44  69 101 133 169 215 265 319
#     4   9  16  27  44  66  97 135 171 211 263 318
#
# _framework density 18.474706000000001
#
# number of rings (size 3 to 8) (size 9 to 14) (size 15 to 20)
#    0.000    2.333    0.833    2.000    1.167    6.000 
#    0.000    3.333    0.000    0.000    0.000    2.333 
#    0.000    2.667    0.000    0.000    0.000    0.000 
#
# Total GULP energy -267763.313059 kJ/mol
# GULP energy per Si atom -5578.402355 kJ/mol
# Density = 1.843266 g / cm^3
# Si number density = 18.474706 Si / 1000 Ang^3
#
#
#
# Elastic Constant Matrix: (Units=GPa)
#
#
# Indices 1 2 3 4 5 6 
#
# 1 42.5074 29.9879 40.8879 0.0000 0.0000 0.0000
# 2 29.9879 102.3160 90.1588 0.0000 0.0000 0.0000
# 3 40.8879 90.1588 183.1663 0.0000 0.0000 0.0000
# 4 0.0000 0.0000 0.0000 33.6135 0.0000 0.0000
# 5 0.0000 0.0000 0.0000 0.0000 20.1836 0.0000
# 6 0.0000 0.0000 0.0000 0.0000 0.0000 14.1865
#
#
#
# Elastic Compliance Matrix: (Units=1/GPa)
#
#
# Indices 1 2 3 4 5 6 
#
# 1 0.031544 -0.005369 -0.004399 0.000000 0.000000 0.000000
# 2 -0.005369 0.018174 -0.007747 0.000000 0.000000 0.000000
# 3 -0.004399 -0.007747 0.010255 0.000000 0.000000 0.000000
# 4 0.000000 0.000000 0.000000 0.029750 0.000000 0.000000
# 5 0.000000 0.000000 0.000000 0.000000 0.049545 0.000000
# 6 0.000000 0.000000 0.000000 0.000000 0.000000 0.070490
#
#
# Mechanical properties :
#
#
# Convention : Reuss Voigt Hill
#
# Bulk Modulus (GPa) = 40.09167 72.22878 56.16022
# Shear Modulus (GPa) = 19.75487 24.72705 22.24096
#
# Velocity S-wave (km/s) = 3.27355 3.66242 3.47343
# Velocity P-wave (km/s) = 6.00301 7.55416 6.82281
#
# Compressibility (1/GPa) = 0.02494284
#
# Stress axis : x y z
#
# Youngs Moduli (GPa) = 31.70143 55.02409 97.51631
#
# Poissons Ratio (x) = 0.29544 0.42894
# Poissons Ratio (y) = 0.17022 0.75546
# Poissons Ratio (z) = 0.13944 0.42627
#
# Static dielectric constant tensor:
#      x y z
#    x 1.640670 0.000000 0.000000 
#    y 0.000000 1.641200 0.000000 
#    z 0.000000 0.000000 1.646720 
# 
# From -- ./inp_files/32938.got.cif
#   From: 2010.05.17/outbox.cif.g08.bks.cpg/sg59_17_cif.got.tgz:32938.got - 2010.06.03 14:40:33.
