data_PCOD9447185
_publ_section_title
;
Structure prediction by ZEFSAII (Michael W. Deem and Ramdas Pophale) SiO2 
 PCOD9447185
Probable space group: P M M N
;
_chemical_formula_sum "Si O2"
_cell_formula_units_Z 64
_cell_length_a 14.198735
_cell_length_b 26.848735
_cell_length_c 8.457852
_cell_angle_alpha 90.000000
_cell_angle_beta 90.000000
_cell_angle_gamma 90.000000
_cell_volume 3224.286044
_symmetry_space_group_name_H-M "P M M N"
_symmetry_group_IT_number 59
_space_group.IT_coordinate_system_code '2'
_symmetry_cell_setting 'orthorhombic'
loop_
_space_group_symop_operation_xyz
x,y,z
1/2-x,1/2-y,z
1/2+x,-y,-z
-x,1/2+y,-z
-x,-y,-z
1/2+x,1/2+y,-z
1/2-x,y,z
x,1/2-y,z
loop_
_atom_site_type_symbol
_atom_site_label
_atom_site_fract_x
_atom_site_fract_y
_atom_site_fract_z
Si Si1 0.639247 0.807880 0.950887
Si Si2 0.354461 0.190671 0.427804
Si Si3 0.009535 0.886490 0.004136
Si Si4 0.501533 0.944216 0.695575
Si Si5 0.052821 0.656538 0.522086
Si Si6 0.361193 0.805706 0.829446
Si Si7 0.854884 0.405508 0.723911
Si Si8 0.143530 0.001045 0.508483
O O1 0.750000 0.811327 0.986689
O O2 0.610587 0.750000 0.979183
O O3 0.628440 0.817657 0.760993
O O4 0.578912 0.850300 0.036132
O O5 0.250000 0.170667 0.467786
O O6 0.350889 0.250000 0.447678
O O7 0.446158 0.171724 0.518599
O O8 0.984573 0.928991 0.876302
O O9 0.084650 0.847526 0.928233
O O10 0.061927 0.910855 0.151097
O O11 0.458560 0.895068 0.616531
O O12 0.426960 0.987687 0.652334
O O13 0.596184 0.957016 0.600392
O O14 0.098547 0.692585 0.650921
O O15 0.119159 0.643828 0.375884
O O16 0.250000 0.815725 0.825924
O O17 0.377097 0.750000 0.893463
O O18 0.750000 0.401667 0.793870
O O19 0.854313 0.452543 0.605849
O O20 0.250000 0.011934 0.558263
#
# Coordination Sequence:
#
# PCOD9447185 Si02
#       8
#     8   8   8   8   8   8   8   8
#     4   9  17  31  52  78 106 136 171 212 260 307
#     4   9  16  28  50  78 103 129 167 212 258 306
#     4  11  20  33  54  78 107 138 175 218 255 304
#     4   9  19  32  55  82  96 126 174 216 257 310
#     4  10  18  33  53  75 103 133 169 214 263 307
#     4  10  19  31  50  75 102 135 180 224 256 293
#     4  10  22  37  52  72 104 143 174 206 259 319
#     4   9  19  37  55  75 105 133 164 213 266 313
#
# _framework density 19.849356
#
# number of rings (size 3 to 8) (size 9 to 14) (size 15 to 20)
#    0.000    2.375    2.500    2.250    0.000    5.000 
#    0.000    3.125    0.000    9.000    0.000    0.000 
#    0.000    0.000    0.000    0.000    0.000    0.000 
#
# Total GULP energy -356737.391473 kJ/mol
# GULP energy per Si atom -5574.021742 kJ/mol
# Density = 1.980418 g / cm^3
# Si number density = 19.849356 Si / 1000 Ang^3
#
#
#
# Elastic Constant Matrix: (Units=GPa)
#
#
# Indices 1 2 3 4 5 6 
#
# 1 79.2015 -0.8098 -2.2563 0.0000 0.0000 0.0000
# 2 -0.8098 14.6304 -1.2773 0.0000 0.0000 0.0000
# 3 -2.2563 -1.2773 14.7079 0.0000 0.0000 0.0000
# 4 0.0000 0.0000 0.0000 11.2756 0.0000 0.0000
# 5 0.0000 0.0000 0.0000 0.0000 19.0581 0.0000
# 6 0.0000 0.0000 0.0000 0.0000 0.0000 52.8305
#
#
#
# Elastic Compliance Matrix: (Units=1/GPa)
#
#
# Indices 1 2 3 4 5 6 
#
# 1 0.012693 0.000879 0.002024 0.000000 0.000000 0.000000
# 2 0.000879 0.068934 0.006121 0.000000 0.000000 0.000000
# 3 0.002024 0.006121 0.068833 0.000000 0.000000 0.000000
# 4 0.000000 0.000000 0.000000 0.088687 0.000000 0.000000
# 5 0.000000 0.000000 0.000000 0.000000 0.052471 0.000000
# 6 0.000000 0.000000 0.000000 0.000000 0.000000 0.018928
#
#
# Mechanical properties :
#
#
# Convention : Reuss Voigt Hill
#
# Bulk Modulus (GPa) = 5.93444 11.09476 8.51460
# Shear Modulus (GPa) = 14.34033 24.15839 19.24936
#
# Velocity S-wave (km/s) = 2.69077 3.49246 3.11750
# Velocity P-wave (km/s) = 3.55667 4.67597 4.15419
#
# Compressibility (1/GPa) = 0.16850786
#
# Stress axis : x y z
#
# Youngs Moduli (GPa) = 78.78569 14.50665 14.52793
#
# Poissons Ratio (x) = -0.01275 -0.02940
# Poissons Ratio (y) = -0.06927 -0.08893
# Poissons Ratio (z) = -0.15943 -0.08880
#
# Static dielectric constant tensor:
#      x y z
#    x 1.722950 0.000000 0.000000 
#    y 0.000000 1.712170 0.000000 
#    z 0.000000 0.000000 1.722920 
# 
# From -- ./inp_files/9763.got.cif
#   From: 2010.05.17/outbox.cif.g08.bks.cpg/sg59_5_cif.got.tgz:9763.got - 2010.06.03 14:40:33.
