data_PCOD9447593
_publ_section_title
;
Structure prediction by ZEFSAII (Michael W. Deem and Ramdas Pophale) SiO2 
 PCOD9447593
Probable space group: P M M N
;
_chemical_formula_sum "Si O2"
_cell_formula_units_Z 56
_cell_length_a 9.830335
_cell_length_b 14.672087
_cell_length_c 18.365668
_cell_angle_alpha 90.000000
_cell_angle_beta 90.000000
_cell_angle_gamma 90.000000
_cell_volume 2648.908402
_symmetry_space_group_name_H-M "P M M N"
_symmetry_group_IT_number 59
_space_group.IT_coordinate_system_code '2'
_symmetry_cell_setting 'orthorhombic'
loop_
_space_group_symop_operation_xyz
x,y,z
1/2-x,1/2-y,z
1/2+x,-y,-z
-x,1/2+y,-z
-x,-y,-z
1/2+x,1/2+y,-z
1/2-x,y,z
x,1/2-y,z
loop_
_atom_site_type_symbol
_atom_site_label
_atom_site_fract_x
_atom_site_fract_y
_atom_site_fract_z
Si Si1 0.101141 0.144092 0.864393
Si Si2 0.401119 0.140850 0.115596
Si Si3 0.096524 0.638082 0.012533
Si Si4 0.908410 0.922776 0.720740
Si Si5 0.089317 0.097913 0.699041
Si Si6 0.098063 0.388893 0.436216
Si Si7 0.406512 0.611913 0.434483
O O1 0.250000 0.101033 0.876777
O O2 0.112027 0.250000 0.885470
O O3 0.074010 0.142072 0.778406
O O4 0.982270 0.106950 0.914864
O O5 0.250000 0.105878 0.097286
O O6 0.397292 0.250000 0.108387
O O7 0.427609 0.120167 0.200202
O O8 0.512376 0.108727 0.058253
O O9 0.250000 0.605314 0.011126
O O10 0.101492 0.750000 0.012553
O O11 0.750000 0.958193 0.718616
O O12 0.919649 0.861710 0.648100
O O13 0.023160 0.998856 0.711114
O O14 0.250000 0.095957 0.680537
O O15 0.999351 0.139343 0.634182
O O16 0.250000 0.362511 0.460747
O O17 0.095059 0.500383 0.435276
O O18 0.982310 0.359118 0.491762
O O19 0.250000 0.641086 0.429285
#
# Coordination Sequence:
#
# PCOD9447593 Si02
#       7
#     8   8   8   8   8   8   8
#     4   9  18  33  51  69  90 118 153 190 227 270
#     4   9  17  31  51  71  92 121 155 188 224 268
#     4   9  17  29  47  71  94 117 150 190 228 267
#     4   9  18  31  47  69  96 123 151 187 229 270
#     4  10  19  30  47  70  94 120 150 187 231 274
#     4   8  14  25  41  62  88 118 152 187 222 262
#     4   9  16  26  42  64  90 120 152 186 224 266
#
# _framework density 21.140785000000001
#
# number of rings (size 3 to 8) (size 9 to 14) (size 15 to 20)
#    0.000    3.000    0.000    2.143    0.000    6.857 
#    0.000    0.714    0.000    0.857    0.000    4.000 
#    0.000    0.000    0.000    0.000    0.000    0.000 
#
# Total GULP energy -312302.229218 kJ/mol
# GULP energy per Si atom -5576.825522 kJ/mol
# Density = 2.109267 g / cm^3
# Si number density = 21.140785 Si / 1000 Ang^3
#
#
#
# Elastic Constant Matrix: (Units=GPa)
#
#
# Indices 1 2 3 4 5 6 
#
# 1 209.6779 15.9571 138.2291 0.0000 0.0000 0.0000
# 2 15.9571 45.4617 0.2226 0.0000 0.0000 0.0000
# 3 138.2291 0.2226 154.3177 0.0000 0.0000 0.0000
# 4 0.0000 0.0000 0.0000 19.7142 0.0000 0.0000
# 5 0.0000 0.0000 0.0000 0.0000 28.8543 0.0000
# 6 0.0000 0.0000 0.0000 0.0000 0.0000 1.7826
#
#
#
# Elastic Compliance Matrix: (Units=1/GPa)
#
#
# Indices 1 2 3 4 5 6 
#
# 1 0.012438 -0.004311 -0.011135 0.000000 0.000000 0.000000
# 2 -0.004311 0.023491 0.003828 0.000000 0.000000 0.000000
# 3 -0.011135 0.003828 0.016449 0.000000 0.000000 0.000000
# 4 0.000000 0.000000 0.000000 0.050725 0.000000 0.000000
# 5 0.000000 0.000000 0.000000 0.000000 0.034657 0.000000
# 6 0.000000 0.000000 0.000000 0.000000 0.000000 0.560991
#
#
# Mechanical properties :
#
#
# Convention : Reuss Voigt Hill
#
# Bulk Modulus (GPa) = 34.31586 79.80832 57.06209
# Shear Modulus (GPa) = 6.83339 27.07345 16.95342
#
# Velocity S-wave (km/s) = 1.79982 3.58247 2.83491
# Velocity P-wave (km/s) = 4.53723 7.41248 6.14538
#
# Compressibility (1/GPa) = 0.02914104
#
# Stress axis : x y z
#
# Youngs Moduli (GPa) = 80.39818 42.56935 60.79460
#
# Poissons Ratio (x) = 0.18353 0.67696
# Poissons Ratio (y) = 0.34662 -0.23272
# Poissons Ratio (z) = 0.89524 -0.16295
#
# Static dielectric constant tensor:
#      x y z
#    x 1.745310 0.000000 0.000000 
#    y 0.000000 1.814330 0.000000 
#    z 0.000000 0.000000 1.759720 
# 
# From -- ./inp_files/26123.got.cif
#   From: 2010.05.17/outbox.cif.g08.bks.cpg/sg59_14_cif.got.tgz:26123.got - 2010.06.03 14:40:33.
