data_PCOD9447184
_publ_section_title
;
Structure prediction by ZEFSAII (Michael W. Deem and Ramdas Pophale) SiO2 
 PCOD9447184
Probable space group: P M M N
;
_chemical_formula_sum "Si O2"
_cell_formula_units_Z 40
_cell_length_a 7.339190
_cell_length_b 9.992504
_cell_length_c 25.136964
_cell_angle_alpha 90.000000
_cell_angle_beta 90.000000
_cell_angle_gamma 90.000000
_cell_volume 1843.466649
_symmetry_space_group_name_H-M "P M M N"
_symmetry_group_IT_number 59
_space_group.IT_coordinate_system_code '2'
_symmetry_cell_setting 'orthorhombic'
loop_
_space_group_symop_operation_xyz
x,y,z
1/2-x,1/2-y,z
1/2+x,-y,-z
-x,1/2+y,-z
-x,-y,-z
1/2+x,1/2+y,-z
1/2-x,y,z
x,1/2-y,z
loop_
_atom_site_type_symbol
_atom_site_label
_atom_site_fract_x
_atom_site_fract_y
_atom_site_fract_z
Si Si1 0.032378 0.596590 0.550236
Si Si2 0.472029 0.403717 0.643617
Si Si3 0.527715 0.596213 0.235310
Si Si4 0.526981 0.250000 0.052022
Si Si5 0.969793 0.250000 0.929663
Si Si6 0.541407 0.477792 0.129474
O O1 0.250000 0.607107 0.555935
O O2 0.963899 0.750000 0.544494
O O3 0.964696 0.513958 0.601585
O O4 0.000000 0.500000 0.500000
O O5 0.250000 0.402985 0.642603
O O6 0.527579 0.250000 0.630821
O O7 0.526588 0.434846 0.704302
O O8 0.750000 0.594648 0.234016
O O9 0.473421 0.750000 0.224181
O O10 0.462143 0.500042 0.188257
O O11 0.750000 0.250000 0.049025
O O12 0.463494 0.376036 0.086550
O O13 0.468306 0.250000 0.990952
O O14 0.750000 0.250000 0.928348
O O15 0.037589 0.379276 0.898757
O O16 0.750000 0.433636 0.137785
#
# Coordination Sequence:
#
# PCOD9447184 Si02
#       6
#     8   8   8   4   4   8
#     4  10  20  33  50  75 105 136 170 204 242 292
#     4   8  14  26  45  70  99 126 157 202 250 288
#     4   8  13  24  46  73  94 119 159 202 243 291
#     4   9  20  33  47  73 103 127 160 207 254 298
#     4  11  21  33  49  71  99 131 168 205 244 298
#     4  10  18  33  53  73  97 128 165 206 250 296
#
# _framework density 21.698248
#
# number of rings (size 3 to 8) (size 9 to 14) (size 15 to 20)
#    0.000    2.800    1.000    2.700    0.000    1.200 
#    1.800    1.500    0.000    1.200    0.000    0.000 
#    0.000    0.000    0.000    0.000    0.000    0.000 
#
# Total GULP energy -223216.583646 kJ/mol
# GULP energy per Si atom -5580.414591 kJ/mol
# Density = 2.164886 g / cm^3
# Si number density = 21.698248 Si / 1000 Ang^3
#
#
#
# Elastic Constant Matrix: (Units=GPa)
#
#
# Indices 1 2 3 4 5 6 
#
# 1 86.7757 -7.9206 -3.5053 0.0000 0.0000 0.0000
# 2 -7.9206 132.7001 80.3737 0.0000 0.0000 0.0000
# 3 -3.5053 80.3737 176.2750 0.0000 0.0000 0.0000
# 4 0.0000 0.0000 0.0000 4.3724 0.0000 0.0000
# 5 0.0000 0.0000 0.0000 0.0000 5.7884 0.0000
# 6 0.0000 0.0000 0.0000 0.0000 0.0000 5.6196
#
#
#
# Elastic Compliance Matrix: (Units=1/GPa)
#
#
# Indices 1 2 3 4 5 6 
#
# 1 0.011589 0.000763 -0.000117 0.000000 0.000000 0.000000
# 2 0.000763 0.010461 -0.004755 0.000000 0.000000 0.000000
# 3 -0.000117 -0.004755 0.007839 0.000000 0.000000 0.000000
# 4 0.000000 0.000000 0.000000 0.228708 0.000000 0.000000
# 5 0.000000 0.000000 0.000000 0.000000 0.172759 0.000000
# 6 0.000000 0.000000 0.000000 0.000000 0.000000 0.177948
#
#
# Mechanical properties :
#
#
# Convention : Reuss Voigt Hill
#
# Bulk Modulus (GPa) = 46.14658 59.29406 52.72032
# Shear Modulus (GPa) = 8.00326 24.94296 16.47311
#
# Velocity S-wave (km/s) = 1.92261 3.39416 2.75833
# Velocity P-wave (km/s) = 5.12271 6.53808 5.87319
#
# Compressibility (1/GPa) = 0.02167008
#
# Stress axis : x y z
#
# Youngs Moduli (GPa) = 86.28989 95.59222 127.57499
#
# Poissons Ratio (x) = -0.07292 0.01497
# Poissons Ratio (y) = -0.06582 0.60657
# Poissons Ratio (z) = 0.01013 0.45451
#
# Static dielectric constant tensor:
#      x y z
#    x 1.876920 0.000000 0.000000 
#    y 0.000000 1.923460 0.000000 
#    z 0.000000 0.000000 1.774370 
# 
# From -- ./inp_files/32420.got.cif
#   From: 2010.05.17/outbox.cif.g08.bks.cpg/sg59_17_cif.got.tgz:32420.got - 2010.06.03 14:40:33.
