data_PCOD9447944
_publ_section_title
;
Structure prediction by ZEFSAII (Michael W. Deem and Ramdas Pophale) SiO2 
 PCOD9447944
Probable space group: P M M N
;
_chemical_formula_sum "Si O2"
_cell_formula_units_Z 64
_cell_length_a 7.395126
_cell_length_b 24.238209
_cell_length_c 16.637993
_cell_angle_alpha 90.000000
_cell_angle_beta 90.000000
_cell_angle_gamma 90.000000
_cell_volume 2982.270559
_symmetry_space_group_name_H-M "P M M N"
_symmetry_group_IT_number 59
_space_group.IT_coordinate_system_code '2'
_symmetry_cell_setting 'orthorhombic'
loop_
_space_group_symop_operation_xyz
x,y,z
1/2-x,1/2-y,z
1/2+x,-y,-z
-x,1/2+y,-z
-x,-y,-z
1/2+x,1/2+y,-z
1/2-x,y,z
x,1/2-y,z
loop_
_atom_site_type_symbol
_atom_site_label
_atom_site_fract_x
_atom_site_fract_y
_atom_site_fract_z
Si Si1 0.543785 0.899576 0.966564
Si Si2 0.957859 0.391976 0.302679
Si Si3 0.470987 0.020027 0.161535
Si Si4 0.969669 0.689558 0.084902
Si Si5 0.464979 0.514860 0.591645
Si Si6 0.529452 0.313088 0.173063
Si Si7 0.040119 0.572755 0.272158
Si Si8 0.459975 0.809205 0.273788
O O1 0.750000 0.913089 0.988564
O O2 0.466424 0.954091 0.923072
O O3 0.542943 0.853185 0.896101
O O4 0.460705 0.864722 0.039307
O O5 0.750000 0.379001 0.322226
O O6 0.036696 0.425603 0.377845
O O7 0.032528 0.337918 0.258919
O O8 0.966906 0.437237 0.230590
O O9 0.250000 0.020670 0.161146
O O10 0.533013 0.960694 0.194650
O O11 0.750000 0.687990 0.082506
O O12 0.023677 0.750000 0.050074
O O13 0.029854 0.689536 0.176849
O O14 0.500000 0.500000 0.500000
O O15 0.250000 0.516330 0.603630
O O16 0.534506 0.468367 0.652506
O O17 0.750000 0.316471 0.170059
O O18 0.476582 0.250000 0.161797
O O19 0.250000 0.583364 0.252842
O O20 0.958511 0.631604 0.295763
O O21 0.250000 0.808231 0.299535
O O22 0.539780 0.750000 0.299042
#
# Coordination Sequence:
#
# PCOD9447944 Si02
#       8
#     8   8   8   8   8   8   8   8
#     4   9  16  26  40  59  85 116 151 189 227 266
#     4   8  15  27  41  60  87 114 140 171 205 245
#     4   8  14  25  42  62  84 113 145 179 221 264
#     4   9  17  28  41  58  83 116 153 193 232 268
#     4  10  19  31  50  74  96 117 141 172 213 260
#     4   9  16  25  39  60  85 114 147 180 213 250
#     4   9  17  31  50  70  92 116 146 185 226 271
#     4   9  18  32  49  67  87 115 152 192 232 273
#
# _framework density 21.460159999999998
#
# number of rings (size 3 to 8) (size 9 to 14) (size 15 to 20)
#    0.000    3.125    0.000    0.750    0.000    2.250 
#    0.000    1.875    0.000    0.750    0.000    3.500 
#    0.000    0.000    0.000    0.000    0.000    0.000 
#
# Total GULP energy -356463.951082 kJ/mol
# GULP energy per Si atom -5569.749236 kJ/mol
# Density = 2.141132 g / cm^3
# Si number density = 21.460160 Si / 1000 Ang^3
#
#
#
# Elastic Constant Matrix: (Units=GPa)
#
#
# Indices 1 2 3 4 5 6 
#
# 1 84.3563 -1.9297 -12.3381 0.0000 0.0000 0.0000
# 2 -1.9297 99.2969 6.6031 0.0000 0.0000 0.0000
# 3 -12.3381 6.6031 39.2699 0.0000 0.0000 0.0000
# 4 0.0000 0.0000 0.0000 25.5780 0.0000 0.0000
# 5 0.0000 0.0000 0.0000 0.0000 2.7516 0.0000
# 6 0.0000 0.0000 0.0000 0.0000 0.0000 -7.0570
#
#
#
# Elastic Compliance Matrix: (Units=1/GPa)
#
#
# Indices 1 2 3 4 5 6 
#
# 1 0.012426 -0.000018 0.003907 0.000000 0.000000 0.000000
# 2 -0.000018 0.010185 -0.001718 0.000000 0.000000 0.000000
# 3 0.003907 -0.001718 0.026981 0.000000 0.000000 0.000000
# 4 0.000000 0.000000 0.000000 0.039096 0.000000 0.000000
# 5 0.000000 0.000000 0.000000 0.000000 0.363427 0.000000
# 6 0.000000 0.000000 0.000000 0.000000 0.000000 -0.141703
#
#
# Mechanical properties :
#
#
# Convention : Reuss Voigt Hill
#
# Bulk Modulus (GPa) = 18.54178 23.06597 20.80388
# Shear Modulus (GPa) = 15.42984 19.62704 17.52844
#
# Velocity S-wave (km/s) = 2.68433 3.02748 2.86105
# Velocity P-wave (km/s) = 4.27391 4.79505 4.54196
#
# Compressibility (1/GPa) = 0.05393224
#
# Stress axis : x y z
#
# Youngs Moduli (GPa) = 80.47964 98.18630 37.06279
#
# Poissons Ratio (x) = 0.00180 -0.14481
# Poissons Ratio (y) = 0.00148 0.06368
# Poissons Ratio (z) = -0.31444 0.16871
#
# Static dielectric constant tensor:
#      x y z
#    x 1.916440 0.000000 0.000000 
#    y 0.000000 1.866400 0.000000 
#    z 0.000000 0.000000 1.762370 
# 
# From -- ./inp_files/26536.got.cif
#   From: 2010.05.17/outbox.cif.g08.bks.cpg/sg59_14_cif.got.tgz:26536.got - 2010.06.03 14:40:33.
