data_PCOD9447831
_publ_section_title
;
Structure prediction by ZEFSAII (Michael W. Deem and Ramdas Pophale) SiO2 
 PCOD9447831
Probable space group: P M M N
;
_chemical_formula_sum "Si O2"
_cell_formula_units_Z 42
_cell_length_a 30.154864
_cell_length_b 7.542935
_cell_length_c 9.722782
_cell_angle_alpha 90.000000
_cell_angle_beta 90.000000
_cell_angle_gamma 90.000000
_cell_volume 2211.506844
_symmetry_space_group_name_H-M "P M M N"
_symmetry_group_IT_number 59
_space_group.IT_coordinate_system_code '2'
_symmetry_cell_setting 'orthorhombic'
loop_
_space_group_symop_operation_xyz
x,y,z
1/2-x,1/2-y,z
1/2+x,-y,-z
-x,1/2+y,-z
-x,-y,-z
1/2+x,1/2+y,-z
1/2-x,y,z
x,1/2-y,z
loop_
_atom_site_type_symbol
_atom_site_label
_atom_site_fract_x
_atom_site_fract_y
_atom_site_fract_z
Si Si1 0.584946 0.463607 0.053872
Si Si2 0.927845 0.035924 0.742783
Si Si3 0.110124 0.040441 0.536419
Si Si4 0.025466 0.044864 0.697378
Si Si5 0.750000 0.750000 0.214027
Si Si6 0.327462 0.953508 0.772174
O O1 0.580619 0.250000 0.056328
O O2 0.545566 0.536373 0.149098
O O3 0.631515 0.505103 0.127442
O O4 0.582694 0.525075 0.896874
O O5 0.930090 0.250000 0.748274
O O6 0.976391 0.966660 0.697373
O O7 0.892733 0.987065 0.625941
O O8 0.111655 0.250000 0.565782
O O9 0.064027 0.966417 0.601248
O O10 0.150737 0.958910 0.619700
O O11 0.020861 0.250000 0.655948
O O12 0.711314 0.594088 0.215964
O O13 0.314502 0.750000 0.803105
#
# Coordination Sequence:
#
# PCOD9447831 Si02
#       6
#     8   8   8   8   2   8
#     4   9  19  33  51  76 110 146 188 229 282 334
#     4  10  19  31  48  76 111 155 195 229 272 332
#     4  10  19  33  50  79 113 149 192 232 278 334
#     4   9  18  30  48  72 109 151 197 239 269 315
#     4  12  22  40  68  92 108 132 194 226 292 358
#     4  10  21  39  62  87 112 140 174 235 287 338
#
# _framework density 18.991575999999998
#
# number of rings (size 3 to 8) (size 9 to 14) (size 15 to 20)
#    0.000    2.286    0.952    2.000    1.333    2.286 
#    0.000    0.000    0.000    2.286    0.000    4.000 
#    0.000    0.000    0.000    0.000    0.000    0.000 
#
# Total GULP energy -233906.424381 kJ/mol
# GULP energy per Si atom -5569.200580 kJ/mol
# Density = 1.894835 g / cm^3
# Si number density = 18.991576 Si / 1000 Ang^3
#
#
#
# Elastic Constant Matrix: (Units=GPa)
#
#
# Indices 1 2 3 4 5 6 
#
# 1 62.9220 30.2489 -16.9972 0.0000 0.0000 0.0000
# 2 30.2489 82.4889 -6.3057 0.0000 0.0000 0.0000
# 3 -16.9972 -6.3057 58.5466 0.0000 0.0000 0.0000
# 4 0.0000 0.0000 0.0000 9.4818 0.0000 0.0000
# 5 0.0000 0.0000 0.0000 0.0000 -0.5762 0.0000
# 6 0.0000 0.0000 0.0000 0.0000 0.0000 23.5375
#
#
#
# Elastic Compliance Matrix: (Units=1/GPa)
#
#
# Indices 1 2 3 4 5 6 
#
# 1 0.020783 -0.007219 0.005256 0.000000 0.000000 0.000000
# 2 -0.007219 0.014731 -0.000509 0.000000 0.000000 0.000000
# 3 0.005256 -0.000509 0.018552 0.000000 0.000000 0.000000
# 4 0.000000 0.000000 0.000000 0.105465 0.000000 0.000000
# 5 0.000000 0.000000 0.000000 0.000000 -1.735401 0.000000
# 6 0.000000 0.000000 0.000000 0.000000 0.000000 0.042485
#
#
# Mechanical properties :
#
#
# Convention : Reuss Voigt Hill
#
# Bulk Modulus (GPa) = 20.35791 24.20547 22.28169
# Shear Modulus (GPa) = -3.30673 19.62271 8.15799
#
# Velocity S-wave (km/s) = -1.32096 3.21788 2.07483
# Velocity P-wave (km/s) = 2.90106 5.15552 4.18303
#
# Compressibility (1/GPa) = 0.04912095
#
# Stress axis : x y z
#
# Youngs Moduli (GPa) = 48.11571 67.88261 53.90384
#
# Poissons Ratio (x) = 0.49008 -0.28333
# Poissons Ratio (y) = 0.34737 0.02745
# Poissons Ratio (z) = -0.25291 0.03457
#
# Static dielectric constant tensor:
#      x y z
#    x 1.630470 0.000000 0.000000 
#    y 0.000000 1.696870 0.000000 
#    z 0.000000 0.000000 1.680780 
# 
# From -- ./inp_files/12405.got.cif
#   From: 2010.05.17/outbox.cif.g08.bks.cpg/sg59_7_cif.got.tgz:12405.got - 2010.06.03 14:40:33.
