data_PCOD9447296
_publ_section_title
;
Structure prediction by ZEFSAII (Michael W. Deem and Ramdas Pophale) SiO2 
 PCOD9447296
Probable space group: P M M N
;
_chemical_formula_sum "Si O2"
_cell_formula_units_Z 64
_cell_length_a 16.821668
_cell_length_b 21.762914
_cell_length_c 9.966278
_cell_angle_alpha 90.000000
_cell_angle_beta 90.000000
_cell_angle_gamma 90.000000
_cell_volume 3648.539903
_symmetry_space_group_name_H-M "P M M N"
_symmetry_group_IT_number 59
_space_group.IT_coordinate_system_code '2'
_symmetry_cell_setting 'orthorhombic'
loop_
_space_group_symop_operation_xyz
x,y,z
1/2-x,1/2-y,z
1/2+x,-y,-z
-x,1/2+y,-z
-x,-y,-z
1/2+x,1/2+y,-z
1/2-x,y,z
x,1/2-y,z
loop_
_atom_site_type_symbol
_atom_site_label
_atom_site_fract_x
_atom_site_fract_y
_atom_site_fract_z
Si Si1 0.979012 0.822531 0.268530
Si Si2 0.156893 0.926446 0.899711
Si Si3 0.970658 0.179693 0.033850
Si Si4 0.340214 0.323855 0.527179
Si Si5 0.930635 0.462768 0.355952
Si Si6 0.569148 0.873193 0.733262
Si Si7 0.343847 0.013616 0.134665
Si Si8 0.562783 0.438419 0.653613
O O1 0.993448 0.750000 0.291125
O O2 0.897119 0.838367 0.346113
O O3 0.044993 0.866723 0.333516
O O4 0.984580 0.833000 0.107863
O O5 0.250000 0.911700 0.918541
O O6 0.099080 0.870411 0.942883
O O7 0.137174 0.946209 0.748512
O O8 0.136500 0.986103 0.989481
O O9 0.940749 0.250000 0.027664
O O10 0.030040 0.173181 0.160449
O O11 0.250000 0.347031 0.543549
O O12 0.337611 0.250000 0.519583
O O13 0.377781 0.347177 0.387291
O O14 0.905800 0.460130 0.509742
O O15 0.997665 0.410362 0.336960
O O16 0.978601 0.525595 0.326960
O O17 0.615383 0.923224 0.822851
O O18 0.250000 0.020163 0.146192
O O19 0.377263 0.962287 0.235333
#
# Coordination Sequence:
#
# PCOD9447296 Si02
#       8
#     8   8   8   8   8   8   8   8
#     4  10  20  35  55  79 106 142 186 224 266 324
#     4  10  21  37  54  80 113 144 179 228 281 324
#     4  10  21  36  58  82 105 144 188 224 266 324
#     4  10  20  35  54  76 107 142 176 223 277 324
#     4   9  20  32  55  81 104 140 180 223 273 328
#     4  10  19  34  55  79 106 136 181 223 266 328
#     4  10  21  34  53  79 111 146 178 220 277 326
#     4  10  18  35  55  78 107 142 184 225 270 320
#
# _framework density 17.541263000000001
#
# number of rings (size 3 to 8) (size 9 to 14) (size 15 to 20)
#    0.000    2.125    2.500    0.750    1.750    2.250 
#    0.000    1.875    0.000    3.375    0.000    0.000 
#    0.000    0.000    0.000    0.000    0.000    0.000 
#
# Total GULP energy -356692.259824 kJ/mol
# GULP energy per Si atom -5573.316560 kJ/mol
# Density = 1.750134 g / cm^3
# Si number density = 17.541263 Si / 1000 Ang^3
#
#
#
# Elastic Constant Matrix: (Units=GPa)
#
#
# Indices 1 2 3 4 5 6 
#
# 1 34.5890 7.7448 28.7724 0.0000 0.0000 0.0000
# 2 7.7448 39.3142 17.0913 0.0000 0.0000 0.0000
# 3 28.7724 17.0913 80.2142 0.0000 0.0000 0.0000
# 4 0.0000 0.0000 0.0000 21.0981 0.0000 0.0000
# 5 0.0000 0.0000 0.0000 0.0000 22.0623 0.0000
# 6 0.0000 0.0000 0.0000 0.0000 0.0000 15.8160
#
#
#
# Elastic Compliance Matrix: (Units=1/GPa)
#
#
# Indices 1 2 3 4 5 6 
#
# 1 0.041330 -0.001870 -0.014426 0.000000 0.000000 0.000000
# 2 -0.001870 0.028117 -0.005320 0.000000 0.000000 0.000000
# 3 -0.014426 -0.005320 0.018775 0.000000 0.000000 0.000000
# 4 0.000000 0.000000 0.000000 0.047398 0.000000 0.000000
# 5 0.000000 0.000000 0.000000 0.000000 0.045326 0.000000
# 6 0.000000 0.000000 0.000000 0.000000 0.000000 0.063227
#
#
# Mechanical properties :
#
#
# Convention : Reuss Voigt Hill
#
# Bulk Modulus (GPa) = 22.22779 29.03718 25.63248
# Shear Modulus (GPa) = 16.53420 18.49585 17.51502
#
# Velocity S-wave (km/s) = 3.07349 3.25071 3.16334
# Velocity P-wave (km/s) = 5.02935 5.53886 5.29024
#
# Compressibility (1/GPa) = 0.04498873
#
# Stress axis : x y z
#
# Youngs Moduli (GPa) = 24.19541 35.56516 53.26267
#
# Poissons Ratio (x) = 0.06652 0.76839
# Poissons Ratio (y) = 0.04525 0.28337
# Poissons Ratio (z) = 0.34905 0.18921
#
# Static dielectric constant tensor:
#      x y z
#    x 1.584170 0.000000 0.000000 
#    y 0.000000 1.603040 0.000000 
#    z 0.000000 0.000000 1.611320 
# 
# From -- ./inp_files/10687.got.cif
#   From: 2010.05.17/outbox.cif.g08.bks.cpg/sg59_6_cif.got.tgz:10687.got - 2010.06.03 14:40:33.
