data_PCOD9447396
_publ_section_title
;
Structure prediction by ZEFSAII (Michael W. Deem and Ramdas Pophale) SiO2 
 PCOD9447396
Probable space group: P M M N
;
_chemical_formula_sum "Si O2"
_cell_formula_units_Z 64
_cell_length_a 7.570981
_cell_length_b 18.290854
_cell_length_c 23.888308
_cell_angle_alpha 90.000000
_cell_angle_beta 90.000000
_cell_angle_gamma 90.000000
_cell_volume 3308.045919
_symmetry_space_group_name_H-M "P M M N"
_symmetry_group_IT_number 59
_space_group.IT_coordinate_system_code '2'
_symmetry_cell_setting 'orthorhombic'
loop_
_space_group_symop_operation_xyz
x,y,z
1/2-x,1/2-y,z
1/2+x,-y,-z
-x,1/2+y,-z
-x,-y,-z
1/2+x,1/2+y,-z
1/2-x,y,z
x,1/2-y,z
loop_
_atom_site_type_symbol
_atom_site_label
_atom_site_fract_x
_atom_site_fract_y
_atom_site_fract_z
Si Si1 0.466152 0.048875 0.870165
Si Si2 0.459205 0.018665 0.371509
Si Si3 0.965494 0.170410 0.185355
Si Si4 0.040591 0.924041 0.467984
Si Si5 0.962432 0.399828 0.071049
Si Si6 0.540652 0.831405 0.047655
Si Si7 0.463137 0.977582 0.757216
Si Si8 0.543914 0.832542 0.571408
O O1 0.250000 0.049015 0.869900
O O2 0.530178 0.121515 0.900593
O O3 0.520011 0.980025 0.908825
O O4 0.522062 0.032294 0.806627
O O5 0.250000 0.021725 0.384096
O O6 0.482324 0.008321 0.305857
O O7 0.531715 0.097871 0.393184
O O8 0.526133 0.948202 0.406575
O O9 0.750000 0.169896 0.186141
O O10 0.025683 0.250000 0.203784
O O11 0.018236 0.154165 0.121241
O O12 0.023867 0.102970 0.223224
O O13 0.250000 0.910662 0.466401
O O14 0.965525 0.859746 0.506735
O O15 0.000000 0.000000 0.500000
O O16 0.750000 0.400100 0.070588
O O17 0.020161 0.374771 0.010324
O O18 0.750000 0.825139 0.056898
O O19 0.465886 0.750000 0.042476
O O20 0.250000 0.977396 0.758314
O O21 0.750000 0.827642 0.586840
O O22 0.469462 0.750000 0.578439
#
# Coordination Sequence:
#
# PCOD9447396 Si02
#       8
#     8   8   8   8   8   8   8   8
#     4   8  16  31  46  62  86 116 149 184 225 267
#     4   9  18  31  46  67  95 123 150 184 227 267
#     4   8  14  25  40  59  84 111 139 176 221 263
#     4   9  17  30  48  69  94 125 158 189 223 265
#     4   9  16  28  47  65  83 111 145 180 219 269
#     4  10  19  29  43  64  89 113 138 178 232 281
#     4   9  17  29  46  63  80 112 156 190 213 252
#     4   9  18  32  49  71 101 130 151 180 227 277
#
# _framework density 19.346768999999998
#
# number of rings (size 3 to 8) (size 9 to 14) (size 15 to 20)
#    0.000    3.125    0.000    3.375    0.000    4.000 
#    0.000    3.125    0.000    1.500    0.000    1.750 
#    0.000    0.000    0.000    0.000    0.000    0.000 
#
# Total GULP energy -356463.977751 kJ/mol
# GULP energy per Si atom -5569.749652 kJ/mol
# Density = 1.930273 g / cm^3
# Si number density = 19.346769 Si / 1000 Ang^3
#
#
#
# Elastic Constant Matrix: (Units=GPa)
#
#
# Indices 1 2 3 4 5 6 
#
# 1 41.0632 0.9557 -8.4579 0.0000 0.0000 0.0000
# 2 0.9557 53.3209 45.7171 0.0000 0.0000 0.0000
# 3 -8.4579 45.7171 134.6277 0.0000 0.0000 0.0000
# 4 0.0000 0.0000 0.0000 9.7626 0.0000 0.0000
# 5 0.0000 0.0000 0.0000 0.0000 15.0264 0.0000
# 6 0.0000 0.0000 0.0000 0.0000 0.0000 7.2746
#
#
#
# Elastic Compliance Matrix: (Units=1/GPa)
#
#
# Indices 1 2 3 4 5 6 
#
# 1 0.024910 -0.002523 0.002422 0.000000 0.000000 0.000000
# 2 -0.002523 0.026713 -0.009230 0.000000 0.000000 0.000000
# 3 0.002422 -0.009230 0.010714 0.000000 0.000000 0.000000
# 4 0.000000 0.000000 0.000000 0.102432 0.000000 0.000000
# 5 0.000000 0.000000 0.000000 0.000000 0.066550 0.000000
# 6 0.000000 0.000000 0.000000 0.000000 0.000000 0.137465
#
#
# Mechanical properties :
#
#
# Convention : Reuss Voigt Hill
#
# Bulk Modulus (GPa) = 22.89597 33.93796 28.41696
# Shear Modulus (GPa) = 12.43768 19.13251 15.78509
#
# Velocity S-wave (km/s) = 2.53826 3.14813 2.85950
# Velocity P-wave (km/s) = 4.52223 5.54926 5.06186
#
# Compressibility (1/GPa) = 0.04367580
#
# Stress axis : x y z
#
# Youngs Moduli (GPa) = 40.14418 37.43472 93.33313
#
# Poissons Ratio (x) = 0.09444 -0.22602
# Poissons Ratio (y) = 0.10128 0.86145
# Poissons Ratio (z) = -0.09722 0.34552
#
# Static dielectric constant tensor:
#      x y z
#    x 1.750510 0.000000 0.000000 
#    y 0.000000 1.695230 0.000000 
#    z 0.000000 0.000000 1.676810 
# 
# From -- ./inp_files/29558.got.cif
#   From: 2010.05.17/outbox.cif.g08.bks.cpg/sg59_15_cif.got.tgz:29558.got - 2010.06.03 14:40:33.
