data_PCOD9447092
_publ_section_title
;
Structure prediction by ZEFSAII (Michael W. Deem and Ramdas Pophale) SiO2 
 PCOD9447092
Probable space group: P M M N
;
_chemical_formula_sum "Si O2"
_cell_formula_units_Z 48
_cell_length_a 18.475252
_cell_length_b 12.753405
_cell_length_c 12.130965
_cell_angle_alpha 90.000000
_cell_angle_beta 90.000000
_cell_angle_gamma 90.000000
_cell_volume 2858.326739
_symmetry_space_group_name_H-M "P M M N"
_symmetry_group_IT_number 59
_space_group.IT_coordinate_system_code '2'
_symmetry_cell_setting 'orthorhombic'
loop_
_space_group_symop_operation_xyz
x,y,z
1/2-x,1/2-y,z
1/2+x,-y,-z
-x,1/2+y,-z
-x,-y,-z
1/2+x,1/2+y,-z
1/2-x,y,z
x,1/2-y,z
loop_
_atom_site_type_symbol
_atom_site_label
_atom_site_fract_x
_atom_site_fract_y
_atom_site_fract_z
Si Si1 0.906869 0.375902 0.821955
Si Si2 0.597155 0.432225 0.575346
Si Si3 0.336963 0.954962 0.956126
Si Si4 0.164380 0.750000 0.567477
Si Si5 0.420167 0.373680 0.819083
Si Si6 0.337723 0.750000 0.816487
Si Si7 0.572872 0.627126 0.434377
O O1 0.894436 0.250000 0.823585
O O2 0.883060 0.419936 0.703172
O O3 0.993588 0.392550 0.832883
O O4 0.865619 0.430772 0.921794
O O5 0.640093 0.351482 0.499629
O O6 0.604367 0.547738 0.524227
O O7 0.513337 0.395038 0.567407
O O8 0.250000 0.964210 0.955272
O O9 0.358872 0.854093 0.882246
O O10 0.374483 0.055063 0.900962
O O11 0.250000 0.750000 0.576413
O O12 0.133870 0.750000 0.691774
O O13 0.407777 0.250000 0.836942
O O14 0.401491 0.396747 0.690611
O O15 0.250000 0.750000 0.813614
O O16 0.585174 0.750000 0.456575
#
# Coordination Sequence:
#
# PCOD9447092 Si02
#       7
#     8   8   8   4   8   4   8
#     4  10  19  35  54  77 111 144 177 220 268 323
#     4  10  18  32  53  81 110 138 181 216 266 327
#     4  11  21  35  54  76 106 140 182 223 267 324
#     4  11  20  31  49  77 113 138 171 224 276 323
#     4   9  19  35  56  78 104 142 179 223 269 310
#     4   9  20  33  47  73 105 138 173 222 272 313
#     4   9  17  33  57  79 107 140 176 229 267 312
#
# _framework density 16.793040999999999
#
# number of rings (size 3 to 8) (size 9 to 14) (size 15 to 20)
#    0.000    2.167    2.500    2.500    0.000    1.000 
#    0.000    0.833    0.000    1.500    0.000    0.000 
#    0.000    0.000    0.000    0.000    0.000    0.000 
#
# Total GULP energy -267733.086465 kJ/mol
# GULP energy per Si atom -5577.772635 kJ/mol
# Density = 1.675482 g / cm^3
# Si number density = 16.793041 Si / 1000 Ang^3
#
#
#
# Elastic Constant Matrix: (Units=GPa)
#
#
# Indices 1 2 3 4 5 6 
#
# 1 23.4424 23.3140 35.6662 0.0000 0.0000 0.0000
# 2 23.3140 94.6022 72.6602 0.0000 0.0000 0.0000
# 3 35.6662 72.6602 154.5839 0.0000 0.0000 0.0000
# 4 0.0000 0.0000 0.0000 70.4018 0.0000 0.0000
# 5 0.0000 0.0000 0.0000 0.0000 11.5615 0.0000
# 6 0.0000 0.0000 0.0000 0.0000 0.0000 0.3396
#
#
#
# Elastic Compliance Matrix: (Units=1/GPa)
#
#
# Indices 1 2 3 4 5 6 
#
# 1 0.068948 -0.007470 -0.012397 0.000000 0.000000 0.000000
# 2 -0.007470 0.017352 -0.006433 0.000000 0.000000 0.000000
# 3 -0.012397 -0.006433 0.012353 0.000000 0.000000 0.000000
# 4 0.000000 0.000000 0.000000 0.014204 0.000000 0.000000
# 5 0.000000 0.000000 0.000000 0.000000 0.086494 0.000000
# 6 0.000000 0.000000 0.000000 0.000000 0.000000 2.944361
#
#
# Mechanical properties :
#
#
# Convention : Reuss Voigt Hill
#
# Bulk Modulus (GPa) = 21.71372 59.54549 40.62961
# Shear Modulus (GPa) = 1.55683 25.85978 13.70830
#
# Velocity S-wave (km/s) = 0.96389 3.92843 2.86021
# Velocity P-wave (km/s) = 3.76789 7.49080 5.92913
#
# Compressibility (1/GPa) = 0.04605383
#
# Stress axis : x y z
#
# Youngs Moduli (GPa) = 14.50366 57.62951 80.95374
#
# Poissons Ratio (x) = 0.43052 1.00355
# Poissons Ratio (y) = 0.10835 0.52074
# Poissons Ratio (z) = 0.17980 0.37071
#
# Static dielectric constant tensor:
#      x y z
#    x 1.553630 0.000000 0.000000 
#    y 0.000000 1.550560 0.000000 
#    z 0.000000 0.000000 1.567660 
# 
# From -- ./inp_files/15949.got.cif
#   From: 2010.05.17/outbox.cif.g08.bks.cpg/sg59_8_cif.got.tgz:15949.got - 2010.06.03 14:40:33.
