data_PCOD9447564
_publ_section_title
;
Structure prediction by ZEFSAII (Michael W. Deem and Ramdas Pophale) SiO2 
 PCOD9447564
Probable space group: P M M N
;
_chemical_formula_sum "Si O2"
_cell_formula_units_Z 64
_cell_length_a 14.315927
_cell_length_b 14.311553
_cell_length_c 18.628489
_cell_angle_alpha 90.000000
_cell_angle_beta 90.000000
_cell_angle_gamma 90.000000
_cell_volume 3816.663469
_symmetry_space_group_name_H-M "P M M N"
_symmetry_group_IT_number 59
_space_group.IT_coordinate_system_code '2'
_symmetry_cell_setting 'orthorhombic'
loop_
_space_group_symop_operation_xyz
x,y,z
1/2-x,1/2-y,z
1/2+x,-y,-z
-x,1/2+y,-z
-x,-y,-z
1/2+x,1/2+y,-z
1/2-x,y,z
x,1/2-y,z
loop_
_atom_site_type_symbol
_atom_site_label
_atom_site_fract_x
_atom_site_fract_y
_atom_site_fract_z
Si Si1 0.043865 0.139102 0.008207
Si Si2 0.144313 0.855738 0.068285
Si Si3 0.016554 0.137716 0.723551
Si Si4 0.856413 0.636758 0.412931
Si Si5 0.636274 0.857649 0.571414
Si Si6 0.138501 0.488287 0.296231
Si Si7 0.142765 0.453420 0.139733
Si Si8 0.857707 0.636312 0.139508
O O1 0.059293 0.250000 0.015148
O O2 0.101818 0.106791 0.937872
O O3 0.077120 0.090698 0.080241
O O4 0.935323 0.124194 0.989636
O O5 0.250000 0.859616 0.039422
O O6 0.127331 0.750000 0.095576
O O7 0.137882 0.934508 0.128628
O O8 0.003261 0.250000 0.725873
O O9 0.921504 0.081784 0.711416
O O10 0.081319 0.113447 0.655166
O O11 0.072923 0.109291 0.795822
O O12 0.750000 0.602982 0.403485
O O13 0.852341 0.750000 0.415627
O O14 0.892881 0.609141 0.491814
O O15 0.750000 0.855604 0.569589
O O16 0.605784 0.750000 0.583199
O O17 0.609739 0.926825 0.635290
O O18 0.250000 0.506505 0.299814
O O19 0.121887 0.431947 0.222048
O O20 0.250000 0.425332 0.123952
O O21 0.750000 0.606196 0.149696
O O22 0.857195 0.750000 0.139520
#
# Coordination Sequence:
#
# PCOD9447564 Si02
#       8
#     8   8   8   8   8   8   8   8
#     4  10  19  31  49  71  93 117 148 189 236 280
#     4   9  18  32  48  65  87 119 157 190 222 267
#     4  10  19  30  46  69  97 126 152 182 223 271
#     4   8  14  27  49  74  96 119 149 185 227 274
#     4   8  15  30  50  69  91 119 151 191 235 271
#     4  10  21  33  45  66  94 124 158 190 222 266
#     4  10  20  32  46  64  88 120 157 195 230 267
#     4   9  17  29  45  67  95 122 148 184 232 280
#
# _framework density 16.768574000000001
#
# number of rings (size 3 to 8) (size 9 to 14) (size 15 to 20)
#    0.000    2.750    0.000    2.625    0.000    5.000 
#    0.000    2.500    0.000    0.750    0.000    0.000 
#    0.000    2.000    0.000    0.250    0.000    0.000 
#
# Total GULP energy -356606.865362 kJ/mol
# GULP energy per Si atom -5571.982271 kJ/mol
# Density = 1.673041 g / cm^3
# Si number density = 16.768574 Si / 1000 Ang^3
#
#
#
# Elastic Constant Matrix: (Units=GPa)
#
#
# Indices 1 2 3 4 5 6 
#
# 1 70.6011 24.3662 47.6930 0.0000 0.0000 0.0000
# 2 24.3662 29.3785 25.5351 0.0000 0.0000 0.0000
# 3 47.6930 25.5351 115.8636 0.0000 0.0000 0.0000
# 4 0.0000 0.0000 0.0000 15.6306 0.0000 0.0000
# 5 0.0000 0.0000 0.0000 0.0000 14.1159 0.0000
# 6 0.0000 0.0000 0.0000 0.0000 0.0000 16.2548
#
#
#
# Elastic Compliance Matrix: (Units=1/GPa)
#
#
# Indices 1 2 3 4 5 6 
#
# 1 0.023317 -0.013602 -0.006600 0.000000 0.000000 0.000000
# 2 -0.013602 0.050039 -0.005429 0.000000 0.000000 0.000000
# 3 -0.006600 -0.005429 0.012544 0.000000 0.000000 0.000000
# 4 0.000000 0.000000 0.000000 0.063977 0.000000 0.000000
# 5 0.000000 0.000000 0.000000 0.000000 0.070842 0.000000
# 6 0.000000 0.000000 0.000000 0.000000 0.000000 0.061520
#
#
# Mechanical properties :
#
#
# Convention : Reuss Voigt Hill
#
# Bulk Modulus (GPa) = 28.87060 45.67017 37.27038
# Shear Modulus (GPa) = 14.49072 17.08351 15.78711
#
# Velocity S-wave (km/s) = 2.94285 3.19530 3.07167
# Velocity P-wave (km/s) = 5.36671 6.39593 5.90379
#
# Compressibility (1/GPa) = 0.03463732
#
# Stress axis : x y z
#
# Youngs Moduli (GPa) = 42.88672 19.98451 79.71815
#
# Poissons Ratio (x) = 0.27183 0.52616
# Poissons Ratio (y) = 0.58336 0.43278
# Poissons Ratio (z) = 0.28307 0.10849
#
# Static dielectric constant tensor:
#      x y z
#    x 1.580500 0.000000 0.000000 
#    y 0.000000 1.572260 0.000000 
#    z 0.000000 0.000000 1.575770 
# 
# From -- ./inp_files/27750.got.cif
#   From: 2010.05.17/outbox.cif.g08.bks.cpg/sg59_14_cif.got.tgz:27750.got - 2010.06.03 14:40:33.
