data_PCOD9447987
_publ_section_title
;
Structure prediction by ZEFSAII (Michael W. Deem and Ramdas Pophale) SiO2 
 PCOD9447987
Probable space group: P M M N
;
_chemical_formula_sum "Si O2"
_cell_formula_units_Z 64
_cell_length_a 26.060120
_cell_length_b 21.025347
_cell_length_c 5.281174
_cell_angle_alpha 90.000000
_cell_angle_beta 90.000000
_cell_angle_gamma 90.000000
_cell_volume 2893.677049
_symmetry_space_group_name_H-M "P M M N"
_symmetry_group_IT_number 59
_space_group.IT_coordinate_system_code '2'
_symmetry_cell_setting 'orthorhombic'
loop_
_space_group_symop_operation_xyz
x,y,z
1/2-x,1/2-y,z
1/2+x,-y,-z
-x,1/2+y,-z
-x,-y,-z
1/2+x,1/2+y,-z
1/2-x,y,z
x,1/2-y,z
loop_
_atom_site_type_symbol
_atom_site_label
_atom_site_fract_x
_atom_site_fract_y
_atom_site_fract_z
Si Si1 0.172574 0.175456 0.933165
Si Si2 0.649119 0.176975 0.884769
Si Si3 0.081669 0.050879 0.440553
Si Si4 0.568358 0.681399 0.294984
Si Si5 0.191791 0.826480 0.615498
Si Si6 0.471698 0.947063 0.752649
Si Si7 0.692870 0.907410 0.575355
Si Si8 0.040696 0.865111 0.242673
O O1 0.188076 0.250000 0.916312
O O2 0.188061 0.134123 0.684801
O O3 0.110485 0.174322 0.923122
O O4 0.190433 0.141097 0.187326
O O5 0.666598 0.250000 0.917254
O O6 0.655600 0.148163 0.162635
O O7 0.681780 0.145770 0.661329
O O8 0.591716 0.175348 0.784030
O O9 0.142940 0.045863 0.393107
O O10 0.033432 0.039400 0.250848
O O11 0.062514 0.007891 0.676663
O O12 0.077100 0.124512 0.513418
O O13 0.577061 0.750000 0.416053
O O14 0.510634 0.674832 0.201988
O O15 0.250000 0.835802 0.697506
O O16 0.183400 0.750000 0.584483
O O17 0.462328 0.899143 0.515255
O O18 0.457243 0.915296 0.014719
O O19 0.750000 0.937468 0.574459
#
# Coordination Sequence:
#
# PCOD9447987 Si02
#       8
#     8   8   8   8   8   8   8   8
#     4  10  21  36  54  81 117 156 193 226 273 341
#     4  10  19  31  50  78 111 141 175 225 284 346
#     4   9  21  40  61  86 112 149 198 236 283 342
#     4   9  19  36  59  87 122 154 183 231 290 348
#     4   9  17  30  49  72 101 143 188 227 275 339
#     4  10  22  38  62  82 110 150 194 241 272 328
#     4  11  22  36  57  82 111 148 191 241 288 334
#     4  11  21  36  56  86 115 147 186 230 287 336
#
# _framework density 22.117187999999999
#
# number of rings (size 3 to 8) (size 9 to 14) (size 15 to 20)
#    0.000    2.125    0.000    3.000    0.000   10.000 
#    0.000    8.125    0.000    4.500    0.000    0.000 
#    0.000    0.000    0.000    0.000    0.000    2.625 
#
# Total GULP energy -356951.302183 kJ/mol
# GULP energy per Si atom -5577.364097 kJ/mol
# Density = 2.206685 g / cm^3
# Si number density = 22.117188 Si / 1000 Ang^3
#
#
#
# Elastic Constant Matrix: (Units=GPa)
#
#
# Indices 1 2 3 4 5 6 
#
# 1 124.3061 13.7566 4.4923 0.0000 0.0000 0.0000
# 2 13.7566 55.7137 17.8079 0.0000 0.0000 0.0000
# 3 4.4923 17.8079 102.5705 0.0000 0.0000 0.0000
# 4 0.0000 0.0000 0.0000 15.7025 0.0000 0.0000
# 5 0.0000 0.0000 0.0000 0.0000 18.6438 0.0000
# 6 0.0000 0.0000 0.0000 0.0000 0.0000 6.1649
#
#
#
# Elastic Compliance Matrix: (Units=1/GPa)
#
#
# Indices 1 2 3 4 5 6 
#
# 1 0.008271 -0.002040 -0.000008 0.000000 0.000000 0.000000
# 2 -0.002040 0.019506 -0.003297 0.000000 0.000000 0.000000
# 3 -0.000008 -0.003297 0.010322 0.000000 0.000000 0.000000
# 4 0.000000 0.000000 0.000000 0.063684 0.000000 0.000000
# 5 0.000000 0.000000 0.000000 0.000000 0.053637 0.000000
# 6 0.000000 0.000000 0.000000 0.000000 0.000000 0.162209
#
#
# Mechanical properties :
#
#
# Convention : Reuss Voigt Hill
#
# Bulk Modulus (GPa) = 36.48397 39.41156 37.94776
# Shear Modulus (GPa) = 14.81676 24.53781 19.67729
#
# Velocity S-wave (km/s) = 2.59109 3.33445 2.98599
# Velocity P-wave (km/s) = 5.04809 5.71689 5.39287
#
# Compressibility (1/GPa) = 0.02740930
#
# Stress axis : x y z
#
# Youngs Moduli (GPa) = 120.90925 51.26513 96.87841
#
# Poissons Ratio (x) = 0.10456 0.00079
# Poissons Ratio (y) = 0.24660 0.31944
# Poissons Ratio (z) = 0.00098 0.16904
#
# Static dielectric constant tensor:
#      x y z
#    x 1.876550 0.000000 0.000000 
#    y 0.000000 1.818530 0.000000 
#    z 0.000000 0.000000 1.841790 
# 
# From -- ./inp_files/4314.got.cif
#   From: 2010.05.17/outbox.cif.g08.bks.cpg/sg59_3_cif.got.tgz:4314.got - 2010.06.03 14:40:33.
