data_PCOD9447090
_publ_section_title
;
Structure prediction by ZEFSAII (Michael W. Deem and Ramdas Pophale) SiO2 
 PCOD9447090
Probable space group: P M M N
;
_chemical_formula_sum "Si O2"
_cell_formula_units_Z 64
_cell_length_a 20.585870
_cell_length_b 16.701550
_cell_length_c 9.924615
_cell_angle_alpha 90.000000
_cell_angle_beta 90.000000
_cell_angle_gamma 90.000000
_cell_volume 3412.240807
_symmetry_space_group_name_H-M "P M M N"
_symmetry_group_IT_number 59
_space_group.IT_coordinate_system_code '2'
_symmetry_cell_setting 'orthorhombic'
loop_
_space_group_symop_operation_xyz
x,y,z
1/2-x,1/2-y,z
1/2+x,-y,-z
-x,1/2+y,-z
-x,-y,-z
1/2+x,1/2+y,-z
1/2-x,y,z
x,1/2-y,z
loop_
_atom_site_type_symbol
_atom_site_label
_atom_site_fract_x
_atom_site_fract_y
_atom_site_fract_z
Si Si1 0.443302 0.842096 0.214788
Si Si2 0.412251 0.344778 0.844035
Si Si3 0.534164 0.572467 0.915395
Si Si4 0.069569 0.071198 0.395324
Si Si5 0.324248 0.405107 0.604759
Si Si6 0.434357 0.610255 0.503998
Si Si7 0.823282 0.409270 0.300066
Si Si8 0.899061 0.154876 0.060362
O O1 0.450529 0.750000 0.175951
O O2 0.517203 0.873612 0.213506
O O3 0.418836 0.847799 0.364326
O O4 0.398113 0.873764 0.095831
O O5 0.412591 0.250000 0.868433
O O6 0.360016 0.363221 0.730081
O O7 0.411096 0.390829 0.986105
O O8 0.562395 0.557569 0.765769
O O9 0.473862 0.634959 0.899496
O O10 0.500000 0.500000 0.000000
O O11 0.133901 0.105822 0.467666
O O12 0.006845 0.123051 0.440300
O O13 0.066101 0.983736 0.464530
O O14 0.250000 0.379013 0.587698
O O15 0.323235 0.498584 0.650990
O O16 0.378978 0.631024 0.609789
O O17 0.750000 0.378457 0.314688
O O18 0.849840 0.396091 0.149950
O O19 0.885540 0.250000 0.075518
#
# Coordination Sequence:
#
# PCOD9447090 Si02
#       8
#     8   8   8   8   8   8   8   8
#     4   9  18  32  51  78 108 139 177 223 272 327
#     4  10  20  35  55  82 114 145 186 233 282 339
#     4  11  20  33  58  86 114 147 187 236 287 336
#     4  10  19  32  55  84 109 141 185 234 282 331
#     4  10  21  38  58  80 111 147 187 233 283 345
#     4  10  18  32  53  80 109 138 181 232 277 324
#     4  10  21  36  54  78 108 145 185 227 278 336
#     4  10  20  34  52  78 112 144 181 227 277 332
#
# _framework density 18.756004999999998
#
# number of rings (size 3 to 8) (size 9 to 14) (size 15 to 20)
#    0.000    2.000    2.500    3.375    1.750    1.000 
#    0.000    2.500    0.000    6.000    0.000    0.000 
#    0.000    0.000    0.000    0.000    0.000    0.000 
#
# Total GULP energy -356330.626038 kJ/mol
# GULP energy per Si atom -5567.666032 kJ/mol
# Density = 1.871332 g / cm^3
# Si number density = 18.756005 Si / 1000 Ang^3
#
#
#
# Elastic Constant Matrix: (Units=GPa)
#
#
# Indices 1 2 3 4 5 6 
#
# 1 119.2696 21.4677 83.3598 0.0000 0.0000 0.0000
# 2 21.4677 22.4268 12.7152 0.0000 0.0000 0.0000
# 3 83.3598 12.7152 149.6175 0.0000 0.0000 0.0000
# 4 0.0000 0.0000 0.0000 16.4059 0.0000 0.0000
# 5 0.0000 0.0000 0.0000 0.0000 26.8695 0.0000
# 6 0.0000 0.0000 0.0000 0.0000 0.0000 13.1699
#
#
#
# Elastic Compliance Matrix: (Units=1/GPa)
#
#
# Indices 1 2 3 4 5 6 
#
# 1 0.015839 -0.010673 -0.007918 0.000000 0.000000 0.000000
# 2 -0.010673 0.054038 0.001354 0.000000 0.000000 0.000000
# 3 -0.007918 0.001354 0.010980 0.000000 0.000000 0.000000
# 4 0.000000 0.000000 0.000000 0.060954 0.000000 0.000000
# 5 0.000000 0.000000 0.000000 0.000000 0.037217 0.000000
# 6 0.000000 0.000000 0.000000 0.000000 0.000000 0.075930
#
#
# Mechanical properties :
#
#
# Convention : Reuss Voigt Hill
#
# Bulk Modulus (GPa) = 21.55906 58.48881 40.02393
# Shear Modulus (GPa) = 16.39915 22.87382 19.63649
#
# Velocity S-wave (km/s) = 2.96013 3.49599 3.23916
# Velocity P-wave (km/s) = 4.81691 6.89548 5.94770
#
# Compressibility (1/GPa) = 0.04638421
#
# Stress axis : x y z
#
# Youngs Moduli (GPa) = 63.13373 18.50542 91.07352
#
# Poissons Ratio (x) = 0.19751 0.72111
# Poissons Ratio (y) = 0.67382 -0.12331
# Poissons Ratio (z) = 0.49989 -0.02506
#
# Static dielectric constant tensor:
#      x y z
#    x 1.644890 0.000000 0.000000 
#    y 0.000000 1.713720 0.000000 
#    z 0.000000 0.000000 1.692790 
# 
# From -- ./inp_files/12282.got.cif
#   From: 2010.05.17/outbox.cif.g08.bks.cpg/sg59_7_cif.got.tgz:12282.got - 2010.06.03 14:40:33.
