data_PCOD9447702
_publ_section_title
;
Structure prediction by ZEFSAII (Michael W. Deem and Ramdas Pophale) SiO2 
 PCOD9447702
Probable space group: P M M N
;
_chemical_formula_sum "Si O2"
_cell_formula_units_Z 64
_cell_length_a 22.328471
_cell_length_b 13.197512
_cell_length_c 12.517486
_cell_angle_alpha 90.000000
_cell_angle_beta 90.000000
_cell_angle_gamma 90.000000
_cell_volume 3688.656079
_symmetry_space_group_name_H-M "P M M N"
_symmetry_group_IT_number 59
_space_group.IT_coordinate_system_code '2'
_symmetry_cell_setting 'orthorhombic'
loop_
_space_group_symop_operation_xyz
x,y,z
1/2-x,1/2-y,z
1/2+x,-y,-z
-x,1/2+y,-z
-x,-y,-z
1/2+x,1/2+y,-z
1/2-x,y,z
x,1/2-y,z
loop_
_atom_site_type_symbol
_atom_site_label
_atom_site_fract_x
_atom_site_fract_y
_atom_site_fract_z
Si Si1 0.320953 0.868083 0.127695
Si Si2 0.409874 0.004663 0.223541
Si Si3 0.040852 0.128839 0.412129
Si Si4 0.111756 0.871313 0.909226
Si Si5 0.524488 0.868273 0.204370
Si Si6 0.422745 0.000753 0.617880
Si Si7 0.178883 0.629301 0.687625
Si Si8 0.524706 0.868202 0.948507
O O1 0.250000 0.873904 0.118504
O O2 0.336908 0.750000 0.150225
O O3 0.347943 0.945933 0.212429
O O4 0.352089 0.897674 0.015772
O O5 0.460284 0.916901 0.233283
O O6 0.417137 0.082310 0.320153
O O7 0.428350 0.066453 0.117478
O O8 0.041008 0.250000 0.415376
O O9 0.974570 0.085511 0.384414
O O10 0.061763 0.077435 0.522319
O O11 0.107245 0.750000 0.911400
O O12 0.149669 0.894137 0.803705
O O13 0.042405 0.904205 0.915673
O O14 0.526958 0.750000 0.233726
O O15 0.570718 0.933952 0.273618
O O16 0.531418 0.873862 0.076204
O O17 0.359787 0.942647 0.610596
O O18 0.250000 0.610781 0.686746
O O19 0.169746 0.750000 0.667021
O O20 0.530233 0.750000 0.918124
#
# Coordination Sequence:
#
# PCOD9447702 Si02
#       8
#     8   8   8   8   8   8   8   8
#     4  10  20  33  49  73 108 144 177 216 262 317
#     4  11  20  31  53  77 106 140 179 217 265 322
#     4  10  21  38  57  81 108 137 179 228 275 322
#     4   9  16  29  49  76 111 144 171 205 257 318
#     4  10  19  31  49  77 109 138 172 219 269 315
#     4  10  21  35  58  82 107 143 178 221 275 326
#     4  10  20  34  54  82 114 144 177 218 266 324
#     4  10  19  30  49  80 113 141 172 217 268 320
#
# _framework density 17.350493
#
# number of rings (size 3 to 8) (size 9 to 14) (size 15 to 20)
#    0.000    2.000    1.250    3.750    1.750    2.500 
#    0.000    2.500    0.000    5.250    0.000    1.750 
#    0.000    0.000    0.000    0.000    0.000    0.000 
#
# Total GULP energy -357021.574758 kJ/mol
# GULP energy per Si atom -5578.462106 kJ/mol
# Density = 1.731100 g / cm^3
# Si number density = 17.350493 Si / 1000 Ang^3
#
#
#
# Elastic Constant Matrix: (Units=GPa)
#
#
# Indices 1 2 3 4 5 6 
#
# 1 72.8672 52.8415 24.3316 0.0000 0.0000 0.0000
# 2 52.8415 137.6498 31.4097 0.0000 0.0000 0.0000
# 3 24.3316 31.4097 40.3222 0.0000 0.0000 0.0000
# 4 0.0000 0.0000 0.0000 21.7008 0.0000 0.0000
# 5 0.0000 0.0000 0.0000 0.0000 9.5626 0.0000
# 6 0.0000 0.0000 0.0000 0.0000 0.0000 29.4627
#
#
#
# Elastic Compliance Matrix: (Units=1/GPa)
#
#
# Indices 1 2 3 4 5 6 
#
# 1 0.020817 -0.006233 -0.007706 0.000000 0.000000 0.000000
# 2 -0.006233 0.010701 -0.004575 0.000000 0.000000 0.000000
# 3 -0.007706 -0.004575 0.033014 0.000000 0.000000 0.000000
# 4 0.000000 0.000000 0.000000 0.046081 0.000000 0.000000
# 5 0.000000 0.000000 0.000000 0.000000 0.104574 0.000000
# 6 0.000000 0.000000 0.000000 0.000000 0.000000 0.033941
#
#
# Mechanical properties :
#
#
# Convention : Reuss Voigt Hill
#
# Bulk Modulus (GPa) = 36.35809 52.00055 44.17932
# Shear Modulus (GPa) = 16.93048 21.62897 19.27973
#
# Velocity S-wave (km/s) = 3.12716 3.53454 3.33707
# Velocity P-wave (km/s) = 5.83433 6.83323 6.35344
#
# Compressibility (1/GPa) = 0.02750420
#
# Stress axis : x y z
#
# Youngs Moduli (GPa) = 48.03837 93.44564 30.28991
#
# Poissons Ratio (x) = 0.58242 0.23342
# Poissons Ratio (y) = 0.29941 0.13858
# Poissons Ratio (z) = 0.37020 0.42752
#
# Static dielectric constant tensor:
#      x y z
#    x 1.563760 0.000000 0.000000 
#    y 0.000000 1.601790 0.000000 
#    z 0.000000 0.000000 1.635450 
# 
# From -- ./inp_files/18764.got.cif
#   From: 2010.05.17/outbox.cif.g08.bks.cpg/sg59_10_cif.got.tgz:18764.got - 2010.06.03 14:40:33.
