data_PCOD9447598
_publ_section_title
;
Structure prediction by ZEFSAII (Michael W. Deem and Ramdas Pophale) SiO2 
 PCOD9447598
Probable space group: P M M N
;
_chemical_formula_sum "Si O2"
_cell_formula_units_Z 56
_cell_length_a 9.192815
_cell_length_b 17.436433
_cell_length_c 20.979761
_cell_angle_alpha 90.000000
_cell_angle_beta 90.000000
_cell_angle_gamma 90.000000
_cell_volume 3362.843852
_symmetry_space_group_name_H-M "P M M N"
_symmetry_group_IT_number 59
_space_group.IT_coordinate_system_code '2'
_symmetry_cell_setting 'orthorhombic'
loop_
_space_group_symop_operation_xyz
x,y,z
1/2-x,1/2-y,z
1/2+x,-y,-z
-x,1/2+y,-z
-x,-y,-z
1/2+x,1/2+y,-z
1/2-x,y,z
x,1/2-y,z
loop_
_atom_site_type_symbol
_atom_site_label
_atom_site_fract_x
_atom_site_fract_y
_atom_site_fract_z
Si Si1 0.423414 0.568997 0.461695
Si Si2 0.583765 0.386140 0.970367
Si Si3 0.076533 0.025778 0.342612
Si Si4 0.576198 0.666232 0.153439
Si Si5 0.422901 0.337325 0.439759
Si Si6 0.916770 0.558839 0.912097
Si Si7 0.424379 0.002342 0.790099
O O1 0.500000 0.500000 0.500000
O O2 0.250000 0.566738 0.471008
O O3 0.451710 0.548034 0.388091
O O4 0.491583 0.642818 0.495386
O O5 0.750000 0.360778 0.978190
O O6 0.501694 0.341276 0.914673
O O7 0.586859 0.474147 0.944541
O O8 0.498033 0.387791 0.036845
O O9 0.250000 0.028671 0.329903
O O10 0.038730 0.100864 0.385067
O O11 0.988330 0.020959 0.277805
O O12 0.750000 0.662006 0.143468
O O13 0.541903 0.750000 0.181651
O O14 0.536408 0.591567 0.194747
O O15 0.250000 0.346823 0.451581
O O16 0.449991 0.250000 0.419894
O O17 0.750000 0.582306 0.901146
O O18 0.004304 0.547376 0.846737
O O19 0.250000 0.995393 0.791761
#
# Coordination Sequence:
#
# PCOD9447598 Si02
#       7
#     8   8   8   8   8   8   8
#     4   9  17  30  49  72  98 127 160 198 238 282
#     4   9  16  26  43  67  90 112 145 190 235 277
#     4   9  18  32  49  70  98 130 161 195 239 291
#     4   9  18  32  47  64  90 124 161 200 244 293
#     4   9  18  33  53  76 100 126 159 201 248 296
#     4   9  16  27  44  65  90 118 148 186 233 282
#     4  10  19  30  47  70  95 126 165 205 240 281
#
# _framework density 16.652571999999999
#
# number of rings (size 3 to 8) (size 9 to 14) (size 15 to 20)
#    0.000    2.857    0.000    2.571    0.000    7.429 
#    0.000    0.714    0.000    3.429    0.000    2.000 
#    0.000    0.000    0.000    0.000    0.000    0.000 
#
# Total GULP energy -311835.737565 kJ/mol
# GULP energy per Si atom -5568.495314 kJ/mol
# Density = 1.661467 g / cm^3
# Si number density = 16.652572 Si / 1000 Ang^3
#
#
#
# Elastic Constant Matrix: (Units=GPa)
#
#
# Indices 1 2 3 4 5 6 
#
# 1 60.7435 24.3326 60.3674 0.0000 0.0000 0.0000
# 2 24.3326 59.5761 34.1732 0.0000 0.0000 0.0000
# 3 60.3674 34.1732 123.0517 0.0000 0.0000 0.0000
# 4 0.0000 0.0000 0.0000 12.9731 0.0000 0.0000
# 5 0.0000 0.0000 0.0000 0.0000 32.0399 0.0000
# 6 0.0000 0.0000 0.0000 0.0000 0.0000 17.3227
#
#
#
# Elastic Compliance Matrix: (Units=1/GPa)
#
#
# Indices 1 2 3 4 5 6 
#
# 1 0.033350 -0.005039 -0.014962 0.000000 0.000000 0.000000
# 2 -0.005039 0.020727 -0.003284 0.000000 0.000000 0.000000
# 3 -0.014962 -0.003284 0.016379 0.000000 0.000000 0.000000
# 4 0.000000 0.000000 0.000000 0.077083 0.000000 0.000000
# 5 0.000000 0.000000 0.000000 0.000000 0.031211 0.000000
# 6 0.000000 0.000000 0.000000 0.000000 0.000000 0.057728
#
#
# Mechanical properties :
#
#
# Convention : Reuss Voigt Hill
#
# Bulk Modulus (GPa) = 41.86503 53.45752 47.66127
# Shear Modulus (GPa) = 17.18153 20.76699 18.97426
#
# Velocity S-wave (km/s) = 3.21559 3.53522 3.37919
# Velocity P-wave (km/s) = 6.24352 6.98821 6.62634
#
# Compressibility (1/GPa) = 0.02388628
#
# Stress axis : x y z
#
# Youngs Moduli (GPa) = 29.98462 48.24586 61.05469
#
# Poissons Ratio (x) = 0.24312 0.91349
# Poissons Ratio (y) = 0.15110 0.20051
# Poissons Ratio (z) = 0.44862 0.15844
#
# Static dielectric constant tensor:
#      x y z
#    x 1.560060 0.000000 0.000000 
#    y 0.000000 1.598430 0.000000 
#    z 0.000000 0.000000 1.540570 
# 
# From -- ./inp_files/29292.got.cif
#   From: 2010.05.17/outbox.cif.g08.bks.cpg/sg59_15_cif.got.tgz:29292.got - 2010.06.03 14:40:33.
