data_PCOD9447960
_publ_section_title
;
Structure prediction by ZEFSAII (Michael W. Deem and Ramdas Pophale) SiO2 
 PCOD9447960
Probable space group: P M M N
;
_chemical_formula_sum "Si O2"
_cell_formula_units_Z 56
_cell_length_a 14.353882
_cell_length_b 14.641546
_cell_length_c 13.779560
_cell_angle_alpha 90.000000
_cell_angle_beta 90.000000
_cell_angle_gamma 90.000000
_cell_volume 2895.953993
_symmetry_space_group_name_H-M "P M M N"
_symmetry_group_IT_number 59
_space_group.IT_coordinate_system_code '2'
_symmetry_cell_setting 'orthorhombic'
loop_
_space_group_symop_operation_xyz
x,y,z
1/2-x,1/2-y,z
1/2+x,-y,-z
-x,1/2+y,-z
-x,-y,-z
1/2+x,1/2+y,-z
1/2-x,y,z
x,1/2-y,z
loop_
_atom_site_type_symbol
_atom_site_label
_atom_site_fract_x
_atom_site_fract_y
_atom_site_fract_z
Si Si1 0.646663 0.598654 0.521063
Si Si2 0.858182 0.473913 0.983103
Si Si3 0.983089 0.861303 0.914769
Si Si4 0.354018 0.894708 0.540406
Si Si5 0.497511 0.143288 0.312527
Si Si6 0.645302 0.360595 0.783493
Si Si7 0.991239 0.349089 0.624203
O O1 0.750000 0.638570 0.519210
O O2 0.653638 0.490514 0.514419
O O3 0.589354 0.626275 0.616072
O O4 0.584930 0.619129 0.426371
O O5 0.750000 0.482626 0.012586
O O6 0.920081 0.409342 0.052854
O O7 0.905933 0.573762 0.967404
O O8 0.860295 0.418332 0.881423
O O9 0.979309 0.750000 0.933923
O O10 0.974655 0.875474 0.798912
O O11 0.250000 0.859144 0.557047
O O12 0.413634 0.906005 0.638845
O O13 0.418933 0.841807 0.465145
O O14 0.521950 0.250000 0.318425
O O15 0.750000 0.372790 0.741446
O O16 0.636379 0.250000 0.800457
O O17 0.565736 0.396130 0.710327
O O18 0.012789 0.250000 0.664755
#
# Coordination Sequence:
#
# PCOD9447960 Si02
#       7
#     8   8   8   8   8   8   8
#     4  10  21  34  51  77 110 153 195 232 275 335
#     4  10  22  40  65  91 119 158 198 245 304 366
#     4  10  23  41  62  92 124 154 197 251 307 365
#     4  10  20  32  49  76 109 148 189 234 283 336
#     4  10  21  36  56  81 112 151 189 235 291 346
#     4   9  18  32  55  87 115 146 193 243 291 345
#     4  10  19  31  50  75 107 145 186 237 287 332
#
# _framework density 19.337323000000001
#
# number of rings (size 3 to 8) (size 9 to 14) (size 15 to 20)
#    0.000    2.143    0.000    4.286    4.000    5.143 
#    0.000    2.857    0.000    0.000    0.000    2.000 
#    0.000    0.000    0.000    0.000    0.000    0.000 
#
# Total GULP energy -311826.307808 kJ/mol
# GULP energy per Si atom -5568.326925 kJ/mol
# Density = 1.929331 g / cm^3
# Si number density = 19.337323 Si / 1000 Ang^3
#
#
#
# Elastic Constant Matrix: (Units=GPa)
#
#
# Indices 1 2 3 4 5 6 
#
# 1 133.4797 17.4298 23.4912 0.0000 0.0000 0.0000
# 2 17.4298 73.1001 16.4056 0.0000 0.0000 0.0000
# 3 23.4912 16.4056 53.1274 0.0000 0.0000 0.0000
# 4 0.0000 0.0000 0.0000 26.5248 0.0000 0.0000
# 5 0.0000 0.0000 0.0000 0.0000 20.1611 0.0000
# 6 0.0000 0.0000 0.0000 0.0000 0.0000 17.6179
#
#
#
# Elastic Compliance Matrix: (Units=1/GPa)
#
#
# Indices 1 2 3 4 5 6 
#
# 1 0.008226 -0.001230 -0.003257 0.000000 0.000000 0.000000
# 2 -0.001230 0.014883 -0.004052 0.000000 0.000000 0.000000
# 3 -0.003257 -0.004052 0.021514 0.000000 0.000000 0.000000
# 4 0.000000 0.000000 0.000000 0.037701 0.000000 0.000000
# 5 0.000000 0.000000 0.000000 0.000000 0.049600 0.000000
# 6 0.000000 0.000000 0.000000 0.000000 0.000000 0.056760
#
#
# Mechanical properties :
#
#
# Convention : Reuss Voigt Hill
#
# Bulk Modulus (GPa) = 36.30574 41.59561 38.95068
# Shear Modulus (GPa) = 23.26195 26.35281 24.80738
#
# Velocity S-wave (km/s) = 3.47213 3.69561 3.58561
# Velocity P-wave (km/s) = 5.90677 6.30613 6.10971
#
# Compressibility (1/GPa) = 0.02754385
#
# Stress axis : x y z
#
# Youngs Moduli (GPa) = 121.57069 67.19290 46.48121
#
# Poissons Ratio (x) = 0.08267 0.15140
# Poissons Ratio (y) = 0.14957 0.18833
# Poissons Ratio (z) = 0.39598 0.27225
#
# Static dielectric constant tensor:
#      x y z
#    x 1.730330 0.000000 0.000000 
#    y 0.000000 1.751000 0.000000 
#    z 0.000000 0.000000 1.666400 
# 
# From -- ./inp_files/16977.got.cif
#   From: 2010.05.17/outbox.cif.g08.bks.cpg/sg59_9_cif.got.tgz:16977.got - 2010.06.03 14:40:33.
