data_PCOD9447963
_publ_section_title
;
Structure prediction by ZEFSAII (Michael W. Deem and Ramdas Pophale) SiO2 
 PCOD9447963
Probable space group: P M M N
;
_chemical_formula_sum "Si O2"
_cell_formula_units_Z 64
_cell_length_a 8.581251
_cell_length_b 17.975535
_cell_length_c 23.825757
_cell_angle_alpha 90.000000
_cell_angle_beta 90.000000
_cell_angle_gamma 90.000000
_cell_volume 3675.184433
_symmetry_space_group_name_H-M "P M M N"
_symmetry_group_IT_number 59
_space_group.IT_coordinate_system_code '2'
_symmetry_cell_setting 'orthorhombic'
loop_
_space_group_symop_operation_xyz
x,y,z
1/2-x,1/2-y,z
1/2+x,-y,-z
-x,1/2+y,-z
-x,-y,-z
1/2+x,1/2+y,-z
1/2-x,y,z
x,1/2-y,z
loop_
_atom_site_type_symbol
_atom_site_label
_atom_site_fract_x
_atom_site_fract_y
_atom_site_fract_z
Si Si1 0.436581 0.052964 0.867119
Si Si2 0.563689 0.018444 0.365977
Si Si3 0.937808 0.166636 0.182805
Si Si4 0.936615 0.069353 0.535929
Si Si5 0.938474 0.406399 0.067577
Si Si6 0.438197 0.836312 0.047916
Si Si7 0.565572 0.978421 0.758420
Si Si8 0.439609 0.834069 0.565504
O O1 0.250000 0.050039 0.864392
O O2 0.493479 0.127773 0.896112
O O3 0.491461 0.985973 0.908694
O O4 0.502306 0.034727 0.805837
O O5 0.750000 0.018926 0.368975
O O6 0.508584 0.011612 0.302452
O O7 0.509678 0.097916 0.393588
O O8 0.502429 0.949237 0.402973
O O9 0.750000 0.158404 0.188432
O O10 0.980863 0.250000 0.199080
O O11 0.975317 0.151453 0.117387
O O12 0.017822 0.103113 0.218962
O O13 0.250000 0.932855 0.461948
O O14 0.981347 0.140716 0.498195
O O15 0.000000 0.000000 0.500000
O O16 0.750000 0.409127 0.063845
O O17 0.996547 0.381031 0.007064
O O18 0.250000 0.841793 0.049648
O O19 0.478812 0.750000 0.041805
O O20 0.750000 0.984846 0.754733
O O21 0.250000 0.832983 0.568416
O O22 0.493805 0.750000 0.578491
#
# Coordination Sequence:
#
# PCOD9447963 Si02
#       8
#     8   8   8   8   8   8   8   8
#     4  10  20  35  53  72  97 130 170 211 252 301
#     4  10  19  32  51  73  98 130 169 208 245 292
#     4   9  17  31  50  71  99 135 170 202 242 296
#     4   9  16  28  48  72  99 131 165 201 238 278
#     4   8  15  29  50  74  98 128 165 202 244 299
#     4  10  19  31  50  76 103 129 159 200 254 311
#     4  11  22  35  51  71  97 129 170 215 256 298
#     4   8  15  28  48  75 104 132 161 193 231 278
#
# _framework density 17.414092
#
# number of rings (size 3 to 8) (size 9 to 14) (size 15 to 20)
#    0.000    2.625    0.000    4.500    0.000    2.500 
#    0.000    3.750    0.000   16.875    0.000    1.750 
#    0.000    0.000    0.000    0.000    0.000    0.000 
#
# Total GULP energy -356662.073555 kJ/mol
# GULP energy per Si atom -5572.844899 kJ/mol
# Density = 1.737446 g / cm^3
# Si number density = 17.414092 Si / 1000 Ang^3
#
#
#
# Elastic Constant Matrix: (Units=GPa)
#
#
# Indices 1 2 3 4 5 6 
#
# 1 37.0944 14.2900 26.0790 0.0000 0.0000 0.0000
# 2 14.2900 33.0888 35.7264 0.0000 0.0000 0.0000
# 3 26.0790 35.7264 129.3571 0.0000 0.0000 0.0000
# 4 0.0000 0.0000 0.0000 10.3176 0.0000 0.0000
# 5 0.0000 0.0000 0.0000 0.0000 24.3271 0.0000
# 6 0.0000 0.0000 0.0000 0.0000 0.0000 19.6183
#
#
#
# Elastic Compliance Matrix: (Units=1/GPa)
#
#
# Indices 1 2 3 4 5 6 
#
# 1 0.033700 -0.010285 -0.003953 0.000000 0.000000 0.000000
# 2 -0.010285 0.046202 -0.010687 0.000000 0.000000 0.000000
# 3 -0.003953 -0.010687 0.011479 0.000000 0.000000 0.000000
# 4 0.000000 0.000000 0.000000 0.096922 0.000000 0.000000
# 5 0.000000 0.000000 0.000000 0.000000 0.041106 0.000000
# 6 0.000000 0.000000 0.000000 0.000000 0.000000 0.050973
#
#
# Mechanical properties :
#
#
# Convention : Reuss Voigt Hill
#
# Bulk Modulus (GPa) = 24.07886 39.08124 31.58005
# Shear Modulus (GPa) = 14.53165 19.08226 16.80695
#
# Velocity S-wave (km/s) = 2.89186 3.31387 3.11003
# Velocity P-wave (km/s) = 5.00077 6.09371 5.57410
#
# Compressibility (1/GPa) = 0.04153021
#
# Stress axis : x y z
#
# Youngs Moduli (GPa) = 29.67371 21.64397 87.11498
#
# Poissons Ratio (x) = 0.22261 0.34440
# Poissons Ratio (y) = 0.30520 0.93098
# Poissons Ratio (z) = 0.11731 0.23130
#
# Static dielectric constant tensor:
#      x y z
#    x 1.595410 0.000000 0.000000 
#    y 0.000000 1.595710 0.000000 
#    z 0.000000 0.000000 1.593220 
# 
# From -- ./inp_files/29559.got.cif
#   From: 2010.05.17/outbox.cif.g08.bks.cpg/sg59_15_cif.got.tgz:29559.got - 2010.06.03 14:40:33.
