data_PCOD9447394
_publ_section_title
;
Structure prediction by ZEFSAII (Michael W. Deem and Ramdas Pophale) SiO2 
 PCOD9447394
Probable space group: P M M N
;
_chemical_formula_sum "Si O2"
_cell_formula_units_Z 64
_cell_length_a 9.077196
_cell_length_b 25.297695
_cell_length_c 18.996013
_cell_angle_alpha 90.000000
_cell_angle_beta 90.000000
_cell_angle_gamma 90.000000
_cell_volume 4362.095038
_symmetry_space_group_name_H-M "P M M N"
_symmetry_group_IT_number 59
_space_group.IT_coordinate_system_code '2'
_symmetry_cell_setting 'orthorhombic'
loop_
_space_group_symop_operation_xyz
x,y,z
1/2-x,1/2-y,z
1/2+x,-y,-z
-x,1/2+y,-z
-x,-y,-z
1/2+x,1/2+y,-z
1/2-x,y,z
x,1/2-y,z
loop_
_atom_site_type_symbol
_atom_site_label
_atom_site_fract_x
_atom_site_fract_y
_atom_site_fract_z
Si Si1 0.074863 0.510910 0.887242
Si Si2 0.581893 0.077215 0.539011
Si Si3 0.927343 0.002078 0.737645
Si Si4 0.081305 0.455194 0.406377
Si Si5 0.074952 0.392507 0.675468
Si Si6 0.919559 0.312738 0.775152
Si Si7 0.926243 0.810717 0.075345
Si Si8 0.074610 0.081767 0.996809
O O1 0.250000 0.515366 0.876344
O O2 0.047221 0.455431 0.928412
O O3 0.990148 0.512376 0.813579
O O4 0.016012 0.556154 0.939700
O O5 0.750000 0.095660 0.542695
O O6 0.520450 0.076739 0.459922
O O7 0.481060 0.107199 0.595120
O O8 0.580447 0.015953 0.565357
O O9 0.750000 0.007638 0.738773
O O10 0.000868 0.056972 0.713488
O O11 0.963282 0.960342 0.675191
O O12 0.250000 0.436520 0.411013
O O13 0.250000 0.397118 0.678446
O O14 0.016232 0.342361 0.717694
O O15 0.750000 0.331262 0.772534
O O16 0.921593 0.250000 0.763178
O O17 0.987940 0.321547 0.852340
O O18 0.750000 0.813943 0.088757
O O19 0.958357 0.750000 0.053188
O O20 0.962087 0.857635 0.021239
O O21 0.250000 0.077964 0.011887
#
# Coordination Sequence:
#
# PCOD9447394 Si02
#       8
#     8   8   8   8   8   8   8   8
#     4  10  19  29  43  63  86 115 149 181 216 261
#     4   9  16  26  40  58  81 109 140 172 205 240
#     4  10  19  30  44  62  86 114 144 178 215 256
#     4   8  15  26  39  57  81 109 138 168 203 242
#     4  11  20  29  43  61  84 114 147 180 212 253
#     4  10  20  32  45  62  85 112 143 180 219 256
#     4   9  17  30  48  67  86 111 145 183 221 261
#     4   9  18  31  44  60  85 115 145 179 219 261
#
# _framework density 14.671849
#
# number of rings (size 3 to 8) (size 9 to 14) (size 15 to 20)
#    0.000    2.500    0.000    4.125    0.000    6.250 
#    0.000    0.000    0.000    0.000    0.000    0.000 
#    0.000    1.000    0.000    8.250    0.000    4.125 
#
# Total GULP energy -356682.699200 kJ/mol
# GULP energy per Si atom -5573.167175 kJ/mol
# Density = 1.463846 g / cm^3
# Si number density = 14.671849 Si / 1000 Ang^3
#
#
#
# Elastic Constant Matrix: (Units=GPa)
#
#
# Indices 1 2 3 4 5 6 
#
# 1 83.7739 32.6637 58.5655 0.0000 0.0000 0.0000
# 2 32.6637 47.5666 32.9389 0.0000 0.0000 0.0000
# 3 58.5655 32.9389 108.9402 0.0000 0.0000 0.0000
# 4 0.0000 0.0000 0.0000 17.8884 0.0000 0.0000
# 5 0.0000 0.0000 0.0000 0.0000 28.2998 0.0000
# 6 0.0000 0.0000 0.0000 0.0000 0.0000 17.4826
#
#
#
# Elastic Compliance Matrix: (Units=1/GPa)
#
#
# Indices 1 2 3 4 5 6 
#
# 1 0.021579 -0.008582 -0.009006 0.000000 0.000000 0.000000
# 2 -0.008582 0.030003 -0.004458 0.000000 0.000000 0.000000
# 3 -0.009006 -0.004458 0.015369 0.000000 0.000000 0.000000
# 4 0.000000 0.000000 0.000000 0.055902 0.000000 0.000000
# 5 0.000000 0.000000 0.000000 0.000000 0.035336 0.000000
# 6 0.000000 0.000000 0.000000 0.000000 0.000000 0.057200
#
#
# Mechanical properties :
#
#
# Convention : Reuss Voigt Hill
#
# Bulk Modulus (GPa) = 43.74573 54.29075 49.01824
# Shear Modulus (GPa) = 18.71954 20.47500 19.59727
#
# Velocity S-wave (km/s) = 3.57582 3.73973 3.65870
# Velocity P-wave (km/s) = 6.85051 7.46533 7.16452
#
# Compressibility (1/GPa) = 0.02285937
#
# Stress axis : x y z
#
# Youngs Moduli (GPa) = 46.34170 33.32950 65.06663
#
# Poissons Ratio (x) = 0.28602 0.58598
# Poissons Ratio (y) = 0.39769 0.29009
# Poissons Ratio (z) = 0.41735 0.14859
#
# Static dielectric constant tensor:
#      x y z
#    x 1.494880 0.000000 0.000000 
#    y 0.000000 1.474430 0.000000 
#    z 0.000000 0.000000 1.481070 
# 
# From -- ./inp_files/26622.got.cif
#   From: 2010.05.17/outbox.cif.g08.bks.cpg/sg59_14_cif.got.tgz:26622.got - 2010.06.03 14:40:33.
