data_PCOD9447965
_publ_section_title
;
Structure prediction by ZEFSAII (Michael W. Deem and Ramdas Pophale) SiO2 
 PCOD9447965
Probable space group: P M M N
;
_chemical_formula_sum "Si O2"
_cell_formula_units_Z 56
_cell_length_a 13.586665
_cell_length_b 13.777643
_cell_length_c 15.291150
_cell_angle_alpha 90.000000
_cell_angle_beta 90.000000
_cell_angle_gamma 90.000000
_cell_volume 2862.384314
_symmetry_space_group_name_H-M "P M M N"
_symmetry_group_IT_number 59
_space_group.IT_coordinate_system_code '2'
_symmetry_cell_setting 'orthorhombic'
loop_
_space_group_symop_operation_xyz
x,y,z
1/2-x,1/2-y,z
1/2+x,-y,-z
-x,1/2+y,-z
-x,-y,-z
1/2+x,1/2+y,-z
1/2-x,y,z
x,1/2-y,z
loop_
_atom_site_type_symbol
_atom_site_label
_atom_site_fract_x
_atom_site_fract_y
_atom_site_fract_z
Si Si1 0.369657 0.853835 0.680293
Si Si2 0.134331 0.935187 0.855682
Si Si3 0.546989 0.366039 0.591413
Si Si4 0.862488 0.367137 0.776983
Si Si5 0.137876 0.353570 0.873967
Si Si6 0.441303 0.638639 0.034533
Si Si7 0.134495 0.015388 0.542970
O O1 0.250000 0.854057 0.682373
O O2 0.401823 0.750000 0.644097
O O3 0.404640 0.867318 0.779308
O O4 0.396711 0.944360 0.622166
O O5 0.250000 0.914587 0.868231
O O6 0.125872 0.046307 0.823042
O O7 0.085311 0.920627 0.949021
O O8 0.568088 0.250000 0.578327
O O9 0.567562 0.387106 0.694238
O O10 0.438705 0.393864 0.554608
O O11 0.615180 0.443628 0.539328
O O12 0.750000 0.399358 0.760523
O O13 0.861225 0.250000 0.783848
O O14 0.898520 0.400218 0.873104
O O15 0.250000 0.354498 0.906036
O O16 0.121943 0.250000 0.826282
O O17 0.057886 0.356448 0.949845
O O18 0.405173 0.750000 0.022007
O O19 0.250000 0.039854 0.548168
#
# Coordination Sequence:
#
# PCOD9447965 Si02
#       7
#     8   8   8   8   8   8   8
#     4   9  18  32  51  77 107 138 175 220 270 325
#     4  10  19  31  50  76 103 136 177 222 272 321
#     4  10  21  37  58  84 112 145 185 227 276 331
#     4   9  18  32  51  77 107 138 175 220 270 325
#     4   9  19  34  48  66  98 139 181 222 265 321
#     4  10  19  31  50  76 103 136 177 222 272 321
#     4  10  21  37  58  84 112 145 185 227 276 331
#
# _framework density 19.564109999999999
#
# number of rings (size 3 to 8) (size 9 to 14) (size 15 to 20)
#    0.000    2.429    0.000    2.143    2.000    3.143 
#    0.000    0.000    0.000    0.000    0.000    0.000 
#    0.000    0.000    0.000    0.000    0.000    0.000 
#
# Total GULP energy -311823.910859 kJ/mol
# GULP energy per Si atom -5568.284122 kJ/mol
# Density = 1.951958 g / cm^3
# Si number density = 19.564110 Si / 1000 Ang^3
#
#
#
# Elastic Constant Matrix: (Units=GPa)
#
#
# Indices 1 2 3 4 5 6 
#
# 1 70.1335 5.6907 6.7898 0.0000 0.0000 0.0000
# 2 5.6907 59.8537 15.0022 0.0000 0.0000 0.0000
# 3 6.7898 15.0022 88.5456 0.0000 0.0000 0.0000
# 4 0.0000 0.0000 0.0000 17.9979 0.0000 0.0000
# 5 0.0000 0.0000 0.0000 0.0000 12.5315 0.0000
# 6 0.0000 0.0000 0.0000 0.0000 0.0000 13.2262
#
#
#
# Elastic Compliance Matrix: (Units=1/GPa)
#
#
# Indices 1 2 3 4 5 6 
#
# 1 0.014440 -0.001144 -0.000913 0.000000 0.000000 0.000000
# 2 -0.001144 0.017539 -0.002884 0.000000 0.000000 0.000000
# 3 -0.000913 -0.002884 0.011852 0.000000 0.000000 0.000000
# 4 0.000000 0.000000 0.000000 0.055562 0.000000 0.000000
# 5 0.000000 0.000000 0.000000 0.000000 0.079799 0.000000
# 6 0.000000 0.000000 0.000000 0.000000 0.000000 0.075608
#
#
# Mechanical properties :
#
#
# Convention : Reuss Voigt Hill
#
# Bulk Modulus (GPa) = 29.45638 30.38868 29.92253
# Shear Modulus (GPa) = 18.11603 21.48778 19.80190
#
# Velocity S-wave (km/s) = 3.04630 3.31770 3.18489
# Velocity P-wave (km/s) = 5.24044 5.49934 5.37145
#
# Compressibility (1/GPa) = 0.03394850
#
# Stress axis : x y z
#
# Youngs Moduli (GPa) = 69.25311 57.01581 84.37201
#
# Poissons Ratio (x) = 0.06522 0.07707
# Poissons Ratio (y) = 0.07922 0.24332
# Poissons Ratio (z) = 0.06326 0.16443
#
# Static dielectric constant tensor:
#      x y z
#    x 1.711740 0.000000 0.000000 
#    y 0.000000 1.767710 0.000000 
#    z 0.000000 0.000000 1.687590 
# 
# From -- ./inp_files/23339.got.cif
#   From: 2010.05.17/outbox.cif.g08.bks.cpg/sg59_12_cif.got.tgz:23339.got - 2010.06.03 14:40:33.
