data_PCOD9447794
_publ_section_title
;
Structure prediction by ZEFSAII (Michael W. Deem and Ramdas Pophale) SiO2 
 PCOD9447794
Probable space group: P M M N
;
_chemical_formula_sum "Si O2"
_cell_formula_units_Z 64
_cell_length_a 20.369381
_cell_length_b 20.430617
_cell_length_c 8.644346
_cell_angle_alpha 90.000000
_cell_angle_beta 90.000000
_cell_angle_gamma 90.000000
_cell_volume 3597.422575
_symmetry_space_group_name_H-M "P M M N"
_symmetry_group_IT_number 59
_space_group.IT_coordinate_system_code '2'
_symmetry_cell_setting 'orthorhombic'
loop_
_space_group_symop_operation_xyz
x,y,z
1/2-x,1/2-y,z
1/2+x,-y,-z
-x,1/2+y,-z
-x,-y,-z
1/2+x,1/2+y,-z
1/2-x,y,z
x,1/2-y,z
loop_
_atom_site_type_symbol
_atom_site_label
_atom_site_fract_x
_atom_site_fract_y
_atom_site_fract_z
Si Si1 0.885636 0.054035 0.811338
Si Si2 0.482058 0.409213 0.633826
Si Si3 0.056336 0.820676 0.588373
Si Si4 0.057820 0.619142 0.904263
Si Si5 0.930534 0.828858 0.077635
Si Si6 0.327190 0.436084 0.995252
Si Si7 0.176768 0.885679 0.474923
Si Si8 0.116775 0.989058 0.710240
O O1 0.832776 0.078571 0.688267
O O2 0.955579 0.057744 0.721440
O O3 0.864284 0.984589 0.883783
O O4 0.894378 0.106628 0.950805
O O5 0.508298 0.375818 0.478717
O O6 0.452077 0.355296 0.752304
O O7 0.425322 0.461689 0.606984
O O8 0.026301 0.750000 0.565721
O O9 0.074953 0.831320 0.766846
O O10 0.122292 0.829677 0.489447
O O11 0.063763 0.549529 0.816756
O O12 0.988406 0.642530 0.968953
O O13 0.926862 0.750000 0.071776
O O14 0.864984 0.867111 0.024038
O O15 0.250000 0.430218 0.030558
O O16 0.337551 0.472037 0.829451
O O17 0.250000 0.862481 0.497898
O O18 0.156339 0.937955 0.607114
#
# Coordination Sequence:
#
# PCOD9447794 Si02
#       8
#     8   8   8   8   8   8   8   8
#     4   9  18  32  50  73  98 123 158 202 247 286
#     4   9  18  32  51  74  97 122 157 203 250 287
#     4  10  20  33  51  73  98 128 160 197 239 287
#     4   9  18  32  50  73  98 123 158 202 247 286
#     4  10  19  31  48  70  99 132 163 197 236 284
#     4  10  19  31  48  70  99 132 163 197 236 284
#     4  10  20  33  51  73  98 128 160 197 239 287
#     4   9  18  32  51  74  97 122 157 203 250 287
#
# _framework density 17.790514999999999
#
# number of rings (size 3 to 8) (size 9 to 14) (size 15 to 20)
#    0.000    2.500    0.000    2.250    0.000    9.000 
#    0.000    1.250    0.000    0.000    0.000    0.000 
#    0.000    6.000    0.000    0.000    0.000    0.000 
#
# Total GULP energy -356450.410811 kJ/mol
# GULP energy per Si atom -5569.537669 kJ/mol
# Density = 1.775002 g / cm^3
# Si number density = 17.790515 Si / 1000 Ang^3
#
#
#
# Elastic Constant Matrix: (Units=GPa)
#
#
# Indices 1 2 3 4 5 6 
#
# 1 52.0973 20.4400 -3.8921 0.0000 0.0000 0.0000
# 2 20.4400 66.5478 6.5685 0.0000 0.0000 0.0000
# 3 -3.8921 6.5685 57.8758 0.0000 0.0000 0.0000
# 4 0.0000 0.0000 0.0000 9.6891 0.0000 0.0000
# 5 0.0000 0.0000 0.0000 0.0000 15.4791 0.0000
# 6 0.0000 0.0000 0.0000 0.0000 0.0000 10.3343
#
#
#
# Elastic Compliance Matrix: (Units=1/GPa)
#
#
# Indices 1 2 3 4 5 6 
#
# 1 0.022119 -0.007019 0.002284 0.000000 0.000000 0.000000
# 2 -0.007019 0.017425 -0.002450 0.000000 0.000000 0.000000
# 3 0.002284 -0.002450 0.017710 0.000000 0.000000 0.000000
# 4 0.000000 0.000000 0.000000 0.103209 0.000000 0.000000
# 5 0.000000 0.000000 0.000000 0.000000 0.064603 0.000000
# 6 0.000000 0.000000 0.000000 0.000000 0.000000 0.096766
#
#
# Mechanical properties :
#
#
# Convention : Reuss Voigt Hill
#
# Bulk Modulus (GPa) = 23.31850 24.75040 24.03445
# Shear Modulus (GPa) = 14.26550 17.32747 15.79649
#
# Velocity S-wave (km/s) = 2.83479 3.12424 2.98303
# Velocity P-wave (km/s) = 4.88369 5.19200 5.04020
#
# Compressibility (1/GPa) = 0.04288441
#
# Stress axis : x y z
#
# Youngs Moduli (GPa) = 45.20898 57.39027 56.46523
#
# Poissons Ratio (x) = 0.40284 -0.12898
# Poissons Ratio (y) = 0.31734 0.13832
# Poissons Ratio (z) = -0.10327 0.14058
#
# Static dielectric constant tensor:
#      x y z
#    x 1.596290 0.000000 0.000000 
#    y 0.000000 1.619770 0.000000 
#    z 0.000000 0.000000 1.635700 
# 
# From -- ./inp_files/10679.got.cif
#   From: 2010.05.17/outbox.cif.g08.bks.cpg/sg59_6_cif.got.tgz:10679.got - 2010.06.03 14:40:33.
