data_PCOD9447783
_publ_section_title
;
Structure prediction by ZEFSAII (Michael W. Deem and Ramdas Pophale) SiO2 
 PCOD9447783
Probable space group: P M M N
;
_chemical_formula_sum "Si O2"
_cell_formula_units_Z 64
_cell_length_a 9.119430
_cell_length_b 29.018668
_cell_length_c 15.820199
_cell_angle_alpha 90.000000
_cell_angle_beta 90.000000
_cell_angle_gamma 90.000000
_cell_volume 4186.557978
_symmetry_space_group_name_H-M "P M M N"
_symmetry_group_IT_number 59
_space_group.IT_coordinate_system_code '2'
_symmetry_cell_setting 'orthorhombic'
loop_
_space_group_symop_operation_xyz
x,y,z
1/2-x,1/2-y,z
1/2+x,-y,-z
-x,1/2+y,-z
-x,-y,-z
1/2+x,1/2+y,-z
1/2-x,y,z
x,1/2-y,z
loop_
_atom_site_type_symbol
_atom_site_label
_atom_site_fract_x
_atom_site_fract_y
_atom_site_fract_z
Si Si1 0.573971 0.304147 0.331253
Si Si2 0.425619 0.352008 0.838141
Si Si3 0.426225 0.862047 0.834196
Si Si4 0.575582 0.194924 0.678214
Si Si5 0.075164 0.695662 0.002291
Si Si6 0.581438 0.805943 0.495367
Si Si7 0.924687 0.547663 0.896663
Si Si8 0.924853 0.952276 0.096039
O O1 0.750000 0.306959 0.342328
O O2 0.539246 0.250000 0.316066
O O3 0.532370 0.334563 0.250453
O O4 0.495257 0.319721 0.417150
O O5 0.250000 0.347249 0.833821
O O6 0.499521 0.331805 0.754566
O O7 0.460710 0.405840 0.853712
O O8 0.487027 0.324536 0.918951
O O9 0.250000 0.867995 0.833520
O O10 0.462780 0.831320 0.916502
O O11 0.503122 0.911098 0.844646
O O12 0.750000 0.187798 0.678671
O O13 0.549394 0.250000 0.688845
O O14 0.507277 0.180452 0.588295
O O15 0.250000 0.689587 0.017485
O O16 0.047880 0.750000 0.992401
O O17 0.750000 0.821240 0.491196
O O18 0.580729 0.750000 0.495835
O O19 0.750000 0.547949 0.887386
O O20 0.990014 0.497692 0.875072
O O21 0.959482 0.555488 0.996531
O O22 0.750000 0.960440 0.101597
#
# Coordination Sequence:
#
# PCOD9447783 Si02
#       8
#     8   8   8   8   8   8   8   8
#     4   9  17  30  48  70  97 130 166 200 235 280
#     4  11  21  33  48  69  96 126 160 199 242 286
#     4  10  19  31  48  69  96 130 164 198 238 282
#     4  10  20  33  49  70  97 129 164 199 235 282
#     4  10  20  32  45  64  94 132 169 198 227 273
#     4   9  17  30  48  70  95 124 159 201 246 283
#     4  10  19  32  50  70  92 120 159 204 246 286
#     4   9  19  34  49  67  92 122 158 200 246 290
#
# _framework density 15.287020999999999
#
# number of rings (size 3 to 8) (size 9 to 14) (size 15 to 20)
#    0.000    2.250    1.250    2.250    0.000    7.500 
#    0.000    0.000    0.000    2.250    0.000    0.875 
#    0.000    0.000    0.000    0.000    0.000    0.000 
#
# Total GULP energy -357034.266147 kJ/mol
# GULP energy per Si atom -5578.660409 kJ/mol
# Density = 1.525223 g / cm^3
# Si number density = 15.287021 Si / 1000 Ang^3
#
#
#
# Elastic Constant Matrix: (Units=GPa)
#
#
# Indices 1 2 3 4 5 6 
#
# 1 57.1836 55.5687 63.2232 0.0000 0.0000 0.0000
# 2 55.5687 94.2900 64.9030 0.0000 0.0000 0.0000
# 3 63.2232 64.9030 133.6414 0.0000 0.0000 0.0000
# 4 0.0000 0.0000 0.0000 6.6301 0.0000 0.0000
# 5 0.0000 0.0000 0.0000 0.0000 21.1707 0.0000
# 6 0.0000 0.0000 0.0000 0.0000 0.0000 24.0330
#
#
#
# Elastic Compliance Matrix: (Units=1/GPa)
#
#
# Indices 1 2 3 4 5 6 
#
# 1 0.057390 -0.022733 -0.016110 0.000000 0.000000 0.000000
# 2 -0.022733 0.024936 -0.001356 0.000000 0.000000 0.000000
# 3 -0.016110 -0.001356 0.015762 0.000000 0.000000 0.000000
# 4 0.000000 0.000000 0.000000 0.150827 0.000000 0.000000
# 5 0.000000 0.000000 0.000000 0.000000 0.047235 0.000000
# 6 0.000000 0.000000 0.000000 0.000000 0.000000 0.041609
#
#
# Mechanical properties :
#
#
# Convention : Reuss Voigt Hill
#
# Bulk Modulus (GPa) = 56.52483 72.50051 64.51267
# Shear Modulus (GPa) = 11.79094 17.12809 14.45952
#
# Velocity S-wave (km/s) = 2.78025 3.35092 3.07883
# Velocity P-wave (km/s) = 6.88203 7.90574 7.41158
#
# Compressibility (1/GPa) = 0.01769134
#
# Stress axis : x y z
#
# Youngs Moduli (GPa) = 17.42467 40.10224 63.44262
#
# Poissons Ratio (x) = 0.91165 1.02204
# Poissons Ratio (y) = 0.39612 0.08601
# Poissons Ratio (z) = 0.28071 0.05436
#
# Static dielectric constant tensor:
#      x y z
#    x 1.508130 0.000000 0.000000 
#    y 0.000000 1.487540 0.000000 
#    z 0.000000 0.000000 1.487840 
# 
# From -- ./inp_files/21957.got.cif
#   From: 2010.05.17/outbox.cif.g08.bks.cpg/sg59_11_cif.got.tgz:21957.got - 2010.06.03 14:40:33.
