data_PCOD9447857
_publ_section_title
;
Structure prediction by ZEFSAII (Michael W. Deem and Ramdas Pophale) SiO2 
 PCOD9447857
Probable space group: P M M N
;
_chemical_formula_sum "Si O2"
_cell_formula_units_Z 64
_cell_length_a 14.656013
_cell_length_b 8.827099
_cell_length_c 28.933333
_cell_angle_alpha 90.000000
_cell_angle_beta 90.000000
_cell_angle_gamma 90.000000
_cell_volume 3743.107538
_symmetry_space_group_name_H-M "P M M N"
_symmetry_group_IT_number 59
_space_group.IT_coordinate_system_code '2'
_symmetry_cell_setting 'orthorhombic'
loop_
_space_group_symop_operation_xyz
x,y,z
1/2-x,1/2-y,z
1/2+x,-y,-z
-x,1/2+y,-z
-x,-y,-z
1/2+x,1/2+y,-z
1/2-x,y,z
x,1/2-y,z
loop_
_atom_site_type_symbol
_atom_site_label
_atom_site_fract_x
_atom_site_fract_y
_atom_site_fract_z
Si Si1 0.143614 0.431262 0.196164
Si Si2 0.971465 0.430562 0.886620
Si Si3 0.358666 0.428495 0.029142
Si Si4 0.353748 0.567652 0.570785
Si Si5 0.644177 0.430902 0.703042
Si Si6 0.356222 0.568986 0.928450
Si Si7 0.642344 0.930257 0.527467
Si Si8 0.967745 0.933156 0.619268
O O1 0.250000 0.467254 0.185329
O O2 0.133664 0.250000 0.194795
O O3 0.078201 0.506860 0.158793
O O4 0.125276 0.492433 0.247574
O O5 0.972701 0.250000 0.886522
O O6 0.914387 0.491033 0.930607
O O7 0.073045 0.495668 0.893115
O O8 0.250000 0.442952 0.037999
O O9 0.381172 0.250000 0.027927
O O10 0.376969 0.502403 0.979342
O O11 0.250000 0.513761 0.578867
O O12 0.352714 0.750000 0.569599
O O13 0.383822 0.511243 0.520153
O O14 0.427761 0.522399 0.608912
O O15 0.750000 0.467141 0.690851
O O16 0.636545 0.250000 0.707371
O O17 0.578047 0.492231 0.663503
O O18 0.250000 0.534398 0.918428
O O19 0.367244 0.750000 0.929354
O O20 0.750000 0.959109 0.534874
O O21 0.629571 0.750000 0.521427
O O22 0.587621 0.976869 0.572905
O O23 0.962377 0.750000 0.623702
#
# Coordination Sequence:
#
# PCOD9447857 Si02
#       8
#     8   8   8   8   8   8   8   8
#     4  10  21  38  59  81 106 135 166 203 250 305
#     4  12  23  34  53  79 108 140 174 214 258 307
#     4  10  20  34  52  76 108 143 179 218 259 306
#     4   9  18  31  46  67  97 132 170 210 248 286
#     4  10  21  36  54  78 105 129 157 199 251 304
#     4  10  21  37  55  75 103 140 181 222 261 303
#     4   9  17  28  43  66  96 129 166 206 248 296
#     4  10  19  31  49  71  97 132 169 204 246 298
#
# _framework density 17.098092000000001
#
# number of rings (size 3 to 8) (size 9 to 14) (size 15 to 20)
#    0.000    2.000    0.000    4.125    0.000    6.000 
#    0.000    1.250    0.000    0.750    0.000    1.750 
#    0.000    0.000    0.000    0.000    0.000    0.000 
#
# Total GULP energy -357449.075404 kJ/mol
# GULP energy per Si atom -5585.141803 kJ/mol
# Density = 1.705918 g / cm^3
# Si number density = 17.098092 Si / 1000 Ang^3
#
#
#
# Elastic Constant Matrix: (Units=GPa)
#
#
# Indices 1 2 3 4 5 6 
#
# 1 107.2997 58.8762 93.1107 0.0000 0.0000 0.0000
# 2 58.8762 73.1291 56.2774 0.0000 0.0000 0.0000
# 3 93.1107 56.2774 114.6783 0.0000 0.0000 0.0000
# 4 0.0000 0.0000 0.0000 33.2455 0.0000 0.0000
# 5 0.0000 0.0000 0.0000 0.0000 33.5050 0.0000
# 6 0.0000 0.0000 0.0000 0.0000 0.0000 22.5512
#
#
#
# Elastic Compliance Matrix: (Units=1/GPa)
#
#
# Indices 1 2 3 4 5 6 
#
# 1 0.035866 -0.010389 -0.024022 0.000000 0.000000 0.000000
# 2 -0.010389 0.024982 -0.003825 0.000000 0.000000 0.000000
# 3 -0.024022 -0.003825 0.030101 0.000000 0.000000 0.000000
# 4 0.000000 0.000000 0.000000 0.030079 0.000000 0.000000
# 5 0.000000 0.000000 0.000000 0.000000 0.029846 0.000000
# 6 0.000000 0.000000 0.000000 0.000000 0.000000 0.044343
#
#
# Mechanical properties :
#
#
# Convention : Reuss Voigt Hill
#
# Bulk Modulus (GPa) = 69.07278 79.07064 74.07171
# Shear Modulus (GPa) = 18.08221 23.64986 20.86604
#
# Velocity S-wave (km/s) = 3.25554 3.72316 3.49717
# Velocity P-wave (km/s) = 7.39033 8.05160 7.72804
#
# Compressibility (1/GPa) = 0.01447748
#
# Stress axis : x y z
#
# Youngs Moduli (GPa) = 27.88177 40.02918 33.22122
#
# Poissons Ratio (x) = 0.41586 0.79805
# Poissons Ratio (y) = 0.28966 0.12706
# Poissons Ratio (z) = 0.66978 0.15309
#
# Static dielectric constant tensor:
#      x y z
#    x 1.603020 0.000000 0.000000 
#    y 0.000000 1.568650 0.000000 
#    z 0.000000 0.000000 1.537320 
# 
# From -- ./inp_files/32230.got.cif
#   From: 2010.05.17/outbox.cif.g08.bks.cpg/sg59_17_cif.got.tgz:32230.got - 2010.06.03 14:40:33.
