data_PCOD9447076
_publ_section_title
;
Structure prediction by ZEFSAII (Michael W. Deem and Ramdas Pophale) SiO2 
 PCOD9447076
Probable space group: P M M N
;
_chemical_formula_sum "Si O2"
_cell_formula_units_Z 56
_cell_length_a 8.853905
_cell_length_b 21.227928
_cell_length_c 16.395149
_cell_angle_alpha 90.000000
_cell_angle_beta 90.000000
_cell_angle_gamma 90.000000
_cell_volume 3081.469203
_symmetry_space_group_name_H-M "P M M N"
_symmetry_group_IT_number 59
_space_group.IT_coordinate_system_code '2'
_symmetry_cell_setting 'orthorhombic'
loop_
_space_group_symop_operation_xyz
x,y,z
1/2-x,1/2-y,z
1/2+x,-y,-z
-x,1/2+y,-z
-x,-y,-z
1/2+x,1/2+y,-z
1/2-x,y,z
x,1/2-y,z
loop_
_atom_site_type_symbol
_atom_site_label
_atom_site_fract_x
_atom_site_fract_y
_atom_site_fract_z
Si Si1 0.927949 0.002030 0.588615
Si Si2 0.427445 0.250000 0.723822
Si Si3 0.431923 0.128492 0.983646
Si Si4 0.069153 0.075977 0.255796
Si Si5 0.923936 0.611376 0.316937
Si Si6 0.569129 0.323955 0.149172
Si Si7 0.427475 0.464628 0.846798
Si Si8 0.928500 0.250000 0.896506
O O1 0.750000 0.994270 0.580591
O O2 0.981022 0.950466 0.655749
O O3 0.000000 0.000000 0.500000
O O4 0.967586 0.068517 0.630148
O O5 0.250000 0.250000 0.751477
O O6 0.450483 0.314599 0.675859
O O7 0.536091 0.250000 0.801111
O O8 0.250000 0.130114 0.986254
O O9 0.476180 0.066178 0.932327
O O10 0.494671 0.188548 0.934733
O O11 0.499299 0.137912 0.073111
O O12 0.250000 0.081709 0.254928
O O13 0.992649 0.140896 0.228972
O O14 0.019698 0.022650 0.190068
O O15 0.750000 0.597326 0.339980
O O16 0.939107 0.590101 0.222355
O O17 0.750000 0.327520 0.145680
O O18 0.526036 0.250000 0.144250
O O19 0.250000 0.482307 0.852137
O O20 0.750000 0.250000 0.913929
#
# Coordination Sequence:
#
# PCOD9447076 Si02
#       8
#     8   4   8   8   8   8   8   4
#     4  10  21  38  62  89 113 139 179 224 275 338
#     4  10  18  32  52  78 113 154 191 224 270 332
#     4  11  21  35  55  78 109 153 200 240 280 326
#     4  10  22  39  60  86 113 144 182 227 282 341
#     4   9  17  31  53  81 113 148 185 223 270 325
#     4  11  24  40  58  82 110 146 193 241 286 331
#     4   9  18  33  54  80 111 148 189 232 278 325
#     4  12  22  30  46  76 113 152 195 240 278 318
#
# _framework density 18.17315
#
# number of rings (size 3 to 8) (size 9 to 14) (size 15 to 20)
#    0.000    1.857    2.143    2.357    0.000    4.857 
#    0.000    0.000    1.571    0.000    0.000    0.000 
#    0.000    0.000    0.000    0.000    0.000    0.000 
#
# Total GULP energy -312601.532643 kJ/mol
# GULP energy per Si atom -5582.170226 kJ/mol
# Density = 1.813179 g / cm^3
# Si number density = 18.173150 Si / 1000 Ang^3
#
#
#
# Elastic Constant Matrix: (Units=GPa)
#
#
# Indices 1 2 3 4 5 6 
#
# 1 47.8221 23.2126 40.2421 0.0000 0.0000 0.0000
# 2 23.2126 57.1141 47.4256 0.0000 0.0000 0.0000
# 3 40.2421 47.4256 107.2922 0.0000 0.0000 0.0000
# 4 0.0000 0.0000 0.0000 12.2352 0.0000 0.0000
# 5 0.0000 0.0000 0.0000 0.0000 28.6699 0.0000
# 6 0.0000 0.0000 0.0000 0.0000 0.0000 24.4620
#
#
#
# Elastic Compliance Matrix: (Units=1/GPa)
#
#
# Indices 1 2 3 4 5 6 
#
# 1 0.031334 -0.004702 -0.009674 0.000000 0.000000 0.000000
# 2 -0.004702 0.028367 -0.010776 0.000000 0.000000 0.000000
# 3 -0.009674 -0.010776 0.017712 0.000000 0.000000 0.000000
# 4 0.000000 0.000000 0.000000 0.081731 0.000000 0.000000
# 5 0.000000 0.000000 0.000000 0.000000 0.034880 0.000000
# 6 0.000000 0.000000 0.000000 0.000000 0.000000 0.040880
#
#
# Mechanical properties :
#
#
# Convention : Reuss Voigt Hill
#
# Bulk Modulus (GPa) = 36.88652 48.22098 42.55375
# Shear Modulus (GPa) = 16.99275 19.82996 18.41136
#
# Velocity S-wave (km/s) = 3.06117 3.30687 3.18639
# Velocity P-wave (km/s) = 5.73024 6.41656 6.08309
#
# Compressibility (1/GPa) = 0.02711017
#
# Stress axis : x y z
#
# Youngs Moduli (GPa) = 31.91447 35.25174 56.45951
#
# Poissons Ratio (x) = 0.16575 0.54619
# Poissons Ratio (y) = 0.15006 0.60838
# Poissons Ratio (z) = 0.30874 0.37986
#
# Static dielectric constant tensor:
#      x y z
#    x 1.621690 0.000000 0.000000 
#    y 0.000000 1.636090 0.000000 
#    z 0.000000 0.000000 1.627970 
# 
# From -- ./inp_files/21210.got.cif
#   From: 2010.05.17/outbox.cif.g08.bks.cpg/sg59_11_cif.got.tgz:21210.got - 2010.06.03 14:40:33.
