data_PCOD9447872
_publ_section_title
;
Structure prediction by ZEFSAII (Michael W. Deem and Ramdas Pophale) SiO2 
 PCOD9447872
Probable space group: P M M N
;
_chemical_formula_sum "Si O2"
_cell_formula_units_Z 48
_cell_length_a 26.328869
_cell_length_b 7.461907
_cell_length_c 12.184255
_cell_angle_alpha 90.000000
_cell_angle_beta 90.000000
_cell_angle_gamma 90.000000
_cell_volume 2393.762258
_symmetry_space_group_name_H-M "P M M N"
_symmetry_group_IT_number 59
_space_group.IT_coordinate_system_code '2'
_symmetry_cell_setting 'orthorhombic'
loop_
_space_group_symop_operation_xyz
x,y,z
1/2-x,1/2-y,z
1/2+x,-y,-z
-x,1/2+y,-z
-x,-y,-z
1/2+x,1/2+y,-z
1/2-x,y,z
x,1/2-y,z
loop_
_atom_site_type_symbol
_atom_site_label
_atom_site_fract_x
_atom_site_fract_y
_atom_site_fract_z
Si Si1 0.497416 0.462742 0.629051
Si Si2 0.692268 0.031128 0.380531
Si Si3 0.095436 0.969397 0.233136
Si Si4 0.439896 0.964935 0.996409
Si Si5 0.192521 0.531561 0.367880
Si Si6 0.398695 0.958054 0.766728
O O1 0.500000 0.500000 0.500000
O O2 0.495120 0.250000 0.644411
O O3 0.547945 0.526886 0.691600
O O4 0.447022 0.537006 0.685997
O O5 0.750000 0.978471 0.353484
O O6 0.690940 0.250000 0.380679
O O7 0.681440 0.977222 0.506366
O O8 0.649781 0.964647 0.296657
O O9 0.095550 0.750000 0.233400
O O10 0.085623 0.029572 0.108846
O O11 0.148329 0.028087 0.286565
O O12 0.434478 0.750000 0.995182
O O13 0.415619 0.036308 0.883766
O O14 0.500000 0.000000 0.000000
O O15 0.250000 0.475024 0.340239
O O16 0.192461 0.750000 0.366951
O O17 0.386190 0.750000 0.787261
#
# Coordination Sequence:
#
# PCOD9447872 Si02
#       6
#     8   8   8   8   8   8
#     4  11  21  32  48  70  99 129 158 200 249 297
#     4   8  14  26  45  69  96 126 159 198 246 293
#     4   9  17  29  44  65  94 125 157 194 238 283
#     4  10  19  32  48  67  95 130 164 199 240 288
#     4   8  13  23  41  63  89 122 156 190 234 288
#     4  10  19  31  49  72  97 126 165 205 242 290
#
# _framework density 20.052115000000001
#
# number of rings (size 3 to 8) (size 9 to 14) (size 15 to 20)
#    0.000    2.667    1.667    2.500    0.000    2.667 
#    0.000    0.833    0.000    5.500    0.000    0.000 
#    0.000    6.667    0.000    0.000    0.000    0.000 
#
# Total GULP energy -267945.848681 kJ/mol
# GULP energy per Si atom -5582.205181 kJ/mol
# Density = 2.000648 g / cm^3
# Si number density = 20.052115 Si / 1000 Ang^3
#
#
#
# Elastic Constant Matrix: (Units=GPa)
#
#
# Indices 1 2 3 4 5 6 
#
# 1 187.5774 0.4166 135.5080 0.0000 0.0000 0.0000
# 2 0.4166 59.6743 0.1441 0.0000 0.0000 0.0000
# 3 135.5080 0.1441 204.5728 0.0000 0.0000 0.0000
# 4 0.0000 0.0000 0.0000 3.9764 0.0000 0.0000
# 5 0.0000 0.0000 0.0000 0.0000 29.6984 0.0000
# 6 0.0000 0.0000 0.0000 0.0000 0.0000 11.7452
#
#
#
# Elastic Compliance Matrix: (Units=1/GPa)
#
#
# Indices 1 2 3 4 5 6 
#
# 1 0.010223 -0.000055 -0.006772 0.000000 0.000000 0.000000
# 2 -0.000055 0.016758 0.000025 0.000000 0.000000 0.000000
# 3 -0.006772 0.000025 0.009374 0.000000 0.000000 0.000000
# 4 0.000000 0.000000 0.000000 0.251482 0.000000 0.000000
# 5 0.000000 0.000000 0.000000 0.000000 0.033672 0.000000
# 6 0.000000 0.000000 0.000000 0.000000 0.000000 0.085142
#
#
# Mechanical properties :
#
#
# Convention : Reuss Voigt Hill
#
# Bulk Modulus (GPa) = 43.95472 80.44022 62.19747
# Shear Modulus (GPa) = 11.68664 30.13438 20.91051
#
# Velocity S-wave (km/s) = 2.41677 3.88081 3.23276
# Velocity P-wave (km/s) = 5.45486 7.76425 6.70966
#
# Compressibility (1/GPa) = 0.02275069
#
# Stress axis : x y z
#
# Youngs Moduli (GPa) = 97.81582 59.67315 106.67990
#
# Poissons Ratio (x) = 0.00328 0.72242
# Poissons Ratio (y) = 0.00538 -0.00263
# Poissons Ratio (z) = 0.66239 -0.00147
#
# Static dielectric constant tensor:
#      x y z
#    x 1.675020 0.000000 0.000000 
#    y 0.000000 1.826050 0.000000 
#    z 0.000000 0.000000 1.690250 
# 
# From -- ./inp_files/14374.got.cif
#   From: 2010.05.17/outbox.cif.g08.bks.cpg/sg59_8_cif.got.tgz:14374.got - 2010.06.03 14:40:33.
