data_PCOD9447456
_publ_section_title
;
Structure prediction by ZEFSAII (Michael W. Deem and Ramdas Pophale) SiO2 
 PCOD9447456
Probable space group: P M M N
;
_chemical_formula_sum "Si O2"
_cell_formula_units_Z 48
_cell_length_a 21.516886
_cell_length_b 11.688488
_cell_length_c 7.049370
_cell_angle_alpha 90.000000
_cell_angle_beta 90.000000
_cell_angle_gamma 90.000000
_cell_volume 1772.915595
_symmetry_space_group_name_H-M "P M M N"
_symmetry_group_IT_number 59
_space_group.IT_coordinate_system_code '2'
_symmetry_cell_setting 'orthorhombic'
loop_
_space_group_symop_operation_xyz
x,y,z
1/2-x,1/2-y,z
1/2+x,-y,-z
-x,1/2+y,-z
-x,-y,-z
1/2+x,1/2+y,-z
1/2-x,y,z
x,1/2-y,z
loop_
_atom_site_type_symbol
_atom_site_label
_atom_site_fract_x
_atom_site_fract_y
_atom_site_fract_z
Si Si1 0.370110 0.126563 0.323842
Si Si2 0.011096 0.905914 0.711813
Si Si3 0.342327 0.377292 0.769965
Si Si4 0.014268 0.369708 0.849620
Si Si5 0.656402 0.374349 0.312948
Si Si6 0.820580 0.120246 0.753566
O O1 0.347013 0.250000 0.242561
O O2 0.444305 0.139844 0.341847
O O3 0.346061 0.121887 0.539954
O O4 0.353853 0.005638 0.220194
O O5 0.081018 0.877999 0.656595
O O6 0.998832 0.039879 0.692580
O O7 0.013247 0.887539 0.942725
O O8 0.315523 0.250000 0.815834
O O9 0.411232 0.372847 0.860813
O O10 0.322920 0.510850 0.799106
O O11 0.992860 0.250000 0.774342
O O12 0.671522 0.250000 0.227307
O O13 0.682222 0.376053 0.524535
O O14 0.750000 0.112006 0.825143
O O15 0.845339 0.250000 0.806209
#
# Coordination Sequence:
#
# PCOD9447456 Si02
#       6
#     8   8   8   8   8   8
#     4  10  19  31  49  73 100 126 155 198 245 288
#     4  10  19  29  45  72 102 129 159 196 240 289
#     4   8  16  28  41  62  92 124 155 188 228 272
#     4   9  17  29  43  63  98 137 165 190 227 285
#     4   9  16  27  45  66  91 123 155 190 232 279
#     4   9  19  34  49  68  95 126 161 201 243 285
#
# _framework density 27.074047
#
# number of rings (size 3 to 8) (size 9 to 14) (size 15 to 20)
#    0.000    2.833    0.000    1.500    0.000    7.000 
#    0.000    6.667    0.000    0.000    0.000   18.667 
#    0.000   66.667    0.000    0.000    0.000    0.000 
#
# Total GULP energy -267442.655537 kJ/mol
# GULP energy per Si atom -5571.721990 kJ/mol
# Density = 2.701243 g / cm^3
# Si number density = 27.074047 Si / 1000 Ang^3
#
#
#
# Elastic Constant Matrix: (Units=GPa)
#
#
# Indices 1 2 3 4 5 6 
#
# 1 118.4800 56.2853 7.6863 0.0000 0.0000 0.0000
# 2 56.2853 300.9122 6.6232 0.0000 0.0000 0.0000
# 3 7.6863 6.6232 92.0427 0.0000 0.0000 0.0000
# 4 0.0000 0.0000 0.0000 -2.2632 0.0000 0.0000
# 5 0.0000 0.0000 0.0000 0.0000 25.4306 0.0000
# 6 0.0000 0.0000 0.0000 0.0000 0.0000 -18.1443
#
#
#
# Elastic Compliance Matrix: (Units=1/GPa)
#
#
# Indices 1 2 3 4 5 6 
#
# 1 0.009302 -0.001726 -0.000653 0.000000 0.000000 0.000000
# 2 -0.001726 0.003649 -0.000118 0.000000 0.000000 0.000000
# 3 -0.000653 -0.000118 0.010928 0.000000 0.000000 0.000000
# 4 0.000000 0.000000 0.000000 -0.441848 0.000000 0.000000
# 5 0.000000 0.000000 0.000000 0.000000 0.039323 0.000000
# 6 0.000000 0.000000 0.000000 0.000000 0.000000 -0.055114
#
#
# Mechanical properties :
#
#
# Convention : Reuss Voigt Hill
#
# Bulk Modulus (GPa) = 52.95184 72.51382 62.73283
# Shear Modulus (GPa) = -11.83510 30.39396 9.27943
#
# Velocity S-wave (km/s) = -2.09305 3.35419 1.85334
# Velocity P-wave (km/s) = 3.70937 6.46858 5.27266
#
# Compressibility (1/GPa) = 0.01888508
#
# Stress axis : x y z
#
# Youngs Moduli (GPa) = 107.49959 274.07675 91.51180
#
# Poissons Ratio (x) = 0.47296 0.05972
# Poissons Ratio (y) = 0.18550 0.01084
# Poissons Ratio (z) = 0.07016 0.03246
#
# Static dielectric constant tensor:
#      x y z
#    x 2.061700 0.000000 0.000000 
#    y 0.000000 2.278330 0.000000 
#    z 0.000000 0.000000 2.068330 
# 
# From -- ./inp_files/12015.got.cif
#   From: 2010.05.17/outbox.cif.g08.bks.cpg/sg59_7_cif.got.tgz:12015.got - 2010.06.03 14:40:33.
