data_PCOD9447139
_publ_section_title
;
Structure prediction by ZEFSAII (Michael W. Deem and Ramdas Pophale) SiO2 
 PCOD9447139
Probable space group: P M M N
;
_chemical_formula_sum "Si O2"
_cell_formula_units_Z 32
_cell_length_a 13.926832
_cell_length_b 7.794539
_cell_length_c 13.892848
_cell_angle_alpha 90.000000
_cell_angle_beta 90.000000
_cell_angle_gamma 90.000000
_cell_volume 1508.113596
_symmetry_space_group_name_H-M "P M M N"
_symmetry_group_IT_number 59
_space_group.IT_coordinate_system_code '2'
_symmetry_cell_setting 'orthorhombic'
loop_
_space_group_symop_operation_xyz
x,y,z
1/2-x,1/2-y,z
1/2+x,-y,-z
-x,1/2+y,-z
-x,-y,-z
1/2+x,1/2+y,-z
1/2-x,y,z
x,1/2-y,z
loop_
_atom_site_type_symbol
_atom_site_label
_atom_site_fract_x
_atom_site_fract_y
_atom_site_fract_z
Si Si1 0.603508 0.455068 0.536366
Si Si2 0.750000 0.453916 0.163568
Si Si3 0.750000 0.039721 0.379590
Si Si4 0.141047 0.960089 0.245010
Si Si5 0.466829 0.046996 0.893132
O O1 0.500000 0.500000 0.500000
O O2 0.618158 0.250000 0.541567
O O3 0.664194 0.518929 0.446431
O O4 0.627690 0.517321 0.643756
O O5 0.750000 0.250000 0.166749
O O6 0.750000 0.526073 0.272026
O O7 0.645405 0.498497 0.120021
O O8 0.750000 0.250000 0.373553
O O9 0.250000 0.009974 0.212852
O O10 0.139803 0.750000 0.243414
O O11 0.049319 0.020536 0.181516
O O12 0.469799 0.250000 0.881683
O O13 0.500000 0.000000 0.000000
#
# Coordination Sequence:
#
# PCOD9447139 Si02
#       5
#     8   4   4   8   8
#     4  10  18  32  55  83 116 153 194 235 282 344
#     4  11  23  41  62  87 124 164 201 245 302 365
#     4   9  18  33  56  83 114 154 193 231 282 343
#     4   9  18  35  60  88 118 156 200 244 298 366
#     4  11  24  41  64  92 120 156 204 258 311 367
#
# _framework density 21.21856
#
# number of rings (size 3 to 8) (size 9 to 14) (size 15 to 20)
#    0.000    2.000    1.250    2.625    1.750    0.000 
#    0.000    3.125    0.000    3.000    0.000    0.000 
#    0.000    0.000    0.000    0.000    0.000    0.000 
#
# Total GULP energy -178311.226173 kJ/mol
# GULP energy per Si atom -5572.225818 kJ/mol
# Density = 2.117027 g / cm^3
# Si number density = 21.218560 Si / 1000 Ang^3
#
#
#
# Elastic Constant Matrix: (Units=GPa)
#
#
# Indices 1 2 3 4 5 6 
#
# 1 246.5550 11.0182 112.7836 0.0000 0.0000 0.0000
# 2 11.0182 33.1528 9.2044 0.0000 0.0000 0.0000
# 3 112.7836 9.2044 164.9019 0.0000 0.0000 0.0000
# 4 0.0000 0.0000 0.0000 14.5305 0.0000 0.0000
# 5 0.0000 0.0000 0.0000 0.0000 37.9579 0.0000
# 6 0.0000 0.0000 0.0000 0.0000 0.0000 15.8992
#
#
#
# Elastic Compliance Matrix: (Units=1/GPa)
#
#
# Indices 1 2 3 4 5 6 
#
# 1 0.005926 -0.000858 -0.004006 0.000000 0.000000 0.000000
# 2 -0.000858 0.030762 -0.001131 0.000000 0.000000 0.000000
# 3 -0.004006 -0.001131 0.008867 0.000000 0.000000 0.000000
# 4 0.000000 0.000000 0.000000 0.068821 0.000000 0.000000
# 5 0.000000 0.000000 0.000000 0.000000 0.026345 0.000000
# 6 0.000000 0.000000 0.000000 0.000000 0.000000 0.062896
#
#
# Mechanical properties :
#
#
# Convention : Reuss Voigt Hill
#
# Bulk Modulus (GPa) = 29.78995 78.95801 54.37398
# Shear Modulus (GPa) = 22.04639 34.45109 28.24874
#
# Velocity S-wave (km/s) = 3.22687 4.03380 3.65269
# Velocity P-wave (km/s) = 5.28712 7.68036 6.59324
#
# Compressibility (1/GPa) = 0.03356837
#
# Stress axis : x y z
#
# Youngs Moduli (GPa) = 168.73396 32.50734 112.77947
#
# Poissons Ratio (x) = 0.02788 0.45174
# Poissons Ratio (y) = 0.14470 0.12750
# Poissons Ratio (z) = 0.67587 0.03675
#
# Static dielectric constant tensor:
#      x y z
#    x 1.742640 0.000000 0.000000 
#    y 0.000000 1.879320 0.000000 
#    z 0.000000 0.000000 1.706970 
# 
# From -- ./inp_files/16493.got.cif
#   From: 2010.05.17/outbox.cif.g08.bks.cpg/sg59_9_cif.got.tgz:16493.got - 2010.06.03 14:40:33.
