data_PCOD9447341
_publ_section_title
;
Structure prediction by ZEFSAII (Michael W. Deem and Ramdas Pophale) SiO2 
 PCOD9447341
Probable space group: P M M N
;
_chemical_formula_sum "Si O2"
_cell_formula_units_Z 64
_cell_length_a 17.831814
_cell_length_b 9.177161
_cell_length_c 22.495980
_cell_angle_alpha 90.000000
_cell_angle_beta 90.000000
_cell_angle_gamma 90.000000
_cell_volume 3681.364275
_symmetry_space_group_name_H-M "P M M N"
_symmetry_group_IT_number 59
_space_group.IT_coordinate_system_code '2'
_symmetry_cell_setting 'orthorhombic'
loop_
_space_group_symop_operation_xyz
x,y,z
1/2-x,1/2-y,z
1/2+x,-y,-z
-x,1/2+y,-z
-x,-y,-z
1/2+x,1/2+y,-z
1/2-x,y,z
x,1/2-y,z
loop_
_atom_site_type_symbol
_atom_site_label
_atom_site_fract_x
_atom_site_fract_y
_atom_site_fract_z
Si Si1 0.833069 0.422528 0.629793
Si Si2 0.945636 0.078518 0.325548
Si Si3 0.397481 0.078749 0.258118
Si Si4 0.162847 0.072613 0.892907
Si Si5 0.839717 0.077369 0.857613
Si Si6 0.841519 0.580538 0.978126
Si Si7 0.659571 0.921007 0.237274
Si Si8 0.014896 0.575589 0.437381
O O1 0.750000 0.451570 0.605784
O O2 0.838597 0.250000 0.643566
O O3 0.845943 0.510092 0.690393
O O4 0.900223 0.456640 0.584762
O O5 0.937703 0.250000 0.338124
O O6 0.018387 0.059016 0.283076
O O7 0.876326 0.014606 0.289172
O O8 0.962379 0.991177 0.385907
O O9 0.382606 0.250000 0.251716
O O10 0.382066 0.998859 0.196466
O O11 0.250000 0.026027 0.892527
O O12 0.162941 0.250000 0.893453
O O13 0.131461 0.029878 0.828540
O O14 0.130516 0.027989 0.956914
O O15 0.750000 0.049235 0.851013
O O16 0.851119 0.250000 0.855951
O O17 0.863743 0.013153 0.921336
O O18 0.750000 0.576988 0.981015
O O19 0.862421 0.750000 0.969808
O O20 0.750000 0.930118 0.237256
O O21 0.639911 0.750000 0.244790
O O22 0.005814 0.750000 0.441127
O O23 0.000000 0.500000 0.500000
#
# Coordination Sequence:
#
# PCOD9447341 Si02
#       8
#     8   8   8   8   8   8   8   8
#     4   9  18  33  53  77 103 130 163 204 248 290
#     4  10  21  36  53  75 102 131 164 201 242 290
#     4  10  20  32  47  68  95 129 167 204 242 288
#     4   7  11  22  42  67  92 119 154 197 244 294
#     4  10  19  28  40  63  95 127 160 202 250 295
#     4   8  13  23  40  61  87 121 159 197 240 292
#     4   9  17  31  53  79 103 127 160 203 250 300
#     4  10  20  36  58  80 105 138 171 203 242 292
#
# _framework density 17.38486
#
# number of rings (size 3 to 8) (size 9 to 14) (size 15 to 20)
#    0.000    2.875    0.000    3.375    0.000    4.750 
#    0.000    1.250    0.000    5.250    0.000    0.000 
#    0.000    0.000    0.000    0.000    0.000    0.000 
#
# Total GULP energy -356586.789084 kJ/mol
# GULP energy per Si atom -5571.668579 kJ/mol
# Density = 1.734529 g / cm^3
# Si number density = 17.384860 Si / 1000 Ang^3
#
#
#
# Elastic Constant Matrix: (Units=GPa)
#
#
# Indices 1 2 3 4 5 6 
#
# 1 24.5229 26.3094 35.8962 0.0000 0.0000 0.0000
# 2 26.3094 57.7079 66.9527 0.0000 0.0000 0.0000
# 3 35.8962 66.9527 161.2930 0.0000 0.0000 0.0000
# 4 0.0000 0.0000 0.0000 26.1829 0.0000 0.0000
# 5 0.0000 0.0000 0.0000 0.0000 14.7796 0.0000
# 6 0.0000 0.0000 0.0000 0.0000 0.0000 18.5082
#
#
#
# Elastic Compliance Matrix: (Units=1/GPa)
#
#
# Indices 1 2 3 4 5 6 
#
# 1 0.082081 -0.031303 -0.005274 0.000000 0.000000 0.000000
# 2 -0.031303 0.045365 -0.011864 0.000000 0.000000 0.000000
# 3 -0.005274 -0.011864 0.012298 0.000000 0.000000 0.000000
# 4 0.000000 0.000000 0.000000 0.038193 0.000000 0.000000
# 5 0.000000 0.000000 0.000000 0.000000 0.067661 0.000000
# 6 0.000000 0.000000 0.000000 0.000000 0.000000 0.054030
#
#
# Mechanical properties :
#
#
# Convention : Reuss Voigt Hill
#
# Bulk Modulus (GPa) = 23.33038 55.76005 39.54521
# Shear Modulus (GPa) = 12.17147 19.51850 15.84498
#
# Velocity S-wave (km/s) = 2.64885 3.35435 3.02226
# Velocity P-wave (km/s) = 4.77538 6.86628 5.91397
#
# Compressibility (1/GPa) = 0.04286257
#
# Stress axis : x y z
#
# Youngs Moduli (GPa) = 12.18316 22.04346 81.31088
#
# Poissons Ratio (x) = 0.69002 0.42879
# Poissons Ratio (y) = 0.38137 0.96471
# Poissons Ratio (z) = 0.06425 0.26153
#
# Static dielectric constant tensor:
#      x y z
#    x 1.600230 0.000000 0.000000 
#    y 0.000000 1.576330 0.000000 
#    z 0.000000 0.000000 1.589850 
# 
# From -- ./inp_files/30847.got.cif
#   From: 2010.05.17/outbox.cif.g08.bks.cpg/sg59_16_cif.got.tgz:30847.got - 2010.06.03 14:40:33.
