data_PCOD9447157
_publ_section_title
;
Structure prediction by ZEFSAII (Michael W. Deem and Ramdas Pophale) SiO2 
 PCOD9447157
Probable space group: P M M N
;
_chemical_formula_sum "Si O2"
_cell_formula_units_Z 32
_cell_length_a 25.209377
_cell_length_b 8.663568
_cell_length_c 7.310233
_cell_angle_alpha 90.000000
_cell_angle_beta 90.000000
_cell_angle_gamma 90.000000
_cell_volume 1596.577928
_symmetry_space_group_name_H-M "P M M N"
_symmetry_group_IT_number 59
_space_group.IT_coordinate_system_code '2'
_symmetry_cell_setting 'orthorhombic'
loop_
_space_group_symop_operation_xyz
x,y,z
1/2-x,1/2-y,z
1/2+x,-y,-z
-x,1/2+y,-z
-x,-y,-z
1/2+x,1/2+y,-z
1/2-x,y,z
x,1/2-y,z
loop_
_atom_site_type_symbol
_atom_site_label
_atom_site_fract_x
_atom_site_fract_y
_atom_site_fract_z
Si Si1 0.007775 0.934355 0.706152
Si Si2 0.898178 0.432869 0.759524
Si Si3 0.810733 0.564769 0.030073
Si Si4 0.615740 0.566320 0.355653
O O1 0.010146 0.750000 0.705144
O O2 0.064733 0.003942 0.756173
O O3 0.000000 0.000000 0.500000
O O4 0.955029 0.990657 0.807884
O O5 0.904961 0.250000 0.764214
O O6 0.851121 0.486119 0.890658
O O7 0.884036 0.486322 0.552953
O O8 0.750000 0.515133 0.007404
O O9 0.813379 0.750000 0.001449
O O10 0.832604 0.535617 0.234243
O O11 0.609719 0.750000 0.382326
#
# Coordination Sequence:
#
# PCOD9447157 Si02
#       4
#     8   8   8   8
#     4  10  18  32  56  85 117 150 186 230 281 341
#     4  11  22  37  59  87 119 152 186 231 286 341
#     4  10  23  42  61  82 110 149 197 240 279 332
#     4  10  20  37  61  87 116 150 189 236 287 339
#
# _framework density 20.042867999999999
#
# number of rings (size 3 to 8) (size 9 to 14) (size 15 to 20)
#    0.000    1.750    0.000    8.250    0.000    4.500 
#    0.000    2.500    0.000    0.000    0.000    0.000 
#    0.000    0.000    0.000    0.000    0.000    0.000 
#
# Total GULP energy -178824.743133 kJ/mol
# GULP energy per Si atom -5588.273223 kJ/mol
# Density = 1.999725 g / cm^3
# Si number density = 20.042868 Si / 1000 Ang^3
#
#
#
# Elastic Constant Matrix: (Units=GPa)
#
#
# Indices 1 2 3 4 5 6 
#
# 1 108.1365 23.7510 5.4434 0.0000 0.0000 0.0000
# 2 23.7510 77.7312 2.8939 0.0000 0.0000 0.0000
# 3 5.4434 2.8939 42.6193 0.0000 0.0000 0.0000
# 4 0.0000 0.0000 0.0000 14.3562 0.0000 0.0000
# 5 0.0000 0.0000 0.0000 0.0000 30.6654 0.0000
# 6 0.0000 0.0000 0.0000 0.0000 0.0000 24.9735
#
#
#
# Elastic Compliance Matrix: (Units=1/GPa)
#
#
# Indices 1 2 3 4 5 6 
#
# 1 0.009961 -0.003004 -0.001068 0.000000 0.000000 0.000000
# 2 -0.003004 0.013803 -0.000554 0.000000 0.000000 0.000000
# 3 -0.001068 -0.000554 0.023638 0.000000 0.000000 0.000000
# 4 0.000000 0.000000 0.000000 0.069656 0.000000 0.000000
# 5 0.000000 0.000000 0.000000 0.000000 0.032610 0.000000
# 6 0.000000 0.000000 0.000000 0.000000 0.000000 0.040042
#
#
# Mechanical properties :
#
#
# Convention : Reuss Voigt Hill
#
# Bulk Modulus (GPa) = 26.21197 32.51817 29.36507
# Shear Modulus (GPa) = 23.62064 27.09227 25.35646
#
# Velocity S-wave (km/s) = 3.43666 3.68056 3.56070
# Velocity P-wave (km/s) = 5.37158 5.85846 5.62029
#
# Compressibility (1/GPa) = 0.03815050
#
# Stress axis : x y z
#
# Youngs Moduli (GPa) = 100.39036 72.44648 42.30550
#
# Poissons Ratio (x) = 0.21762 0.04519
# Poissons Ratio (y) = 0.30156 0.02342
# Poissons Ratio (z) = 0.10725 0.04011
#
# Static dielectric constant tensor:
#      x y z
#    x 1.737770 0.000000 0.000000 
#    y 0.000000 1.668730 0.000000 
#    z 0.000000 0.000000 1.836590 
# 
# From -- ./inp_files/11834.got.cif
#   From: 2010.05.17/outbox.cif.g08.bks.cpg/sg59_6_cif.got.tgz:11834.got - 2010.06.03 14:40:33.
