data_PCOD9447101
_publ_section_title
;
Structure prediction by ZEFSAII (Michael W. Deem and Ramdas Pophale) SiO2 
 PCOD9447101
Probable space group: P M M N
;
_chemical_formula_sum "Si O2"
_cell_formula_units_Z 64
_cell_length_a 8.612835
_cell_length_b 20.607854
_cell_length_c 20.596359
_cell_angle_alpha 90.000000
_cell_angle_beta 90.000000
_cell_angle_gamma 90.000000
_cell_volume 3655.689903
_symmetry_space_group_name_H-M "P M M N"
_symmetry_group_IT_number 59
_space_group.IT_coordinate_system_code '2'
_symmetry_cell_setting 'orthorhombic'
loop_
_space_group_symop_operation_xyz
x,y,z
1/2-x,1/2-y,z
1/2+x,-y,-z
-x,1/2+y,-z
-x,-y,-z
1/2+x,1/2+y,-z
1/2-x,y,z
x,1/2-y,z
loop_
_atom_site_type_symbol
_atom_site_label
_atom_site_fract_x
_atom_site_fract_y
_atom_site_fract_z
Si Si1 0.564188 0.895599 0.696318
Si Si2 0.936442 0.064290 0.814531
Si Si3 0.437890 0.955628 0.329757
Si Si4 0.437318 0.324535 0.057467
Si Si5 0.437456 0.823400 0.574413
Si Si6 0.562696 0.823973 0.093201
Si Si7 0.938385 0.432102 0.527597
Si Si8 0.065488 0.921054 0.835315
O O1 0.750000 0.892402 0.700828
O O2 0.502506 0.845355 0.643797
O O3 0.493965 0.889723 0.767928
O O4 0.521036 0.968015 0.671432
O O5 0.750000 0.062316 0.814867
O O6 0.990324 0.072654 0.739414
O O7 0.994215 0.121998 0.859841
O O8 0.996299 0.993842 0.837575
O O9 0.250000 0.952130 0.329579
O O10 0.491006 0.925197 0.397528
O O11 0.250000 0.328597 0.061812
O O12 0.481120 0.250000 0.073884
O O13 0.510360 0.376656 0.105351
O O14 0.480521 0.335882 0.982141
O O15 0.250000 0.826027 0.577225
O O16 0.484039 0.750000 0.559180
O O17 0.489410 0.874160 0.519460
O O18 0.750000 0.826453 0.096494
O O19 0.515065 0.750000 0.109757
O O20 0.750000 0.434027 0.527165
O O21 0.000000 0.500000 0.500000
O O22 0.250000 0.925610 0.834327
#
# Coordination Sequence:
#
# PCOD9447101 Si02
#       8
#     8   8   8   8   8   8   8   8
#     4  10  19  34  54  74 101 138 177 217 261 316
#     4  10  20  35  55  81 112 144 182 226 268 321
#     4   8  16  31  51  76 103 129 169 219 261 306
#     4   9  19  37  58  78 104 141 183 224 270 327
#     4  10  21  34  49  75 109 140 174 220 270 320
#     4   9  19  37  59  81 107 141 181 226 277 328
#     4  10  18  32  54  77 101 134 177 221 265 315
#     4  11  22  35  54  81 112 143 177 222 272 320
#
# _framework density 17.506955000000001
#
# number of rings (size 3 to 8) (size 9 to 14) (size 15 to 20)
#    0.000    2.375    1.250    3.375    0.000    2.250 
#    0.000    2.500    0.000    2.250    0.000    0.000 
#    0.000    0.000    0.000    0.000    0.000    0.000 
#
# Total GULP energy -357000.775298 kJ/mol
# GULP energy per Si atom -5578.137114 kJ/mol
# Density = 1.746711 g / cm^3
# Si number density = 17.506955 Si / 1000 Ang^3
#
#
#
# Elastic Constant Matrix: (Units=GPa)
#
#
# Indices 1 2 3 4 5 6 
#
# 1 33.6913 39.2888 37.9158 0.0000 0.0000 0.0000
# 2 39.2888 137.2767 111.3112 0.0000 0.0000 0.0000
# 3 37.9158 111.3112 147.9035 0.0000 0.0000 0.0000
# 4 0.0000 0.0000 0.0000 30.9116 0.0000 0.0000
# 5 0.0000 0.0000 0.0000 0.0000 20.9973 0.0000
# 6 0.0000 0.0000 0.0000 0.0000 0.0000 25.3770
#
#
#
# Elastic Compliance Matrix: (Units=1/GPa)
#
#
# Indices 1 2 3 4 5 6 
#
# 1 0.045850 -0.009215 -0.004819 0.000000 0.000000 0.000000
# 2 -0.009215 0.020542 -0.013097 0.000000 0.000000 0.000000
# 3 -0.004819 -0.013097 0.017854 0.000000 0.000000 0.000000
# 4 0.000000 0.000000 0.000000 0.032350 0.000000 0.000000
# 5 0.000000 0.000000 0.000000 0.000000 0.047625 0.000000
# 6 0.000000 0.000000 0.000000 0.000000 0.000000 0.039406
#
#
# Mechanical properties :
#
#
# Convention : Reuss Voigt Hill
#
# Bulk Modulus (GPa) = 33.35192 77.32256 55.33724
# Shear Modulus (GPa) = 18.66478 24.14757 21.40617
#
# Velocity S-wave (km/s) = 3.26871 3.71794 3.50054
# Velocity P-wave (km/s) = 5.77391 7.91792 6.92934
#
# Compressibility (1/GPa) = 0.02998329
#
# Stress axis : x y z
#
# Youngs Moduli (GPa) = 21.81008 48.68055 56.01133
#
# Poissons Ratio (x) = 0.44860 0.26990
# Poissons Ratio (y) = 0.20098 0.73361
# Poissons Ratio (z) = 0.10510 0.63759
#
# Static dielectric constant tensor:
#      x y z
#    x 1.592420 0.000000 0.000000 
#    y 0.000000 1.572830 0.000000 
#    z 0.000000 0.000000 1.598330 
# 
# From -- ./inp_files/26354.got.cif
#   From: 2010.05.17/outbox.cif.g08.bks.cpg/sg59_14_cif.got.tgz:26354.got - 2010.06.03 14:40:33.
