data_PCOD9447395
_publ_section_title
;
Structure prediction by ZEFSAII (Michael W. Deem and Ramdas Pophale) SiO2 
 PCOD9447395
Probable space group: P M M N
;
_chemical_formula_sum "Si O2"
_cell_formula_units_Z 64
_cell_length_a 18.151768
_cell_length_b 7.425747
_cell_length_c 24.146162
_cell_angle_alpha 90.000000
_cell_angle_beta 90.000000
_cell_angle_gamma 90.000000
_cell_volume 3254.671722
_symmetry_space_group_name_H-M "P M M N"
_symmetry_group_IT_number 59
_space_group.IT_coordinate_system_code '2'
_symmetry_cell_setting 'orthorhombic'
loop_
_space_group_symop_operation_xyz
x,y,z
1/2-x,1/2-y,z
1/2+x,-y,-z
-x,1/2+y,-z
-x,-y,-z
1/2+x,1/2+y,-z
1/2-x,y,z
x,1/2-y,z
loop_
_atom_site_type_symbol
_atom_site_label
_atom_site_fract_x
_atom_site_fract_y
_atom_site_fract_z
Si Si1 0.945995 0.034295 0.130993
Si Si2 0.520036 0.965592 0.635148
Si Si3 0.475427 0.029779 0.239682
Si Si4 0.667505 0.963968 0.043612
Si Si5 0.331110 0.031236 0.174646
Si Si6 0.087492 0.468984 0.064415
Si Si7 0.073059 0.535355 0.536117
Si Si8 0.833058 0.033389 0.563823
O O1 0.952648 0.250000 0.132421
O O2 0.965731 0.972303 0.192912
O O3 0.009460 0.967111 0.088613
O O4 0.868765 0.990961 0.103326
O O5 0.511709 0.750000 0.637045
O O6 0.515366 0.033670 0.697751
O O7 0.453905 0.035031 0.595673
O O8 0.600529 0.994720 0.606980
O O9 0.476156 0.250000 0.240903
O O10 0.396162 0.974019 0.215283
O O11 0.750000 0.036766 0.039442
O O12 0.671923 0.750000 0.034448
O O13 0.614178 0.035463 0.995056
O O14 0.250000 0.967039 0.189167
O O15 0.330578 0.250000 0.176260
O O16 0.353570 0.983499 0.111995
O O17 0.083412 0.250000 0.062395
O O18 0.084225 0.750000 0.541530
O O19 0.138991 0.467450 0.496889
O O20 0.000000 0.500000 0.500000
O O21 0.750000 0.969393 0.577286
O O22 0.829818 0.250000 0.561166
#
# Coordination Sequence:
#
# PCOD9447395 Si02
#       8
#     8   8   8   8   8   8   8   8
#     4   9  17  30  46  62  84 113 141 170 207 253
#     4   9  16  27  44  64  84 108 142 179 207 237
#     4   8  15  26  40  60  84 109 138 172 206 239
#     4  10  19  29  43  64  86 106 134 176 219 254
#     4   8  12  19  33  54  81 110 135 161 200 250
#     4   8  14  25  41  60  81 107 138 170 206 250
#     4   8  14  25  41  59  80 108 138 167 200 237
#     4   9  17  28  41  60  88 116 138 165 206 253
#
# _framework density 19.664042999999999
#
# number of rings (size 3 to 8) (size 9 to 14) (size 15 to 20)
#    0.000    3.375    0.000    2.250    0.000    2.500 
#    0.000    1.875    0.000    0.750    0.000    3.500 
#    0.000    3.000    0.000    0.000    0.000    0.000 
#
# Total GULP energy -356486.515426 kJ/mol
# GULP energy per Si atom -5570.101804 kJ/mol
# Density = 1.961929 g / cm^3
# Si number density = 19.664043 Si / 1000 Ang^3
#
#
#
# Elastic Constant Matrix: (Units=GPa)
#
#
# Indices 1 2 3 4 5 6 
#
# 1 47.7810 0.6482 48.0626 0.0000 0.0000 0.0000
# 2 0.6482 63.1541 2.4973 0.0000 0.0000 0.0000
# 3 48.0626 2.4973 156.8687 0.0000 0.0000 0.0000
# 4 0.0000 0.0000 0.0000 -1.7456 0.0000 0.0000
# 5 0.0000 0.0000 0.0000 0.0000 10.7722 0.0000
# 6 0.0000 0.0000 0.0000 0.0000 0.0000 8.0762
#
#
#
# Elastic Compliance Matrix: (Units=1/GPa)
#
#
# Indices 1 2 3 4 5 6 
#
# 1 0.030253 0.000056 -0.009270 0.000000 0.000000 0.000000
# 2 0.000056 0.015844 -0.000269 0.000000 0.000000 0.000000
# 3 -0.009270 -0.000269 0.009219 0.000000 0.000000 0.000000
# 4 0.000000 0.000000 0.000000 -0.572876 0.000000 0.000000
# 5 0.000000 0.000000 0.000000 0.000000 0.092832 0.000000
# 6 0.000000 0.000000 0.000000 0.000000 0.000000 0.123820
#
#
# Mechanical properties :
#
#
# Convention : Reuss Voigt Hill
#
# Bulk Modulus (GPa) = 27.51058 41.13554 34.32306
# Shear Modulus (GPa) = -18.53055 17.86028 -0.33513
#
# Velocity S-wave (km/s) = -3.07311 3.01702 -0.41328
# Velocity P-wave (km/s) = 1.19525 5.75336 4.15510
#
# Compressibility (1/GPa) = 0.03634965
#
# Stress axis : x y z
#
# Youngs Moduli (GPa) = 33.05506 63.11389 108.46902
#
# Poissons Ratio (x) = -0.00354 1.00550
# Poissons Ratio (y) = -0.00185 0.02922
# Poissons Ratio (z) = 0.30642 0.01700
#
# Static dielectric constant tensor:
#      x y z
#    x 1.685370 0.000000 0.000000 
#    y 0.000000 1.765970 0.000000 
#    z 0.000000 0.000000 1.707120 
# 
# From -- ./inp_files/32331.got.cif
#   From: 2010.05.17/outbox.cif.g08.bks.cpg/sg59_17_cif.got.tgz:32331.got - 2010.06.03 14:40:33.
