data_PCOD9447693
_publ_section_title
;
Structure prediction by ZEFSAII (Michael W. Deem and Ramdas Pophale) SiO2 
 PCOD9447693
Probable space group: P M M N
;
_chemical_formula_sum "Si O2"
_cell_formula_units_Z 64
_cell_length_a 7.533433
_cell_length_b 27.623161
_cell_length_c 12.810694
_cell_angle_alpha 90.000000
_cell_angle_beta 90.000000
_cell_angle_gamma 90.000000
_cell_volume 2665.869970
_symmetry_space_group_name_H-M "P M M N"
_symmetry_group_IT_number 59
_space_group.IT_coordinate_system_code '2'
_symmetry_cell_setting 'orthorhombic'
loop_
_space_group_symop_operation_xyz
x,y,z
1/2-x,1/2-y,z
1/2+x,-y,-z
-x,1/2+y,-z
-x,-y,-z
1/2+x,1/2+y,-z
1/2-x,y,z
x,1/2-y,z
loop_
_atom_site_type_symbol
_atom_site_label
_atom_site_fract_x
_atom_site_fract_y
_atom_site_fract_z
Si Si1 0.035998 0.849801 0.739596
Si Si2 0.467258 0.411575 0.980349
Si Si3 0.547338 0.544760 0.814718
Si Si4 0.541090 0.306109 0.474133
Si Si5 0.535077 0.905886 0.247777
Si Si6 0.950583 0.009742 0.618900
Si Si7 0.453155 0.302607 0.710638
Si Si8 0.460447 0.196387 0.047861
O O1 0.250000 0.854505 0.738006
O O2 0.976004 0.836777 0.623258
O O3 0.951644 0.899833 0.775170
O O4 0.989711 0.810529 0.827899
O O5 0.250000 0.410717 0.986424
O O6 0.514298 0.428150 0.863994
O O7 0.534171 0.447569 0.070512
O O8 0.525620 0.355394 0.000890
O O9 0.750000 0.527434 0.829077
O O10 0.457890 0.516139 0.718605
O O11 0.750000 0.316416 0.490826
O O12 0.525691 0.250000 0.442722
O O13 0.450932 0.310825 0.585918
O O14 0.750000 0.905003 0.255799
O O15 0.464926 0.934477 0.347540
O O16 0.466953 0.851015 0.244045
O O17 0.750000 0.992368 0.624090
O O18 0.000000 0.000000 0.500000
O O19 0.250000 0.300307 0.748584
O O20 0.535741 0.250000 0.729763
O O21 0.250000 0.197053 0.026539
O O22 0.529453 0.250000 0.015558
#
# Coordination Sequence:
#
# PCOD9447693 Si02
#       8
#     8   8   8   8   8   8   8   8
#     4  10  19  30  49  77 109 146 187 236 291 343
#     4   8  16  34  58  83 112 148 192 238 286 337
#     4   9  20  39  59  81 111 148 188 233 284 342
#     4   9  18  31  46  68 101 142 186 230 280 335
#     4  10  21  38  61  88 118 151 190 238 289 342
#     4  11  25  43  63  88 118 150 190 237 291 352
#     4   9  19  34  52  78 111 147 187 228 272 325
#     4   9  17  30  50  78 113 155 199 239 283 338
#
# _framework density 24.007171
#
# number of rings (size 3 to 8) (size 9 to 14) (size 15 to 20)
#    0.000    2.625    0.000    1.875    1.750    4.250 
#    0.000    6.250    0.000    0.000    0.000    3.500 
#    0.000    0.000    0.000    0.000    0.000    0.000 
#
# Total GULP energy -357121.672604 kJ/mol
# GULP energy per Si atom -5580.026134 kJ/mol
# Density = 2.395253 g / cm^3
# Si number density = 24.007171 Si / 1000 Ang^3
#
#
#
# Elastic Constant Matrix: (Units=GPa)
#
#
# Indices 1 2 3 4 5 6 
#
# 1 65.0572 2.6842 8.3808 0.0000 0.0000 0.0000
# 2 2.6842 79.9302 58.5937 0.0000 0.0000 0.0000
# 3 8.3808 58.5937 149.3959 0.0000 0.0000 0.0000
# 4 0.0000 0.0000 0.0000 24.5150 0.0000 0.0000
# 5 0.0000 0.0000 0.0000 0.0000 16.7596 0.0000
# 6 0.0000 0.0000 0.0000 0.0000 0.0000 8.5460
#
#
#
# Elastic Compliance Matrix: (Units=1/GPa)
#
#
# Indices 1 2 3 4 5 6 
#
# 1 0.015485 0.000164 -0.000933 0.000000 0.000000 0.000000
# 2 0.000164 0.017561 -0.006897 0.000000 0.000000 0.000000
# 3 -0.000933 -0.006897 0.009451 0.000000 0.000000 0.000000
# 4 0.000000 0.000000 0.000000 0.040791 0.000000 0.000000
# 5 0.000000 0.000000 0.000000 0.000000 0.059667 0.000000
# 6 0.000000 0.000000 0.000000 0.000000 0.000000 0.117014
#
#
# Mechanical properties :
#
#
# Convention : Reuss Voigt Hill
#
# Bulk Modulus (GPa) = 36.81210 48.18899 42.50054
# Shear Modulus (GPa) = 17.58361 24.94574 21.26468
#
# Velocity S-wave (km/s) = 2.70928 3.22700 2.97941
# Velocity P-wave (km/s) = 5.01538 5.83104 5.43852
#
# Compressibility (1/GPa) = 0.02716498
#
# Stress axis : x y z
#
# Youngs Moduli (GPa) = 64.58063 56.94381 105.81006
#
# Poissons Ratio (x) = -0.00933 0.09871
# Poissons Ratio (y) = -0.01058 0.72975
# Poissons Ratio (z) = 0.06025 0.39273
#
# Static dielectric constant tensor:
#      x y z
#    x 1.422770 0.000000 0.000000 
#    y 0.000000 1.964570 0.000000 
#    z 0.000000 0.000000 1.932930 
# 
# From -- ./inp_files/14971.got.cif
#   From: 2010.05.17/outbox.cif.g08.bks.cpg/sg59_8_cif.got.tgz:14971.got - 2010.06.03 14:40:33.
