data_PCOD9447946
_publ_section_title
;
Structure prediction by ZEFSAII (Michael W. Deem and Ramdas Pophale) SiO2 
 PCOD9447946
Probable space group: P M M N
;
_chemical_formula_sum "Si O2"
_cell_formula_units_Z 56
_cell_length_a 19.557856
_cell_length_b 7.601298
_cell_length_c 18.650700
_cell_angle_alpha 90.000000
_cell_angle_beta 90.000000
_cell_angle_gamma 90.000000
_cell_volume 2772.708026
_symmetry_space_group_name_H-M "P M M N"
_symmetry_group_IT_number 59
_space_group.IT_coordinate_system_code '2'
_symmetry_cell_setting 'orthorhombic'
loop_
_space_group_symop_operation_xyz
x,y,z
1/2-x,1/2-y,z
1/2+x,-y,-z
-x,1/2+y,-z
-x,-y,-z
1/2+x,1/2+y,-z
1/2-x,y,z
x,1/2-y,z
loop_
_atom_site_type_symbol
_atom_site_label
_atom_site_fract_x
_atom_site_fract_y
_atom_site_fract_z
Si Si1 0.170764 0.035363 0.413759
Si Si2 0.828744 0.466022 0.993897
Si Si3 0.562124 0.456785 0.876155
Si Si4 0.904240 0.455127 0.134960
Si Si5 0.419952 0.539743 0.708009
Si Si6 0.425765 0.463096 0.286608
Si Si7 0.172179 0.461368 0.572054
O O1 0.250000 0.984748 0.406110
O O2 0.168715 0.250000 0.412766
O O3 0.125710 0.972841 0.347473
O O4 0.147152 0.978715 0.493351
O O5 0.750000 0.520099 0.983526
O O6 0.829093 0.250000 0.992992
O O7 0.881850 0.523875 0.932381
O O8 0.859666 0.528053 0.069890
O O9 0.553028 0.250000 0.889341
O O10 0.485678 0.535236 0.881358
O O11 0.588390 0.483276 0.795064
O O12 0.885224 0.250000 0.138590
O O13 0.894437 0.531056 0.214954
O O14 0.424867 0.750000 0.716701
O O15 0.497223 0.475546 0.696641
O O16 0.373480 0.506845 0.639738
O O17 0.424662 0.250000 0.287960
O O18 0.250000 0.525489 0.581576
O O19 0.174861 0.250000 0.568713
#
# Coordination Sequence:
#
# PCOD9447946 Si02
#       7
#     8   8   8   8   8   8   8
#     4   8  15  30  51  71  92 124 163 196 230 278
#     4   9  18  32  50  73  99 127 160 196 235 280
#     4  10  19  31  50  74  99 126 156 195 241 284
#     4   9  18  34  54  71  92 127 165 196 229 279
#     4   9  18  30  46  71  97 121 155 198 237 274
#     4   9  18  33  51  71  96 125 160 198 232 276
#     4   9  18  32  49  69  94 125 159 194 236 285
#
# _framework density 20.196863
#
# number of rings (size 3 to 8) (size 9 to 14) (size 15 to 20)
#    0.000    3.000    0.000    2.571    0.000    4.286 
#    0.000    2.857    0.000    4.286    0.000    0.000 
#    0.000    0.000    0.000    0.000    0.000    0.000 
#
# Total GULP energy -312269.569500 kJ/mol
# GULP energy per Si atom -5576.242313 kJ/mol
# Density = 2.015089 g / cm^3
# Si number density = 20.196863 Si / 1000 Ang^3
#
#
#
# Elastic Constant Matrix: (Units=GPa)
#
#
# Indices 1 2 3 4 5 6 
#
# 1 46.9018 -11.3518 55.6610 0.0000 0.0000 0.0000
# 2 -11.3518 36.7875 -10.3788 0.0000 0.0000 0.0000
# 3 55.6610 -10.3788 118.8197 0.0000 0.0000 0.0000
# 4 0.0000 0.0000 0.0000 59.4768 0.0000 0.0000
# 5 0.0000 0.0000 0.0000 0.0000 78.2871 0.0000
# 6 0.0000 0.0000 0.0000 0.0000 0.0000 13.5207
#
#
#
# Elastic Compliance Matrix: (Units=1/GPa)
#
#
# Indices 1 2 3 4 5 6 
#
# 1 0.050881 0.009203 -0.023031 0.000000 0.000000 0.000000
# 2 0.009203 0.029534 -0.001731 0.000000 0.000000 0.000000
# 3 -0.023031 -0.001731 0.019054 0.000000 0.000000 0.000000
# 4 0.000000 0.000000 0.000000 0.016813 0.000000 0.000000
# 5 0.000000 0.000000 0.000000 0.000000 0.012773 0.000000
# 6 0.000000 0.000000 0.000000 0.000000 0.000000 0.073961
#
#
# Mechanical properties :
#
#
# Convention : Reuss Voigt Hill
#
# Bulk Modulus (GPa) = 14.63055 30.04109 22.33582
# Shear Modulus (GPa) = 19.46129 41.49548 30.47838
#
# Velocity S-wave (km/s) = 3.10753 4.53763 3.88888
# Velocity P-wave (km/s) = 4.48724 6.50845 5.58996
#
# Compressibility (1/GPa) = 0.06835013
#
# Stress axis : x y z
#
# Youngs Moduli (GPa) = 19.65359 33.85874 52.48255
#
# Poissons Ratio (x) = -0.31160 1.20875
# Poissons Ratio (y) = -0.18087 0.09086
# Poissons Ratio (z) = 0.45265 0.05862
#
# Static dielectric constant tensor:
#      x y z
#    x 1.683530 0.000000 0.000000 
#    y 0.000000 1.760710 0.000000 
#    z 0.000000 0.000000 1.720100 
# 
# From -- ./inp_files/24200.got.cif
#   From: 2010.05.17/outbox.cif.g08.bks.cpg/sg59_13_cif.got.tgz:24200.got - 2010.06.03 14:40:33.
