data_PCOD9447644
_publ_section_title
;
Structure prediction by ZEFSAII (Michael W. Deem and Ramdas Pophale) SiO2 
 PCOD9447644
Probable space group: P M M N
;
_chemical_formula_sum "Si O2"
_cell_formula_units_Z 40
_cell_length_a 22.345382
_cell_length_b 9.118371
_cell_length_c 11.196290
_cell_angle_alpha 90.000000
_cell_angle_beta 90.000000
_cell_angle_gamma 90.000000
_cell_volume 2281.283087
_symmetry_space_group_name_H-M "P M M N"
_symmetry_group_IT_number 59
_space_group.IT_coordinate_system_code '2'
_symmetry_cell_setting 'orthorhombic'
loop_
_space_group_symop_operation_xyz
x,y,z
1/2-x,1/2-y,z
1/2+x,-y,-z
-x,1/2+y,-z
-x,-y,-z
1/2+x,1/2+y,-z
1/2-x,y,z
x,1/2-y,z
loop_
_atom_site_type_symbol
_atom_site_label
_atom_site_fract_x
_atom_site_fract_y
_atom_site_fract_z
Si Si1 0.588711 0.416596 0.048015
Si Si2 0.817391 0.928304 0.621254
Si Si3 0.494522 0.917310 0.188169
Si Si4 0.948867 0.926013 0.580477
Si Si5 0.679752 0.584099 0.897544
O O1 0.595112 0.250000 0.089690
O O2 0.557842 0.516448 0.147768
O O3 0.545398 0.415859 0.931613
O O4 0.648575 0.484523 0.994975
O O5 0.750000 0.977192 0.583394
O O6 0.815727 0.750000 0.620028
O O7 0.879249 0.970975 0.555583
O O8 0.825907 0.970559 0.760833
O O9 0.499438 0.750000 0.232237
O O10 0.464309 0.020431 0.285998
O O11 0.952379 0.750000 0.571583
O O12 0.000000 0.000000 0.500000
O O13 0.750000 0.592325 0.920350
O O14 0.654130 0.750000 0.902200
#
# Coordination Sequence:
#
# PCOD9447644 Si02
#       5
#     8   8   8   8   8
#     4  10  19  30  48  73 103 133 163 205 253 303
#     4   8  15  29  50  74  99 131 170 210 252 302
#     4  10  20  33  49  71 100 133 170 205 249 306
#     4  11  21  34  54  77 106 136 172 219 264 311
#     4   9  16  28  48  73 101 133 169 206 249 306
#
# _framework density 17.533992000000001
#
# number of rings (size 3 to 8) (size 9 to 14) (size 15 to 20)
#    0.000    2.400    2.000    3.000    0.000    2.000 
#    0.000    0.000    0.000    3.600    0.000    2.800 
#    0.000    0.000    0.000    0.000    0.000    0.000 
#
# Total GULP energy -222737.005724 kJ/mol
# GULP energy per Si atom -5568.425143 kJ/mol
# Density = 1.749408 g / cm^3
# Si number density = 17.533992 Si / 1000 Ang^3
#
#
#
# Elastic Constant Matrix: (Units=GPa)
#
#
# Indices 1 2 3 4 5 6 
#
# 1 134.6438 34.6614 29.2175 0.0000 0.0000 0.0000
# 2 34.6614 60.4057 11.7221 0.0000 0.0000 0.0000
# 3 29.2175 11.7221 15.0564 0.0000 0.0000 0.0000
# 4 0.0000 0.0000 0.0000 24.5388 0.0000 0.0000
# 5 0.0000 0.0000 0.0000 0.0000 26.5163 0.0000
# 6 0.0000 0.0000 0.0000 0.0000 0.0000 25.4217
#
#
#
# Elastic Compliance Matrix: (Units=1/GPa)
#
#
# Indices 1 2 3 4 5 6 
#
# 1 0.013302 -0.003091 -0.023406 0.000000 0.000000 0.000000
# 2 -0.003091 0.020219 -0.009744 0.000000 0.000000 0.000000
# 3 -0.023406 -0.009744 0.119424 0.000000 0.000000 0.000000
# 4 0.000000 0.000000 0.000000 0.040752 0.000000 0.000000
# 5 0.000000 0.000000 0.000000 0.000000 0.037713 0.000000
# 6 0.000000 0.000000 0.000000 0.000000 0.000000 0.039337
#
#
# Mechanical properties :
#
#
# Convention : Reuss Voigt Hill
#
# Bulk Modulus (GPa) = 12.42808 40.14529 26.28669
# Shear Modulus (GPa) = 13.51171 24.26237 18.88704
#
# Velocity S-wave (km/s) = 2.77898 3.72389 3.28558
# Velocity P-wave (km/s) = 4.17137 6.43702 5.42382
#
# Compressibility (1/GPa) = 0.08046297
#
# Stress axis : x y z
#
# Youngs Moduli (GPa) = 75.17808 49.45840 8.37349
#
# Poissons Ratio (x) = 0.15285 0.19599
# Poissons Ratio (y) = 0.23234 0.08159
# Poissons Ratio (z) = 1.75965 0.48193
#
# Static dielectric constant tensor:
#      x y z
#    x 1.635190 0.000000 0.000000 
#    y 0.000000 1.605930 0.000000 
#    z 0.000000 0.000000 1.588070 
# 
# From -- ./inp_files/14037.got.cif
#   From: 2010.05.17/outbox.cif.g08.bks.cpg/sg59_8_cif.got.tgz:14037.got - 2010.06.03 14:40:33.
