data_PCOD9447607
_publ_section_title
;
Structure prediction by ZEFSAII (Michael W. Deem and Ramdas Pophale) SiO2 
 PCOD9447607
Probable space group: P M M N
;
_chemical_formula_sum "Si O2"
_cell_formula_units_Z 48
_cell_length_a 14.331908
_cell_length_b 7.371694
_cell_length_c 18.992286
_cell_angle_alpha 90.000000
_cell_angle_beta 90.000000
_cell_angle_gamma 90.000000
_cell_volume 2006.543377
_symmetry_space_group_name_H-M "P M M N"
_symmetry_group_IT_number 59
_space_group.IT_coordinate_system_code '2'
_symmetry_cell_setting 'orthorhombic'
loop_
_space_group_symop_operation_xyz
x,y,z
1/2-x,1/2-y,z
1/2+x,-y,-z
-x,1/2+y,-z
-x,-y,-z
1/2+x,1/2+y,-z
1/2-x,y,z
x,1/2-y,z
loop_
_atom_site_type_symbol
_atom_site_label
_atom_site_fract_x
_atom_site_fract_y
_atom_site_fract_z
Si Si1 0.936745 0.537426 0.170285
Si Si2 0.356265 0.469195 0.380442
Si Si3 0.606862 0.965502 0.020604
Si Si4 0.640270 0.968818 0.462353
Si Si5 0.650612 0.529971 0.867919
Si Si6 0.952686 0.962006 0.321455
O O1 0.912381 0.750000 0.172139
O O2 0.049492 0.528684 0.159946
O O3 0.917594 0.459615 0.247558
O O4 0.886303 0.461856 0.100300
O O5 0.250000 0.528628 0.366927
O O6 0.354757 0.250000 0.380829
O O7 0.385419 0.533073 0.459204
O O8 0.435405 0.526542 0.326528
O O9 0.625684 0.750000 0.024268
O O10 0.655180 0.031219 0.949703
O O11 0.500000 0.000000 0.000000
O O12 0.750000 0.005542 0.453749
O O13 0.628757 0.750000 0.464369
O O14 0.586477 0.040448 0.394388
O O15 0.750000 0.476293 0.833654
O O16 0.647273 0.750000 0.866359
O O17 0.926416 0.750000 0.321426
#
# Coordination Sequence:
#
# PCOD9447607 Si02
#       6
#     8   8   8   8   8   8
#     4   9  18  30  43  63  91 118 142 173 219 270
#     4   9  18  32  49  68  91 122 158 192 227 270
#     4   8  14  27  44  59  79 107 138 171 205 244
#     4   8  15  30  50  69  90 118 154 194 232 272
#     4   9  17  29  46  66  85 110 147 185 217 254
#     4  10  19  30  47  71  96 122 152 187 230 278
#
# _framework density 23.921734000000001
#
# number of rings (size 3 to 8) (size 9 to 14) (size 15 to 20)
#    0.000    3.167    0.000    1.500    0.000    2.000 
#    0.000    4.167    0.000    6.500    0.000    0.000 
#    0.000    4.000    0.000    0.000    0.000    0.000 
#
# Total GULP energy -267584.823414 kJ/mol
# GULP energy per Si atom -5574.683821 kJ/mol
# Density = 2.386729 g / cm^3
# Si number density = 23.921734 Si / 1000 Ang^3
#
#
#
# Elastic Constant Matrix: (Units=GPa)
#
#
# Indices 1 2 3 4 5 6 
#
# 1 15.0761 -10.4880 -4.1667 0.0000 0.0000 0.0000
# 2 -10.4880 89.0739 1.4839 0.0000 0.0000 0.0000
# 3 -4.1667 1.4839 114.6736 0.0000 0.0000 0.0000
# 4 0.0000 0.0000 0.0000 2.0358 0.0000 0.0000
# 5 0.0000 0.0000 0.0000 0.0000 8.8571 0.0000
# 6 0.0000 0.0000 0.0000 0.0000 0.0000 2.1285
#
#
#
# Elastic Compliance Matrix: (Units=1/GPa)
#
#
# Indices 1 2 3 4 5 6 
#
# 1 0.072981 0.008551 0.002541 0.000000 0.000000 0.000000
# 2 0.008551 0.012231 0.000152 0.000000 0.000000 0.000000
# 3 0.002541 0.000152 0.008811 0.000000 0.000000 0.000000
# 4 0.000000 0.000000 0.000000 0.491205 0.000000 0.000000
# 5 0.000000 0.000000 0.000000 0.000000 0.112904 0.000000
# 6 0.000000 0.000000 0.000000 0.000000 0.000000 0.469810
#
#
# Mechanical properties :
#
#
# Convention : Reuss Voigt Hill
#
# Bulk Modulus (GPa) = 8.58285 21.38690 14.98487
# Shear Modulus (GPa) = 4.22194 18.07057 11.14626
#
# Velocity S-wave (km/s) = 1.32994 2.75144 2.16092
# Velocity P-wave (km/s) = 2.44008 4.36505 3.53608
#
# Compressibility (1/GPa) = 0.11651146
#
# Stress axis : x y z
#
# Youngs Moduli (GPa) = 13.70218 81.76007 113.49757
#
# Poissons Ratio (x) = -0.69911 -0.28841
# Poissons Ratio (y) = -0.11716 -0.01730
# Poissons Ratio (z) = -0.03482 -0.01246
#
# Static dielectric constant tensor:
#      x y z
#    x 1.907210 0.000000 0.000000 
#    y 0.000000 1.934210 0.000000 
#    z 0.000000 0.000000 1.962020 
# 
# From -- ./inp_files/23159.got.cif
#   From: 2010.05.17/outbox.cif.g08.bks.cpg/sg59_12_cif.got.tgz:23159.got - 2010.06.03 14:40:33.
