data_PCOD9447590
_publ_section_title
;
Structure prediction by ZEFSAII (Michael W. Deem and Ramdas Pophale) SiO2 
 PCOD9447590
Probable space group: P M M N
;
_chemical_formula_sum "Si O2"
_cell_formula_units_Z 64
_cell_length_a 15.472202
_cell_length_b 7.389836
_cell_length_c 24.026650
_cell_angle_alpha 90.000000
_cell_angle_beta 90.000000
_cell_angle_gamma 90.000000
_cell_volume 2747.135930
_symmetry_space_group_name_H-M "P M M N"
_symmetry_group_IT_number 59
_space_group.IT_coordinate_system_code '2'
_symmetry_cell_setting 'orthorhombic'
loop_
_space_group_symop_operation_xyz
x,y,z
1/2-x,1/2-y,z
1/2+x,-y,-z
-x,1/2+y,-z
-x,-y,-z
1/2+x,1/2+y,-z
1/2-x,y,z
x,1/2-y,z
loop_
_atom_site_type_symbol
_atom_site_label
_atom_site_fract_x
_atom_site_fract_y
_atom_site_fract_z
Si Si1 0.152233 0.956042 0.283496
Si Si2 0.596550 0.534543 0.479537
Si Si3 0.649477 0.549059 0.594978
Si Si4 0.468591 0.027130 0.747045
Si Si5 0.035004 0.038473 0.867441
Si Si6 0.850322 0.970724 0.356581
Si Si7 0.346583 0.031699 0.094442
Si Si8 0.347971 0.469857 0.966518
O O1 0.250000 0.033497 0.277366
O O2 0.158770 0.750000 0.264018
O O3 0.067840 0.039595 0.256083
O O4 0.123046 0.951283 0.348801
O O5 0.500000 0.500000 0.500000
O O6 0.615410 0.750000 0.477130
O O7 0.644057 0.462360 0.534298
O O8 0.617282 0.467417 0.417808
O O9 0.750000 0.572112 0.603988
O O10 0.607855 0.750000 0.594167
O O11 0.470729 0.250000 0.745753
O O12 0.434678 0.968921 0.807456
O O13 0.411148 0.970447 0.694329
O O14 0.057090 0.250000 0.867384
O O15 0.082203 0.962558 0.922109
O O16 0.931408 0.024789 0.872434
O O17 0.750000 0.022403 0.349443
O O18 0.853281 0.750000 0.356932
O O19 0.250000 0.972126 0.112822
O O20 0.345156 0.250000 0.095050
O O21 0.359953 0.970478 0.030322
O O22 0.250000 0.517133 0.949490
O O23 0.352332 0.250000 0.968929
#
# Coordination Sequence:
#
# PCOD9447590 Si02
#       8
#     8   8   8   8   8   8   8   8
#     4   9  17  30  47  65  90 125 156 184 228 285
#     4  10  19  30  47  70  93 117 147 186 234 282
#     4   9  17  29  45  66  89 110 139 183 228 268
#     4   9  18  30  44  67  96 124 158 197 235 275
#     4  10  19  30  49  76 100 125 162 207 247 281
#     4   9  17  30  48  69  95 128 163 197 233 278
#     4   9  18  33  51  71  99 134 164 192 238 299
#     4   8  15  29  49  73 101 130 159 195 242 293
#
# _framework density 23.296990999999998
#
# number of rings (size 3 to 8) (size 9 to 14) (size 15 to 20)
#    0.000    2.875    0.000    2.250    0.000    4.250 
#    0.000    4.375    0.000    4.500    0.000    0.000 
#    0.000    0.000    0.000    0.000    0.000    0.000 
#
# Total GULP energy -356743.463178 kJ/mol
# GULP energy per Si atom -5574.116612 kJ/mol
# Density = 2.324397 g / cm^3
# Si number density = 23.296991 Si / 1000 Ang^3
#
#
#
# Elastic Constant Matrix: (Units=GPa)
#
#
# Indices 1 2 3 4 5 6 
#
# 1 92.3207 -9.4828 40.1955 0.0000 0.0000 0.0000
# 2 -9.4828 77.3874 -5.1715 0.0000 0.0000 0.0000
# 3 40.1955 -5.1715 96.5245 0.0000 0.0000 0.0000
# 4 0.0000 0.0000 0.0000 0.9998 0.0000 0.0000
# 5 0.0000 0.0000 0.0000 0.0000 8.2926 0.0000
# 6 0.0000 0.0000 0.0000 0.0000 0.0000 8.0705
#
#
#
# Elastic Compliance Matrix: (Units=1/GPa)
#
#
# Indices 1 2 3 4 5 6 
#
# 1 0.013354 0.001269 -0.005493 0.000000 0.000000 0.000000
# 2 0.001269 0.013089 0.000173 0.000000 0.000000 0.000000
# 3 -0.005493 0.000173 0.012657 0.000000 0.000000 0.000000
# 4 0.000000 0.000000 0.000000 1.000152 0.000000 0.000000
# 5 0.000000 0.000000 0.000000 0.000000 0.120590 0.000000
# 6 0.000000 0.000000 0.000000 0.000000 0.000000 0.123908
#
#
# Mechanical properties :
#
#
# Convention : Reuss Voigt Hill
#
# Bulk Modulus (GPa) = 32.26042 35.25720 33.75881
# Shear Modulus (GPa) = 3.83970 19.51868 11.67919
#
# Velocity S-wave (km/s) = 1.28520 2.89765 2.24144
# Velocity P-wave (km/s) = 4.00997 5.13438 4.60661
#
# Compressibility (1/GPa) = 0.03099774
#
# Stress axis : x y z
#
# Youngs Moduli (GPa) = 74.88557 76.39958 79.00958
#
# Poissons Ratio (x) = -0.09697 0.43399
# Poissons Ratio (y) = -0.09505 -0.01365
# Poissons Ratio (z) = 0.41134 -0.01320
#
# Static dielectric constant tensor:
#      x y z
#    x 1.762880 0.000000 0.000000 
#    y 0.000000 1.803150 0.000000 
#    z 0.000000 0.000000 1.916670 
# 
# From -- ./inp_files/32240.got.cif
#   From: 2010.05.17/outbox.cif.g08.bks.cpg/sg59_17_cif.got.tgz:32240.got - 2010.06.03 14:40:33.
