data_PCOD9447962
_publ_section_title
;
Structure prediction by ZEFSAII (Michael W. Deem and Ramdas Pophale) SiO2 
 PCOD9447962
Probable space group: P M M N
;
_chemical_formula_sum "Si O2"
_cell_formula_units_Z 56
_cell_length_a 17.019144
_cell_length_b 14.363197
_cell_length_c 13.124572
_cell_angle_alpha 90.000000
_cell_angle_beta 90.000000
_cell_angle_gamma 90.000000
_cell_volume 3208.292675
_symmetry_space_group_name_H-M "P M M N"
_symmetry_group_IT_number 59
_space_group.IT_coordinate_system_code '2'
_symmetry_cell_setting 'orthorhombic'
loop_
_space_group_symop_operation_xyz
x,y,z
1/2-x,1/2-y,z
1/2+x,-y,-z
-x,1/2+y,-z
-x,-y,-z
1/2+x,1/2+y,-z
1/2-x,y,z
x,1/2-y,z
loop_
_atom_site_type_symbol
_atom_site_label
_atom_site_fract_x
_atom_site_fract_y
_atom_site_fract_z
Si Si1 0.337928 0.468148 0.831301
Si Si2 0.588709 0.972803 0.388889
Si Si3 0.158313 0.471912 0.388695
Si Si4 0.576969 0.358108 0.107091
Si Si5 0.941491 0.359660 0.678962
Si Si6 0.513482 0.858285 0.682273
Si Si7 0.988691 0.860421 0.098734
O O1 0.250000 0.436576 0.852028
O O2 0.357778 0.462037 0.711163
O O3 0.351768 0.574503 0.865265
O O4 0.405899 0.411131 0.888008
O O5 0.544229 0.072524 0.379910
O O6 0.636913 0.964371 0.491861
O O7 0.518813 0.896917 0.380485
O O8 0.250000 0.456860 0.370628
O O9 0.129852 0.574371 0.353498
O O10 0.100480 0.399021 0.332763
O O11 0.599718 0.250000 0.099339
O O12 0.515556 0.366936 0.200809
O O13 0.535809 0.387619 0.002147
O O14 0.929171 0.250000 0.663377
O O15 0.962032 0.377512 0.797981
O O16 0.507824 0.750000 0.652652
O O17 0.974889 0.750000 0.092701
#
# Coordination Sequence:
#
# PCOD9447962 Si02
#       7
#     8   8   8   8   8   8   8
#     4  10  19  31  50  76 102 124 154 202 251 288
#     4   9  19  34  51  71  95 127 164 199 240 287
#     4  11  22  33  47  71 103 131 157 197 245 287
#     4   9  18  34  54  73  96 129 165 197 234 285
#     4   9  18  34  54  72  93 126 166 201 233 281
#     4   9  18  34  54  72  93 126 166 201 233 281
#     4   9  18  34  54  73  96 129 165 197 234 285
#
# _framework density 17.454767
#
# number of rings (size 3 to 8) (size 9 to 14) (size 15 to 20)
#    0.000    2.571    0.000    3.429    0.000    3.429 
#    0.000    2.857    0.000   10.286    0.000    0.000 
#    0.000    0.000    0.000    0.000    0.000    0.000 
#
# Total GULP energy -312356.445728 kJ/mol
# GULP energy per Si atom -5577.793674 kJ/mol
# Density = 1.741504 g / cm^3
# Si number density = 17.454767 Si / 1000 Ang^3
#
#
#
# Elastic Constant Matrix: (Units=GPa)
#
#
# Indices 1 2 3 4 5 6 
#
# 1 48.9819 -11.4549 0.0359 0.0000 0.0000 0.0000
# 2 -11.4549 37.1151 2.0639 0.0000 0.0000 0.0000
# 3 0.0359 2.0639 49.5456 0.0000 0.0000 0.0000
# 4 0.0000 0.0000 0.0000 15.1313 0.0000 0.0000
# 5 0.0000 0.0000 0.0000 0.0000 11.6404 0.0000
# 6 0.0000 0.0000 0.0000 0.0000 0.0000 6.1804
#
#
#
# Elastic Compliance Matrix: (Units=1/GPa)
#
#
# Indices 1 2 3 4 5 6 
#
# 1 0.022008 0.006809 -0.000300 0.000000 0.000000 0.000000
# 2 0.006809 0.029112 -0.001218 0.000000 0.000000 0.000000
# 3 -0.000300 -0.001218 0.020234 0.000000 0.000000 0.000000
# 4 0.000000 0.000000 0.000000 0.066088 0.000000 0.000000
# 5 0.000000 0.000000 0.000000 0.000000 0.085907 0.000000
# 6 0.000000 0.000000 0.000000 0.000000 0.000000 0.161801
#
#
# Mechanical properties :
#
#
# Convention : Reuss Voigt Hill
#
# Bulk Modulus (GPa) = 12.20423 12.99250 12.59837
# Shear Modulus (GPa) = 12.44152 16.25696 14.34924
#
# Velocity S-wave (km/s) = 2.67270 3.05516 2.87031
# Velocity P-wave (km/s) = 4.06590 4.46150 4.26829
#
# Compressibility (1/GPa) = 0.08193878
#
# Stress axis : x y z
#
# Youngs Moduli (GPa) = 45.43739 34.34963 49.42090
#
# Poissons Ratio (x) = -0.23389 0.01481
# Poissons Ratio (y) = -0.30939 0.06018
# Poissons Ratio (z) = 0.01361 0.04183
#
# Static dielectric constant tensor:
#      x y z
#    x 1.554550 0.000000 0.000000 
#    y 0.000000 1.611690 0.000000 
#    z 0.000000 0.000000 1.608440 
# 
# From -- ./inp_files/16957.got.cif
#   From: 2010.05.17/outbox.cif.g08.bks.cpg/sg59_9_cif.got.tgz:16957.got - 2010.06.03 14:40:33.
