data_PCOD9447927
_publ_section_title
;
Structure prediction by ZEFSAII (Michael W. Deem and Ramdas Pophale) SiO2 
 PCOD9447927
Probable space group: P M M N
;
_chemical_formula_sum "Si O2"
_cell_formula_units_Z 64
_cell_length_a 31.348611
_cell_length_b 17.174715
_cell_length_c 6.303152
_cell_angle_alpha 90.000000
_cell_angle_beta 90.000000
_cell_angle_gamma 90.000000
_cell_volume 3393.638843
_symmetry_space_group_name_H-M "P M M N"
_symmetry_group_IT_number 59
_space_group.IT_coordinate_system_code '2'
_symmetry_cell_setting 'orthorhombic'
loop_
_space_group_symop_operation_xyz
x,y,z
1/2-x,1/2-y,z
1/2+x,-y,-z
-x,1/2+y,-z
-x,-y,-z
1/2+x,1/2+y,-z
1/2-x,y,z
x,1/2-y,z
loop_
_atom_site_type_symbol
_atom_site_label
_atom_site_fract_x
_atom_site_fract_y
_atom_site_fract_z
Si Si1 0.071752 0.160417 0.431571
Si Si2 0.897278 0.165563 0.173290
Si Si3 0.122934 0.449486 0.146212
Si Si4 0.321295 0.661094 0.133226
Si Si5 0.346367 0.564033 0.505726
Si Si6 0.298052 0.504968 0.892028
Si Si7 0.990699 0.112780 0.169441
Si Si8 0.548779 0.950604 0.187382
O O1 0.079448 0.250000 0.489966
O O2 0.106393 0.128459 0.261957
O O3 0.069521 0.101907 0.630892
O O4 0.025465 0.151776 0.320413
O O5 0.887125 0.250000 0.268368
O O6 0.880021 0.101374 0.333963
O O7 0.947194 0.158641 0.139081
O O8 0.869676 0.160110 0.959046
O O9 0.130068 0.511149 0.333838
O O10 0.167167 0.452988 0.016590
O O11 0.085336 0.473081 0.983690
O O12 0.305525 0.750000 0.110195
O O13 0.322307 0.631240 0.373826
O O14 0.299655 0.592210 0.996300
O O15 0.313859 0.515602 0.651083
O O16 0.250000 0.475627 0.906907
O O17 0.975548 0.028555 0.258965
O O18 0.014029 0.097888 0.946163
#
# Coordination Sequence:
#
# PCOD9447927 Si02
#       8
#     8   8   8   8   8   8   8   8
#     4  11  23  37  57  84 111 142 181 227 279 330
#     4  10  19  31  49  75 110 151 193 234 270 306
#     4  10  21  39  60  80 106 143 182 221 270 331
#     4   9  19  34  51  76 114 156 191 224 267 317
#     4  10  19  34  55  78 106 145 190 227 267 318
#     4  10  21  36  57  84 109 135 175 227 277 329
#     4  10  20  34  52  79 110 147 190 228 265 309
#     4  10  21  37  56  77 110 150 185 224 268 319
#
# _framework density 18.858812
#
# number of rings (size 3 to 8) (size 9 to 14) (size 15 to 20)
#    0.000    2.000    0.000    4.875    0.000    8.250 
#    0.000    1.250    0.000    0.375    0.000    0.000 
#    0.000    0.000    0.000    0.000    0.000    0.000 
#
# Total GULP energy -357057.427970 kJ/mol
# GULP energy per Si atom -5579.022312 kJ/mol
# Density = 1.881589 g / cm^3
# Si number density = 18.858812 Si / 1000 Ang^3
#
#
#
# Elastic Constant Matrix: (Units=GPa)
#
#
# Indices 1 2 3 4 5 6 
#
# 1 110.4691 12.8133 28.8442 0.0000 0.0000 0.0000
# 2 12.8133 62.4458 25.7982 0.0000 0.0000 0.0000
# 3 28.8442 25.7982 76.5231 0.0000 0.0000 0.0000
# 4 0.0000 0.0000 0.0000 10.8545 0.0000 0.0000
# 5 0.0000 0.0000 0.0000 0.0000 7.6023 0.0000
# 6 0.0000 0.0000 0.0000 0.0000 0.0000 11.8228
#
#
#
# Elastic Compliance Matrix: (Units=1/GPa)
#
#
# Indices 1 2 3 4 5 6 
#
# 1 0.010058 -0.000578 -0.003596 0.000000 0.000000 0.000000
# 2 -0.000578 0.018638 -0.006066 0.000000 0.000000 0.000000
# 3 -0.003596 -0.006066 0.016469 0.000000 0.000000 0.000000
# 4 0.000000 0.000000 0.000000 0.092127 0.000000 0.000000
# 5 0.000000 0.000000 0.000000 0.000000 0.131540 0.000000
# 6 0.000000 0.000000 0.000000 0.000000 0.000000 0.084582
#
#
# Mechanical properties :
#
#
# Convention : Reuss Voigt Hill
#
# Bulk Modulus (GPa) = 40.51061 42.70549 41.60805
# Shear Modulus (GPa) = 13.08477 18.18806 15.63641
#
# Velocity S-wave (km/s) = 2.63692 3.10890 2.88259
# Velocity P-wave (km/s) = 5.54966 5.96498 5.76107
#
# Compressibility (1/GPa) = 0.02468489
#
# Stress axis : x y z
#
# Youngs Moduli (GPa) = 99.41915 53.65259 60.72194
#
# Poissons Ratio (x) = 0.03102 0.21839
# Poissons Ratio (y) = 0.05747 0.36832
# Poissons Ratio (z) = 0.35756 0.32544
#
# Static dielectric constant tensor:
#      x y z
#    x 1.648770 0.000000 0.000000 
#    y 0.000000 1.681810 0.000000 
#    z 0.000000 0.000000 1.660840 
# 
# From -- ./inp_files/4647.got.cif
#   From: 2010.05.17/outbox.cif.g08.bks.cpg/sg59_3_cif.got.tgz:4647.got - 2010.06.03 14:40:33.
