data_PCOD9447994
_publ_section_title
;
Structure prediction by ZEFSAII (Michael W. Deem and Ramdas Pophale) SiO2 
 PCOD9447994
Probable space group: P M M N
;
_chemical_formula_sum "Si O2"
_cell_formula_units_Z 64
_cell_length_a 27.767421
_cell_length_b 11.302939
_cell_length_c 11.218236
_cell_angle_alpha 90.000000
_cell_angle_beta 90.000000
_cell_angle_gamma 90.000000
_cell_volume 3520.882248
_symmetry_space_group_name_H-M "P M M N"
_symmetry_group_IT_number 59
_space_group.IT_coordinate_system_code '2'
_symmetry_cell_setting 'orthorhombic'
loop_
_space_group_symop_operation_xyz
x,y,z
1/2-x,1/2-y,z
1/2+x,-y,-z
-x,1/2+y,-z
-x,-y,-z
1/2+x,1/2+y,-z
1/2-x,y,z
x,1/2-y,z
loop_
_atom_site_type_symbol
_atom_site_label
_atom_site_fract_x
_atom_site_fract_y
_atom_site_fract_z
Si Si1 0.695283 0.393070 0.102797
Si Si2 0.936824 0.621803 0.953245
Si Si3 0.035810 0.949929 0.850994
Si Si4 0.122716 0.884492 0.693685
Si Si5 0.308208 0.611638 0.171641
Si Si6 0.138190 0.383471 0.263648
Si Si7 0.418463 0.462031 0.488008
Si Si8 0.995673 0.382991 0.650734
O O1 0.750000 0.436401 0.117504
O O2 0.696103 0.250000 0.109712
O O3 0.661113 0.431942 0.210105
O O4 0.679414 0.416905 0.967078
O O5 0.926077 0.750000 0.009095
O O6 0.902342 0.607965 0.839831
O O7 0.992241 0.620634 0.909600
O O8 0.933996 0.516097 0.047012
O O9 0.071902 0.882495 0.764230
O O10 0.009759 0.047415 0.769159
O O11 0.135154 0.750000 0.658604
O O12 0.115096 0.968107 0.580868
O O13 0.250000 0.611332 0.180046
O O14 0.323387 0.750000 0.197228
O O15 0.329603 0.502110 0.247044
O O16 0.160230 0.250000 0.251722
O O17 0.111920 0.391592 0.391051
O O18 0.451552 0.554654 0.415551
O O19 0.457677 0.389292 0.564343
O O20 0.983011 0.250000 0.679150
#
# Coordination Sequence:
#
# PCOD9447994 Si02
#       8
#     8   8   8   8   8   8   8   8
#     4   8  15  31  55  82 108 133 167 217 278 332
#     4  10  20  33  48  71 106 141 177 224 275 331
#     4  10  19  32  48  72 100 134 181 223 279 324
#     4  10  19  31  51  75 102 137 180 230 276 321
#     4   9  19  37  61  87 112 138 174 223 274 328
#     4  11  22  37  55  79 112 150 185 224 276 334
#     4  10  21  34  47  73 101 142 187 226 263 317
#     4  10  19  33  50  67  95 138 187 232 271 311
#
# _framework density 18.177263
#
# number of rings (size 3 to 8) (size 9 to 14) (size 15 to 20)
#    0.000    2.250    1.250    3.000    0.000    1.250 
#    0.000    1.250    0.000    2.250    0.000    0.000 
#    0.000    0.000    0.000    0.000    0.000    0.000 
#
# Total GULP energy -356647.294926 kJ/mol
# GULP energy per Si atom -5572.613983 kJ/mol
# Density = 1.813589 g / cm^3
# Si number density = 18.177263 Si / 1000 Ang^3
#
#
#
# Elastic Constant Matrix: (Units=GPa)
#
#
# Indices 1 2 3 4 5 6 
#
# 1 36.1680 20.1550 10.4000 0.0000 0.0000 0.0000
# 2 20.1550 97.8191 29.1940 0.0000 0.0000 0.0000
# 3 10.4000 29.1940 69.6189 0.0000 0.0000 0.0000
# 4 0.0000 0.0000 0.0000 1.9765 0.0000 0.0000
# 5 0.0000 0.0000 0.0000 0.0000 27.5896 0.0000
# 6 0.0000 0.0000 0.0000 0.0000 0.0000 5.1153
#
#
#
# Elastic Compliance Matrix: (Units=1/GPa)
#
#
# Indices 1 2 3 4 5 6 
#
# 1 0.031546 -0.005822 -0.002271 0.000000 0.000000 0.000000
# 2 -0.005822 0.012760 -0.004481 0.000000 0.000000 0.000000
# 3 -0.002271 -0.004481 0.016582 0.000000 0.000000 0.000000
# 4 0.000000 0.000000 0.000000 0.505946 0.000000 0.000000
# 5 0.000000 0.000000 0.000000 0.000000 0.036246 0.000000
# 6 0.000000 0.000000 0.000000 0.000000 0.000000 0.195490
#
#
# Mechanical properties :
#
#
# Convention : Reuss Voigt Hill
#
# Bulk Modulus (GPa) = 27.97987 35.90044 31.94016
# Shear Modulus (GPa) = 5.98350 16.52676 11.25513
#
# Velocity S-wave (km/s) = 1.81629 3.01856 2.49105
# Velocity P-wave (km/s) = 4.45250 5.65173 5.08757
#
# Compressibility (1/GPa) = 0.03573999
#
# Stress axis : x y z
#
# Youngs Moduli (GPa) = 31.69952 78.37051 60.30549
#
# Poissons Ratio (x) = 0.45628 0.13696
# Poissons Ratio (y) = 0.18456 0.27023
# Poissons Ratio (z) = 0.07199 0.35118
#
# Static dielectric constant tensor:
#      x y z
#    x 1.621250 0.000000 0.000000 
#    y 0.000000 1.640360 0.000000 
#    z 0.000000 0.000000 1.615550 
# 
# From -- ./inp_files/19013.got.cif
#   From: 2010.05.17/outbox.cif.g08.bks.cpg/sg59_10_cif.got.tgz:19013.got - 2010.06.03 14:40:33.
