data_PCOD9447488
_publ_section_title
;
Structure prediction by ZEFSAII (Michael W. Deem and Ramdas Pophale) SiO2 
 PCOD9447488
Probable space group: P M M N
;
_chemical_formula_sum "Si O2"
_cell_formula_units_Z 56
_cell_length_a 19.192829
_cell_length_b 8.462121
_cell_length_c 21.451646
_cell_angle_alpha 90.000000
_cell_angle_beta 90.000000
_cell_angle_gamma 90.000000
_cell_volume 3484.005617
_symmetry_space_group_name_H-M "P M M N"
_symmetry_group_IT_number 59
_space_group.IT_coordinate_system_code '2'
_symmetry_cell_setting 'orthorhombic'
loop_
_space_group_symop_operation_xyz
x,y,z
1/2-x,1/2-y,z
1/2+x,-y,-z
-x,1/2+y,-z
-x,-y,-z
1/2+x,1/2+y,-z
1/2-x,y,z
x,1/2-y,z
loop_
_atom_site_type_symbol
_atom_site_label
_atom_site_fract_x
_atom_site_fract_y
_atom_site_fract_z
Si Si1 0.604230 0.439904 0.123039
Si Si2 0.328904 0.441549 0.006177
Si Si3 0.533673 0.940444 0.935624
Si Si4 0.537262 0.060681 0.562907
Si Si5 0.829834 0.560900 0.250659
Si Si6 0.670856 0.442646 0.496763
Si Si7 0.590200 0.061182 0.370925
O O1 0.606981 0.250000 0.124033
O O2 0.644437 0.498541 0.061108
O O3 0.522773 0.490857 0.115945
O O4 0.639190 0.505202 0.184987
O O5 0.250000 0.494768 0.017798
O O6 0.329024 0.250000 0.003946
O O7 0.385914 0.491748 0.058221
O O8 0.533692 0.750000 0.935043
O O9 0.500000 0.000000 0.000000
O O10 0.534581 0.250000 0.564618
O O11 0.617546 0.011623 0.552076
O O12 0.500000 0.000000 0.500000
O O13 0.489041 0.994773 0.617688
O O14 0.750000 0.503883 0.257248
O O15 0.829319 0.750000 0.251777
O O16 0.875862 0.500063 0.307867
O O17 0.750000 0.498654 0.503140
O O18 0.672169 0.250000 0.495743
O O19 0.636669 0.492711 0.430699
O O20 0.590973 0.250000 0.371157
#
# Coordination Sequence:
#
# PCOD9447488 Si02
#       7
#     8   8   8   8   8   8   8
#     4  10  19  30  44  62  87 118 149 180 213 256
#     4   9  16  27  44  65  89 115 142 176 218 260
#     4   8  15  27  42  61  84 111 143 176 212 254
#     4   9  16  27  44  65  90 119 151 187 225 266
#     4  11  23  35  46  63  88 117 149 184 220 260
#     4   8  14  25  43  67  91 115 144 178 217 259
#     4  10  19  31  47  65  89 121 153 185 220 263
#
# _framework density 16.073454000000002
#
# number of rings (size 3 to 8) (size 9 to 14) (size 15 to 20)
#    0.000    2.714    0.000    3.429    0.000    4.286 
#    0.000    0.000    0.000    8.571    0.000    1.000 
#    0.000    3.429    0.000    0.000    0.000    0.000 
#
# Total GULP energy -311749.580148 kJ/mol
# GULP energy per Si atom -5566.956788 kJ/mol
# Density = 1.603687 g / cm^3
# Si number density = 16.073454 Si / 1000 Ang^3
#
#
#
# Elastic Constant Matrix: (Units=GPa)
#
#
# Indices 1 2 3 4 5 6 
#
# 1 100.6161 13.4641 6.4034 0.0000 0.0000 0.0000
# 2 13.4641 21.9433 6.3051 0.0000 0.0000 0.0000
# 3 6.4034 6.3051 20.2058 0.0000 0.0000 0.0000
# 4 0.0000 0.0000 0.0000 16.8219 0.0000 0.0000
# 5 0.0000 0.0000 0.0000 0.0000 27.0468 0.0000
# 6 0.0000 0.0000 0.0000 0.0000 0.0000 19.0508
#
#
#
# Elastic Compliance Matrix: (Units=1/GPa)
#
#
# Indices 1 2 3 4 5 6 
#
# 1 0.010869 -0.006239 -0.001498 0.000000 0.000000 0.000000
# 2 -0.006239 0.053642 -0.014761 0.000000 0.000000 0.000000
# 3 -0.001498 -0.014761 0.054572 0.000000 0.000000 0.000000
# 4 0.000000 0.000000 0.000000 0.059446 0.000000 0.000000
# 5 0.000000 0.000000 0.000000 0.000000 0.036973 0.000000
# 6 0.000000 0.000000 0.000000 0.000000 0.000000 0.052491
#
#
# Mechanical properties :
#
#
# Convention : Reuss Voigt Hill
#
# Bulk Modulus (GPa) = 13.49774 21.67893 17.58833
# Shear Modulus (GPa) = 14.80676 20.35674 17.58175
#
# Velocity S-wave (km/s) = 3.03841 3.56263 3.31091
# Velocity P-wave (km/s) = 4.55247 5.51723 5.05790
#
# Compressibility (1/GPa) = 0.07408650
#
# Stress axis : x y z
#
# Youngs Moduli (GPa) = 92.00540 18.64227 18.32452
#
# Poissons Ratio (x) = 0.11630 0.02745
# Poissons Ratio (y) = 0.57399 0.27050
# Poissons Ratio (z) = 0.13780 0.27519
#
# Static dielectric constant tensor:
#      x y z
#    x 1.596220 0.000000 0.000000 
#    y 0.000000 1.550730 0.000000 
#    z 0.000000 0.000000 1.503440 
# 
# From -- ./inp_files/29327.got.cif
#   From: 2010.05.17/outbox.cif.g08.bks.cpg/sg59_15_cif.got.tgz:29327.got - 2010.06.03 14:40:33.
