data_PCOD9447179
_publ_section_title
;
Structure prediction by ZEFSAII (Michael W. Deem and Ramdas Pophale) SiO2 
 PCOD9447179
Probable space group: P M M N
;
_chemical_formula_sum "Si O2"
_cell_formula_units_Z 52
_cell_length_a 7.586149
_cell_length_b 27.780458
_cell_length_c 15.289892
_cell_angle_alpha 90.000000
_cell_angle_beta 90.000000
_cell_angle_gamma 90.000000
_cell_volume 3222.294186
_symmetry_space_group_name_H-M "P M M N"
_symmetry_group_IT_number 59
_space_group.IT_coordinate_system_code '2'
_symmetry_cell_setting 'orthorhombic'
loop_
_space_group_symop_operation_xyz
x,y,z
1/2-x,1/2-y,z
1/2+x,-y,-z
-x,1/2+y,-z
-x,-y,-z
1/2+x,1/2+y,-z
1/2-x,y,z
x,1/2-y,z
loop_
_atom_site_type_symbol
_atom_site_label
_atom_site_fract_x
_atom_site_fract_y
_atom_site_fract_z
Si Si1 0.750000 0.308096 0.186707
Si Si2 0.250000 0.807655 0.447773
Si Si3 0.537560 0.452284 0.602456
Si Si4 0.964360 0.694742 0.141668
Si Si5 0.547801 0.691412 0.948900
Si Si6 0.750000 0.136825 0.367940
Si Si7 0.544251 0.647806 0.322797
Si Si8 0.452127 0.060154 0.399874
O O1 0.750000 0.250000 0.193555
O O2 0.580351 0.322752 0.129149
O O3 0.750000 0.330933 0.281849
O O4 0.250000 0.750000 0.452297
O O5 0.250000 0.831576 0.543557
O O6 0.419765 0.826696 0.393993
O O7 0.750000 0.450455 0.594879
O O8 0.475841 0.409292 0.663922
O O9 0.490438 0.506536 0.629748
O O10 0.462706 0.442514 0.505677
O O11 0.750000 0.695644 0.138275
O O12 0.023745 0.750000 0.153641
O O13 0.013952 0.664235 0.226197
O O14 0.018637 0.676759 0.045619
O O15 0.750000 0.675747 0.936222
O O16 0.548956 0.750000 0.952023
O O17 0.581132 0.101813 0.369622
O O18 0.750000 0.661146 0.334520
O O19 0.250000 0.068414 0.374120
#
# Coordination Sequence:
#
# PCOD9447179 Si02
#       8
#     4   4   8   8   8   4   8   8
#     4  10  21  35  54  75  99 134 177 218 259 306
#     4  12  25  37  46  67 109 152 179 202 241 298
#     4  10  18  33  52  77 103 131 168 221 261 297
#     4   8  15  28  47  73 105 133 163 204 249 302
#     4   8  15  31  52  73  97 126 164 215 262 297
#     4  12  23  38  50  76 102 136 177 222 258 300
#     4  11  20  32  51  76 107 142 176 202 245 310
#     4  10  20  33  54  74  99 131 171 221 268 295
#
# _framework density 16.13757
#
# number of rings (size 3 to 8) (size 9 to 14) (size 15 to 20)
#    0.000    2.154    3.077    2.077    2.154    2.154 
#    0.000    1.538    0.000    2.769    0.000    1.077 
#    0.000    0.000    0.000    0.000    0.000    0.000 
#
# Total GULP energy -290011.529799 kJ/mol
# GULP energy per Si atom -5577.144804 kJ/mol
# Density = 1.610084 g / cm^3
# Si number density = 16.137570 Si / 1000 Ang^3
#
#
#
# Elastic Constant Matrix: (Units=GPa)
#
#
# Indices 1 2 3 4 5 6 
#
# 1 90.2824 39.2647 52.6699 0.0000 0.0000 0.0000
# 2 39.2647 79.1783 53.5769 0.0000 0.0000 0.0000
# 3 52.6699 53.5769 130.8166 0.0000 0.0000 0.0000
# 4 0.0000 0.0000 0.0000 5.8443 0.0000 0.0000
# 5 0.0000 0.0000 0.0000 0.0000 7.6859 0.0000
# 6 0.0000 0.0000 0.0000 0.0000 0.0000 16.0938
#
#
#
# Elastic Compliance Matrix: (Units=1/GPa)
#
#
# Indices 1 2 3 4 5 6 
#
# 1 0.015722 -0.004860 -0.004339 0.000000 0.000000 0.000000
# 2 -0.004860 0.018974 -0.005814 0.000000 0.000000 0.000000
# 3 -0.004339 -0.005814 0.011773 0.000000 0.000000 0.000000
# 4 0.000000 0.000000 0.000000 0.171107 0.000000 0.000000
# 5 0.000000 0.000000 0.000000 0.000000 0.130108 0.000000
# 6 0.000000 0.000000 0.000000 0.000000 0.000000 0.062136
#
#
# Mechanical properties :
#
#
# Convention : Reuss Voigt Hill
#
# Bulk Modulus (GPa) = 60.82347 65.70003 63.26175
# Shear Modulus (GPa) = 11.22771 16.24252 13.73512
#
# Velocity S-wave (km/s) = 2.64057 3.17599 2.92057
# Velocity P-wave (km/s) = 6.86070 7.36546 7.11756
#
# Compressibility (1/GPa) = 0.01644102
#
# Stress axis : x y z
#
# Youngs Moduli (GPa) = 63.60663 52.70341 84.94235
#
# Poissons Ratio (x) = 0.25614 0.36860
# Poissons Ratio (y) = 0.30913 0.49387
# Poissons Ratio (z) = 0.27602 0.30643
#
# Static dielectric constant tensor:
#      x y z
#    x 1.583470 0.000000 0.000000 
#    y 0.000000 1.530300 0.000000 
#    z 0.000000 0.000000 1.524140 
# 
# From -- ./inp_files/21662.got.cif
#   From: 2010.05.17/outbox.cif.g08.bks.cpg/sg59_11_cif.got.tgz:21662.got - 2010.06.03 14:40:33.
