data_PCOD9447099
_publ_section_title
;
Structure prediction by ZEFSAII (Michael W. Deem and Ramdas Pophale) SiO2 
 PCOD9447099
Probable space group: P M M N
;
_chemical_formula_sum "Si O2"
_cell_formula_units_Z 48
_cell_length_a 7.464050
_cell_length_b 19.750318
_cell_length_c 15.358925
_cell_angle_alpha 90.000000
_cell_angle_beta 90.000000
_cell_angle_gamma 90.000000
_cell_volume 2264.172192
_symmetry_space_group_name_H-M "P M M N"
_symmetry_group_IT_number 59
_space_group.IT_coordinate_system_code '2'
_symmetry_cell_setting 'orthorhombic'
loop_
_space_group_symop_operation_xyz
x,y,z
1/2-x,1/2-y,z
1/2+x,-y,-z
-x,1/2+y,-z
-x,-y,-z
1/2+x,1/2+y,-z
1/2-x,y,z
x,1/2-y,z
loop_
_atom_site_type_symbol
_atom_site_label
_atom_site_fract_x
_atom_site_fract_y
_atom_site_fract_z
Si Si1 0.464423 0.079408 0.131690
Si Si2 0.036046 0.826495 0.034099
Si Si3 0.459885 0.545435 0.369582
Si Si4 0.533783 0.904000 0.549322
Si Si5 0.469619 0.569430 0.175104
Si Si6 0.031278 0.174737 0.286736
O O1 0.250000 0.075635 0.138951
O O2 0.529778 0.118953 0.217504
O O3 0.527072 0.001788 0.131360
O O4 0.504702 0.125143 0.048487
O O5 0.250000 0.820952 0.043007
O O6 0.965471 0.750000 0.023005
O O7 0.968213 0.866912 0.118654
O O8 0.250000 0.532218 0.355074
O O9 0.533549 0.474626 0.407707
O O10 0.477434 0.597731 0.449054
O O11 0.529867 0.567481 0.275709
O O12 0.750000 0.905687 0.548472
O O13 0.477675 0.845774 0.615778
O O14 0.250000 0.571351 0.174025
O O15 0.250000 0.174263 0.284740
O O16 0.972494 0.250000 0.262669
#
# Coordination Sequence:
#
# PCOD9447099 Si02
#       6
#     8   8   8   8   8   8
#     4  10  18  32  54  76  94 121 166 210 243 282
#     4  10  21  35  49  69 100 134 162 194 245 299
#     4   9  16  29  49  70  92 121 158 196 230 272
#     4   9  16  28  46  69  95 122 153 191 235 280
#     4   9  17  32  53  73  95 127 166 204 239 286
#     4   9  16  27  46  71  97 125 157 194 240 292
#
# _framework density 21.199801000000001
#
# number of rings (size 3 to 8) (size 9 to 14) (size 15 to 20)
#    0.000    2.667    1.667    1.000    0.000    1.000 
#    0.000    3.333    0.000    2.500    0.000    0.000 
#    0.000    0.000    0.000    0.000    0.000    0.000 
#
# Total GULP energy -267839.578463 kJ/mol
# GULP energy per Si atom -5579.991218 kJ/mol
# Density = 2.115155 g / cm^3
# Si number density = 21.199801 Si / 1000 Ang^3
#
#
#
# Elastic Constant Matrix: (Units=GPa)
#
#
# Indices 1 2 3 4 5 6 
#
# 1 58.5397 3.8985 -3.9758 0.0000 0.0000 0.0000
# 2 3.8985 67.1435 51.0373 0.0000 0.0000 0.0000
# 3 -3.9758 51.0373 149.9035 0.0000 0.0000 0.0000
# 4 0.0000 0.0000 0.0000 24.1615 0.0000 0.0000
# 5 0.0000 0.0000 0.0000 0.0000 -7.1971 0.0000
# 6 0.0000 0.0000 0.0000 0.0000 0.0000 6.6566
#
#
#
# Elastic Compliance Matrix: (Units=1/GPa)
#
#
# Indices 1 2 3 4 5 6 
#
# 1 0.017277 -0.001823 0.001079 0.000000 0.000000 0.000000
# 2 -0.001823 0.020286 -0.006955 0.000000 0.000000 0.000000
# 3 0.001079 -0.006955 0.009068 0.000000 0.000000 0.000000
# 4 0.000000 0.000000 0.000000 0.041388 0.000000 0.000000
# 5 0.000000 0.000000 0.000000 0.000000 -0.138944 0.000000
# 6 0.000000 0.000000 0.000000 0.000000 0.000000 0.150227
#
#
# Mechanical properties :
#
#
# Convention : Reuss Voigt Hill
#
# Bulk Modulus (GPa) = 32.01853 41.94520 36.98187
# Shear Modulus (GPa) = 39.96451 19.69931 29.83191
#
# Velocity S-wave (km/s) = 4.34653 3.05162 3.75531
# Velocity P-wave (km/s) = 6.35025 5.67848 6.02374
#
# Compressibility (1/GPa) = 0.03123192
#
# Stress axis : x y z
#
# Youngs Moduli (GPa) = 57.88001 49.29493 110.28317
#
# Poissons Ratio (x) = 0.08988 -0.11900
# Poissons Ratio (y) = 0.10553 0.76703
# Poissons Ratio (z) = -0.06245 0.34285
#
# Static dielectric constant tensor:
#      x y z
#    x 1.822360 0.000000 0.000000 
#    y 0.000000 1.766030 0.000000 
#    z 0.000000 0.000000 1.761760 
# 
# From -- ./inp_files/15805.got.cif
#   From: 2010.05.17/outbox.cif.g08.bks.cpg/sg59_8_cif.got.tgz:15805.got - 2010.06.03 14:40:33.
