data_PCOD9447487
_publ_section_title
;
Structure prediction by ZEFSAII (Michael W. Deem and Ramdas Pophale) SiO2 
 PCOD9447487
Probable space group: P M M N
;
_chemical_formula_sum "Si O2"
_cell_formula_units_Z 64
_cell_length_a 25.149857
_cell_length_b 9.086639
_cell_length_c 18.949866
_cell_angle_alpha 90.000000
_cell_angle_beta 90.000000
_cell_angle_gamma 90.000000
_cell_volume 4330.568751
_symmetry_space_group_name_H-M "P M M N"
_symmetry_group_IT_number 59
_space_group.IT_coordinate_system_code '2'
_symmetry_cell_setting 'orthorhombic'
loop_
_space_group_symop_operation_xyz
x,y,z
1/2-x,1/2-y,z
1/2+x,-y,-z
-x,1/2+y,-z
-x,-y,-z
1/2+x,1/2+y,-z
1/2-x,y,z
x,1/2-y,z
loop_
_atom_site_type_symbol
_atom_site_label
_atom_site_fract_x
_atom_site_fract_y
_atom_site_fract_z
Si Si1 0.546973 0.581298 0.092121
Si Si2 0.923125 0.417960 0.958074
Si Si3 0.013892 0.925827 0.610932
Si Si4 0.812488 0.418712 0.730826
Si Si5 0.397618 0.076539 0.179573
Si Si6 0.583790 0.925417 0.509557
Si Si7 0.496156 0.072766 0.761028
Si Si8 0.688870 0.425159 0.562914
O O1 0.565510 0.750000 0.087067
O O2 0.485301 0.580417 0.066010
O O3 0.543635 0.536280 0.174017
O O4 0.578065 0.480031 0.037229
O O5 0.904704 0.250000 0.954054
O O6 0.894253 0.518500 0.900557
O O7 0.020294 0.750000 0.616840
O O8 0.955616 0.954049 0.576236
O O9 0.056157 0.993078 0.556119
O O10 0.018630 0.003216 0.686380
O O11 0.750000 0.427828 0.746679
O O12 0.830215 0.250000 0.744948
O O13 0.846240 0.530617 0.776434
O O14 0.818358 0.445566 0.647166
O O15 0.407156 0.250000 0.180691
O O16 0.447097 0.993301 0.216008
O O17 0.584419 0.750000 0.497968
O O18 0.642380 0.986710 0.524526
O O19 0.499566 0.250000 0.757016
O O20 0.750000 0.467178 0.545497
O O21 0.683480 0.250000 0.549247
#
# Coordination Sequence:
#
# PCOD9447487 Si02
#       8
#     8   8   8   8   8   8   8   8
#     4   8  15  26  39  57  81 108 137 171 208 244
#     4   9  16  26  40  57  79 109 142 173 206 244
#     4  10  20  32  46  65  89 118 151 186 224 267
#     4   9  18  32  47  62  83 112 145 181 220 259
#     4  11  20  28  41  61  86 115 147 181 215 256
#     4  10  20  32  46  65  89 118 150 184 223 266
#     4  10  19  30  44  62  86 115 146 179 216 260
#     4   9  18  32  49  67  87 114 147 184 226 267
#
# _framework density 14.778658999999999
#
# number of rings (size 3 to 8) (size 9 to 14) (size 15 to 20)
#    0.000    2.500    0.000    4.875    0.000    8.000 
#    0.000    1.250    0.000    0.000    0.000    0.000 
#    0.000    1.000    0.000   10.500    0.000    4.750 
#
# Total GULP energy -356728.169466 kJ/mol
# GULP energy per Si atom -5573.877648 kJ/mol
# Density = 1.474502 g / cm^3
# Si number density = 14.778659 Si / 1000 Ang^3
#
#
#
# Elastic Constant Matrix: (Units=GPa)
#
#
# Indices 1 2 3 4 5 6 
#
# 1 57.8014 36.9981 31.7991 0.0000 0.0000 0.0000
# 2 36.9981 79.8434 55.2177 0.0000 0.0000 0.0000
# 3 31.7991 55.2177 104.0062 0.0000 0.0000 0.0000
# 4 0.0000 0.0000 0.0000 28.2667 0.0000 0.0000
# 5 0.0000 0.0000 0.0000 0.0000 12.7251 0.0000
# 6 0.0000 0.0000 0.0000 0.0000 0.0000 21.0804
#
#
#
# Elastic Compliance Matrix: (Units=1/GPa)
#
#
# Indices 1 2 3 4 5 6 
#
# 1 0.024956 -0.009935 -0.002355 0.000000 0.000000 0.000000
# 2 -0.009935 0.023746 -0.009569 0.000000 0.000000 0.000000
# 3 -0.002355 -0.009569 0.015415 0.000000 0.000000 0.000000
# 4 0.000000 0.000000 0.000000 0.035377 0.000000 0.000000
# 5 0.000000 0.000000 0.000000 0.000000 0.078585 0.000000
# 6 0.000000 0.000000 0.000000 0.000000 0.000000 0.047437
#
#
# Mechanical properties :
#
#
# Convention : Reuss Voigt Hill
#
# Bulk Modulus (GPa) = 49.02565 54.40898 51.71732
# Shear Modulus (GPa) = 18.11354 20.25685 19.18520
#
# Velocity S-wave (km/s) = 3.50473 3.70629 3.60692
# Velocity P-wave (km/s) = 7.04435 7.43043 7.23996
#
# Compressibility (1/GPa) = 0.02039749
#
# Stress axis : x y z
#
# Youngs Moduli (GPa) = 40.07076 42.11180 64.86994
#
# Poissons Ratio (x) = 0.41839 0.15280
# Poissons Ratio (y) = 0.39811 0.62077
# Poissons Ratio (z) = 0.09438 0.40299
#
# Static dielectric constant tensor:
#      x y z
#    x 1.467760 0.000000 0.000000 
#    y 0.000000 1.498210 0.000000 
#    z 0.000000 0.000000 1.492240 
# 
# From -- ./inp_files/28508.got.cif
#   From: 2010.05.17/outbox.cif.g08.bks.cpg/sg59_15_cif.got.tgz:28508.got - 2010.06.03 14:40:33.
