data_PCOD9447969
_publ_section_title
;
Structure prediction by ZEFSAII (Michael W. Deem and Ramdas Pophale) SiO2 
 PCOD9447969
Probable space group: P M M N
;
_chemical_formula_sum "Si O2"
_cell_formula_units_Z 48
_cell_length_a 8.863097
_cell_length_b 20.970338
_cell_length_c 15.276244
_cell_angle_alpha 90.000000
_cell_angle_beta 90.000000
_cell_angle_gamma 90.000000
_cell_volume 2839.275398
_symmetry_space_group_name_H-M "P M M N"
_symmetry_group_IT_number 59
_space_group.IT_coordinate_system_code '2'
_symmetry_cell_setting 'orthorhombic'
loop_
_space_group_symop_operation_xyz
x,y,z
1/2-x,1/2-y,z
1/2+x,-y,-z
-x,1/2+y,-z
-x,-y,-z
1/2+x,1/2+y,-z
1/2-x,y,z
x,1/2-y,z
loop_
_atom_site_type_symbol
_atom_site_label
_atom_site_fract_x
_atom_site_fract_y
_atom_site_fract_z
Si Si1 0.424014 0.493090 0.228991
Si Si2 0.068157 0.044813 0.425416
Si Si3 0.071538 0.447792 0.934142
Si Si4 0.925397 0.844169 0.807521
Si Si5 0.929714 0.320402 0.007157
Si Si6 0.430982 0.821119 0.619180
O O1 0.250000 0.515429 0.225481
O O2 0.470384 0.485507 0.330212
O O3 0.525323 0.534299 0.164645
O O4 0.427503 0.420987 0.192465
O O5 0.250000 0.047773 0.430462
O O6 0.003468 0.117014 0.427076
O O7 0.000000 0.000000 0.500000
O O8 0.250000 0.449522 0.945647
O O9 0.008532 0.378499 0.958249
O O10 0.000000 0.500000 0.000000
O O11 0.750000 0.824607 0.807331
O O12 0.005896 0.823315 0.718328
O O13 0.010656 0.821569 0.893370
O O14 0.750000 0.329938 0.007043
O O15 0.962793 0.250000 0.970189
O O16 0.250000 0.828107 0.620003
O O17 0.466925 0.750000 0.583444
#
# Coordination Sequence:
#
# PCOD9447969 Si02
#       6
#     8   8   8   8   8   8
#     4   9  19  35  54  79 108 141 180 222 268 321
#     4  10  21  37  59  84 112 143 180 226 277 332
#     4  12  23  35  55  79 107 144 185 228 269 320
#     4  10  19  31  50  76 108 144 179 219 268 324
#     4  11  23  36  51  73 105 145 186 229 276 326
#     4  10  20  33  51  77 111 147 181 220 269 327
#
# _framework density 16.905721
#
# number of rings (size 3 to 8) (size 9 to 14) (size 15 to 20)
#    0.000    1.667    1.667    5.000    0.000    8.000 
#    0.000    0.000    0.000    1.000    0.000    7.000 
#    0.000    0.000    0.000    0.000    0.000    0.000 
#
# Total GULP energy -267963.403721 kJ/mol
# GULP energy per Si atom -5582.570911 kJ/mol
# Density = 1.686724 g / cm^3
# Si number density = 16.905721 Si / 1000 Ang^3
#
#
#
# Elastic Constant Matrix: (Units=GPa)
#
#
# Indices 1 2 3 4 5 6 
#
# 1 108.3245 77.0498 50.0412 0.0000 0.0000 0.0000
# 2 77.0498 149.3934 72.7168 0.0000 0.0000 0.0000
# 3 50.0412 72.7168 77.8207 0.0000 0.0000 0.0000
# 4 0.0000 0.0000 0.0000 7.3325 0.0000 0.0000
# 5 0.0000 0.0000 0.0000 0.0000 25.8961 0.0000
# 6 0.0000 0.0000 0.0000 0.0000 0.0000 27.2458
#
#
#
# Elastic Compliance Matrix: (Units=1/GPa)
#
#
# Indices 1 2 3 4 5 6 
#
# 1 0.015413 -0.005732 -0.004555 0.000000 0.000000 0.000000
# 2 -0.005732 0.014410 -0.009779 0.000000 0.000000 0.000000
# 3 -0.004555 -0.009779 0.024916 0.000000 0.000000 0.000000
# 4 0.000000 0.000000 0.000000 0.136379 0.000000 0.000000
# 5 0.000000 0.000000 0.000000 0.000000 0.038616 0.000000
# 6 0.000000 0.000000 0.000000 0.000000 0.000000 0.036703
#
#
# Mechanical properties :
#
#
# Convention : Reuss Voigt Hill
#
# Bulk Modulus (GPa) = 68.45737 81.68381 75.07059
# Shear Modulus (GPa) = 16.05455 21.14359 18.59907
#
# Velocity S-wave (km/s) = 3.08499 3.54033 3.32047
# Velocity P-wave (km/s) = 7.29870 8.07057 7.69432
#
# Compressibility (1/GPa) = 0.01460763
#
# Stress axis : x y z
#
# Youngs Moduli (GPa) = 64.88097 69.39629 40.13421
#
# Poissons Ratio (x) = 0.39779 0.18280
# Poissons Ratio (y) = 0.37191 0.39247
# Poissons Ratio (z) = 0.29551 0.67862
#
# Static dielectric constant tensor:
#      x y z
#    x 1.566710 0.000000 0.000000 
#    y 0.000000 1.589620 0.000000 
#    z 0.000000 0.000000 1.551130 
# 
# From -- ./inp_files/20753.got.cif
#   From: 2010.05.17/outbox.cif.g08.bks.cpg/sg59_11_cif.got.tgz:20753.got - 2010.06.03 14:40:33.
