data_PCOD9447096
_publ_section_title
;
Structure prediction by ZEFSAII (Michael W. Deem and Ramdas Pophale) SiO2 
 PCOD9447096
Probable space group: P M M N
;
_chemical_formula_sum "Si O2"
_cell_formula_units_Z 64
_cell_length_a 7.527840
_cell_length_b 20.285308
_cell_length_c 21.089341
_cell_angle_alpha 90.000000
_cell_angle_beta 90.000000
_cell_angle_gamma 90.000000
_cell_volume 3220.438390
_symmetry_space_group_name_H-M "P M M N"
_symmetry_group_IT_number 59
_space_group.IT_coordinate_system_code '2'
_symmetry_cell_setting 'orthorhombic'
loop_
_space_group_symop_operation_xyz
x,y,z
1/2-x,1/2-y,z
1/2+x,-y,-z
-x,1/2+y,-z
-x,-y,-z
1/2+x,1/2+y,-z
1/2-x,y,z
x,1/2-y,z
loop_
_atom_site_type_symbol
_atom_site_label
_atom_site_fract_x
_atom_site_fract_y
_atom_site_fract_z
Si Si1 0.961166 0.080410 0.946417
Si Si2 0.534129 0.586569 0.553271
Si Si3 0.536232 0.675250 0.167397
Si Si4 0.531864 0.572542 0.274089
Si Si5 0.958832 0.935425 0.414836
Si Si6 0.453833 0.933329 0.914469
Si Si7 0.962584 0.429752 0.224001
Si Si8 0.963539 0.824242 0.667795
O O1 0.750000 0.068023 0.950698
O O2 0.992350 0.140060 0.898875
O O3 0.030618 0.090139 0.018161
O O4 0.042985 0.013122 0.918782
O O5 0.750000 0.586577 0.552108
O O6 0.469261 0.593763 0.480831
O O7 0.478282 0.514421 0.577844
O O8 0.472705 0.640962 0.603161
O O9 0.750000 0.677317 0.171908
O O10 0.469748 0.750000 0.171130
O O11 0.474036 0.627857 0.224262
O O12 0.750000 0.571942 0.274890
O O13 0.469657 0.584216 0.346117
O O14 0.473061 0.500103 0.250771
O O15 0.750000 0.919502 0.413828
O O16 0.250000 0.909861 0.913896
O O17 0.534750 0.915693 0.846527
O O18 0.750000 0.437159 0.217355
O O19 0.995586 0.372021 0.273709
O O20 0.750000 0.821149 0.663219
O O21 0.030829 0.750000 0.675723
#
# Coordination Sequence:
#
# PCOD9447096 Si02
#       8
#     8   8   8   8   8   8   8   8
#     4  10  19  31  51  77 102 129 163 206 250 296
#     4   9  17  29  46  69  96 126 160 196 243 296
#     4  10  20  35  53  72 101 140 172 203 252 308
#     4   9  16  29  50  75  99 125 162 211 252 286
#     4   9  16  28  48  72  96 121 157 206 248 282
#     4   9  18  33  52  75 102 129 161 205 253 295
#     4  10  18  32  54  75  98 128 166 212 250 290
#     4  10  21  35  48  68 103 138 166 202 250 304
#
# _framework density 19.873069999999998
#
# number of rings (size 3 to 8) (size 9 to 14) (size 15 to 20)
#    0.000    2.500    2.500    0.375    0.000    1.500 
#    0.000    1.875    0.000    7.500    0.000    0.000 
#    0.000    3.000    0.000    0.000    0.000    0.000 
#
# Total GULP energy -357011.095278 kJ/mol
# GULP energy per Si atom -5578.298364 kJ/mol
# Density = 1.982784 g / cm^3
# Si number density = 19.873070 Si / 1000 Ang^3
#
#
#
# Elastic Constant Matrix: (Units=GPa)
#
#
# Indices 1 2 3 4 5 6 
#
# 1 51.4966 -8.4039 1.5953 0.0000 0.0000 0.0000
# 2 -8.4039 120.4282 102.9067 0.0000 0.0000 0.0000
# 3 1.5953 102.9067 220.7002 0.0000 0.0000 0.0000
# 4 0.0000 0.0000 0.0000 24.6315 0.0000 0.0000
# 5 0.0000 0.0000 0.0000 0.0000 6.8676 0.0000
# 6 0.0000 0.0000 0.0000 0.0000 0.0000 13.9655
#
#
#
# Elastic Compliance Matrix: (Units=1/GPa)
#
#
# Indices 1 2 3 4 5 6 
#
# 1 0.019869 0.002509 -0.001313 0.000000 0.000000 0.000000
# 2 0.002509 0.014120 -0.006602 0.000000 0.000000 0.000000
# 3 -0.001313 -0.006602 0.007619 0.000000 0.000000 0.000000
# 4 0.000000 0.000000 0.000000 0.040598 0.000000 0.000000
# 5 0.000000 0.000000 0.000000 0.000000 0.145612 0.000000
# 6 0.000000 0.000000 0.000000 0.000000 0.000000 0.071605
#
#
# Mechanical properties :
#
#
# Convention : Reuss Voigt Hill
#
# Bulk Modulus (GPa) = 32.47302 64.98013 48.72658
# Shear Modulus (GPa) = 15.60056 28.86137 22.23096
#
# Velocity S-wave (km/s) = 2.80484 3.81502 3.34825
# Velocity P-wave (km/s) = 5.18317 7.22319 6.28648
#
# Compressibility (1/GPa) = 0.03079480
#
# Stress axis : x y z
#
# Youngs Moduli (GPa) = 50.32996 70.82008 131.25261
#
# Poissons Ratio (x) = -0.17768 0.17239
# Poissons Ratio (y) = -0.12627 0.86654
# Poissons Ratio (z) = 0.06610 0.46756
#
# Static dielectric constant tensor:
#      x y z
#    x 1.777140 0.000000 0.000000 
#    y 0.000000 1.649200 0.000000 
#    z 0.000000 0.000000 1.734390 
# 
# From -- ./inp_files/29690.got.cif
#   From: 2010.05.17/outbox.cif.g08.bks.cpg/sg59_15_cif.got.tgz:29690.got - 2010.06.03 14:40:33.
