data_PCOD9447785
_publ_section_title
;
Structure prediction by ZEFSAII (Michael W. Deem and Ramdas Pophale) SiO2 
 PCOD9447785
Probable space group: P M M N
;
_chemical_formula_sum "Si O2"
_cell_formula_units_Z 64
_cell_length_a 28.985614
_cell_length_b 8.292037
_cell_length_c 14.435472
_cell_angle_alpha 90.000000
_cell_angle_beta 90.000000
_cell_angle_gamma 90.000000
_cell_volume 3469.562574
_symmetry_space_group_name_H-M "P M M N"
_symmetry_group_IT_number 59
_space_group.IT_coordinate_system_code '2'
_symmetry_cell_setting 'orthorhombic'
loop_
_space_group_symop_operation_xyz
x,y,z
1/2-x,1/2-y,z
1/2+x,-y,-z
-x,1/2+y,-z
-x,-y,-z
1/2+x,1/2+y,-z
1/2-x,y,z
x,1/2-y,z
loop_
_atom_site_type_symbol
_atom_site_label
_atom_site_fract_x
_atom_site_fract_y
_atom_site_fract_z
Si Si1 0.565815 0.444348 0.284465
Si Si2 0.873708 0.433992 0.122906
Si Si3 0.302038 0.942894 0.022336
Si Si4 0.642104 0.562134 0.431106
Si Si5 0.623178 0.062449 0.626916
Si Si6 0.802913 0.936816 0.258982
Si Si7 0.981498 0.056124 0.600835
Si Si8 0.301791 0.059110 0.229990
O O1 0.569443 0.250000 0.285760
O O2 0.583056 0.501704 0.182407
O O3 0.600346 0.514762 0.362395
O O4 0.515726 0.496236 0.319021
O O5 0.885786 0.250000 0.098010
O O6 0.834034 0.442436 0.201236
O O7 0.845561 0.509215 0.036634
O O8 0.250000 0.004590 0.997740
O O9 0.301223 0.750000 0.006007
O O10 0.308751 0.975167 0.130805
O O11 0.637420 0.750000 0.456719
O O12 0.641853 0.458690 0.522963
O O13 0.686925 0.541485 0.367283
O O14 0.620731 0.250000 0.651911
O O15 0.570613 0.998479 0.620858
O O16 0.658099 0.981081 0.698123
O O17 0.750000 0.957738 0.236718
O O18 0.816568 0.750000 0.237512
O O19 0.981243 0.250000 0.598625
O O20 0.000000 0.000000 0.500000
O O21 0.250000 0.013150 0.263755
O O22 0.301656 0.250000 0.213532
#
# Coordination Sequence:
#
# PCOD9447785 Si02
#       8
#     8   8   8   8   8   8   8   8
#     4  10  19  32  50  76 109 141 177 218 263 317
#     4   9  18  31  50  76 105 137 174 215 261 315
#     4   9  17  32  55  80 106 138 176 219 268 319
#     4  10  19  31  48  69  99 138 177 218 264 313
#     4  11  23  37  55  79 105 137 179 224 269 319
#     4   9  18  30  43  65  99 136 172 211 256 309
#     4  11  22  35  55  80 108 141 181 226 270 317
#     4  10  22  39  58  81 108 138 175 220 269 321
#
# _framework density 18.446128000000002
#
# number of rings (size 3 to 8) (size 9 to 14) (size 15 to 20)
#    0.000    2.125    1.250    2.250    0.000    5.000 
#    0.000    2.500    0.000    0.750    0.000    0.000 
#    0.000    0.000    0.000    0.000    0.000    0.000 
#
# Total GULP energy -356627.676780 kJ/mol
# GULP energy per Si atom -5572.307450 kJ/mol
# Density = 1.840414 g / cm^3
# Si number density = 18.446128 Si / 1000 Ang^3
#
#
#
# Elastic Constant Matrix: (Units=GPa)
#
#
# Indices 1 2 3 4 5 6 
#
# 1 80.1029 12.0639 44.8063 0.0000 0.0000 0.0000
# 2 12.0639 18.5903 -2.8373 0.0000 0.0000 0.0000
# 3 44.8063 -2.8373 72.1319 0.0000 0.0000 0.0000
# 4 0.0000 0.0000 0.0000 11.5955 0.0000 0.0000
# 5 0.0000 0.0000 0.0000 0.0000 28.7245 0.0000
# 6 0.0000 0.0000 0.0000 0.0000 0.0000 11.9496
#
#
#
# Elastic Compliance Matrix: (Units=1/GPa)
#
#
# Indices 1 2 3 4 5 6 
#
# 1 0.023852 -0.017847 -0.015518 0.000000 0.000000 0.000000
# 2 -0.017847 0.067470 0.013740 0.000000 0.000000 0.000000
# 3 -0.015518 0.013740 0.024043 0.000000 0.000000 0.000000
# 4 0.000000 0.000000 0.000000 0.086241 0.000000 0.000000
# 5 0.000000 0.000000 0.000000 0.000000 0.034814 0.000000
# 6 0.000000 0.000000 0.000000 0.000000 0.000000 0.083685
#
#
# Mechanical properties :
#
#
# Convention : Reuss Voigt Hill
#
# Bulk Modulus (GPa) = 13.13798 30.98788 22.06293
# Shear Modulus (GPa) = 12.99624 18.24005 15.61815
#
# Velocity S-wave (km/s) = 2.65722 3.14798 2.91295
# Velocity P-wave (km/s) = 4.06844 5.48166 4.82705
#
# Compressibility (1/GPa) = 0.07611523
#
# Stress axis : x y z
#
# Youngs Moduli (GPa) = 41.92512 14.82137 41.59137
#
# Poissons Ratio (x) = 0.26452 0.64542
# Poissons Ratio (y) = 0.74823 -0.57146
# Poissons Ratio (z) = 0.65060 -0.20365
#
# Static dielectric constant tensor:
#      x y z
#    x 1.660670 0.000000 0.000000 
#    y 0.000000 1.668750 0.000000 
#    z 0.000000 0.000000 1.628500 
# 
# From -- ./inp_files/19381.got.cif
#   From: 2010.05.17/outbox.cif.g08.bks.cpg/sg59_10_cif.got.tgz:19381.got - 2010.06.03 14:40:33.
