data_PCOD9447125
_publ_section_title
;
Structure prediction by ZEFSAII (Michael W. Deem and Ramdas Pophale) SiO2 
 PCOD9447125
Probable space group: P M M N
;
_chemical_formula_sum "Si O2"
_cell_formula_units_Z 64
_cell_length_a 8.274603
_cell_length_b 34.874519
_cell_length_c 11.037182
_cell_angle_alpha 90.000000
_cell_angle_beta 90.000000
_cell_angle_gamma 90.000000
_cell_volume 3185.030509
_symmetry_space_group_name_H-M "P M M N"
_symmetry_group_IT_number 59
_space_group.IT_coordinate_system_code '2'
_symmetry_cell_setting 'orthorhombic'
loop_
_space_group_symop_operation_xyz
x,y,z
1/2-x,1/2-y,z
1/2+x,-y,-z
-x,1/2+y,-z
-x,-y,-z
1/2+x,1/2+y,-z
1/2-x,y,z
x,1/2-y,z
loop_
_atom_site_type_symbol
_atom_site_label
_atom_site_fract_x
_atom_site_fract_y
_atom_site_fract_z
Si Si1 0.063790 0.015776 0.688612
Si Si2 0.060101 0.444918 0.187742
Si Si3 0.553854 0.627807 0.665724
Si Si4 0.053083 0.292896 0.222467
Si Si5 0.565453 0.446718 0.926899
Si Si6 0.053334 0.207630 0.940823
Si Si7 0.059415 0.907817 0.414725
Si Si8 0.058443 0.371104 0.830043
O O1 0.250000 0.009137 0.660209
O O2 0.044545 0.035154 0.822091
O O3 0.992341 0.047651 0.598762
O O4 0.975142 0.975414 0.706194
O O5 0.250000 0.443977 0.162697
O O6 0.007603 0.402867 0.230880
O O7 0.974666 0.457347 0.063859
O O8 0.750000 0.627616 0.658931
O O9 0.499387 0.670690 0.699388
O O10 0.486466 0.611239 0.541064
O O11 0.250000 0.292974 0.225456
O O12 0.000736 0.250000 0.260430
O O13 0.007167 0.298337 0.081449
O O14 0.750000 0.456840 0.897363
O O15 0.535638 0.401359 0.913238
O O16 0.250000 0.208323 0.938704
O O17 0.997226 0.250000 0.902806
O O18 0.003606 0.171921 0.859174
O O19 0.250000 0.905925 0.393801
O O20 0.972720 0.884476 0.306891
O O21 0.250000 0.374190 0.856547
#
# Coordination Sequence:
#
# PCOD9447125 Si02
#       8
#     8   8   8   8   8   8   8   8
#     4  11  22  38  58  79 106 140 179 222 270 320
#     4  11  22  36  55  81 111 141 177 220 268 321
#     4  10  21  37  57  80 106 140 182 225 266 311
#     4   8  14  28  53  84 113 137 167 212 263 310
#     4  11  21  34  53  79 111 143 178 219 267 322
#     4   8  14  26  49  83 115 138 166 212 268 322
#     4  11  23  39  56  74 102 141 183 226 269 316
#     4  10  18  32  55  79 105 139 179 222 269 319
#
# _framework density 20.093999
#
# number of rings (size 3 to 8) (size 9 to 14) (size 15 to 20)
#    0.000    2.000    0.000    7.500    0.000    3.500 
#    0.000    0.625    0.000    5.625    0.000    3.500 
#    0.000    0.000    0.000    0.000    0.000    0.000 
#
# Total GULP energy -357435.433313 kJ/mol
# GULP energy per Si atom -5584.928646 kJ/mol
# Density = 2.004826 g / cm^3
# Si number density = 20.093999 Si / 1000 Ang^3
#
#
#
# Elastic Constant Matrix: (Units=GPa)
#
#
# Indices 1 2 3 4 5 6 
#
# 1 24.6813 -3.7271 -3.2479 0.0000 0.0000 0.0000
# 2 -3.7271 94.8280 9.2425 0.0000 0.0000 0.0000
# 3 -3.2479 9.2425 46.1085 0.0000 0.0000 0.0000
# 4 0.0000 0.0000 0.0000 26.8344 0.0000 0.0000
# 5 0.0000 0.0000 0.0000 0.0000 11.7662 0.0000
# 6 0.0000 0.0000 0.0000 0.0000 0.0000 15.5277
#
#
#
# Elastic Compliance Matrix: (Units=1/GPa)
#
#
# Indices 1 2 3 4 5 6 
#
# 1 0.041066 0.001359 0.002620 0.000000 0.000000 0.000000
# 2 0.001359 0.010800 -0.002069 0.000000 0.000000 0.000000
# 3 0.002620 -0.002069 0.022287 0.000000 0.000000 0.000000
# 4 0.000000 0.000000 0.000000 0.037266 0.000000 0.000000
# 5 0.000000 0.000000 0.000000 0.000000 0.084989 0.000000
# 6 0.000000 0.000000 0.000000 0.000000 0.000000 0.064401
#
#
# Mechanical properties :
#
#
# Convention : Reuss Voigt Hill
#
# Bulk Modulus (GPa) = 12.82480 18.90587 15.86534
# Shear Modulus (GPa) = 17.66900 21.71569 19.69234
#
# Velocity S-wave (km/s) = 2.96855 3.29097 3.13391
# Velocity P-wave (km/s) = 4.25981 4.88568 4.58344
#
# Compressibility (1/GPa) = 0.07797391
#
# Stress axis : x y z
#
# Youngs Moduli (GPa) = 24.35075 92.58833 44.86849
#
# Poissons Ratio (x) = -0.12580 -0.11757
# Poissons Ratio (y) = -0.03308 0.09285
# Poissons Ratio (z) = -0.06381 0.19159
#
# Static dielectric constant tensor:
#      x y z
#    x 1.703800 0.000000 0.000000 
#    y 0.000000 1.741600 0.000000 
#    z 0.000000 0.000000 1.694150 
# 
# From -- ./inp_files/14925.got.cif
#   From: 2010.05.17/outbox.cif.g08.bks.cpg/sg59_8_cif.got.tgz:14925.got - 2010.06.03 14:40:33.
