data_PCOD9447533
_publ_section_title
;
Structure prediction by ZEFSAII (Michael W. Deem and Ramdas Pophale) SiO2 
 PCOD9447533
Probable space group: P M M N
;
_chemical_formula_sum "Si O2"
_cell_formula_units_Z 48
_cell_length_a 8.410272
_cell_length_b 19.727514
_cell_length_c 16.672733
_cell_angle_alpha 90.000000
_cell_angle_beta 90.000000
_cell_angle_gamma 90.000000
_cell_volume 2766.235799
_symmetry_space_group_name_H-M "P M M N"
_symmetry_group_IT_number 59
_space_group.IT_coordinate_system_code '2'
_symmetry_cell_setting 'orthorhombic'
loop_
_space_group_symop_operation_xyz
x,y,z
1/2-x,1/2-y,z
1/2+x,-y,-z
-x,1/2+y,-z
-x,-y,-z
1/2+x,1/2+y,-z
1/2-x,y,z
x,1/2-y,z
loop_
_atom_site_type_symbol
_atom_site_label
_atom_site_fract_x
_atom_site_fract_y
_atom_site_fract_z
Si Si1 0.558157 0.073091 0.031201
Si Si2 0.440435 0.250000 0.583949
Si Si3 0.059490 0.605601 0.470623
Si Si4 0.557840 0.020354 0.375424
Si Si5 0.059888 0.250000 0.768343
Si Si6 0.557691 0.474990 0.195807
Si Si7 0.940993 0.120983 0.865646
O O1 0.750000 0.073848 0.032192
O O2 0.504199 0.075237 0.123862
O O3 0.508078 0.123454 0.959837
O O4 0.500000 0.000000 0.000000
O O5 0.250000 0.250000 0.584152
O O6 0.499006 0.318787 0.542650
O O7 0.497895 0.250000 0.676427
O O8 0.250000 0.605531 0.469366
O O9 0.005206 0.572113 0.554891
O O10 0.998864 0.554272 0.401852
O O11 0.750000 0.019822 0.375494
O O12 0.502181 0.039000 0.286155
O O13 0.250000 0.250000 0.766610
O O14 0.002067 0.183741 0.814943
O O15 0.750000 0.473952 0.196859
O O16 0.504351 0.550552 0.171063
O O17 0.750000 0.119703 0.862982
#
# Coordination Sequence:
#
# PCOD9447533 Si02
#       7
#     8   4   8   8   4   8   8
#     4   8  15  27  44  66  91 118 146 179 218 258
#     4  11  23  37  51  68  93 126 162 197 237 289
#     4  10  20  33  50  72  98 126 158 198 242 285
#     4   9  18  32  50  73  99 127 159 195 236 284
#     4  11  23  35  47  64  89 124 158 185 223 277
#     4   9  16  29  49  70  94 123 153 184 223 274
#     4  10  19  30  45  69  97 121 151 190 228 266
#
# _framework density 17.352098999999999
#
# number of rings (size 3 to 8) (size 9 to 14) (size 15 to 20)
#    0.000    2.500    0.000    2.500    0.000    7.333 
#    0.000    0.000    0.000    1.000    0.000    7.000 
#    0.000    0.000    0.000    0.000    0.000    0.000 
#
# Total GULP energy -267463.272837 kJ/mol
# GULP energy per Si atom -5572.151517 kJ/mol
# Density = 1.731260 g / cm^3
# Si number density = 17.352099 Si / 1000 Ang^3
#
#
#
# Elastic Constant Matrix: (Units=GPa)
#
#
# Indices 1 2 3 4 5 6 
#
# 1 8.2036 5.0150 16.0707 0.0000 0.0000 0.0000
# 2 5.0150 78.9231 43.2559 0.0000 0.0000 0.0000
# 3 16.0707 43.2559 140.2589 0.0000 0.0000 0.0000
# 4 0.0000 0.0000 0.0000 19.7135 0.0000 0.0000
# 5 0.0000 0.0000 0.0000 0.0000 20.4055 0.0000
# 6 0.0000 0.0000 0.0000 0.0000 0.0000 13.2143
#
#
#
# Elastic Compliance Matrix: (Units=1/GPa)
#
#
# Indices 1 2 3 4 5 6 
#
# 1 0.157180 -0.000141 -0.017966 0.000000 0.000000 0.000000
# 2 -0.000141 0.015248 -0.004686 0.000000 0.000000 0.000000
# 3 -0.017966 -0.004686 0.010633 0.000000 0.000000 0.000000
# 4 0.000000 0.000000 0.000000 0.050727 0.000000 0.000000
# 5 0.000000 0.000000 0.000000 0.000000 0.049006 0.000000
# 6 0.000000 0.000000 0.000000 0.000000 0.000000 0.075676
#
#
# Mechanical properties :
#
#
# Convention : Reuss Voigt Hill
#
# Bulk Modulus (GPa) = 7.27405 39.56318 23.41862
# Shear Modulus (GPa) = 11.11403 21.53623 16.32513
#
# Velocity S-wave (km/s) = 2.53356 3.52679 3.07060
# Velocity P-wave (km/s) = 3.57207 6.27966 5.10851
#
# Compressibility (1/GPa) = 0.13747496
#
# Stress axis : x y z
#
# Youngs Moduli (GPa) = 6.36213 65.58239 94.04247
#
# Poissons Ratio (x) = 0.00923 1.68958
# Poissons Ratio (y) = 0.00090 0.44072
# Poissons Ratio (z) = 0.11430 0.30734
#
# Static dielectric constant tensor:
#      x y z
#    x 1.592430 0.000000 0.000000 
#    y 0.000000 1.543470 0.000000 
#    z 0.000000 0.000000 1.652750 
# 
# From -- ./inp_files/25979.got.cif
#   From: 2010.05.17/outbox.cif.g08.bks.cpg/sg59_13_cif.got.tgz:25979.got - 2010.06.03 14:40:33.
