data_PCOD9447375
_publ_section_title
;
Structure prediction by ZEFSAII (Michael W. Deem and Ramdas Pophale) SiO2 
 PCOD9447375
Probable space group: P M M N
;
_chemical_formula_sum "Si O2"
_cell_formula_units_Z 64
_cell_length_a 28.434762
_cell_length_b 7.593882
_cell_length_c 15.053480
_cell_angle_alpha 90.000000
_cell_angle_beta 90.000000
_cell_angle_gamma 90.000000
_cell_volume 3250.501358
_symmetry_space_group_name_H-M "P M M N"
_symmetry_group_IT_number 59
_space_group.IT_coordinate_system_code '2'
_symmetry_cell_setting 'orthorhombic'
loop_
_space_group_symop_operation_xyz
x,y,z
1/2-x,1/2-y,z
1/2+x,-y,-z
-x,1/2+y,-z
-x,-y,-z
1/2+x,1/2+y,-z
1/2-x,y,z
x,1/2-y,z
loop_
_atom_site_type_symbol
_atom_site_label
_atom_site_fract_x
_atom_site_fract_y
_atom_site_fract_z
Si Si1 0.114276 0.044918 0.861583
Si Si2 0.447297 0.539848 0.526086
Si Si3 0.626815 0.462049 0.614975
Si Si4 0.963078 0.035368 0.281388
Si Si5 0.054635 0.037403 0.024544
Si Si6 0.934257 0.540304 0.775372
Si Si7 0.195379 0.038713 0.730474
Si Si8 0.197290 0.961997 0.531529
O O1 0.125586 0.250000 0.878195
O O2 0.158991 0.971399 0.805908
O O3 0.069431 0.032117 0.796841
O O4 0.092926 0.969171 0.953165
O O5 0.500000 0.500000 0.500000
O O6 0.439728 0.750000 0.528673
O O7 0.414404 0.469147 0.449392
O O8 0.441458 0.473626 0.625664
O O9 0.628005 0.250000 0.614050
O O10 0.611180 0.507777 0.714322
O O11 0.671758 0.523272 0.558307
O O12 0.962405 0.250000 0.279655
O O13 0.017257 0.976519 0.270765
O O14 0.058252 0.250000 0.023639
O O15 0.065916 0.972621 0.123893
O O16 0.000000 0.000000 0.000000
O O17 0.939181 0.750000 0.781506
O O18 0.250000 0.974307 0.737971
O O19 0.196944 0.250000 0.738487
O O20 0.177210 0.000964 0.629964
O O21 0.250000 0.032250 0.533526
O O22 0.198280 0.750000 0.526837
#
# Coordination Sequence:
#
# PCOD9447375 Si02
#       8
#     8   8   8   8   8   8   8   8
#     4  10  20  32  50  73  96 126 161 202 248 295
#     4  10  19  29  41  61  92 125 155 186 225 276
#     4  10  20  32  48  70  96 128 164 201 239 286
#     4  10  19  31  46  67  96 129 162 196 238 286
#     4  10  20  34  50  70  97 129 167 206 246 292
#     4  10  20  33  48  67  95 131 165 202 244 286
#     4   9  18  33  52  76 103 128 158 198 246 297
#     4   9  18  34  55  77 101 130 164 202 245 293
#
# _framework density 19.689271999999999
#
# number of rings (size 3 to 8) (size 9 to 14) (size 15 to 20)
#    0.000    2.250    2.500    0.750    0.000    3.500 
#    0.000    0.000    0.000    0.750    0.000    1.750 
#    0.000    0.000    0.000    0.000    0.000    0.000 
#
# Total GULP energy -356714.729272 kJ/mol
# GULP energy per Si atom -5573.667645 kJ/mol
# Density = 1.964446 g / cm^3
# Si number density = 19.689272 Si / 1000 Ang^3
#
#
#
# Elastic Constant Matrix: (Units=GPa)
#
#
# Indices 1 2 3 4 5 6 
#
# 1 91.9289 -0.9727 61.7435 0.0000 0.0000 0.0000
# 2 -0.9727 41.9580 4.5206 0.0000 0.0000 0.0000
# 3 61.7435 4.5206 170.6525 0.0000 0.0000 0.0000
# 4 0.0000 0.0000 0.0000 10.5020 0.0000 0.0000
# 5 0.0000 0.0000 0.0000 0.0000 34.7151 0.0000
# 6 0.0000 0.0000 0.0000 0.0000 0.0000 11.8472
#
#
#
# Elastic Compliance Matrix: (Units=1/GPa)
#
#
# Indices 1 2 3 4 5 6 
#
# 1 0.014404 0.000898 -0.005235 0.000000 0.000000 0.000000
# 2 0.000898 0.023958 -0.000960 0.000000 0.000000 0.000000
# 3 -0.005235 -0.000960 0.007779 0.000000 0.000000 0.000000
# 4 0.000000 0.000000 0.000000 0.095220 0.000000 0.000000
# 5 0.000000 0.000000 0.000000 0.000000 0.028806 0.000000
# 6 0.000000 0.000000 0.000000 0.000000 0.000000 0.084408
#
#
# Mechanical properties :
#
#
# Convention : Reuss Voigt Hill
#
# Bulk Modulus (GPa) = 28.13166 48.34691 38.23928
# Shear Modulus (GPa) = 18.04943 27.36273 22.70608
#
# Velocity S-wave (km/s) = 3.03101 3.73195 3.39959
# Velocity P-wave (km/s) = 5.15444 6.57101 5.90535
#
# Compressibility (1/GPa) = 0.03554714
#
# Stress axis : x y z
#
# Youngs Moduli (GPa) = 69.42696 41.74053 128.54471
#
# Poissons Ratio (x) = -0.03748 0.67295
# Poissons Ratio (y) = -0.06234 0.12334
# Poissons Ratio (z) = 0.36346 0.04005
#
# Static dielectric constant tensor:
#      x y z
#    x 1.712790 0.000000 0.000000 
#    y 0.000000 1.751660 0.000000 
#    z 0.000000 0.000000 1.734500 
# 
# From -- ./inp_files/18772.got.cif
#   From: 2010.05.17/outbox.cif.g08.bks.cpg/sg59_10_cif.got.tgz:18772.got - 2010.06.03 14:40:33.
