data_PCOD9447897
_publ_section_title
;
Structure prediction by ZEFSAII (Michael W. Deem and Ramdas Pophale) SiO2 
 PCOD9447897
Probable space group: P M M N
;
_chemical_formula_sum "Si O2"
_cell_formula_units_Z 56
_cell_length_a 13.638676
_cell_length_b 15.437022
_cell_length_c 12.873644
_cell_angle_alpha 90.000000
_cell_angle_beta 90.000000
_cell_angle_gamma 90.000000
_cell_volume 2710.423978
_symmetry_space_group_name_H-M "P M M N"
_symmetry_group_IT_number 59
_space_group.IT_coordinate_system_code '2'
_symmetry_cell_setting 'orthorhombic'
loop_
_space_group_symop_operation_xyz
x,y,z
1/2-x,1/2-y,z
1/2+x,-y,-z
-x,1/2+y,-z
-x,-y,-z
1/2+x,1/2+y,-z
1/2-x,y,z
x,1/2-y,z
loop_
_atom_site_type_symbol
_atom_site_label
_atom_site_fract_x
_atom_site_fract_y
_atom_site_fract_z
Si Si1 0.578910 0.157454 0.602478
Si Si2 0.440141 0.353541 0.319449
Si Si3 0.359272 0.350236 0.921396
Si Si4 0.134596 0.464233 0.124271
Si Si5 0.434188 0.651375 0.160859
Si Si6 0.141804 0.576517 0.597102
Si Si7 0.639596 0.619473 0.451346
O O1 0.618264 0.250000 0.566380
O O2 0.603196 0.145179 0.721735
O O3 0.623656 0.088486 0.525967
O O4 0.461294 0.160445 0.589511
O O5 0.426304 0.250000 0.300691
O O6 0.414076 0.414095 0.221438
O O7 0.553275 0.374107 0.347939
O O8 0.378696 0.379382 0.423286
O O9 0.250000 0.371220 0.881585
O O10 0.357445 0.250000 0.956857
O O11 0.447739 0.356253 0.841001
O O12 0.383103 0.410368 0.019219
O O13 0.250000 0.462415 0.144633
O O14 0.104092 0.564265 0.107567
O O15 0.410849 0.750000 0.122258
O O16 0.250000 0.606871 0.627075
O O17 0.136633 0.473493 0.605359
O O18 0.750000 0.653836 0.433310
#
# Coordination Sequence:
#
# PCOD9447897 Si02
#       7
#     8   8   8   8   8   8   8
#     4  10  20  32  48  72 102 136 175 219 266 320
#     4  11  22  35  54  80 111 147 188 233 278 326
#     4   9  19  37  61  87 112 140 177 223 278 338
#     4  11  22  37  58  83 113 147 185 230 278 330
#     4  10  21  37  57  82 112 145 184 229 276 329
#     4  10  20  35  54  75 105 146 187 228 275 327
#     4  10  19  31  49  73 103 138 177 225 276 326
#
# _framework density 20.660975000000001
#
# number of rings (size 3 to 8) (size 9 to 14) (size 15 to 20)
#    0.000    1.857    0.000    6.429    0.000    6.286 
#    0.000    3.571    0.000    0.857    0.000    2.000 
#    0.000    0.000    0.000    0.000    0.000    0.000 
#
# Total GULP energy -312225.145984 kJ/mol
# GULP energy per Si atom -5575.449035 kJ/mol
# Density = 2.061395 g / cm^3
# Si number density = 20.660975 Si / 1000 Ang^3
#
#
#
# Elastic Constant Matrix: (Units=GPa)
#
#
# Indices 1 2 3 4 5 6 
#
# 1 63.3941 9.0897 8.0039 0.0000 0.0000 0.0000
# 2 9.0897 95.0018 15.3975 0.0000 0.0000 0.0000
# 3 8.0039 15.3975 25.8785 0.0000 0.0000 0.0000
# 4 0.0000 0.0000 0.0000 17.4946 0.0000 0.0000
# 5 0.0000 0.0000 0.0000 0.0000 4.3638 0.0000
# 6 0.0000 0.0000 0.0000 0.0000 0.0000 39.3396
#
#
#
# Elastic Compliance Matrix: (Units=1/GPa)
#
#
# Indices 1 2 3 4 5 6 
#
# 1 0.016474 -0.000831 -0.004601 0.000000 0.000000 0.000000
# 2 -0.000831 0.011691 -0.006699 0.000000 0.000000 0.000000
# 3 -0.004601 -0.006699 0.044051 0.000000 0.000000 0.000000
# 4 0.000000 0.000000 0.000000 0.057160 0.000000 0.000000
# 5 0.000000 0.000000 0.000000 0.000000 0.229159 0.000000
# 6 0.000000 0.000000 0.000000 0.000000 0.000000 0.025420
#
#
# Mechanical properties :
#
#
# Convention : Reuss Voigt Hill
#
# Bulk Modulus (GPa) = 20.85293 27.69517 24.27405
# Shear Modulus (GPa) = 11.78682 22.35849 17.07265
#
# Velocity S-wave (km/s) = 2.39108 3.29319 2.87770
# Velocity P-wave (km/s) = 4.21163 5.28146 4.77659
#
# Compressibility (1/GPa) = 0.04795488
#
# Stress axis : x y z
#
# Youngs Moduli (GPa) = 60.70045 85.53299 22.70082
#
# Poissons Ratio (x) = 0.07104 0.10445
# Poissons Ratio (y) = 0.05041 0.15208
# Poissons Ratio (z) = 0.27929 0.57302
#
# Static dielectric constant tensor:
#      x y z
#    x 1.748750 0.000000 0.000000 
#    y 0.000000 1.841450 0.000000 
#    z 0.000000 0.000000 1.715710 
# 
# From -- ./inp_files/23305.got.cif
#   From: 2010.05.17/outbox.cif.g08.bks.cpg/sg59_12_cif.got.tgz:23305.got - 2010.06.03 14:40:33.
