data_PCOD9447782
_publ_section_title
;
Structure prediction by ZEFSAII (Michael W. Deem and Ramdas Pophale) SiO2 
 PCOD9447782
Probable space group: P M M N
;
_chemical_formula_sum "Si O2"
_cell_formula_units_Z 64
_cell_length_a 17.885916
_cell_length_b 8.292479
_cell_length_c 23.996034
_cell_angle_alpha 90.000000
_cell_angle_beta 90.000000
_cell_angle_gamma 90.000000
_cell_volume 3559.057756
_symmetry_space_group_name_H-M "P M M N"
_symmetry_group_IT_number 59
_space_group.IT_coordinate_system_code '2'
_symmetry_cell_setting 'orthorhombic'
loop_
_space_group_symop_operation_xyz
x,y,z
1/2-x,1/2-y,z
1/2+x,-y,-z
-x,1/2+y,-z
-x,-y,-z
1/2+x,1/2+y,-z
1/2-x,y,z
x,1/2-y,z
loop_
_atom_site_type_symbol
_atom_site_label
_atom_site_fract_x
_atom_site_fract_y
_atom_site_fract_z
Si Si1 0.480140 0.558279 0.743108
Si Si2 0.664804 0.447246 0.541904
Si Si3 0.073080 0.442058 0.033440
Si Si4 0.334423 0.053024 0.930967
Si Si5 0.484816 0.059068 0.867323
Si Si6 0.331688 0.554484 0.682242
Si Si7 0.057902 0.559362 0.364740
Si Si8 0.913510 0.444535 0.429313
O O1 0.475123 0.750000 0.748771
O O2 0.494891 0.486383 0.803335
O O3 0.400311 0.495405 0.719611
O O4 0.539030 0.520038 0.694275
O O5 0.750000 0.499216 0.534753
O O6 0.663900 0.250000 0.540996
O O7 0.629549 0.498541 0.600592
O O8 0.614187 0.498939 0.489607
O O9 0.074912 0.250000 0.034328
O O10 0.054526 0.500203 0.095350
O O11 0.142134 0.494698 0.994330
O O12 0.000000 0.500000 0.000000
O O13 0.250000 0.998531 0.916879
O O14 0.333588 0.250000 0.928731
O O15 0.403996 0.998063 0.891708
O O16 0.481886 0.250000 0.873532
O O17 0.250000 0.492939 0.697723
O O18 0.330947 0.750000 0.686980
O O19 0.351296 0.520686 0.617878
O O20 0.063758 0.750000 0.355682
O O21 0.988444 0.524340 0.406166
O O22 0.924508 0.250000 0.429972
#
# Coordination Sequence:
#
# PCOD9447782 Si02
#       8
#     8   8   8   8   8   8   8   8
#     4  10  20  33  49  67  90 123 163 201 234 275
#     4   9  17  29  48  73  95 118 152 194 241 290
#     4   9  16  28  48  71  97 128 159 190 222 263
#     4   8  15  28  47  73 103 130 152 180 225 274
#     4  10  19  31  49  71  96 126 161 199 234 274
#     4   8  14  25  42  64  89 118 152 189 227 270
#     4  10  19  31  48  69  95 124 155 195 239 284
#     4   9  16  28  48  70  93 122 154 188 228 283
#
# _framework density 17.982288
#
# number of rings (size 3 to 8) (size 9 to 14) (size 15 to 20)
#    0.000    2.875    0.000    3.750    0.000    2.000 
#    0.000    0.625    0.000   29.250    0.000    0.000 
#    0.000    0.000    0.000    0.000    0.000    0.000 
#
# Total GULP energy -356464.575846 kJ/mol
# GULP energy per Si atom -5569.758998 kJ/mol
# Density = 1.794136 g / cm^3
# Si number density = 17.982288 Si / 1000 Ang^3
#
#
#
# Elastic Constant Matrix: (Units=GPa)
#
#
# Indices 1 2 3 4 5 6 
#
# 1 26.4203 -0.6786 19.3316 0.0000 0.0000 0.0000
# 2 -0.6786 14.6530 3.1529 0.0000 0.0000 0.0000
# 3 19.3316 3.1529 104.8043 0.0000 0.0000 0.0000
# 4 0.0000 0.0000 0.0000 21.5225 0.0000 0.0000
# 5 0.0000 0.0000 0.0000 0.0000 11.0812 0.0000
# 6 0.0000 0.0000 0.0000 0.0000 0.0000 12.7000
#
#
#
# Elastic Compliance Matrix: (Units=1/GPa)
#
#
# Indices 1 2 3 4 5 6 
#
# 1 0.043965 0.003806 -0.008224 0.000000 0.000000 0.000000
# 2 0.003806 0.069020 -0.002778 0.000000 0.000000 0.000000
# 3 -0.008224 -0.002778 0.011142 0.000000 0.000000 0.000000
# 4 0.000000 0.000000 0.000000 0.046463 0.000000 0.000000
# 5 0.000000 0.000000 0.000000 0.000000 0.090243 0.000000
# 6 0.000000 0.000000 0.000000 0.000000 0.000000 0.078740
#
#
# Mechanical properties :
#
#
# Convention : Reuss Voigt Hill
#
# Bulk Modulus (GPa) = 9.11301 21.05437 15.08369
# Shear Modulus (GPa) = 12.80266 17.33219 15.06743
#
# Velocity S-wave (km/s) = 2.67115 3.10796 2.89780
# Velocity P-wave (km/s) = 3.81997 4.96115 4.42748
#
# Compressibility (1/GPa) = 0.10973320
#
# Stress axis : x y z
#
# Youngs Moduli (GPa) = 22.74546 14.48865 89.74956
#
# Poissons Ratio (x) = -0.05514 0.73810
# Poissons Ratio (y) = -0.08656 0.24935
# Poissons Ratio (z) = 0.18706 0.04025
#
# Static dielectric constant tensor:
#      x y z
#    x 1.626220 0.000000 0.000000 
#    y 0.000000 1.625060 0.000000 
#    z 0.000000 0.000000 1.625040 
# 
# From -- ./inp_files/32303.got.cif
#   From: 2010.05.17/outbox.cif.g08.bks.cpg/sg59_17_cif.got.tgz:32303.got - 2010.06.03 14:40:33.
