data_PCOD9447334
_publ_section_title
;
Structure prediction by ZEFSAII (Michael W. Deem and Ramdas Pophale) SiO2 
 PCOD9447334
Probable space group: P M M N
;
_chemical_formula_sum "Si O2"
_cell_formula_units_Z 64
_cell_length_a 7.461561
_cell_length_b 18.356654
_cell_length_c 24.114742
_cell_angle_alpha 90.000000
_cell_angle_beta 90.000000
_cell_angle_gamma 90.000000
_cell_volume 3302.979177
_symmetry_space_group_name_H-M "P M M N"
_symmetry_group_IT_number 59
_space_group.IT_coordinate_system_code '2'
_symmetry_cell_setting 'orthorhombic'
loop_
_space_group_symop_operation_xyz
x,y,z
1/2-x,1/2-y,z
1/2+x,-y,-z
-x,1/2+y,-z
-x,-y,-z
1/2+x,1/2+y,-z
1/2-x,y,z
x,1/2-y,z
loop_
_atom_site_type_symbol
_atom_site_label
_atom_site_fract_x
_atom_site_fract_y
_atom_site_fract_z
Si Si1 0.031084 0.524536 0.759695
Si Si2 0.034662 0.902827 0.932103
Si Si3 0.968187 0.170701 0.179116
Si Si4 0.530368 0.166369 0.441560
Si Si5 0.461745 0.331218 0.951223
Si Si6 0.469319 0.049223 0.870618
Si Si7 0.538393 0.069165 0.539342
Si Si8 0.040904 0.532397 0.635770
O O1 0.250000 0.521297 0.759443
O O2 0.977633 0.604003 0.782406
O O3 0.973726 0.468440 0.807826
O O4 0.966333 0.517414 0.696858
O O5 0.250000 0.903962 0.931965
O O6 0.976944 0.846922 0.883924
O O7 0.979891 0.877501 0.992556
O O8 0.975371 0.981883 0.910350
O O9 0.750000 0.170721 0.179554
O O10 0.029839 0.250000 0.196957
O O11 0.750000 0.165247 0.441128
O O12 0.475993 0.250000 0.430633
O O13 0.473349 0.137617 0.502824
O O14 0.469609 0.103631 0.397793
O O15 0.250000 0.324327 0.941726
O O16 0.536851 0.250000 0.958007
O O17 0.533499 0.377278 0.899458
O O18 0.250000 0.048954 0.870435
O O19 0.750000 0.078086 0.545761
O O20 0.500000 0.000000 0.500000
O O21 0.469314 0.040033 0.597973
O O22 0.250000 0.549562 0.643381
#
# Coordination Sequence:
#
# PCOD9447334 Si02
#       8
#     8   8   8   8   8   8   8   8
#     4   8  14  24  39  58  79 107 139 168 200 237
#     4   9  16  27  44  62  80 105 136 170 211 257
#     4   8  13  21  35  58  84 105 130 167 207 246
#     4   8  14  24  39  62  88 108 129 161 199 236
#     4  10  19  28  40  60  83 106 135 173 215 255
#     4   8  15  28  43  59  81 108 138 172 207 246
#     4   9  16  27  44  63  85 113 140 166 197 234
#     4   9  16  26  43  65  85 108 140 174 204 237
#
# _framework density 19.376446999999999
#
# number of rings (size 3 to 8) (size 9 to 14) (size 15 to 20)
#    0.000    3.375    0.000    3.375    0.000    1.250 
#    0.000    2.500    0.000   13.875    0.000    1.750 
#    0.000    0.000    0.000    0.000    0.000    0.000 
#
# Total GULP energy -356417.193679 kJ/mol
# GULP energy per Si atom -5569.018651 kJ/mol
# Density = 1.933235 g / cm^3
# Si number density = 19.376447 Si / 1000 Ang^3
#
#
#
# Elastic Constant Matrix: (Units=GPa)
#
#
# Indices 1 2 3 4 5 6 
#
# 1 51.6622 5.9228 3.2077 0.0000 0.0000 0.0000
# 2 5.9228 67.2327 64.9120 0.0000 0.0000 0.0000
# 3 3.2077 64.9120 170.5860 0.0000 0.0000 0.0000
# 4 0.0000 0.0000 0.0000 9.1762 0.0000 0.0000
# 5 0.0000 0.0000 0.0000 0.0000 5.2967 0.0000
# 6 0.0000 0.0000 0.0000 0.0000 0.0000 4.1719
#
#
#
# Elastic Compliance Matrix: (Units=1/GPa)
#
#
# Indices 1 2 3 4 5 6 
#
# 1 0.019576 -0.002164 0.000455 0.000000 0.000000 0.000000
# 2 -0.002164 0.023751 -0.008997 0.000000 0.000000 0.000000
# 3 0.000455 -0.008997 0.009277 0.000000 0.000000 0.000000
# 4 0.000000 0.000000 0.000000 0.108978 0.000000 0.000000
# 5 0.000000 0.000000 0.000000 0.000000 0.188797 0.000000
# 6 0.000000 0.000000 0.000000 0.000000 0.000000 0.239700
#
#
# Mechanical properties :
#
#
# Convention : Reuss Voigt Hill
#
# Bulk Modulus (GPa) = 32.05892 48.61846 40.33869
# Shear Modulus (GPa) = 8.04002 18.09150 13.06576
#
# Velocity S-wave (km/s) = 2.03921 3.05894 2.59957
# Velocity P-wave (km/s) = 4.70380 6.13369 5.46571
#
# Compressibility (1/GPa) = 0.03119257
#
# Stress axis : x y z
#
# Youngs Moduli (GPa) = 51.08206 42.10361 107.79123
#
# Poissons Ratio (x) = 0.09113 -0.04909
# Poissons Ratio (y) = 0.11056 0.96981
# Poissons Ratio (z) = -0.02327 0.37881
#
# Static dielectric constant tensor:
#      x y z
#    x 1.758820 0.000000 0.000000 
#    y 0.000000 1.678500 0.000000 
#    z 0.000000 0.000000 1.683400 
# 
# From -- ./inp_files/30167.got.cif
#   From: 2010.05.17/outbox.cif.g08.bks.cpg/sg59_16_cif.got.tgz:30167.got - 2010.06.03 14:40:33.
