data_PCOD9447008
_publ_section_title
;
Structure prediction by ZEFSAII (Michael W. Deem and Ramdas Pophale) SiO2 
 PCOD9447008
Probable space group: P M M N
;
_chemical_formula_sum "Si O2"
_cell_formula_units_Z 64
_cell_length_a 18.600435
_cell_length_b 7.757373
_cell_length_c 22.320384
_cell_angle_alpha 90.000000
_cell_angle_beta 90.000000
_cell_angle_gamma 90.000000
_cell_volume 3220.619641
_symmetry_space_group_name_H-M "P M M N"
_symmetry_group_IT_number 59
_space_group.IT_coordinate_system_code '2'
_symmetry_cell_setting 'orthorhombic'
loop_
_space_group_symop_operation_xyz
x,y,z
1/2-x,1/2-y,z
1/2+x,-y,-z
-x,1/2+y,-z
-x,-y,-z
1/2+x,1/2+y,-z
1/2-x,y,z
x,1/2-y,z
loop_
_atom_site_type_symbol
_atom_site_label
_atom_site_fract_x
_atom_site_fract_y
_atom_site_fract_z
Si Si1 0.169408 0.954435 0.270619
Si Si2 0.167980 0.958382 0.504260
Si Si3 0.975965 0.957259 0.066523
Si Si4 0.107008 0.547061 0.755798
Si Si5 0.913641 0.461432 0.376591
Si Si6 0.578660 0.954213 0.613421
Si Si7 0.044874 0.959618 0.187575
Si Si8 0.328423 0.047464 0.879735
O O1 0.250000 0.027110 0.272775
O O2 0.175615 0.750000 0.260176
O O3 0.117516 0.023721 0.218439
O O4 0.127706 0.975361 0.333103
O O5 0.250000 0.019486 0.496001
O O6 0.169873 0.750000 0.505455
O O7 0.133853 0.016950 0.567081
O O8 0.116857 0.009354 0.449522
O O9 0.973073 0.750000 0.071146
O O10 0.896779 0.025691 0.084423
O O11 0.029750 0.015583 0.119406
O O12 0.000000 0.000000 0.000000
O O13 0.122791 0.750000 0.756703
O O14 0.115976 0.482418 0.688106
O O15 0.152650 0.465521 0.809302
O O16 0.023611 0.519226 0.773682
O O17 0.913909 0.250000 0.376126
O O18 0.996510 0.519181 0.384037
O O19 0.574999 0.750000 0.622207
O O20 0.044604 0.750000 0.189083
O O21 0.250000 0.970666 0.891709
O O22 0.325099 0.250000 0.894548
#
# Coordination Sequence:
#
# PCOD9447008 Si02
#       8
#     8   8   8   8   8   8   8   8
#     4  10  20  34  54  78 102 133 174 215 258 312
#     4  10  21  37  53  69  95 133 174 213 257 312
#     4   9  18  33  54  79 105 139 177 212 252 298
#     4  10  18  31  53  80 106 131 169 216 262 311
#     4   9  19  34  52  75 101 132 168 210 261 315
#     4  11  21  35  53  74 102 132 168 214 264 313
#     4   9  18  34  53  74 104 139 174 209 254 309
#     4   9  19  36  55  77 109 145 179 215 259 311
#
# _framework density 19.871953000000001
#
# number of rings (size 3 to 8) (size 9 to 14) (size 15 to 20)
#    0.000    2.375    1.250    2.250    0.000    4.750 
#    0.000    3.750    0.000    0.750    0.000    0.000 
#    0.000    0.000    0.000    0.000    0.000    0.000 
#
# Total GULP energy -357154.274811 kJ/mol
# GULP energy per Si atom -5580.535544 kJ/mol
# Density = 1.982672 g / cm^3
# Si number density = 19.871953 Si / 1000 Ang^3
#
#
#
# Elastic Constant Matrix: (Units=GPa)
#
#
# Indices 1 2 3 4 5 6 
#
# 1 77.9851 0.2063 38.5952 0.0000 0.0000 0.0000
# 2 0.2063 26.7755 -8.3057 0.0000 0.0000 0.0000
# 3 38.5952 -8.3057 136.9925 0.0000 0.0000 0.0000
# 4 0.0000 0.0000 0.0000 22.3855 0.0000 0.0000
# 5 0.0000 0.0000 0.0000 0.0000 11.2803 0.0000
# 6 0.0000 0.0000 0.0000 0.0000 0.0000 11.8219
#
#
#
# Elastic Compliance Matrix: (Units=1/GPa)
#
#
# Indices 1 2 3 4 5 6 
#
# 1 0.014956 -0.001449 -0.004301 0.000000 0.000000 0.000000
# 2 -0.001449 0.038204 0.002725 0.000000 0.000000 0.000000
# 3 -0.004301 0.002725 0.008677 0.000000 0.000000 0.000000
# 4 0.000000 0.000000 0.000000 0.044672 0.000000 0.000000
# 5 0.000000 0.000000 0.000000 0.000000 0.088650 0.000000
# 6 0.000000 0.000000 0.000000 0.000000 0.000000 0.084588
#
#
# Mechanical properties :
#
#
# Convention : Reuss Voigt Hill
#
# Bulk Modulus (GPa) = 17.92638 33.63830 25.78234
# Shear Modulus (GPa) = 16.42612 23.18138 19.80375
#
# Velocity S-wave (km/s) = 2.87818 3.41917 3.16027
# Velocity P-wave (km/s) = 4.48171 5.70542 5.13019
#
# Compressibility (1/GPa) = 0.05578370
#
# Stress axis : x y z
#
# Youngs Moduli (GPa) = 66.86485 26.17536 115.25141
#
# Poissons Ratio (x) = 0.03794 0.49573
# Poissons Ratio (y) = 0.09692 -0.31401
# Poissons Ratio (z) = 0.28761 -0.07132
#
# Static dielectric constant tensor:
#      x y z
#    x 1.713210 0.000000 0.000000 
#    y 0.000000 1.737130 0.000000 
#    z 0.000000 0.000000 1.676510 
# 
# From -- ./inp_files/30778.got.cif
#   From: 2010.05.17/outbox.cif.g08.bks.cpg/sg59_16_cif.got.tgz:30778.got - 2010.06.03 14:40:33.
