data_PCOD9447389
_publ_section_title
;
Structure prediction by ZEFSAII (Michael W. Deem and Ramdas Pophale) SiO2 
 PCOD9447389
Probable space group: P M M N
;
_chemical_formula_sum "Si O2"
_cell_formula_units_Z 48
_cell_length_a 23.475828
_cell_length_b 8.699821
_cell_length_c 13.829633
_cell_angle_alpha 90.000000
_cell_angle_beta 90.000000
_cell_angle_gamma 90.000000
_cell_volume 2824.502030
_symmetry_space_group_name_H-M "P M M N"
_symmetry_group_IT_number 59
_space_group.IT_coordinate_system_code '2'
_symmetry_cell_setting 'orthorhombic'
loop_
_space_group_symop_operation_xyz
x,y,z
1/2-x,1/2-y,z
1/2+x,-y,-z
-x,1/2+y,-z
-x,-y,-z
1/2+x,1/2+y,-z
1/2-x,y,z
x,1/2-y,z
loop_
_atom_site_type_symbol
_atom_site_label
_atom_site_fract_x
_atom_site_fract_y
_atom_site_fract_z
Si Si1 0.316442 0.564674 0.392524
Si Si2 0.500850 0.065342 0.107410
Si Si3 0.904564 0.075742 0.256902
Si Si4 0.010828 0.424922 0.398511
Si Si5 0.591044 0.070436 0.751787
Si Si6 0.316462 0.066639 0.599860
O O1 0.250000 0.523318 0.385547
O O2 0.321689 0.750000 0.397271
O O3 0.349515 0.514775 0.295127
O O4 0.337600 0.499739 0.496089
O O5 0.502872 0.250000 0.107926
O O6 0.557644 0.012350 0.166973
O O7 0.443220 0.014647 0.163296
O O8 0.500000 0.000000 0.000000
O O9 0.886111 0.250000 0.232802
O O10 0.952145 0.084550 0.340339
O O11 0.852924 0.987177 0.307681
O O12 0.034246 0.250000 0.403209
O O13 0.050469 0.540031 0.339579
O O14 0.000000 0.500000 0.500000
O O15 0.595382 0.250000 0.776597
O O16 0.250000 0.019084 0.609970
O O17 0.319022 0.250000 0.593574
#
# Coordination Sequence:
#
# PCOD9447389 Si02
#       6
#     8   8   8   8   8   8
#     4   9  18  32  49  70 100 138 173 202 234 279
#     4  10  21  37  56  77  99 123 157 202 253 303
#     4   9  19  33  48  68  94 126 162 197 237 291
#     4  10  19  29  42  65  97 128 160 198 241 290
#     4  10  19  31  49  72  97 127 164 202 243 291
#     4  10  20  31  46  72 103 134 168 204 240 280
#
# _framework density 16.994146000000001
#
# number of rings (size 3 to 8) (size 9 to 14) (size 15 to 20)
#    0.000    2.333    0.000    4.000    0.000   10.333 
#    0.000    0.000    0.000    1.000    0.000    2.333 
#    0.000    0.000    0.000    0.000    0.000    0.000 
#
# Total GULP energy -267281.176355 kJ/mol
# GULP energy per Si atom -5568.357841 kJ/mol
# Density = 1.695547 g / cm^3
# Si number density = 16.994146 Si / 1000 Ang^3
#
#
#
# Elastic Constant Matrix: (Units=GPa)
#
#
# Indices 1 2 3 4 5 6 
#
# 1 71.7368 18.7842 44.9429 0.0000 0.0000 0.0000
# 2 18.7842 29.5951 23.1597 0.0000 0.0000 0.0000
# 3 44.9429 23.1597 131.0844 0.0000 0.0000 0.0000
# 4 0.0000 0.0000 0.0000 20.3551 0.0000 0.0000
# 5 0.0000 0.0000 0.0000 0.0000 22.8072 0.0000
# 6 0.0000 0.0000 0.0000 0.0000 0.0000 22.4671
#
#
#
# Elastic Compliance Matrix: (Units=1/GPa)
#
#
# Indices 1 2 3 4 5 6 
#
# 1 0.019336 -0.008221 -0.005177 0.000000 0.000000 0.000000
# 2 -0.008221 0.042706 -0.004726 0.000000 0.000000 0.000000
# 3 -0.005177 -0.004726 0.010239 0.000000 0.000000 0.000000
# 4 0.000000 0.000000 0.000000 0.049128 0.000000 0.000000
# 5 0.000000 0.000000 0.000000 0.000000 0.043846 0.000000
# 6 0.000000 0.000000 0.000000 0.000000 0.000000 0.044510
#
#
# Mechanical properties :
#
#
# Convention : Reuss Voigt Hill
#
# Bulk Modulus (GPa) = 27.75372 45.13223 36.44297
# Shear Modulus (GPa) = 19.37805 22.82784 21.10294
#
# Velocity S-wave (km/s) = 3.38046 3.66905 3.52771
# Velocity P-wave (km/s) = 5.62170 6.67566 6.17122
#
# Compressibility (1/GPa) = 0.03603121
#
# Stress axis : x y z
#
# Youngs Moduli (GPa) = 51.71725 23.41579 97.66912
#
# Poissons Ratio (x) = 0.19251 0.50562
# Poissons Ratio (y) = 0.42519 0.46163
# Poissons Ratio (z) = 0.26773 0.11067
#
# Static dielectric constant tensor:
#      x y z
#    x 1.613280 0.000000 0.000000 
#    y 0.000000 1.598280 0.000000 
#    z 0.000000 0.000000 1.553260 
# 
# From -- ./inp_files/18603.got.cif
#   From: 2010.05.17/outbox.cif.g08.bks.cpg/sg59_10_cif.got.tgz:18603.got - 2010.06.03 14:40:33.
