data_PCOD9447937
_publ_section_title
;
Structure prediction by ZEFSAII (Michael W. Deem and Ramdas Pophale) SiO2 
 PCOD9447937
Probable space group: P M M N
;
_chemical_formula_sum "Si O2"
_cell_formula_units_Z 48
_cell_length_a 14.285547
_cell_length_b 7.625739
_cell_length_c 21.550533
_cell_angle_alpha 90.000000
_cell_angle_beta 90.000000
_cell_angle_gamma 90.000000
_cell_volume 2347.668794
_symmetry_space_group_name_H-M "P M M N"
_symmetry_group_IT_number 59
_space_group.IT_coordinate_system_code '2'
_symmetry_cell_setting 'orthorhombic'
loop_
_space_group_symop_operation_xyz
x,y,z
1/2-x,1/2-y,z
1/2+x,-y,-z
-x,1/2+y,-z
-x,-y,-z
1/2+x,1/2+y,-z
1/2-x,y,z
x,1/2-y,z
loop_
_atom_site_type_symbol
_atom_site_label
_atom_site_fract_x
_atom_site_fract_y
_atom_site_fract_z
Si Si1 0.542816 0.542291 0.158904
Si Si2 0.550162 0.042097 0.413862
Si Si3 0.143245 0.461675 0.102735
Si Si4 0.857478 0.962043 0.283113
Si Si5 0.353531 0.455046 0.461000
Si Si6 0.860336 0.537817 0.035053
O O1 0.562692 0.750000 0.158203
O O2 0.431974 0.517484 0.153215
O O3 0.590031 0.472757 0.221267
O O4 0.585943 0.467970 0.094962
O O5 0.547701 0.250000 0.425648
O O6 0.444764 0.971499 0.425500
O O7 0.588438 0.011005 0.345510
O O8 0.618655 0.966241 0.466437
O O9 0.250000 0.519935 0.113385
O O10 0.144507 0.250000 0.100934
O O11 0.112442 0.525638 0.033800
O O12 0.750000 0.023417 0.284734
O O13 0.855527 0.750000 0.280801
O O14 0.250000 0.531911 0.450576
O O15 0.348095 0.250000 0.444134
O O16 0.750000 0.501997 0.042228
O O17 0.870832 0.750000 0.033916
#
# Coordination Sequence:
#
# PCOD9447937 Si02
#       6
#     8   8   8   8   8   8
#     4  10  19  31  50  73  95 124 165 208 243 282
#     4  10  20  33  52  79 106 132 166 205 241 280
#     4   9  18  32  49  69  95 127 160 198 250 305
#     4  10  21  36  52  71  99 134 166 196 239 295
#     4   9  18  34  55  77 103 134 165 199 242 290
#     4   8  14  27  48  72  96 123 158 200 247 299
#
# _framework density 20.445813000000001
#
# number of rings (size 3 to 8) (size 9 to 14) (size 15 to 20)
#    0.000    2.667    0.000    3.000    0.000    6.333 
#    0.000    0.833    0.000    5.500    0.000    0.000 
#    0.000    0.000    0.000    0.000    0.000    0.000 
#
# Total GULP energy -267829.756476 kJ/mol
# GULP energy per Si atom -5579.786593 kJ/mol
# Density = 2.039928 g / cm^3
# Si number density = 20.445813 Si / 1000 Ang^3
#
#
#
# Elastic Constant Matrix: (Units=GPa)
#
#
# Indices 1 2 3 4 5 6 
#
# 1 141.5411 -4.6035 88.0008 0.0000 0.0000 0.0000
# 2 -4.6035 41.6643 -5.9920 0.0000 0.0000 0.0000
# 3 88.0008 -5.9920 119.5393 0.0000 0.0000 0.0000
# 4 0.0000 0.0000 0.0000 4.9344 0.0000 0.0000
# 5 0.0000 0.0000 0.0000 0.0000 24.0974 0.0000
# 6 0.0000 0.0000 0.0000 0.0000 0.0000 16.3267
#
#
#
# Elastic Compliance Matrix: (Units=1/GPa)
#
#
# Indices 1 2 3 4 5 6 
#
# 1 0.013028 0.000061 -0.009588 0.000000 0.000000 0.000000
# 2 0.000061 0.024176 0.001167 0.000000 0.000000 0.000000
# 3 -0.009588 0.001167 0.015482 0.000000 0.000000 0.000000
# 4 0.000000 0.000000 0.000000 0.202660 0.000000 0.000000
# 5 0.000000 0.000000 0.000000 0.000000 0.041498 0.000000
# 6 0.000000 0.000000 0.000000 0.000000 0.000000 0.061249
#
#
# Mechanical properties :
#
#
# Convention : Reuss Voigt Hill
#
# Bulk Modulus (GPa) = 27.80384 50.83947 39.32166
# Shear Modulus (GPa) = 12.92650 24.09434 18.51042
#
# Velocity S-wave (km/s) = 2.51715 3.43658 3.01215
# Velocity P-wave (km/s) = 4.69855 6.37701 5.60101
#
# Compressibility (1/GPa) = 0.03596625
#
# Stress axis : x y z
#
# Youngs Moduli (GPa) = 76.75693 41.36345 64.59024
#
# Poissons Ratio (x) = -0.00251 0.61928
# Poissons Ratio (y) = -0.00465 -0.07539
# Poissons Ratio (z) = 0.73593 -0.04828
#
# Static dielectric constant tensor:
#      x y z
#    x 1.751740 0.000000 0.000000 
#    y 0.000000 1.779130 0.000000 
#    z 0.000000 0.000000 1.695900 
# 
# From -- ./inp_files/30205.got.cif
#   From: 2010.05.17/outbox.cif.g08.bks.cpg/sg59_16_cif.got.tgz:30205.got - 2010.06.03 14:40:33.
