data_PCOD9447957
_publ_section_title
;
Structure prediction by ZEFSAII (Michael W. Deem and Ramdas Pophale) SiO2 
 PCOD9447957
Probable space group: P M M N
;
_chemical_formula_sum "Si O2"
_cell_formula_units_Z 56
_cell_length_a 8.682468
_cell_length_b 21.872463
_cell_length_c 17.296339
_cell_angle_alpha 90.000000
_cell_angle_beta 90.000000
_cell_angle_gamma 90.000000
_cell_volume 3284.695160
_symmetry_space_group_name_H-M "P M M N"
_symmetry_group_IT_number 59
_space_group.IT_coordinate_system_code '2'
_symmetry_cell_setting 'orthorhombic'
loop_
_space_group_symop_operation_xyz
x,y,z
1/2-x,1/2-y,z
1/2+x,-y,-z
-x,1/2+y,-z
-x,-y,-z
1/2+x,1/2+y,-z
1/2-x,y,z
x,1/2-y,z
loop_
_atom_site_type_symbol
_atom_site_label
_atom_site_fract_x
_atom_site_fract_y
_atom_site_fract_z
Si Si1 0.564492 0.060145 0.455772
Si Si2 0.935287 0.486495 0.290784
Si Si3 0.070487 0.177511 0.865818
Si Si4 0.567758 0.088957 0.979437
Si Si5 0.933429 0.527923 0.877642
Si Si6 0.437183 0.127082 0.701542
Si Si7 0.936749 0.680585 0.461125
O O1 0.750000 0.058709 0.461629
O O2 0.502289 0.123761 0.490170
O O3 0.500000 0.000000 0.500000
O O4 0.520277 0.052928 0.365453
O O5 0.750000 0.486434 0.286012
O O6 0.984536 0.556606 0.306947
O O7 0.999152 0.466882 0.207858
O O8 0.250000 0.158430 0.874112
O O9 0.065490 0.250000 0.862673
O O10 0.010072 0.151652 0.784277
O O11 0.977076 0.150807 0.937089
O O12 0.750000 0.082789 0.989555
O O13 0.515214 0.035355 0.919664
O O14 0.487899 0.078816 0.061599
O O15 0.750000 0.527108 0.872574
O O16 0.250000 0.129003 0.702796
O O17 0.483950 0.166825 0.627770
O O18 0.750000 0.677866 0.464809
O O19 0.982979 0.750000 0.483082
#
# Coordination Sequence:
#
# PCOD9447957 Si02
#       7
#     8   8   8   8   8   8   8
#     4  11  22  36  55  80 111 146 186 229 277 327
#     4  10  19  33  54  77 106 142 176 219 271 322
#     4  10  19  31  50  75 104 140 177 212 251 304
#     4  10  20  33  50  73 103 137 170 206 255 309
#     4  10  20  33  52  77 102 131 169 216 262 305
#     4   9  16  30  51  76 107 142 179 214 259 318
#     4  10  20  36  57  80 109 147 189 229 274 330
#
# _framework density 17.048765
#
# number of rings (size 3 to 8) (size 9 to 14) (size 15 to 20)
#    0.000    2.000    2.857    1.714    0.000    4.571 
#    0.000    0.714    0.000    2.571    0.000    4.000 
#    0.000    0.000    0.000    0.000    0.000    0.000 
#
# Total GULP energy -312366.529389 kJ/mol
# GULP energy per Si atom -5577.973739 kJ/mol
# Density = 1.700996 g / cm^3
# Si number density = 17.048765 Si / 1000 Ang^3
#
#
#
# Elastic Constant Matrix: (Units=GPa)
#
#
# Indices 1 2 3 4 5 6 
#
# 1 21.6252 23.8463 31.1438 0.0000 0.0000 0.0000
# 2 23.8463 95.0094 56.8094 0.0000 0.0000 0.0000
# 3 31.1438 56.8094 131.0247 0.0000 0.0000 0.0000
# 4 0.0000 0.0000 0.0000 21.3729 0.0000 0.0000
# 5 0.0000 0.0000 0.0000 0.0000 26.3629 0.0000
# 6 0.0000 0.0000 0.0000 0.0000 0.0000 23.8274
#
#
#
# Elastic Compliance Matrix: (Units=1/GPa)
#
#
# Indices 1 2 3 4 5 6 
#
# 1 0.078725 -0.011570 -0.013696 0.000000 0.000000 0.000000
# 2 -0.011570 0.015909 -0.004148 0.000000 0.000000 0.000000
# 3 -0.013696 -0.004148 0.012686 0.000000 0.000000 0.000000
# 4 0.000000 0.000000 0.000000 0.046788 0.000000 0.000000
# 5 0.000000 0.000000 0.000000 0.000000 0.037932 0.000000
# 6 0.000000 0.000000 0.000000 0.000000 0.000000 0.041968
#
#
# Mechanical properties :
#
#
# Convention : Reuss Voigt Hill
#
# Bulk Modulus (GPa) = 20.62150 52.36202 36.49176
# Shear Modulus (GPa) = 16.18117 23.36996 19.77557
#
# Velocity S-wave (km/s) = 3.08411 3.70641 3.40949
# Velocity P-wave (km/s) = 4.98038 7.00688 6.07867
#
# Compressibility (1/GPa) = 0.04849307
#
# Stress axis : x y z
#
# Youngs Moduli (GPa) = 12.70242 62.85634 78.82664
#
# Poissons Ratio (x) = 0.72723 1.07962
# Poissons Ratio (y) = 0.14696 0.32696
# Poissons Ratio (z) = 0.17397 0.26072
#
# Static dielectric constant tensor:
#      x y z
#    x 1.582460 0.000000 0.000000 
#    y 0.000000 1.574870 0.000000 
#    z 0.000000 0.000000 1.570010 
# 
# From -- ./inp_files/20927.got.cif
#   From: 2010.05.17/outbox.cif.g08.bks.cpg/sg59_11_cif.got.tgz:20927.got - 2010.06.03 14:40:33.
