data_PCOD9447465
_publ_section_title
;
Structure prediction by ZEFSAII (Michael W. Deem and Ramdas Pophale) SiO2 
 PCOD9447465
Probable space group: P M M N
;
_chemical_formula_sum "Si O2"
_cell_formula_units_Z 56
_cell_length_a 7.698013
_cell_length_b 22.205688
_cell_length_c 17.522366
_cell_angle_alpha 90.000000
_cell_angle_beta 90.000000
_cell_angle_gamma 90.000000
_cell_volume 2995.267547
_symmetry_space_group_name_H-M "P M M N"
_symmetry_group_IT_number 59
_space_group.IT_coordinate_system_code '2'
_symmetry_cell_setting 'orthorhombic'
loop_
_space_group_symop_operation_xyz
x,y,z
1/2-x,1/2-y,z
1/2+x,-y,-z
-x,1/2+y,-z
-x,-y,-z
1/2+x,1/2+y,-z
1/2-x,y,z
x,1/2-y,z
loop_
_atom_site_type_symbol
_atom_site_label
_atom_site_fract_x
_atom_site_fract_y
_atom_site_fract_z
Si Si1 0.960148 0.681707 0.858702
Si Si2 0.545618 0.419492 0.033266
Si Si3 0.537818 0.623086 0.700656
Si Si4 0.951150 0.034709 0.875748
Si Si5 0.963187 0.015933 0.706891
Si Si6 0.958055 0.817542 0.545098
Si Si7 0.456404 0.938667 0.453267
O O1 0.750000 0.680707 0.858032
O O2 0.018948 0.750000 0.858524
O O3 0.020104 0.648989 0.781563
O O4 0.021155 0.645734 0.932304
O O5 0.750000 0.435038 0.031620
O O6 0.459515 0.466393 0.092207
O O7 0.474301 0.428466 0.947695
O O8 0.750000 0.624236 0.700098
O O9 0.485895 0.553549 0.693460
O O10 0.477836 0.662716 0.629155
O O11 0.750000 0.052931 0.868331
O O12 0.025756 0.036566 0.790576
O O13 0.750000 0.016622 0.709040
O O14 0.022401 0.053412 0.633483
O O15 0.750000 0.813023 0.549818
O O16 0.022258 0.750000 0.523783
O O17 0.990836 0.875604 0.491689
O O18 0.250000 0.937529 0.449503
O O19 0.500000 0.000000 0.500000
#
# Coordination Sequence:
#
# PCOD9447465 Si02
#       7
#     8   8   8   8   8   8   8
#     4  10  19  31  49  70  95 132 170 197 227 282
#     4  10  19  29  46  72  99 124 153 195 245 284
#     4   9  15  28  50  74  98 129 169 202 235 288
#     4   9  17  32  51  69  92 125 162 196 233 285
#     4   9  16  29  52  74  96 128 166 207 241 285
#     4  10  20  35  54  75 102 136 173 210 252 304
#     4  11  21  34  53  77 104 133 170 212 256 302
#
# _framework density 18.696159000000002
#
# number of rings (size 3 to 8) (size 9 to 14) (size 15 to 20)
#    0.000    2.286    2.857    1.286    0.000    2.857 
#    0.000    3.571    0.000    2.571    0.000    6.000 
#    0.000    0.000    0.000    0.000    0.000    0.000 
#
# Total GULP energy -312237.927885 kJ/mol
# GULP energy per Si atom -5575.677284 kJ/mol
# Density = 1.865361 g / cm^3
# Si number density = 18.696159 Si / 1000 Ang^3
#
#
#
# Elastic Constant Matrix: (Units=GPa)
#
#
# Indices 1 2 3 4 5 6 
#
# 1 33.4980 5.0786 6.7584 0.0000 0.0000 0.0000
# 2 5.0786 128.7543 78.7692 0.0000 0.0000 0.0000
# 3 6.7584 78.7692 161.3367 0.0000 0.0000 0.0000
# 4 0.0000 0.0000 0.0000 19.7771 0.0000 0.0000
# 5 0.0000 0.0000 0.0000 0.0000 11.2021 0.0000
# 6 0.0000 0.0000 0.0000 0.0000 0.0000 19.6349
#
#
#
# Elastic Compliance Matrix: (Units=1/GPa)
#
#
# Indices 1 2 3 4 5 6 
#
# 1 0.030139 -0.000594 -0.000973 0.000000 0.000000 0.000000
# 2 -0.000594 0.011086 -0.005388 0.000000 0.000000 0.000000
# 3 -0.000973 -0.005388 0.008869 0.000000 0.000000 0.000000
# 4 0.000000 0.000000 0.000000 0.050563 0.000000 0.000000
# 5 0.000000 0.000000 0.000000 0.000000 0.089269 0.000000
# 6 0.000000 0.000000 0.000000 0.000000 0.000000 0.050930
#
#
# Mechanical properties :
#
#
# Convention : Reuss Voigt Hill
#
# Bulk Modulus (GPa) = 27.63489 56.08905 41.86197
# Shear Modulus (GPa) = 18.73872 25.65501 22.19687
#
# Velocity S-wave (km/s) = 3.16931 3.70835 3.44938
# Velocity P-wave (km/s) = 5.31092 6.95710 6.18899
#
# Compressibility (1/GPa) = 0.03618614
#
# Stress axis : x y z
#
# Youngs Moduli (GPa) = 33.17988 90.20164 112.74698
#
# Poissons Ratio (x) = 0.05356 0.10966
# Poissons Ratio (y) = 0.01970 0.60745
# Poissons Ratio (z) = 0.03227 0.48598
#
# Static dielectric constant tensor:
#      x y z
#    x 1.717510 0.000000 0.000000 
#    y 0.000000 1.535290 0.000000 
#    z 0.000000 0.000000 1.675280 
# 
# From -- ./inp_files/26096.got.cif
#   From: 2010.05.17/outbox.cif.g08.bks.cpg/sg59_14_cif.got.tgz:26096.got - 2010.06.03 14:40:33.
