data_PCOD9447148
_publ_section_title
;
Structure prediction by ZEFSAII (Michael W. Deem and Ramdas Pophale) SiO2 
 PCOD9447148
Probable space group: P M M N
;
_chemical_formula_sum "Si O2"
_cell_formula_units_Z 56
_cell_length_a 16.231309
_cell_length_b 7.903035
_cell_length_c 21.795793
_cell_angle_alpha 90.000000
_cell_angle_beta 90.000000
_cell_angle_gamma 90.000000
_cell_volume 2795.890288
_symmetry_space_group_name_H-M "P M M N"
_symmetry_group_IT_number 59
_space_group.IT_coordinate_system_code '2'
_symmetry_cell_setting 'orthorhombic'
loop_
_space_group_symop_operation_xyz
x,y,z
1/2-x,1/2-y,z
1/2+x,-y,-z
-x,1/2+y,-z
-x,-y,-z
1/2+x,1/2+y,-z
1/2-x,y,z
x,1/2-y,z
loop_
_atom_site_type_symbol
_atom_site_label
_atom_site_fract_x
_atom_site_fract_y
_atom_site_fract_z
Si Si1 0.585042 0.546781 0.466239
Si Si2 0.839850 0.544469 0.588485
Si Si3 0.404035 0.046119 0.004187
Si Si4 0.157555 0.457391 0.137813
Si Si5 0.160066 0.047568 0.874326
Si Si6 0.995293 0.052726 0.206126
Si Si7 0.008494 0.050186 0.654712
O O1 0.500000 0.500000 0.500000
O O2 0.591635 0.750000 0.461828
O O3 0.651033 0.490941 0.516863
O O4 0.572982 0.483027 0.396845
O O5 0.750000 0.493489 0.611975
O O6 0.844690 0.750000 0.590219
O O7 0.917331 0.477582 0.626467
O O8 0.397882 0.250000 0.004406
O O9 0.360347 0.981519 0.942586
O O10 0.364594 0.989217 0.068279
O O11 0.500000 0.000000 0.000000
O O12 0.250000 0.512754 0.154660
O O13 0.158650 0.250000 0.139189
O O14 0.082553 0.517367 0.180984
O O15 0.250000 0.984527 0.853533
O O16 0.165198 0.250000 0.879402
O O17 0.083974 0.014682 0.829628
O O18 0.997480 0.250000 0.191703
O O19 0.986568 0.028874 0.278586
O O20 0.022167 0.250000 0.661672
#
# Coordination Sequence:
#
# PCOD9447148 Si02
#       7
#     8   8   8   8   8   8   8
#     4   8  15  29  49  72  97 128 166 207 252 301
#     4   9  17  31  53  80 106 132 169 216 265 321
#     4  10  18  32  56  82 107 135 173 222 277 331
#     4   9  18  33  53  77 105 139 179 220 266 323
#     4  10  21  37  58  81 106 140 181 227 280 334
#     4  11  22  36  55  79 108 146 188 230 273 321
#     4  10  20  34  52  74 105 143 180 218 263 318
#
# _framework density 20.029396999999999
#
# number of rings (size 3 to 8) (size 9 to 14) (size 15 to 20)
#    0.000    2.429    1.429    1.286    0.000    3.429 
#    0.000    2.143    0.000    6.857    0.000    0.000 
#    0.000    0.000    0.000    0.000    0.000    0.000 
#
# Total GULP energy -312166.242929 kJ/mol
# GULP energy per Si atom -5574.397195 kJ/mol
# Density = 1.998381 g / cm^3
# Si number density = 20.029397 Si / 1000 Ang^3
#
#
#
# Elastic Constant Matrix: (Units=GPa)
#
#
# Indices 1 2 3 4 5 6 
#
# 1 100.7699 10.0495 40.4904 0.0000 0.0000 0.0000
# 2 10.0495 16.0808 -0.7059 0.0000 0.0000 0.0000
# 3 40.4904 -0.7059 111.2686 0.0000 0.0000 0.0000
# 4 0.0000 0.0000 0.0000 -833.9666 0.0000 0.0000
# 5 0.0000 0.0000 0.0000 0.0000 10.5822 0.0000
# 6 0.0000 0.0000 0.0000 0.0000 0.0000 19.8505
#
#
#
# Elastic Compliance Matrix: (Units=1/GPa)
#
#
# Indices 1 2 3 4 5 6 
#
# 1 0.012590 -0.008071 -0.004633 0.000000 0.000000 0.000000
# 2 -0.008071 0.067378 0.003365 0.000000 0.000000 0.000000
# 3 -0.004633 0.003365 0.010694 0.000000 0.000000 0.000000
# 4 0.000000 0.000000 0.000000 -0.001199 0.000000 0.000000
# 5 0.000000 0.000000 0.000000 0.000000 0.094499 0.000000
# 6 0.000000 0.000000 0.000000 0.000000 0.000000 0.050376
#
#
# Mechanical properties :
#
#
# Convention : Reuss Voigt Hill
#
# Bulk Modulus (GPa) = 13.89212 36.42078 25.15645
# Shear Modulus (GPa) = 18.04982 -148.82109 -65.38564
#
# Velocity S-wave (km/s) = 3.00520 -8.62917 -5.71976
# Velocity P-wave (km/s) = 4.35805 9.00335 5.57081
#
# Compressibility (1/GPa) = 0.07198325
#
# Stress axis : x y z
#
# Youngs Moduli (GPa) = 79.42825 14.84174 93.50665
#
# Poissons Ratio (x) = 0.11979 0.43319
# Poissons Ratio (y) = 0.64109 -0.31461
# Poissons Ratio (z) = 0.36796 -0.04994
#
# Static dielectric constant tensor:
#      x y z
#    x 1.717470 0.000000 0.000000 
#    y 0.000000 1.745840 0.000000 
#    z 0.000000 0.000000 1.705800 
# 
# From -- ./inp_files/30586.got.cif
#   From: 2010.05.17/outbox.cif.g08.bks.cpg/sg59_16_cif.got.tgz:30586.got - 2010.06.03 14:40:33.
