data_PCOD9447229
_publ_section_title
;
Structure prediction by ZEFSAII (Michael W. Deem and Ramdas Pophale) SiO2 
 PCOD9447229
Probable space group: P M M N
;
_chemical_formula_sum "Si O2"
_cell_formula_units_Z 40
_cell_length_a 11.073048
_cell_length_b 18.835470
_cell_length_c 10.176503
_cell_angle_alpha 90.000000
_cell_angle_beta 90.000000
_cell_angle_gamma 90.000000
_cell_volume 2122.473170
_symmetry_space_group_name_H-M "P M M N"
_symmetry_group_IT_number 59
_space_group.IT_coordinate_system_code '2'
_symmetry_cell_setting 'orthorhombic'
loop_
_space_group_symop_operation_xyz
x,y,z
1/2-x,1/2-y,z
1/2+x,-y,-z
-x,1/2+y,-z
-x,-y,-z
1/2+x,1/2+y,-z
1/2-x,y,z
x,1/2-y,z
loop_
_atom_site_type_symbol
_atom_site_label
_atom_site_fract_x
_atom_site_fract_y
_atom_site_fract_z
Si Si1 0.382272 0.250000 0.074476
Si Si2 0.395401 0.831494 0.311191
Si Si3 0.384636 0.750000 0.736432
Si Si4 0.890928 0.033359 0.172940
Si Si5 0.110429 0.896302 0.572588
Si Si6 0.972521 0.613117 0.060498
O O1 0.250000 0.250000 0.140957
O O2 0.500505 0.250000 0.167770
O O3 0.393901 0.320609 0.986775
O O4 0.250000 0.831155 0.320227
O O5 0.436172 0.750000 0.329243
O O6 0.443619 0.881068 0.429484
O O7 0.434843 0.858795 0.169635
O O8 0.250000 0.750000 0.801298
O O9 0.389834 0.680058 0.646042
O O10 0.750000 0.053827 0.172228
O O11 0.941043 0.049692 0.319087
O O12 0.903559 0.952445 0.127466
O O13 0.960410 0.081101 0.066753
O O14 0.250000 0.918048 0.550987
#
# Coordination Sequence:
#
# PCOD9447229 Si02
#       6
#     4   8   4   8   8   8
#     4  12  24  37  56  86 122 158 192 240 299 349
#     4  10  19  32  55  88 117 141 185 249 296 337
#     4  10  18  33  60  88 112 150 198 238 281 345
#     4  10  21  37  56  80 111 148 197 245 289 341
#     4   9  17  32  57  86 113 141 185 245 297 334
#     4  11  22  36  55  81 112 158 190 235 288 354
#
# _framework density 18.845938
#
# number of rings (size 3 to 8) (size 9 to 14) (size 15 to 20)
#    0.000    1.800    4.000    1.200    0.000    1.600 
#    0.000    0.000    0.000    3.600    0.000    0.000 
#    0.000    0.000    0.000    0.000    0.000    0.000 
#
# Total GULP energy -222977.759608 kJ/mol
# GULP energy per Si atom -5574.443990 kJ/mol
# Density = 1.880304 g / cm^3
# Si number density = 18.845938 Si / 1000 Ang^3
#
#
#
# Elastic Constant Matrix: (Units=GPa)
#
#
# Indices 1 2 3 4 5 6 
#
# 1 49.0694 9.5623 13.8549 0.0000 0.0000 0.0000
# 2 9.5623 77.1089 9.0864 0.0000 0.0000 0.0000
# 3 13.8549 9.0864 81.6280 0.0000 0.0000 0.0000
# 4 0.0000 0.0000 0.0000 23.3390 0.0000 0.0000
# 5 0.0000 0.0000 0.0000 0.0000 4.5906 0.0000
# 6 0.0000 0.0000 0.0000 0.0000 0.0000 15.2338
#
#
#
# Elastic Compliance Matrix: (Units=1/GPa)
#
#
# Indices 1 2 3 4 5 6 
#
# 1 0.021800 -0.002297 -0.003444 0.000000 0.000000 0.000000
# 2 -0.002297 0.013383 -0.001100 0.000000 0.000000 0.000000
# 3 -0.003444 -0.001100 0.012958 0.000000 0.000000 0.000000
# 4 0.000000 0.000000 0.000000 0.042847 0.000000 0.000000
# 5 0.000000 0.000000 0.000000 0.000000 0.217834 0.000000
# 6 0.000000 0.000000 0.000000 0.000000 0.000000 0.065643
#
#
# Mechanical properties :
#
#
# Convention : Reuss Voigt Hill
#
# Bulk Modulus (GPa) = 29.02150 30.31261 29.66705
# Shear Modulus (GPa) = 12.51145 20.31954 16.41549
#
# Velocity S-wave (km/s) = 2.57938 3.28715 2.95453
# Velocity P-wave (km/s) = 4.92988 5.52507 5.23594
#
# Compressibility (1/GPa) = 0.03445722
#
# Stress axis : x y z
#
# Youngs Moduli (GPa) = 45.87256 74.72061 77.17399
#
# Poissons Ratio (x) = 0.17167 0.26581
# Poissons Ratio (y) = 0.10539 0.08487
# Poissons Ratio (z) = 0.15800 0.08218
#
# Static dielectric constant tensor:
#      x y z
#    x 1.643060 0.000000 0.000000 
#    y 0.000000 1.672650 0.000000 
#    z 0.000000 0.000000 1.666690 
# 
# From -- ./inp_files/7406.got.cif
#   From: 2010.05.17/outbox.cif.g08.bks.cpg/sg59_4_cif.got.tgz:7406.got - 2010.06.03 14:40:33.
