data_PCOD9447647
_publ_section_title
;
Structure prediction by ZEFSAII (Michael W. Deem and Ramdas Pophale) SiO2 
 PCOD9447647
Probable space group: P M M N
;
_chemical_formula_sum "Si O2"
_cell_formula_units_Z 48
_cell_length_a 7.411527
_cell_length_b 15.262943
_cell_length_c 19.207908
_cell_angle_alpha 90.000000
_cell_angle_beta 90.000000
_cell_angle_gamma 90.000000
_cell_volume 2172.831478
_symmetry_space_group_name_H-M "P M M N"
_symmetry_group_IT_number 59
_space_group.IT_coordinate_system_code '2'
_symmetry_cell_setting 'orthorhombic'
loop_
_space_group_symop_operation_xyz
x,y,z
1/2-x,1/2-y,z
1/2+x,-y,-z
-x,1/2+y,-z
-x,-y,-z
1/2+x,1/2+y,-z
1/2-x,y,z
x,1/2-y,z
loop_
_atom_site_type_symbol
_atom_site_label
_atom_site_fract_x
_atom_site_fract_y
_atom_site_fract_z
Si Si1 0.469422 0.850652 0.952234
Si Si2 0.539963 0.468408 0.173135
Si Si3 0.032558 0.649903 0.550072
Si Si4 0.032088 0.650832 0.110785
Si Si5 0.972000 0.476249 0.325971
Si Si6 0.037889 0.348047 0.608841
O O1 0.250000 0.854932 0.954377
O O2 0.517254 0.750000 0.935786
O O3 0.536812 0.916827 0.893330
O O4 0.528620 0.869124 0.031368
O O5 0.750000 0.443298 0.175396
O O6 0.528801 0.572172 0.159439
O O7 0.466084 0.448078 0.249487
O O8 0.250000 0.649818 0.551414
O O9 0.971120 0.750000 0.560565
O O10 0.970373 0.586838 0.611456
O O11 0.978846 0.623822 0.471963
O O12 0.250000 0.651051 0.111180
O O13 0.973678 0.750000 0.128691
O O14 0.750000 0.476403 0.325766
O O15 0.034138 0.574623 0.343378
O O16 0.250000 0.341599 0.623946
O O17 0.960333 0.250000 0.615835
#
# Coordination Sequence:
#
# PCOD9447647 Si02
#       6
#     8   8   8   8   8   8
#     4   8  15  29  49  71  94 122 156 192 231 276
#     4  10  19  30  48  73  96 121 156 194 229 272
#     4   9  17  30  48  68  89 114 147 187 224 260
#     4   9  18  33  50  67  92 126 158 190 233 279
#     4   9  18  30  44  67  96 120 143 178 228 274
#     4   9  17  30  47  64  85 117 152 183 219 264
#
# _framework density 22.090992
#
# number of rings (size 3 to 8) (size 9 to 14) (size 15 to 20)
#    0.000    3.000    0.000    2.000    0.000    1.667 
#    0.000    6.667    0.000    3.500    0.000    0.000 
#    0.000    0.000    0.000    0.000    0.000    0.000 
#
# Total GULP energy -267966.418932 kJ/mol
# GULP energy per Si atom -5582.633728 kJ/mol
# Density = 2.204071 g / cm^3
# Si number density = 22.090992 Si / 1000 Ang^3
#
#
#
# Elastic Constant Matrix: (Units=GPa)
#
#
# Indices 1 2 3 4 5 6 
#
# 1 72.4543 -7.1137 -7.2779 0.0000 0.0000 0.0000
# 2 -7.1137 32.7030 7.3743 0.0000 0.0000 0.0000
# 3 -7.2779 7.3743 20.3666 0.0000 0.0000 0.0000
# 4 0.0000 0.0000 0.0000 -3.3886 0.0000 0.0000
# 5 0.0000 0.0000 0.0000 0.0000 -7.3321 0.0000
# 6 0.0000 0.0000 0.0000 0.0000 0.0000 3.3409
#
#
#
# Elastic Compliance Matrix: (Units=1/GPa)
#
#
# Indices 1 2 3 4 5 6 
#
# 1 0.014454 0.002155 0.004385 0.000000 0.000000 0.000000
# 2 0.002155 0.033618 -0.011402 0.000000 0.000000 0.000000
# 3 0.004385 -0.011402 0.054795 0.000000 0.000000 0.000000
# 4 0.000000 0.000000 0.000000 -0.295108 0.000000 0.000000
# 5 0.000000 0.000000 0.000000 0.000000 -0.136387 0.000000
# 6 0.000000 0.000000 0.000000 0.000000 0.000000 0.299317
#
#
# Mechanical properties :
#
#
# Convention : Reuss Voigt Hill
#
# Bulk Modulus (GPa) = 10.73622 12.38772 11.56197
# Shear Modulus (GPa) = 436.24507 7.36014 221.80260
#
# Velocity S-wave (km/s) = 14.06788 1.82728 10.03105
# Velocity P-wave (km/s) = 16.39342 3.17360 11.80711
#
# Compressibility (1/GPa) = 0.09314269
#
# Stress axis : x y z
#
# Youngs Moduli (GPa) = 69.18577 29.74583 18.24976
#
# Poissons Ratio (x) = -0.06411 -0.08002
# Poissons Ratio (y) = -0.14912 0.20809
# Poissons Ratio (z) = -0.30335 0.33917
#
# Static dielectric constant tensor:
#      x y z
#    x 1.851810 0.000000 0.000000 
#    y 0.000000 1.795010 0.000000 
#    z 0.000000 0.000000 1.782660 
# 
# From -- ./inp_files/25432.got.cif
#   From: 2010.05.17/outbox.cif.g08.bks.cpg/sg59_13_cif.got.tgz:25432.got - 2010.06.03 14:40:33.
