data_PCOD9447698
_publ_section_title
;
Structure prediction by ZEFSAII (Michael W. Deem and Ramdas Pophale) SiO2 
 PCOD9447698
Probable space group: P M M N
;
_chemical_formula_sum "Si O2"
_cell_formula_units_Z 56
_cell_length_a 20.416934
_cell_length_b 7.519674
_cell_length_c 17.899941
_cell_angle_alpha 90.000000
_cell_angle_beta 90.000000
_cell_angle_gamma 90.000000
_cell_volume 2748.154453
_symmetry_space_group_name_H-M "P M M N"
_symmetry_group_IT_number 59
_space_group.IT_coordinate_system_code '2'
_symmetry_cell_setting 'orthorhombic'
loop_
_space_group_symop_operation_xyz
x,y,z
1/2-x,1/2-y,z
1/2+x,-y,-z
-x,1/2+y,-z
-x,-y,-z
1/2+x,1/2+y,-z
1/2-x,y,z
x,1/2-y,z
loop_
_atom_site_type_symbol
_atom_site_label
_atom_site_fract_x
_atom_site_fract_y
_atom_site_fract_z
Si Si1 0.543184 0.955904 0.205102
Si Si2 0.677255 0.967477 0.927786
Si Si3 0.067970 0.463697 0.957904
Si Si4 0.892655 0.965543 0.780241
Si Si5 0.446989 0.955578 0.625077
Si Si6 0.824478 0.040718 0.465996
Si Si7 0.904527 0.965561 0.612737
O O1 0.562504 0.750000 0.211216
O O2 0.569855 0.032160 0.127172
O O3 0.464732 0.969192 0.197928
O O4 0.559323 0.039917 0.285125
O O5 0.750000 0.024569 0.945949
O O6 0.675578 0.750000 0.928079
O O7 0.656776 0.022540 0.844413
O O8 0.625295 0.029596 0.988605
O O9 0.073324 0.250000 0.952129
O O10 0.000000 0.500000 0.000000
O O11 0.894965 0.750000 0.780269
O O12 0.880633 0.021389 0.695116
O O13 0.449589 0.750000 0.600756
O O14 0.382347 0.035873 0.586893
O O15 0.519491 0.029504 0.604635
O O16 0.750000 0.968041 0.461288
O O17 0.819117 0.250000 0.447728
O O18 0.855515 0.024313 0.548404
O O19 0.906567 0.750000 0.611572
#
# Coordination Sequence:
#
# PCOD9447698 Si02
#       7
#     8   8   8   8   8   8   8
#     4  10  19  30  49  79 104 125 164 214 259 297
#     4   9  17  30  49  72 100 136 174 207 243 295
#     4  10  19  31  51  76 101 132 170 209 251 297
#     4   9  17  31  51  74  99 131 168 203 248 305
#     4   9  19  36  55  74  99 133 172 211 251 302
#     4  10  21  36  53  74 101 135 172 208 254 308
#     4   9  18  31  51  78 102 128 167 209 252 299
#
# _framework density 20.377310999999999
#
# number of rings (size 3 to 8) (size 9 to 14) (size 15 to 20)
#    0.000    2.571    1.429    1.714    0.000    4.286 
#    0.000    2.143    0.000    2.571    0.000    0.000 
#    0.000    0.000    0.000    0.000    0.000    0.000 
#
# Total GULP energy -312329.593238 kJ/mol
# GULP energy per Si atom -5577.314165 kJ/mol
# Density = 2.033093 g / cm^3
# Si number density = 20.377311 Si / 1000 Ang^3
#
#
#
# Elastic Constant Matrix: (Units=GPa)
#
#
# Indices 1 2 3 4 5 6 
#
# 1 134.4601 -7.2859 56.8150 0.0000 0.0000 0.0000
# 2 -7.2859 48.4383 -14.9461 0.0000 0.0000 0.0000
# 3 56.8150 -14.9461 78.9845 0.0000 0.0000 0.0000
# 4 0.0000 0.0000 0.0000 2.1631 0.0000 0.0000
# 5 0.0000 0.0000 0.0000 0.0000 22.4455 0.0000
# 6 0.0000 0.0000 0.0000 0.0000 0.0000 10.7228
#
#
#
# Elastic Compliance Matrix: (Units=1/GPa)
#
#
# Indices 1 2 3 4 5 6 
#
# 1 0.010715 -0.000814 -0.007861 0.000000 0.000000 0.000000
# 2 -0.000814 0.021987 0.004746 0.000000 0.000000 0.000000
# 3 -0.007861 0.004746 0.019214 0.000000 0.000000 0.000000
# 4 0.000000 0.000000 0.000000 0.462306 0.000000 0.000000
# 5 0.000000 0.000000 0.000000 0.000000 0.044552 0.000000
# 6 0.000000 0.000000 0.000000 0.000000 0.000000 0.093259
#
#
# Mechanical properties :
#
#
# Convention : Reuss Voigt Hill
#
# Bulk Modulus (GPa) = 22.69810 36.78321 29.74065
# Shear Modulus (GPa) = 7.41205 22.21959 14.81582
#
# Velocity S-wave (km/s) = 1.90927 3.30572 2.69936
# Velocity P-wave (km/s) = 4.00293 5.71494 4.93377
#
# Compressibility (1/GPa) = 0.04405656
#
# Stress axis : x y z
#
# Youngs Moduli (GPa) = 93.32883 45.48181 52.04635
#
# Poissons Ratio (x) = 0.03702 0.40916
# Poissons Ratio (y) = 0.07597 -0.24701
# Poissons Ratio (z) = 0.73369 -0.21586
#
# Static dielectric constant tensor:
#      x y z
#    x 1.706890 0.000000 0.000000 
#    y 0.000000 1.782300 0.000000 
#    z 0.000000 0.000000 1.727540 
# 
# From -- ./inp_files/28096.got.cif
#   From: 2010.05.17/outbox.cif.g08.bks.cpg/sg59_15_cif.got.tgz:28096.got - 2010.06.03 14:40:33.
