data_PCOD9447390
_publ_section_title
;
Structure prediction by ZEFSAII (Michael W. Deem and Ramdas Pophale) SiO2 
 PCOD9447390
Probable space group: P M M N
;
_chemical_formula_sum "Si O2"
_cell_formula_units_Z 64
_cell_length_a 19.945689
_cell_length_b 9.305908
_cell_length_c 19.468529
_cell_angle_alpha 90.000000
_cell_angle_beta 90.000000
_cell_angle_gamma 90.000000
_cell_volume 3613.607144
_symmetry_space_group_name_H-M "P M M N"
_symmetry_group_IT_number 59
_space_group.IT_coordinate_system_code '2'
_symmetry_cell_setting 'orthorhombic'
loop_
_space_group_symop_operation_xyz
x,y,z
1/2-x,1/2-y,z
1/2+x,-y,-z
-x,1/2+y,-z
-x,-y,-z
1/2+x,1/2+y,-z
1/2-x,y,z
x,1/2-y,z
loop_
_atom_site_type_symbol
_atom_site_label
_atom_site_fract_x
_atom_site_fract_y
_atom_site_fract_z
Si Si1 0.827147 0.419791 0.505978
Si Si2 0.013470 0.414546 0.292131
Si Si3 0.113208 0.412660 0.881072
Si Si4 0.671614 0.906936 0.373630
Si Si5 0.140625 0.909862 0.756170
Si Si6 0.432801 0.421602 0.026756
Si Si7 0.966450 0.077184 0.566198
Si Si8 0.045930 0.582891 0.160307
O O1 0.750000 0.462098 0.523618
O O2 0.825543 0.250000 0.491725
O O3 0.852311 0.497342 0.436746
O O4 0.885624 0.445065 0.560764
O O5 0.037489 0.250000 0.302319
O O6 0.010931 0.502401 0.363135
O O7 0.052609 0.502139 0.232964
O O8 0.938280 0.403608 0.262175
O O9 0.136044 0.250000 0.866608
O O10 0.148563 0.525499 0.831745
O O11 0.033699 0.417278 0.860507
O O12 0.117365 0.440042 0.962480
O O13 0.750000 0.891240 0.388291
O O14 0.639108 0.750000 0.371928
O O15 0.667482 0.983794 0.301161
O O16 0.168309 0.750000 0.749788
O O17 0.555898 0.750000 0.964761
O O18 0.417489 0.496577 0.099098
O O19 0.500000 0.500000 0.000000
O O20 0.978836 0.250000 0.564875
O O21 0.000000 0.000000 0.500000
O O22 0.065815 0.750000 0.163902
#
# Coordination Sequence:
#
# PCOD9447390 Si02
#       8
#     8   8   8   8   8   8   8   8
#     4   9  19  36  54  70  91 121 157 195 234 278
#     4  10  20  32  45  64  91 121 152 186 227 275
#     4   8  15  25  37  55  81 113 146 180 217 258
#     4  10  20  32  47  66  86 111 145 185 228 272
#     4  10  19  29  43  62  86 118 152 185 222 265
#     4   9  15  23  36  55  80 112 148 183 220 262
#     4  11  22  34  50  72  97 125 157 194 238 286
#     4   9  16  26  40  58  82 114 149 184 222 264
#
# _framework density 17.710834999999999
#
# number of rings (size 3 to 8) (size 9 to 14) (size 15 to 20)
#    0.000    2.500    0.000    3.750    0.000    9.750 
#    0.000    0.000    0.000    0.000    0.000    0.000 
#    0.000    1.000    0.000    6.500    0.000    5.875 
#
# Total GULP energy -356425.495052 kJ/mol
# GULP energy per Si atom -5569.148360 kJ/mol
# Density = 1.767052 g / cm^3
# Si number density = 17.710835 Si / 1000 Ang^3
#
#
#
# Elastic Constant Matrix: (Units=GPa)
#
#
# Indices 1 2 3 4 5 6 
#
# 1 30.1330 19.1451 9.8810 0.0000 0.0000 0.0000
# 2 19.1451 98.8024 60.6602 0.0000 0.0000 0.0000
# 3 9.8810 60.6602 120.0511 0.0000 0.0000 0.0000
# 4 0.0000 0.0000 0.0000 23.6532 0.0000 0.0000
# 5 0.0000 0.0000 0.0000 0.0000 11.2110 0.0000
# 6 0.0000 0.0000 0.0000 0.0000 0.0000 8.7779
#
#
#
# Elastic Compliance Matrix: (Units=1/GPa)
#
#
# Indices 1 2 3 4 5 6 
#
# 1 0.037906 -0.007872 0.000857 0.000000 0.000000 0.000000
# 2 -0.007872 0.016308 -0.007592 0.000000 0.000000 0.000000
# 3 0.000857 -0.007592 0.012095 0.000000 0.000000 0.000000
# 4 0.000000 0.000000 0.000000 0.042278 0.000000 0.000000
# 5 0.000000 0.000000 0.000000 0.000000 0.089198 0.000000
# 6 0.000000 0.000000 0.000000 0.000000 0.000000 0.113923
#
#
# Mechanical properties :
#
#
# Convention : Reuss Voigt Hill
#
# Bulk Modulus (GPa) = 26.95647 47.59546 37.27596
# Shear Modulus (GPa) = 14.15281 19.34841 16.75061
#
# Velocity S-wave (km/s) = 2.82991 3.30883 3.07870
# Velocity P-wave (km/s) = 5.09227 6.44436 5.80780
#
# Compressibility (1/GPa) = 0.03709685
#
# Stress axis : x y z
#
# Youngs Moduli (GPa) = 26.38080 61.32038 82.67564
#
# Poissons Ratio (x) = 0.48269 -0.07089
# Poissons Ratio (y) = 0.20766 0.62769
# Poissons Ratio (z) = -0.02262 0.46556
#
# Static dielectric constant tensor:
#      x y z
#    x 1.649460 0.000000 0.000000 
#    y 0.000000 1.634400 0.000000 
#    z 0.000000 0.000000 1.609260 
# 
# From -- ./inp_files/28432.got.cif
#   From: 2010.05.17/outbox.cif.g08.bks.cpg/sg59_15_cif.got.tgz:28432.got - 2010.06.03 14:40:33.
