data_PCOD9447520
_publ_section_title
;
Structure prediction by ZEFSAII (Michael W. Deem and Ramdas Pophale) SiO2 
 PCOD9447520
Probable space group: P M M N
;
_chemical_formula_sum "Si O2"
_cell_formula_units_Z 64
_cell_length_a 31.821934
_cell_length_b 7.826097
_cell_length_c 11.866285
_cell_angle_alpha 90.000000
_cell_angle_beta 90.000000
_cell_angle_gamma 90.000000
_cell_volume 2955.197917
_symmetry_space_group_name_H-M "P M M N"
_symmetry_group_IT_number 59
_space_group.IT_coordinate_system_code '2'
_symmetry_cell_setting 'orthorhombic'
loop_
_space_group_symop_operation_xyz
x,y,z
1/2-x,1/2-y,z
1/2+x,-y,-z
-x,1/2+y,-z
-x,-y,-z
1/2+x,1/2+y,-z
1/2-x,y,z
x,1/2-y,z
loop_
_atom_site_type_symbol
_atom_site_label
_atom_site_fract_x
_atom_site_fract_y
_atom_site_fract_z
Si Si1 0.133456 0.056981 0.432094
Si Si2 0.020132 0.453564 0.816808
Si Si3 0.922877 0.949192 0.373767
Si Si4 0.850404 0.051731 0.207053
Si Si5 0.152686 0.047017 0.050807
Si Si6 0.203363 0.952762 0.593589
Si Si7 0.797633 0.540539 0.740632
Si Si8 0.559705 0.452568 0.949312
O O1 0.121247 0.250000 0.398040
O O2 0.095289 0.977733 0.507404
O O3 0.161732 0.978767 0.331745
O O4 0.169979 0.060374 0.525823
O O5 0.016068 0.250000 0.799949
O O6 0.038468 0.524419 0.699198
O O7 0.975744 0.521526 0.863894
O O8 0.051090 0.478380 0.924422
O O9 0.931428 0.750000 0.397896
O O10 0.885908 0.956299 0.279392
O O11 0.862960 0.250000 0.214472
O O12 0.807376 0.028636 0.275464
O O13 0.844636 0.006322 0.078428
O O14 0.152596 0.250000 0.055084
O O15 0.190077 0.989666 0.132305
O O16 0.106605 0.988053 0.090263
O O17 0.250000 0.004900 0.565725
O O18 0.197909 0.750000 0.566841
O O19 0.750000 0.484253 0.710314
O O20 0.797497 0.750000 0.731073
O O21 0.553668 0.250000 0.958136
#
# Coordination Sequence:
#
# PCOD9447520 Si02
#       8
#     8   8   8   8   8   8   8   8
#     4   9  17  31  53  76  94 118 159 207 250 293
#     4   9  17  29  47  74 106 134 162 197 239 291
#     4   9  16  28  49  76 102 125 152 194 247 296
#     4  10  19  30  45  67  95 127 160 194 240 299
#     4  11  21  33  49  68  96 132 168 209 251 289
#     4   9  18  31  46  67  97 126 149 187 248 307
#     4   9  19  35  53  72  94 125 169 217 256 291
#     4  10  19  30  47  72 102 137 169 198 238 290
#
# _framework density 21.656756999999999
#
# number of rings (size 3 to 8) (size 9 to 14) (size 15 to 20)
#    0.000    2.500    1.250    1.500    0.000    2.250 
#    0.000    1.250    0.000    3.375    0.000    0.000 
#    0.000    0.000    0.000    0.000    0.000    0.500 
#
# Total GULP energy -356370.649152 kJ/mol
# GULP energy per Si atom -5568.291393 kJ/mol
# Density = 2.160747 g / cm^3
# Si number density = 21.656757 Si / 1000 Ang^3
#
#
#
# Elastic Constant Matrix: (Units=GPa)
#
#
# Indices 1 2 3 4 5 6 
#
# 1 29.3183 -3.9111 1.0677 0.0000 0.0000 0.0000
# 2 -3.9111 22.6392 -10.1233 0.0000 0.0000 0.0000
# 3 1.0677 -10.1233 54.3082 0.0000 0.0000 0.0000
# 4 0.0000 0.0000 0.0000 -62.9730 0.0000 0.0000
# 5 0.0000 0.0000 0.0000 0.0000 27.5863 0.0000
# 6 0.0000 0.0000 0.0000 0.0000 0.0000 -8.6433
#
#
#
# Elastic Compliance Matrix: (Units=1/GPa)
#
#
# Indices 1 2 3 4 5 6 
#
# 1 0.034924 0.006247 0.000478 0.000000 0.000000 0.000000
# 2 0.006247 0.049305 0.009068 0.000000 0.000000 0.000000
# 3 0.000478 0.009068 0.020094 0.000000 0.000000 0.000000
# 4 0.000000 0.000000 0.000000 -0.015880 0.000000 0.000000
# 5 0.000000 0.000000 0.000000 0.000000 0.036250 0.000000
# 6 0.000000 0.000000 0.000000 0.000000 0.000000 -0.115697
#
#
# Mechanical properties :
#
#
# Convention : Reuss Voigt Hill
#
# Bulk Modulus (GPa) = 7.35784 8.92582 8.14183
# Shear Modulus (GPa) = 220.12263 -0.85717 109.63273
#
# Velocity S-wave (km/s) = 10.09268 -0.62981 7.12269
# Velocity P-wave (km/s) = 11.79920 1.89778 8.45052
#
# Compressibility (1/GPa) = 0.13590949
#
# Stress axis : x y z
#
# Youngs Moduli (GPa) = 28.63332 20.28187 49.76533
#
# Poissons Ratio (x) = -0.12670 -0.02378
# Poissons Ratio (y) = -0.17887 -0.45127
# Poissons Ratio (z) = -0.01368 -0.18391
#
# Static dielectric constant tensor:
#      x y z
#    x 1.831350 0.000000 0.000000 
#    y 0.000000 1.804390 0.000000 
#    z 0.000000 0.000000 1.833830 
# 
# From -- ./inp_files/19374.got.cif
#   From: 2010.05.17/outbox.cif.g08.bks.cpg/sg59_10_cif.got.tgz:19374.got - 2010.06.03 14:40:33.
