data_PCOD9447324
_publ_section_title
;
Structure prediction by ZEFSAII (Michael W. Deem and Ramdas Pophale) SiO2 
 PCOD9447324
Probable space group: P M M N
;
_chemical_formula_sum "Si O2"
_cell_formula_units_Z 32
_cell_length_a 14.508536
_cell_length_b 14.471668
_cell_length_c 8.250512
_cell_angle_alpha 90.000000
_cell_angle_beta 90.000000
_cell_angle_gamma 90.000000
_cell_volume 1732.299909
_symmetry_space_group_name_H-M "P M M N"
_symmetry_group_IT_number 59
_space_group.IT_coordinate_system_code '2'
_symmetry_cell_setting 'orthorhombic'
loop_
_space_group_symop_operation_xyz
x,y,z
1/2-x,1/2-y,z
1/2+x,-y,-z
-x,1/2+y,-z
-x,-y,-z
1/2+x,1/2+y,-z
1/2-x,y,z
x,1/2-y,z
loop_
_atom_site_type_symbol
_atom_site_label
_atom_site_fract_x
_atom_site_fract_y
_atom_site_fract_z
Si Si1 0.250000 0.250000 0.519660
Si Si2 0.750000 0.087583 0.252439
Si Si3 0.250000 0.060395 0.323281
Si Si4 0.582159 0.250000 0.728858
Si Si5 0.620036 0.750000 0.176726
Si Si6 0.093565 0.562053 0.479979
Si Si7 0.750000 0.597486 0.051660
Si Si8 0.250000 0.750000 0.014974
O O1 0.250000 0.159236 0.410952
O O2 0.162425 0.250000 0.641237
O O3 0.843368 0.089754 0.362693
O O4 0.750000 0.163223 0.109225
O O5 0.750000 0.988083 0.170128
O O6 0.338548 0.003713 0.379493
O O7 0.250000 0.069480 0.132527
O O8 0.487608 0.250000 0.825868
O O9 0.580713 0.342244 0.617897
O O10 0.664345 0.250000 0.859571
O O11 0.662513 0.661027 0.090892
O O12 0.000000 0.500000 0.500000
#
# Coordination Sequence:
#
# PCOD9447324 Si02
#       8
#     2   4   4   4   4   8   4   2
#     4  10  18  38  60  86 118 152 200 254 300 350
#     4  11  22  41  59  84 117 155 198 243 296 358
#     4  11  22  37  61  90 119 157 198 245 298 354
#     4  12  23  41  59  87 121 156 200 244 294 362
#     4  10  21  37  61  87 115 152 190 246 304 352
#     4  11  23  40  64  89 117 159 205 248 295 357
#     4  10  20  38  60  88 118 146 190 250 308 352
#     4  12  26  40  60  86 126 170 196 240 300 362
#
# _framework density 18.472552
#
# number of rings (size 3 to 8) (size 9 to 14) (size 15 to 20)
#    0.000    1.250    0.000   10.500    0.000    2.000 
#    0.000    7.500    0.000    0.000    0.000    0.000 
#    0.000    0.000    0.000    0.000    0.000    0.000 
#
# Total GULP energy -178617.803866 kJ/mol
# GULP energy per Si atom -5581.806371 kJ/mol
# Density = 1.843051 g / cm^3
# Si number density = 18.472552 Si / 1000 Ang^3
#
#
#
# Elastic Constant Matrix: (Units=GPa)
#
#
# Indices 1 2 3 4 5 6 
#
# 1 197.3763 73.9638 73.7073 0.0000 0.0000 0.0000
# 2 73.9638 155.5237 50.2795 0.0000 0.0000 0.0000
# 3 73.7073 50.2795 108.3075 0.0000 0.0000 0.0000
# 4 0.0000 0.0000 0.0000 -51.5180 0.0000 0.0000
# 5 0.0000 0.0000 0.0000 0.0000 1.3878 0.0000
# 6 0.0000 0.0000 0.0000 0.0000 0.0000 -398.4378
#
#
#
# Elastic Compliance Matrix: (Units=1/GPa)
#
#
# Indices 1 2 3 4 5 6 
#
# 1 0.007393 -0.002223 -0.003999 0.000000 0.000000 0.000000
# 2 -0.002223 0.008234 -0.002309 0.000000 0.000000 0.000000
# 3 -0.003999 -0.002309 0.013027 0.000000 0.000000 0.000000
# 4 0.000000 0.000000 0.000000 -0.019411 0.000000 0.000000
# 5 0.000000 0.000000 0.000000 0.000000 0.720545 0.000000
# 6 0.000000 0.000000 0.000000 0.000000 0.000000 -0.002510
#
#
# Mechanical properties :
#
#
# Convention : Reuss Voigt Hill
#
# Bulk Modulus (GPa) = 86.28137 95.23432 90.75785
# Shear Modulus (GPa) = 6.68267 -72.16314 -32.74024
#
# Velocity S-wave (km/s) = 1.90407 -6.25699 -4.21452
# Velocity P-wave (km/s) = 7.18632 0.73035 5.05519
#
# Compressibility (1/GPa) = 0.01158999
#
# Stress axis : x y z
#
# Youngs Moduli (GPa) = 135.26403 121.45127 76.76536
#
# Poissons Ratio (x) = 0.26999 0.30700
# Poissons Ratio (y) = 0.30070 0.17729
# Poissons Ratio (z) = 0.54095 0.28049
#
# Static dielectric constant tensor:
#      x y z
#    x 1.637960 0.000000 0.000000 
#    y 0.000000 1.615160 0.000000 
#    z 0.000000 0.000000 1.624410 
# 
# From -- ./inp_files/8341.got.cif
#   From: 2010.05.17/outbox.cif.g08.bks.cpg/sg59_5_cif.got.tgz:8341.got - 2010.06.03 14:40:33.
