data_PCOD9447492
_publ_section_title
;
Structure prediction by ZEFSAII (Michael W. Deem and Ramdas Pophale) SiO2 
 PCOD9447492
Probable space group: P M M N
;
_chemical_formula_sum "Si O2"
_cell_formula_units_Z 56
_cell_length_a 14.563076
_cell_length_b 8.562471
_cell_length_c 20.840797
_cell_angle_alpha 90.000000
_cell_angle_beta 90.000000
_cell_angle_gamma 90.000000
_cell_volume 2598.762270
_symmetry_space_group_name_H-M "P M M N"
_symmetry_group_IT_number 59
_space_group.IT_coordinate_system_code '2'
_symmetry_cell_setting 'orthorhombic'
loop_
_space_group_symop_operation_xyz
x,y,z
1/2-x,1/2-y,z
1/2+x,-y,-z
-x,1/2+y,-z
-x,-y,-z
1/2+x,1/2+y,-z
1/2-x,y,z
x,1/2-y,z
loop_
_atom_site_type_symbol
_atom_site_label
_atom_site_fract_x
_atom_site_fract_y
_atom_site_fract_z
Si Si1 0.946224 0.063030 0.153960
Si Si2 0.152267 0.933635 0.315685
Si Si3 0.382737 0.425347 0.447088
Si Si4 0.347624 0.439073 0.117403
Si Si5 0.947206 0.937248 0.288956
Si Si6 0.897969 0.427179 0.421962
Si Si7 0.901916 0.563668 0.022548
O O1 0.947885 0.250000 0.156584
O O2 0.053119 0.006032 0.143517
O O3 0.911057 0.993837 0.220626
O O4 0.887522 0.010953 0.092086
O O5 0.250000 0.002645 0.293146
O O6 0.152266 0.750000 0.300462
O O7 0.053901 0.997942 0.292703
O O8 0.150136 0.957341 0.392448
O O9 0.351388 0.250000 0.432991
O O10 0.357940 0.475271 0.518935
O O11 0.493125 0.423278 0.438704
O O12 0.250000 0.497144 0.145048
O O13 0.349347 0.250000 0.124134
O O14 0.344982 0.473113 0.041178
O O15 0.948879 0.750000 0.292546
O O16 0.893767 0.000570 0.351095
O O17 0.863945 0.250000 0.422236
O O18 0.902470 0.750000 0.030030
O O19 0.000000 0.500000 0.000000
#
# Coordination Sequence:
#
# PCOD9447492 Si02
#       7
#     8   8   8   8   8   8   8
#     4  10  19  30  45  65  92 124 155 187 225 272
#     4   9  18  31  44  60  87 122 154 184 222 267
#     4   9  16  26  42  63  84 108 142 183 222 258
#     4   8  15  28  46  68  91 116 149 187 224 263
#     4  10  19  30  44  63  89 119 152 187 221 262
#     4   9  16  27  43  62  84 109 140 179 222 263
#     4   9  16  28  47  67  89 117 149 187 227 267
#
# _framework density 21.548719999999999
#
# number of rings (size 3 to 8) (size 9 to 14) (size 15 to 20)
#    0.000    2.857    0.000    3.000    0.000    4.857 
#    0.000    0.000    0.000   15.000    0.000    1.000 
#    0.000    5.714    0.000    0.000    0.000    0.000 
#
# Total GULP energy -312042.544272 kJ/mol
# GULP energy per Si atom -5572.188291 kJ/mol
# Density = 2.149967 g / cm^3
# Si number density = 21.548720 Si / 1000 Ang^3
#
#
#
# Elastic Constant Matrix: (Units=GPa)
#
#
# Indices 1 2 3 4 5 6 
#
# 1 31.0660 -7.0667 -14.4002 0.0000 0.0000 0.0000
# 2 -7.0667 36.8351 17.8479 0.0000 0.0000 0.0000
# 3 -14.4002 17.8479 155.5033 0.0000 0.0000 0.0000
# 4 0.0000 0.0000 0.0000 28.6944 0.0000 0.0000
# 5 0.0000 0.0000 0.0000 0.0000 -12.6720 0.0000
# 6 0.0000 0.0000 0.0000 0.0000 0.0000 -4.1248
#
#
#
# Elastic Compliance Matrix: (Units=1/GPa)
#
#
# Indices 1 2 3 4 5 6 
#
# 1 0.034614 0.005387 0.002587 0.000000 0.000000 0.000000
# 2 0.005387 0.029585 -0.002897 0.000000 0.000000 0.000000
# 3 0.002587 -0.002897 0.007003 0.000000 0.000000 0.000000
# 4 0.000000 0.000000 0.000000 0.034850 0.000000 0.000000
# 5 0.000000 0.000000 0.000000 0.000000 -0.078914 0.000000
# 6 0.000000 0.000000 0.000000 0.000000 0.000000 -0.242436
#
#
# Mechanical properties :
#
#
# Convention : Reuss Voigt Hill
#
# Bulk Modulus (GPa) = 12.29154 24.01850 18.15502
# Shear Modulus (GPa) = -25.21004 17.51439 -3.84783
#
# Velocity S-wave (km/s) = -3.42410 2.85402 -1.33773
# Velocity P-wave (km/s) = 3.14900 4.69371 2.46117
#
# Compressibility (1/GPa) = 0.08135676
#
# Stress axis : x y z
#
# Youngs Moduli (GPa) = 28.88994 33.80077 142.80033
#
# Poissons Ratio (x) = -0.18209 -0.36944
# Poissons Ratio (y) = -0.15563 0.41366
# Poissons Ratio (z) = -0.07474 0.09791
#
# Static dielectric constant tensor:
#      x y z
#    x 1.849210 0.000000 0.000000 
#    y 0.000000 1.737970 0.000000 
#    z 0.000000 0.000000 1.784530 
# 
# From -- ./inp_files/30592.got.cif
#   From: 2010.05.17/outbox.cif.g08.bks.cpg/sg59_16_cif.got.tgz:30592.got - 2010.06.03 14:40:33.
