data_PCOD9447380
_publ_section_title
;
Structure prediction by ZEFSAII (Michael W. Deem and Ramdas Pophale) SiO2 
 PCOD9447380
Probable space group: P M M N
;
_chemical_formula_sum "Si O2"
_cell_formula_units_Z 64
_cell_length_a 18.363925
_cell_length_b 9.231429
_cell_length_c 22.258847
_cell_angle_alpha 90.000000
_cell_angle_beta 90.000000
_cell_angle_gamma 90.000000
_cell_volume 3773.437043
_symmetry_space_group_name_H-M "P M M N"
_symmetry_group_IT_number 59
_space_group.IT_coordinate_system_code '2'
_symmetry_cell_setting 'orthorhombic'
loop_
_space_group_symop_operation_xyz
x,y,z
1/2-x,1/2-y,z
1/2+x,-y,-z
-x,1/2+y,-z
-x,-y,-z
1/2+x,1/2+y,-z
1/2-x,y,z
x,1/2-y,z
loop_
_atom_site_type_symbol
_atom_site_label
_atom_site_fract_x
_atom_site_fract_y
_atom_site_fract_z
Si Si1 0.830937 0.421716 0.626562
Si Si2 0.956065 0.078872 0.324198
Si Si3 0.390164 0.080335 0.258695
Si Si4 0.161186 0.917347 0.900577
Si Si5 0.837727 0.079300 0.859145
Si Si6 0.838757 0.583869 0.980691
Si Si7 0.666480 0.073392 0.232427
Si Si8 0.019825 0.576820 0.438062
O O1 0.750000 0.450237 0.602584
O O2 0.836314 0.250000 0.640431
O O3 0.843473 0.509528 0.687723
O O4 0.896566 0.455702 0.581285
O O5 0.948516 0.250000 0.339489
O O6 0.886525 0.029843 0.285915
O O7 0.026647 0.066272 0.281206
O O8 0.971694 0.987525 0.383743
O O9 0.373066 0.250000 0.252237
O O10 0.374898 0.998624 0.196963
O O11 0.250000 0.917095 0.900035
O O12 0.138412 0.750000 0.908120
O O13 0.139990 0.971311 0.834154
O O14 0.136729 0.011601 0.956980
O O15 0.750000 0.061105 0.853155
O O16 0.852995 0.250000 0.859401
O O17 0.860167 0.007149 0.922160
O O18 0.750000 0.582523 0.981982
O O19 0.862276 0.750000 0.975792
O O20 0.750000 0.026699 0.241056
O O21 0.666465 0.250000 0.230789
O O22 0.011554 0.750000 0.442475
O O23 0.000000 0.500000 0.500000
#
# Coordination Sequence:
#
# PCOD9447380 Si02
#       8
#     8   8   8   8   8   8   8   8
#     4   9  18  33  52  73  96 124 162 202 233 268
#     4   9  18  33  52  74  99 126 156 190 230 277
#     4  10  19  29  44  68  97 126 154 190 238 285
#     4   8  13  23  41  64  88 115 150 191 233 277
#     4  10  19  29  42  61  87 121 160 199 236 277
#     4   9  16  25  38  59  88 119 151 191 240 288
#     4   8  14  27  50  76  97 121 157 197 233 275
#     4  10  20  35  55  76 100 131 163 194 231 277
#
# _framework density 16.960664000000001
#
# number of rings (size 3 to 8) (size 9 to 14) (size 15 to 20)
#    0.000    2.875    0.000    2.625    0.000    5.000 
#    0.000    1.250    0.000    5.625    0.000    0.000 
#    0.000    0.000    0.000    0.000    0.000    0.000 
#
# Total GULP energy -356693.734477 kJ/mol
# GULP energy per Si atom -5573.339601 kJ/mol
# Density = 1.692206 g / cm^3
# Si number density = 16.960664 Si / 1000 Ang^3
#
#
#
# Elastic Constant Matrix: (Units=GPa)
#
#
# Indices 1 2 3 4 5 6 
#
# 1 52.4556 39.3233 63.8261 0.0000 0.0000 0.0000
# 2 39.3233 80.7469 83.2871 0.0000 0.0000 0.0000
# 3 63.8261 83.2871 171.3434 0.0000 0.0000 0.0000
# 4 0.0000 0.0000 0.0000 28.6791 0.0000 0.0000
# 5 0.0000 0.0000 0.0000 0.0000 16.1668 0.0000
# 6 0.0000 0.0000 0.0000 0.0000 0.0000 15.8416
#
#
#
# Elastic Compliance Matrix: (Units=1/GPa)
#
#
# Indices 1 2 3 4 5 6 
#
# 1 0.037079 -0.007642 -0.010097 0.000000 0.000000 0.000000
# 2 -0.007642 0.026412 -0.009992 0.000000 0.000000 0.000000
# 3 -0.010097 -0.009992 0.014454 0.000000 0.000000 0.000000
# 4 0.000000 0.000000 0.000000 0.034869 0.000000 0.000000
# 5 0.000000 0.000000 0.000000 0.000000 0.061855 0.000000
# 6 0.000000 0.000000 0.000000 0.000000 0.000000 0.063125
#
#
# Mechanical properties :
#
#
# Convention : Reuss Voigt Hill
#
# Bulk Modulus (GPa) = 44.47860 75.26878 59.87369
# Shear Modulus (GPa) = 16.62509 20.01147 18.31828
#
# Velocity S-wave (km/s) = 3.13423 3.43866 3.28997
# Velocity P-wave (km/s) = 6.27530 7.76148 7.05762
#
# Compressibility (1/GPa) = 0.02248272
#
# Stress axis : x y z
#
# Youngs Moduli (GPa) = 26.96971 37.86137 69.18387
#
# Poissons Ratio (x) = 0.28935 0.69856
# Poissons Ratio (y) = 0.20611 0.69126
# Poissons Ratio (z) = 0.27232 0.37830
#
# Static dielectric constant tensor:
#      x y z
#    x 1.581430 0.000000 0.000000 
#    y 0.000000 1.565720 0.000000 
#    z 0.000000 0.000000 1.550830 
# 
# From -- ./inp_files/30846.got.cif
#   From: 2010.05.17/outbox.cif.g08.bks.cpg/sg59_16_cif.got.tgz:30846.got - 2010.06.03 14:40:33.
