data_PCOD9447233
_publ_section_title
;
Structure prediction by ZEFSAII (Michael W. Deem and Ramdas Pophale) SiO2 
 PCOD9447233
Probable space group: P M M N
;
_chemical_formula_sum "Si O2"
_cell_formula_units_Z 64
_cell_length_a 8.304310
_cell_length_b 31.838560
_cell_length_c 12.332804
_cell_angle_alpha 90.000000
_cell_angle_beta 90.000000
_cell_angle_gamma 90.000000
_cell_volume 3260.759736
_symmetry_space_group_name_H-M "P M M N"
_symmetry_group_IT_number 59
_space_group.IT_coordinate_system_code '2'
_symmetry_cell_setting 'orthorhombic'
loop_
_space_group_symop_operation_xyz
x,y,z
1/2-x,1/2-y,z
1/2+x,-y,-z
-x,1/2+y,-z
-x,-y,-z
1/2+x,1/2+y,-z
1/2-x,y,z
x,1/2-y,z
loop_
_atom_site_type_symbol
_atom_site_label
_atom_site_fract_x
_atom_site_fract_y
_atom_site_fract_z
Si Si1 0.945315 0.086048 0.248034
Si Si2 0.557643 0.452895 0.019654
Si Si3 0.054940 0.296304 0.489458
Si Si4 0.055939 0.953161 0.523976
Si Si5 0.442488 0.123272 0.872721
Si Si6 0.558110 0.818699 0.749823
Si Si7 0.053094 0.296230 0.010698
Si Si8 0.442598 0.623514 0.374148
O O1 0.750000 0.090087 0.248225
O O2 0.993995 0.061298 0.355918
O O3 0.020835 0.132029 0.250182
O O4 0.995621 0.062785 0.138399
O O5 0.750000 0.452559 0.017793
O O6 0.497928 0.419171 0.931983
O O7 0.500000 0.500000 0.000000
O O8 0.250000 0.298300 0.489019
O O9 0.007963 0.250000 0.530408
O O10 0.997540 0.300875 0.364589
O O11 0.993919 0.334987 0.560301
O O12 0.250000 0.952722 0.521281
O O13 0.997962 0.918012 0.438341
O O14 0.000000 0.000000 0.500000
O O15 0.250000 0.124352 0.875829
O O16 0.496777 0.124554 0.748606
O O17 0.502586 0.164184 0.939639
O O18 0.750000 0.811372 0.749994
O O19 0.497583 0.800938 0.864415
O O20 0.250000 0.297638 0.011430
O O21 0.006338 0.250000 0.969393
O O22 0.250000 0.621872 0.372915
#
# Coordination Sequence:
#
# PCOD9447233 Si02
#       8
#     8   8   8   8   8   8   8   8
#     4  10  21  39  61  87 121 155 189 242 299 351
#     4  11  24  41  63  90 122 158 199 247 299 358
#     4  10  21  37  60  91 122 155 198 246 296 352
#     4  10  23  41  61  87 117 153 195 243 297 352
#     4  11  23  40  62  88 120 159 202 250 300 355
#     4  10  18  33  60  91 120 152 193 243 293 349
#     4   9  18  34  58  88 119 152 192 240 293 346
#     4  11  24  42  61  85 119 159 201 248 299 356
#
# _framework density 19.627327000000001
#
# number of rings (size 3 to 8) (size 9 to 14) (size 15 to 20)
#    0.000    1.750    2.500    1.500    1.750    4.250 
#    0.000    1.250    0.000    3.750    0.000    0.000 
#    0.000    0.000    0.000    0.000    0.000    0.000 
#
# Total GULP energy -357492.677301 kJ/mol
# GULP energy per Si atom -5585.823083 kJ/mol
# Density = 1.958265 g / cm^3
# Si number density = 19.627327 Si / 1000 Ang^3
#
#
#
# Elastic Constant Matrix: (Units=GPa)
#
#
# Indices 1 2 3 4 5 6 
#
# 1 17.1782 18.8573 20.9603 0.0000 0.0000 0.0000
# 2 18.8573 190.7015 92.7042 0.0000 0.0000 0.0000
# 3 20.9603 92.7042 159.5600 0.0000 0.0000 0.0000
# 4 0.0000 0.0000 0.0000 62.6923 0.0000 0.0000
# 5 0.0000 0.0000 0.0000 0.0000 25.0179 0.0000
# 6 0.0000 0.0000 0.0000 0.0000 0.0000 26.5856
#
#
#
# Elastic Compliance Matrix: (Units=1/GPa)
#
#
# Indices 1 2 3 4 5 6 
#
# 1 0.070928 -0.003462 -0.007306 0.000000 0.000000 0.000000
# 2 -0.003462 0.007477 -0.003889 0.000000 0.000000 0.000000
# 3 -0.007306 -0.003889 0.009487 0.000000 0.000000 0.000000
# 4 0.000000 0.000000 0.000000 0.015951 0.000000 0.000000
# 5 0.000000 0.000000 0.000000 0.000000 0.039971 0.000000
# 6 0.000000 0.000000 0.000000 0.000000 0.000000 0.037614
#
#
# Mechanical properties :
#
#
# Convention : Reuss Voigt Hill
#
# Bulk Modulus (GPa) = 17.07151 70.27593 43.67372
# Shear Modulus (GPa) = 21.71382 38.52035 30.11709
#
# Velocity S-wave (km/s) = 3.32973 4.43492 3.92145
# Velocity P-wave (km/s) = 4.84763 7.88083 6.54244
#
# Compressibility (1/GPa) = 0.05857711
#
# Stress axis : x y z
#
# Youngs Moduli (GPa) = 14.09879 133.74752 105.41211
#
# Poissons Ratio (x) = 0.46305 0.77012
# Poissons Ratio (y) = 0.04881 0.40997
# Poissons Ratio (z) = 0.10300 0.52017
#
# Static dielectric constant tensor:
#      x y z
#    x 1.696250 0.000000 0.000000 
#    y 0.000000 1.672880 0.000000 
#    z 0.000000 0.000000 1.678030 
# 
# From -- ./inp_files/14954.got.cif
#   From: 2010.05.17/outbox.cif.g08.bks.cpg/sg59_8_cif.got.tgz:14954.got - 2010.06.03 14:40:33.
