data_PCOD9447426
_publ_section_title
;
Structure prediction by ZEFSAII (Michael W. Deem and Ramdas Pophale) SiO2 
 PCOD9447426
Probable space group: P M M N
;
_chemical_formula_sum "Si O2"
_cell_formula_units_Z 48
_cell_length_a 7.704464
_cell_length_b 21.898966
_cell_length_c 16.006308
_cell_angle_alpha 90.000000
_cell_angle_beta 90.000000
_cell_angle_gamma 90.000000
_cell_volume 2700.581007
_symmetry_space_group_name_H-M "P M M N"
_symmetry_group_IT_number 59
_space_group.IT_coordinate_system_code '2'
_symmetry_cell_setting 'orthorhombic'
loop_
_space_group_symop_operation_xyz
x,y,z
1/2-x,1/2-y,z
1/2+x,-y,-z
-x,1/2+y,-z
-x,-y,-z
1/2+x,1/2+y,-z
1/2-x,y,z
x,1/2-y,z
loop_
_atom_site_type_symbol
_atom_site_label
_atom_site_fract_x
_atom_site_fract_y
_atom_site_fract_z
Si Si1 0.462785 0.097375 0.153943
Si Si2 0.544078 0.929921 0.023612
Si Si3 0.043963 0.539162 0.201441
Si Si4 0.956718 0.421364 0.438310
Si Si5 0.450521 0.553910 0.380460
Si Si6 0.459825 0.319397 0.306266
O O1 0.250000 0.096509 0.153575
O O2 0.519140 0.146890 0.221466
O O3 0.522123 0.029670 0.182975
O O4 0.519263 0.107001 0.057778
O O5 0.750000 0.923619 0.027021
O O6 0.479369 0.921338 0.117726
O O7 0.500000 0.000000 0.000000
O O8 0.250000 0.532127 0.213838
O O9 0.971390 0.564601 0.288691
O O10 0.750000 0.433456 0.441367
O O11 0.024325 0.418315 0.533769
O O12 0.040781 0.480674 0.395060
O O13 0.988756 0.361691 0.383933
O O14 0.250000 0.574044 0.377886
O O15 0.250000 0.318302 0.303777
O O16 0.522211 0.250000 0.312457
#
# Coordination Sequence:
#
# PCOD9447426 Si02
#       6
#     8   8   8   8   8   8
#     4   8  14  26  41  58  83 114 143 177 212 252
#     4   9  16  25  38  58  86 114 141 173 213 257
#     4   9  15  26  43  61  86 115 142 175 213 263
#     4  10  19  29  44  67  91 116 148 191 231 265
#     4   9  17  30  46  63  90 123 149 177 226 283
#     4  10  19  32  49  64  84 121 159 184 217 271
#
# _framework density 17.773952999999999
#
# number of rings (size 3 to 8) (size 9 to 14) (size 15 to 20)
#    0.000    2.833    1.667    2.000    0.000    1.667 
#    0.000    0.833    0.000    0.000    0.000    1.167 
#    0.000    4.000    0.000    0.000    0.000    0.000 
#
# Total GULP energy -267234.377998 kJ/mol
# GULP energy per Si atom -5567.382875 kJ/mol
# Density = 1.773350 g / cm^3
# Si number density = 17.773953 Si / 1000 Ang^3
#
#
#
# Elastic Constant Matrix: (Units=GPa)
#
#
# Indices 1 2 3 4 5 6 
#
# 1 28.6565 -5.1429 -1.4016 0.0000 0.0000 0.0000
# 2 -5.1429 63.7002 51.1452 0.0000 0.0000 0.0000
# 3 -1.4016 51.1452 204.4005 0.0000 0.0000 0.0000
# 4 0.0000 0.0000 0.0000 15.3869 0.0000 0.0000
# 5 0.0000 0.0000 0.0000 0.0000 18.3534 0.0000
# 6 0.0000 0.0000 0.0000 0.0000 0.0000 10.2711
#
#
#
# Elastic Compliance Matrix: (Units=1/GPa)
#
#
# Indices 1 2 3 4 5 6 
#
# 1 0.035466 0.003339 -0.000592 0.000000 0.000000 0.000000
# 2 0.003339 0.019960 -0.004971 0.000000 0.000000 0.000000
# 3 -0.000592 -0.004971 0.006132 0.000000 0.000000 0.000000
# 4 0.000000 0.000000 0.000000 0.064991 0.000000 0.000000
# 5 0.000000 0.000000 0.000000 0.000000 0.054486 0.000000
# 6 0.000000 0.000000 0.000000 0.000000 0.000000 0.097361
#
#
# Mechanical properties :
#
#
# Convention : Reuss Voigt Hill
#
# Bulk Modulus (GPa) = 17.51042 42.88428 30.19735
# Shear Modulus (GPa) = 16.56281 25.61270 21.08775
#
# Velocity S-wave (km/s) = 3.05595 3.80020 3.44821
# Velocity P-wave (km/s) = 4.72492 6.59055 5.73412
#
# Compressibility (1/GPa) = 0.05710884
#
# Stress axis : x y z
#
# Youngs Moduli (GPa) = 28.19571 50.10096 163.07235
#
# Poissons Ratio (x) = -0.16728 0.09658
# Poissons Ratio (y) = -0.09414 0.81070
# Poissons Ratio (z) = 0.01670 0.24907
#
# Static dielectric constant tensor:
#      x y z
#    x 1.681550 0.000000 0.000000 
#    y 0.000000 1.554120 0.000000 
#    z 0.000000 0.000000 1.687650 
# 
# From -- ./inp_files/20741.got.cif
#   From: 2010.05.17/outbox.cif.g08.bks.cpg/sg59_11_cif.got.tgz:20741.got - 2010.06.03 14:40:33.
