data_PCOD9447949
_publ_section_title
;
Structure prediction by ZEFSAII (Michael W. Deem and Ramdas Pophale) SiO2 
 PCOD9447949
Probable space group: P M M N
;
_chemical_formula_sum "Si O2"
_cell_formula_units_Z 64
_cell_length_a 16.147071
_cell_length_b 8.340859
_cell_length_c 23.641972
_cell_angle_alpha 90.000000
_cell_angle_beta 90.000000
_cell_angle_gamma 90.000000
_cell_volume 3184.111250
_symmetry_space_group_name_H-M "P M M N"
_symmetry_group_IT_number 59
_space_group.IT_coordinate_system_code '2'
_symmetry_cell_setting 'orthorhombic'
loop_
_space_group_symop_operation_xyz
x,y,z
1/2-x,1/2-y,z
1/2+x,-y,-z
-x,1/2+y,-z
-x,-y,-z
1/2+x,1/2+y,-z
1/2-x,y,z
x,1/2-y,z
loop_
_atom_site_type_symbol
_atom_site_label
_atom_site_fract_x
_atom_site_fract_y
_atom_site_fract_z
Si Si1 0.348203 0.069943 0.996949
Si Si2 0.501321 0.942578 0.564371
Si Si3 0.849258 0.934440 0.238577
Si Si4 0.395357 0.930741 0.117637
Si Si5 0.849077 0.067090 0.763103
Si Si6 0.846152 0.444586 0.639345
Si Si7 0.592060 0.934700 0.119764
Si Si8 0.344981 0.941671 0.637964
O O1 0.250000 0.077201 0.991939
O O2 0.384430 0.250000 0.996665
O O3 0.368407 0.000323 0.057936
O O4 0.379775 0.987957 0.939326
O O5 0.500548 0.750000 0.565996
O O6 0.418069 0.001459 0.596984
O O7 0.500000 0.000000 0.500000
O O8 0.585075 0.001091 0.595080
O O9 0.750000 0.932256 0.234481
O O10 0.879618 0.750000 0.242454
O O11 0.881710 0.007192 0.179804
O O12 0.869390 0.019791 0.297314
O O13 0.360435 0.750000 0.119618
O O14 0.370122 0.012282 0.176921
O O15 0.493923 0.925728 0.118069
O O16 0.750000 0.078278 0.760422
O O17 0.884002 0.250000 0.764991
O O18 0.872720 0.996167 0.702313
O O19 0.750000 0.493792 0.627946
O O20 0.845351 0.250000 0.641489
O O21 0.626619 0.750000 0.120461
O O22 0.250000 0.003500 0.628377
O O23 0.340868 0.750000 0.631453
#
# Coordination Sequence:
#
# PCOD9447949 Si02
#       8
#     8   8   8   8   8   8   8   8
#     4  10  20  34  49  65  95 138 176 214 266 324
#     4  11  24  40  60  88 119 154 194 236 281 333
#     4   9  17  31  54  82 106 133 176 224 267 320
#     4  10  19  31  50  75 100 130 173 223 267 313
#     4   8  15  29  50  76 103 134 174 218 266 322
#     4   9  19  37  61  87 117 154 192 233 286 344
#     4   9  18  31  49  74 102 134 170 214 269 323
#     4   9  20  39  59  81 115 154 187 225 280 338
#
# _framework density 20.099800999999999
#
# number of rings (size 3 to 8) (size 9 to 14) (size 15 to 20)
#    0.000    2.625    0.000    2.250    1.750    4.000 
#    0.000    3.125    0.000    2.250    0.000    0.000 
#    0.000    0.000    0.000    0.000    0.000    0.000 
#
# Total GULP energy -356574.467194 kJ/mol
# GULP energy per Si atom -5571.476050 kJ/mol
# Density = 2.005405 g / cm^3
# Si number density = 20.099801 Si / 1000 Ang^3
#
#
#
# Elastic Constant Matrix: (Units=GPa)
#
#
# Indices 1 2 3 4 5 6 
#
# 1 81.8357 11.0061 82.0598 0.0000 0.0000 0.0000
# 2 11.0061 9.7156 14.5383 0.0000 0.0000 0.0000
# 3 82.0598 14.5383 201.1112 0.0000 0.0000 0.0000
# 4 0.0000 0.0000 0.0000 53.5631 0.0000 0.0000
# 5 0.0000 0.0000 0.0000 0.0000 44.6951 0.0000
# 6 0.0000 0.0000 0.0000 0.0000 0.0000 2.4989
#
#
#
# Elastic Compliance Matrix: (Units=1/GPa)
#
#
# Indices 1 2 3 4 5 6 
#
# 1 0.022036 -0.012904 -0.008058 0.000000 0.000000 0.000000
# 2 -0.012904 0.122969 -0.003624 0.000000 0.000000 0.000000
# 3 -0.008058 -0.003624 0.008522 0.000000 0.000000 0.000000
# 4 0.000000 0.000000 0.000000 0.018670 0.000000 0.000000
# 5 0.000000 0.000000 0.000000 0.000000 0.022374 0.000000
# 6 0.000000 0.000000 0.000000 0.000000 0.000000 0.400178
#
#
# Mechanical properties :
#
#
# Convention : Reuss Voigt Hill
#
# Bulk Modulus (GPa) = 9.58280 56.43011 33.00646
# Shear Modulus (GPa) = 7.36696 32.48863 19.92780
#
# Velocity S-wave (km/s) = 1.91655 4.02477 3.15213
# Velocity P-wave (km/s) = 3.11055 7.05225 5.45022
#
# Compressibility (1/GPa) = 0.10435358
#
# Stress axis : x y z
#
# Youngs Moduli (GPa) = 45.38127 8.13215 117.33742
#
# Poissons Ratio (x) = 0.10494 0.94555
# Poissons Ratio (y) = 0.58560 0.42524
# Poissons Ratio (z) = 0.36570 0.02947
#
# Static dielectric constant tensor:
#      x y z
#    x 1.698120 0.000000 0.000000 
#    y 0.000000 1.755100 0.000000 
#    z 0.000000 0.000000 1.747480 
# 
# From -- ./inp_files/30641.got.cif
#   From: 2010.05.17/outbox.cif.g08.bks.cpg/sg59_16_cif.got.tgz:30641.got - 2010.06.03 14:40:33.
