data_PCOD9447953
_publ_section_title
;
Structure prediction by ZEFSAII (Michael W. Deem and Ramdas Pophale) SiO2 
 PCOD9447953
Probable space group: P M M N
;
_chemical_formula_sum "Si O2"
_cell_formula_units_Z 64
_cell_length_a 13.490782
_cell_length_b 18.491742
_cell_length_c 14.613352
_cell_angle_alpha 90.000000
_cell_angle_beta 90.000000
_cell_angle_gamma 90.000000
_cell_volume 3645.564575
_symmetry_space_group_name_H-M "P M M N"
_symmetry_group_IT_number 59
_space_group.IT_coordinate_system_code '2'
_symmetry_cell_setting 'orthorhombic'
loop_
_space_group_symop_operation_xyz
x,y,z
1/2-x,1/2-y,z
1/2+x,-y,-z
-x,1/2+y,-z
-x,-y,-z
1/2+x,1/2+y,-z
1/2-x,y,z
x,1/2-y,z
loop_
_atom_site_type_symbol
_atom_site_label
_atom_site_fract_x
_atom_site_fract_y
_atom_site_fract_z
Si Si1 0.130942 0.071365 0.432309
Si Si2 0.636032 0.334540 0.723630
Si Si3 0.040372 0.334928 0.268720
Si Si4 0.368346 0.028027 0.959110
Si Si5 0.369312 0.170135 0.064790
Si Si6 0.047863 0.974726 0.767886
Si Si7 0.635602 0.040671 0.855257
Si Si8 0.495268 0.431856 0.608012
O O1 0.250000 0.066059 0.440384
O O2 0.102665 0.127123 0.350503
O O3 0.072854 0.094039 0.524761
O O4 0.078512 0.992808 0.416647
O O5 0.750000 0.348279 0.692498
O O6 0.623365 0.250000 0.736011
O O7 0.624641 0.378647 0.818146
O O8 0.556033 0.367568 0.654942
O O9 0.020291 0.250000 0.288123
O O10 0.092792 0.337144 0.168922
O O11 0.947367 0.390233 0.256365
O O12 0.250000 0.032256 0.954787
O O13 0.402334 0.000927 0.860875
O O14 0.403221 0.105661 0.998329
O O15 0.394150 0.972236 0.040389
O O16 0.250000 0.167119 0.068240
O O17 0.399003 0.250000 0.031520
O O18 0.932146 0.992164 0.790165
O O19 0.072296 0.026004 0.682710
O O20 0.750000 0.018589 0.845701
#
# Coordination Sequence:
#
# PCOD9447953 Si02
#       8
#     8   8   8   8   8   8   8   8
#     4  10  20  35  55  78 104 134 168 213 266 317
#     4   9  17  31  51  73  99 132 170 214 262 306
#     4  10  20  32  50  76 102 131 169 215 270 319
#     4  10  19  31  50  75 102 140 181 213 250 304
#     4   9  17  29  46  73 106 133 165 211 259 308
#     4  10  19  33  53  72 104 137 172 212 257 307
#     4   9  17  29  47  71  98 129 169 214 255 297
#     4   9  20  35  52  77 103 134 172 215 256 314
#
# _framework density 17.555579999999999
#
# number of rings (size 3 to 8) (size 9 to 14) (size 15 to 20)
#    0.000    2.500    1.250    1.125    0.000    4.750 
#    0.000    3.125    0.000    1.125    0.000    1.750 
#    0.000    0.000    0.000    0.000    0.000    0.000 
#
# Total GULP energy -356313.278644 kJ/mol
# GULP energy per Si atom -5567.394979 kJ/mol
# Density = 1.751562 g / cm^3
# Si number density = 17.555580 Si / 1000 Ang^3
#
#
#
# Elastic Constant Matrix: (Units=GPa)
#
#
# Indices 1 2 3 4 5 6 
#
# 1 40.7943 36.3494 40.2956 0.0000 0.0000 0.0000
# 2 36.3494 119.5327 53.5119 0.0000 0.0000 0.0000
# 3 40.2956 53.5119 103.8326 0.0000 0.0000 0.0000
# 4 0.0000 0.0000 0.0000 22.5358 0.0000 0.0000
# 5 0.0000 0.0000 0.0000 0.0000 23.2329 0.0000
# 6 0.0000 0.0000 0.0000 0.0000 0.0000 12.6531
#
#
#
# Elastic Compliance Matrix: (Units=1/GPa)
#
#
# Indices 1 2 3 4 5 6 
#
# 1 0.044413 -0.007526 -0.013357 0.000000 0.000000 0.000000
# 2 -0.007526 0.012150 -0.003341 0.000000 0.000000 0.000000
# 3 -0.013357 -0.003341 0.016537 0.000000 0.000000 0.000000
# 4 0.000000 0.000000 0.000000 0.044374 0.000000 0.000000
# 5 0.000000 0.000000 0.000000 0.000000 0.043042 0.000000
# 6 0.000000 0.000000 0.000000 0.000000 0.000000 0.079032
#
#
# Mechanical properties :
#
#
# Convention : Reuss Voigt Hill
#
# Bulk Modulus (GPa) = 40.56620 58.27482 49.42051
# Shear Modulus (GPa) = 16.87964 20.61787 18.74876
#
# Velocity S-wave (km/s) = 3.10417 3.43072 3.27152
# Velocity P-wave (km/s) = 6.00044 6.99712 6.51786
#
# Compressibility (1/GPa) = 0.02465106
#
# Stress axis : x y z
#
# Youngs Moduli (GPa) = 22.51569 82.30236 60.47227
#
# Poissons Ratio (x) = 0.61942 0.80775
# Poissons Ratio (y) = 0.16946 0.20204
# Poissons Ratio (z) = 0.30075 0.27498
#
# Static dielectric constant tensor:
#      x y z
#    x 1.622180 0.000000 0.000000 
#    y 0.000000 1.626000 0.000000 
#    z 0.000000 0.000000 1.623850 
# 
# From -- ./inp_files/23435.got.cif
#   From: 2010.05.17/outbox.cif.g08.bks.cpg/sg59_12_cif.got.tgz:23435.got - 2010.06.03 14:40:33.
