data_PCOD9447332
_publ_section_title
;
Structure prediction by ZEFSAII (Michael W. Deem and Ramdas Pophale) SiO2 
 PCOD9447332
Probable space group: P M M N
;
_chemical_formula_sum "Si O2"
_cell_formula_units_Z 64
_cell_length_a 16.853788
_cell_length_b 7.380373
_cell_length_c 23.904306
_cell_angle_alpha 90.000000
_cell_angle_beta 90.000000
_cell_angle_gamma 90.000000
_cell_volume 2973.390693
_symmetry_space_group_name_H-M "P M M N"
_symmetry_group_IT_number 59
_space_group.IT_coordinate_system_code '2'
_symmetry_cell_setting 'orthorhombic'
loop_
_space_group_symop_operation_xyz
x,y,z
1/2-x,1/2-y,z
1/2+x,-y,-z
-x,1/2+y,-z
-x,-y,-z
1/2+x,1/2+y,-z
1/2-x,y,z
x,1/2-y,z
loop_
_atom_site_type_symbol
_atom_site_label
_atom_site_fract_x
_atom_site_fract_y
_atom_site_fract_z
Si Si1 0.665294 0.465638 0.033346
Si Si2 0.838230 0.962706 0.578103
Si Si3 0.663632 0.970888 0.807891
Si Si4 0.423393 0.529020 0.863026
Si Si5 0.007968 0.528202 0.624495
Si Si6 0.413184 0.034237 0.080509
Si Si7 0.998962 0.029251 0.248254
Si Si8 0.338521 0.531333 0.554087
O O1 0.750000 0.537449 0.013804
O O2 0.669945 0.250000 0.039031
O O3 0.644684 0.534267 0.095166
O O4 0.603896 0.492596 0.983409
O O5 0.750000 0.036743 0.593462
O O6 0.836012 0.750000 0.592913
O O7 0.920790 0.033895 0.603658
O O8 0.845202 0.979675 0.511037
O O9 0.750000 0.030858 0.787888
O O10 0.663414 0.750000 0.806543
O O11 0.649661 0.027496 0.872541
O O12 0.586839 0.027360 0.772424
O O13 0.420882 0.750000 0.861263
O O14 0.502459 0.472733 0.896468
O O15 0.436354 0.470552 0.799309
O O16 0.007188 0.750000 0.621934
O O17 0.018254 0.473058 0.688899
O O18 0.083728 0.468594 0.587796
O O19 0.414155 0.250000 0.084300
O O20 0.999383 0.250000 0.248004
O O21 0.250000 0.471482 0.573488
O O22 0.338633 0.750000 0.556950
#
# Coordination Sequence:
#
# PCOD9447332 Si02
#       8
#     8   8   8   8   8   8   8   8
#     4  10  19  28  39  59  85 107 129 163 206 248
#     4   9  17  28  43  66  93 115 136 167 208 251
#     4   8  13  21  35  57  82 104 128 162 204 248
#     4   8  15  28  42  57  80 108 135 164 202 245
#     4   9  16  26  41  62  87 112 140 176 211 241
#     4   9  16  27  44  62  79 102 134 169 201 241
#     4   8  14  24  38  56  80 109 136 165 204 244
#     4   9  17  29  44  63  88 116 144 173 205 242
#
# _framework density 21.524249999999999
#
# number of rings (size 3 to 8) (size 9 to 14) (size 15 to 20)
#    0.000    3.250    0.000    2.625    0.000    1.250 
#    0.000    3.125    0.000    3.750    0.000    8.750 
#    0.000   10.000    0.000    0.000    0.000    0.000 
#
# Total GULP energy -356653.406913 kJ/mol
# GULP energy per Si atom -5572.709483 kJ/mol
# Density = 2.147526 g / cm^3
# Si number density = 21.524250 Si / 1000 Ang^3
#
#
#
# Elastic Constant Matrix: (Units=GPa)
#
#
# Indices 1 2 3 4 5 6 
#
# 1 86.2281 2.9386 46.6883 0.0000 0.0000 0.0000
# 2 2.9386 72.0928 -6.6178 0.0000 0.0000 0.0000
# 3 46.6883 -6.6178 104.8744 0.0000 0.0000 0.0000
# 4 0.0000 0.0000 0.0000 7.7843 0.0000 0.0000
# 5 0.0000 0.0000 0.0000 0.0000 10.4140 0.0000
# 6 0.0000 0.0000 0.0000 0.0000 0.0000 -4.3029
#
#
#
# Elastic Compliance Matrix: (Units=1/GPa)
#
#
# Indices 1 2 3 4 5 6 
#
# 1 0.015394 -0.001264 -0.006933 0.000000 0.000000 0.000000
# 2 -0.001264 0.014056 0.001450 0.000000 0.000000 0.000000
# 3 -0.006933 0.001450 0.012713 0.000000 0.000000 0.000000
# 4 0.000000 0.000000 0.000000 0.128463 0.000000 0.000000
# 5 0.000000 0.000000 0.000000 0.000000 0.096025 0.000000
# 6 0.000000 0.000000 0.000000 0.000000 0.000000 -0.232404
#
#
# Mechanical properties :
#
#
# Convention : Reuss Voigt Hill
#
# Bulk Modulus (GPa) = 34.88170 38.80150 36.84160
# Shear Modulus (GPa) = 87.26284 17.45816 52.36050
#
# Velocity S-wave (km/s) = 6.37414 2.85106 4.93752
# Velocity P-wave (km/s) = 8.39129 5.37625 7.04691
#
# Compressibility (1/GPa) = 0.02866833
#
# Stress axis : x y z
#
# Youngs Moduli (GPa) = 64.96015 71.14604 78.65898
#
# Poissons Ratio (x) = 0.08992 0.54534
# Poissons Ratio (y) = 0.08210 -0.11402
# Poissons Ratio (z) = 0.45036 -0.10313
#
# Static dielectric constant tensor:
#      x y z
#    x 1.820060 0.000000 0.000000 
#    y 0.000000 1.851330 0.000000 
#    z 0.000000 0.000000 1.757830 
# 
# From -- ./inp_files/32304.got.cif
#   From: 2010.05.17/outbox.cif.g08.bks.cpg/sg59_17_cif.got.tgz:32304.got - 2010.06.03 14:40:33.
