data_PCOD9447827
_publ_section_title
;
Structure prediction by ZEFSAII (Michael W. Deem and Ramdas Pophale) SiO2 
 PCOD9447827
Probable space group: P M M N
;
_chemical_formula_sum "Si O2"
_cell_formula_units_Z 64
_cell_length_a 7.481722
_cell_length_b 19.709651
_cell_length_c 20.166924
_cell_angle_alpha 90.000000
_cell_angle_beta 90.000000
_cell_angle_gamma 90.000000
_cell_volume 2973.857558
_symmetry_space_group_name_H-M "P M M N"
_symmetry_group_IT_number 59
_space_group.IT_coordinate_system_code '2'
_symmetry_cell_setting 'orthorhombic'
loop_
_space_group_symop_operation_xyz
x,y,z
1/2-x,1/2-y,z
1/2+x,-y,-z
-x,1/2+y,-z
-x,-y,-z
1/2+x,1/2+y,-z
1/2-x,y,z
x,1/2-y,z
loop_
_atom_site_type_symbol
_atom_site_label
_atom_site_fract_x
_atom_site_fract_y
_atom_site_fract_z
Si Si1 0.464077 0.950003 0.561444
Si Si2 0.035746 0.552366 0.709973
Si Si3 0.043749 0.080788 0.927009
Si Si4 0.034542 0.828190 0.332290
Si Si5 0.531900 0.172627 0.521109
Si Si6 0.964131 0.827767 0.804283
Si Si7 0.468193 0.079052 0.072615
Si Si8 0.459571 0.425620 0.787803
O O1 0.250000 0.947373 0.567249
O O2 0.532733 0.962975 0.635693
O O3 0.529801 0.877200 0.535766
O O4 0.500000 0.000000 0.500000
O O5 0.250000 0.543479 0.708085
O O6 0.962721 0.496749 0.761742
O O7 0.002474 0.627025 0.739145
O O8 0.250000 0.103083 0.929899
O O9 0.963153 0.102789 0.856580
O O10 0.969525 0.100804 0.998832
O O11 0.032812 0.998586 0.921122
O O12 0.250000 0.829248 0.331858
O O13 0.978151 0.750000 0.324984
O O14 0.976452 0.851972 0.405524
O O15 0.971560 0.874193 0.272818
O O16 0.750000 0.172523 0.520923
O O17 0.474792 0.250000 0.513001
O O18 0.750000 0.824191 0.810436
O O19 0.030788 0.750000 0.802025
O O20 0.027718 0.871668 0.868071
O O21 0.250000 0.076580 0.073198
O O22 0.250000 0.437380 0.801589
#
# Coordination Sequence:
#
# PCOD9447827 Si02
#       8
#     8   8   8   8   8   8   8   8
#     4  10  20  33  52  77 103 132 166 210 259 305
#     4  10  21  35  51  76 107 137 173 213 258 315
#     4   9  17  30  50  74 101 130 163 205 251 301
#     4   9  18  32  50  71  95 126 165 207 250 298
#     4   8  15  30  50  69  90 122 166 207 241 287
#     4  10  21  36  53  75 105 139 178 224 267 309
#     4   9  17  31  51  74  97 128 171 211 250 297
#     4  10  19  31  48  73 105 134 162 202 249 303
#
# _framework density 21.520869999999999
#
# number of rings (size 3 to 8) (size 9 to 14) (size 15 to 20)
#    0.000    2.625    1.250    1.500    0.000    2.500 
#    0.000    1.875    0.000    3.375    0.000    0.000 
#    0.000    0.000    0.000    0.000    0.000    0.000 
#
# Total GULP energy -356959.761570 kJ/mol
# GULP energy per Si atom -5577.496275 kJ/mol
# Density = 2.147189 g / cm^3
# Si number density = 21.520870 Si / 1000 Ang^3
#
#
#
# Elastic Constant Matrix: (Units=GPa)
#
#
# Indices 1 2 3 4 5 6 
#
# 1 63.2049 -6.2096 3.9050 0.0000 0.0000 0.0000
# 2 -6.2096 46.9299 28.7793 0.0000 0.0000 0.0000
# 3 3.9050 28.7793 136.6663 0.0000 0.0000 0.0000
# 4 0.0000 0.0000 0.0000 32.8969 0.0000 0.0000
# 5 0.0000 0.0000 0.0000 0.0000 5.6442 0.0000
# 6 0.0000 0.0000 0.0000 0.0000 0.0000 13.7040
#
#
#
# Elastic Compliance Matrix: (Units=1/GPa)
#
#
# Indices 1 2 3 4 5 6 
#
# 1 0.016159 0.002780 -0.001047 0.000000 0.000000 0.000000
# 2 0.002780 0.024946 -0.005333 0.000000 0.000000 0.000000
# 3 -0.001047 -0.005333 0.008470 0.000000 0.000000 0.000000
# 4 0.000000 0.000000 0.000000 0.030398 0.000000 0.000000
# 5 0.000000 0.000000 0.000000 0.000000 0.177173 0.000000
# 6 0.000000 0.000000 0.000000 0.000000 0.000000 0.072971
#
#
# Mechanical properties :
#
#
# Convention : Reuss Voigt Hill
#
# Bulk Modulus (GPa) = 23.59781 33.30559 28.45170
# Shear Modulus (GPa) = 14.22708 25.13746 19.68227
#
# Velocity S-wave (km/s) = 2.57394 3.42138 3.02746
# Velocity P-wave (km/s) = 4.45224 5.57829 5.04677
#
# Compressibility (1/GPa) = 0.04237681
#
# Stress axis : x y z
#
# Youngs Moduli (GPa) = 61.88338 40.08582 118.06409
#
# Poissons Ratio (x) = -0.11145 0.12364
# Poissons Ratio (y) = -0.17206 0.62960
# Poissons Ratio (z) = 0.06481 0.21377
#
# Static dielectric constant tensor:
#      x y z
#    x 1.791400 0.000000 0.000000 
#    y 0.000000 1.760590 0.000000 
#    z 0.000000 0.000000 1.834050 
# 
# From -- ./inp_files/26361.got.cif
#   From: 2010.05.17/outbox.cif.g08.bks.cpg/sg59_14_cif.got.tgz:26361.got - 2010.06.03 14:40:33.
