data_PCOD9447622
_publ_section_title
;
Structure prediction by ZEFSAII (Michael W. Deem and Ramdas Pophale) SiO2 
 PCOD9447622
Probable space group: P M M N
;
_chemical_formula_sum "Si O2"
_cell_formula_units_Z 48
_cell_length_a 37.733009
_cell_length_b 7.736764
_cell_length_c 7.736072
_cell_angle_alpha 90.000000
_cell_angle_beta 90.000000
_cell_angle_gamma 90.000000
_cell_volume 2258.402218
_symmetry_space_group_name_H-M "P M M N"
_symmetry_group_IT_number 59
_space_group.IT_coordinate_system_code '2'
_symmetry_cell_setting 'orthorhombic'
loop_
_space_group_symop_operation_xyz
x,y,z
1/2-x,1/2-y,z
1/2+x,-y,-z
-x,1/2+y,-z
-x,-y,-z
1/2+x,1/2+y,-z
1/2-x,y,z
x,1/2-y,z
loop_
_atom_site_type_symbol
_atom_site_label
_atom_site_fract_x
_atom_site_fract_y
_atom_site_fract_z
Si Si1 0.079849 0.545574 0.542841
Si Si2 0.971012 0.047947 0.751057
Si Si3 0.290101 0.039148 0.752523
Si Si4 0.709799 0.538987 0.853151
Si Si5 0.046257 0.047420 0.882931
Si Si6 0.658794 0.959223 0.550831
O O1 0.074719 0.750000 0.556352
O O2 0.049936 0.472574 0.411840
O O3 0.075558 0.473567 0.735904
O O4 0.118270 0.512786 0.463533
O O5 0.976674 0.250000 0.713530
O O6 0.009662 0.974293 0.799353
O O7 0.948630 0.033833 0.928726
O O8 0.250000 0.987556 0.703966
O O9 0.290453 0.250000 0.751551
O O10 0.319107 0.980378 0.616256
O O11 0.296785 0.984394 0.949586
O O12 0.750000 0.487481 0.804066
O O13 0.709620 0.750000 0.851741
O O14 0.680162 0.480237 0.719390
O O15 0.041109 0.250000 0.916468
O O16 0.659488 0.750000 0.551880
#
# Coordination Sequence:
#
# PCOD9447622 Si02
#       6
#     8   8   8   8   8   8
#     4  11  23  37  52  74 110 149 177 207 257 318
#     4   9  20  38  58  80 106 138 174 214 264 318
#     4   8  14  26  46  72  99 126 161 210 263 306
#     4   8  14  26  46  71  96 123 160 210 262 303
#     4  10  20  36  60  84 103 130 175 226 266 305
#     4  10  19  30  47  73 101 130 169 213 255 301
#
# _framework density 21.253962999999999
#
# number of rings (size 3 to 8) (size 9 to 14) (size 15 to 20)
#    0.000    2.667    0.000    3.000    0.000    5.333 
#    0.000    1.667    0.000    2.000    0.000    2.333 
#    0.000    0.000    0.000    0.000    0.000    0.000 
#
# Total GULP energy -267924.319186 kJ/mol
# GULP energy per Si atom -5581.756650 kJ/mol
# Density = 2.120559 g / cm^3
# Si number density = 21.253963 Si / 1000 Ang^3
#
#
#
# Elastic Constant Matrix: (Units=GPa)
#
#
# Indices 1 2 3 4 5 6 
#
# 1 28.9943 -0.3290 5.2142 0.0000 0.0000 0.0000
# 2 -0.3290 35.7859 -3.4515 0.0000 0.0000 0.0000
# 3 5.2142 -3.4515 54.9300 0.0000 0.0000 0.0000
# 4 0.0000 0.0000 0.0000 7.5971 0.0000 0.0000
# 5 0.0000 0.0000 0.0000 0.0000 -15.7414 0.0000
# 6 0.0000 0.0000 0.0000 0.0000 0.0000 70.3477
#
#
#
# Elastic Compliance Matrix: (Units=1/GPa)
#
#
# Indices 1 2 3 4 5 6 
#
# 1 0.035089 0.000001 -0.003331 0.000000 0.000000 0.000000
# 2 0.000001 0.028114 0.001766 0.000000 0.000000 0.000000
# 3 -0.003331 0.001766 0.018632 0.000000 0.000000 0.000000
# 4 0.000000 0.000000 0.000000 0.131630 0.000000 0.000000
# 5 0.000000 0.000000 0.000000 0.000000 -0.063527 0.000000
# 6 0.000000 0.000000 0.000000 0.000000 0.000000 0.014215
#
#
# Mechanical properties :
#
#
# Convention : Reuss Voigt Hill
#
# Bulk Modulus (GPa) = 12.70501 13.61975 13.16238
# Shear Modulus (GPa) = 25.83773 20.32575 23.08174
#
# Velocity S-wave (km/s) = 3.49042 3.09581 3.29902
# Velocity P-wave (km/s) = 4.71538 4.38186 4.55167
#
# Compressibility (1/GPa) = 0.07870912
#
# Stress axis : x y z
#
# Youngs Moduli (GPa) = 28.49932 35.56905 53.67071
#
# Poissons Ratio (x) = -0.00005 0.17876
# Poissons Ratio (y) = -0.00004 -0.09480
# Poissons Ratio (z) = 0.09492 -0.06283
#
# Static dielectric constant tensor:
#      x y z
#    x 1.753230 0.000000 0.000000 
#    y 0.000000 1.801890 0.000000 
#    z 0.000000 0.000000 1.773030 
# 
# From -- ./inp_files/12962.got.cif
#   From: 2010.05.17/outbox.cif.g08.bks.cpg/sg59_7_cif.got.tgz:12962.got - 2010.06.03 14:40:33.
