data_PCOD9447895
_publ_section_title
;
Structure prediction by ZEFSAII (Michael W. Deem and Ramdas Pophale) SiO2 
 PCOD9447895
Probable space group: P M M N
;
_chemical_formula_sum "Si O2"
_cell_formula_units_Z 64
_cell_length_a 18.220033
_cell_length_b 9.291899
_cell_length_c 21.825586
_cell_angle_alpha 90.000000
_cell_angle_beta 90.000000
_cell_angle_gamma 90.000000
_cell_volume 3695.043476
_symmetry_space_group_name_H-M "P M M N"
_symmetry_group_IT_number 59
_space_group.IT_coordinate_system_code '2'
_symmetry_cell_setting 'orthorhombic'
loop_
_space_group_symop_operation_xyz
x,y,z
1/2-x,1/2-y,z
1/2+x,-y,-z
-x,1/2+y,-z
-x,-y,-z
1/2+x,1/2+y,-z
1/2-x,y,z
x,1/2-y,z
loop_
_atom_site_type_symbol
_atom_site_label
_atom_site_fract_x
_atom_site_fract_y
_atom_site_fract_z
Si Si1 0.031974 0.079676 0.941156
Si Si2 0.161980 0.417333 0.257999
Si Si3 0.337643 0.421866 0.638501
Si Si4 0.165116 0.920371 0.879380
Si Si5 0.047248 0.579894 0.187195
Si Si6 0.660603 0.584119 0.499929
Si Si7 0.839483 0.414413 0.619298
Si Si8 0.087198 0.579464 0.750712
O O1 0.039147 0.250000 0.952023
O O2 0.978274 0.058833 0.882743
O O3 0.109308 0.011611 0.920271
O O4 0.000000 0.000000 0.000000
O O5 0.250000 0.426218 0.253878
O O6 0.140920 0.250000 0.256515
O O7 0.123356 0.505321 0.204212
O O8 0.139345 0.489700 0.322468
O O9 0.250000 0.447488 0.643604
O O10 0.349038 0.250000 0.646447
O O11 0.361014 0.459129 0.568897
O O12 0.379381 0.510905 0.689830
O O13 0.250000 0.958140 0.888647
O O14 0.155401 0.750000 0.892384
O O15 0.142587 0.941484 0.808240
O O16 0.049264 0.750000 0.199552
O O17 0.986444 0.502202 0.229216
O O18 0.750000 0.582793 0.500166
O O19 0.638721 0.750000 0.510642
O O20 0.635527 0.483759 0.555327
O O21 0.750000 0.413617 0.618051
O O22 0.864128 0.250000 0.626282
O O23 0.074636 0.750000 0.743983
#
# Coordination Sequence:
#
# PCOD9447895 Si02
#       8
#     8   8   8   8   8   8   8   8
#     4  10  21  37  58  82 108 141 176 210 251 299
#     4  10  20  34  54  79 104 130 163 206 255 304
#     4   9  17  28  43  66  98 135 173 214 258 301
#     4   9  18  33  53  78 108 140 175 216 257 296
#     4  10  21  37  56  78 103 132 167 204 246 298
#     4   8  14  25  40  60  90 128 168 209 253 300
#     4   9  16  26  43  68  96 126 162 206 254 302
#     4  10  19  31  49  73 102 136 172 210 254 303
#
# _framework density 17.320499999999999
#
# number of rings (size 3 to 8) (size 9 to 14) (size 15 to 20)
#    0.000    2.625    0.000    3.000    0.000    5.750 
#    0.000    1.875    0.000    1.500    0.000    0.000 
#    0.000    0.000    0.000    0.000    0.000    0.000 
#
# Total GULP energy -356951.917957 kJ/mol
# GULP energy per Si atom -5577.373718 kJ/mol
# Density = 1.728108 g / cm^3
# Si number density = 17.320500 Si / 1000 Ang^3
#
#
#
# Elastic Constant Matrix: (Units=GPa)
#
#
# Indices 1 2 3 4 5 6 
#
# 1 42.4031 50.0545 48.0633 0.0000 0.0000 0.0000
# 2 50.0545 115.9442 79.4691 0.0000 0.0000 0.0000
# 3 48.0633 79.4691 92.9134 0.0000 0.0000 0.0000
# 4 0.0000 0.0000 0.0000 35.1766 0.0000 0.0000
# 5 0.0000 0.0000 0.0000 0.0000 18.0073 0.0000
# 6 0.0000 0.0000 0.0000 0.0000 0.0000 24.9427
#
#
#
# Elastic Compliance Matrix: (Units=1/GPa)
#
#
# Indices 1 2 3 4 5 6 
#
# 1 0.063003 -0.011748 -0.022543 0.000000 0.000000 0.000000
# 2 -0.011748 0.023035 -0.013625 0.000000 0.000000 0.000000
# 3 -0.022543 -0.013625 0.034077 0.000000 0.000000 0.000000
# 4 0.000000 0.000000 0.000000 0.028428 0.000000 0.000000
# 5 0.000000 0.000000 0.000000 0.000000 0.055533 0.000000
# 6 0.000000 0.000000 0.000000 0.000000 0.000000 0.040092
#
#
# Mechanical properties :
#
#
# Convention : Reuss Voigt Hill
#
# Bulk Modulus (GPa) = 41.17922 67.38164 54.28043
# Shear Modulus (GPa) = 14.36386 20.53689 17.45038
#
# Velocity S-wave (km/s) = 2.88288 3.44713 3.17756
# Velocity P-wave (km/s) = 5.90828 7.40479 6.69846
#
# Compressibility (1/GPa) = 0.02428409
#
# Stress axis : x y z
#
# Youngs Moduli (GPa) = 15.87216 43.41149 29.34505
#
# Poissons Ratio (x) = 0.51001 0.66152
# Poissons Ratio (y) = 0.18647 0.39982
# Poissons Ratio (z) = 0.35780 0.59148
#
# Static dielectric constant tensor:
#      x y z
#    x 1.586490 0.000000 0.000000 
#    y 0.000000 1.575270 0.000000 
#    z 0.000000 0.000000 1.571030 
# 
# From -- ./inp_files/30726.got.cif
#   From: 2010.05.17/outbox.cif.g08.bks.cpg/sg59_16_cif.got.tgz:30726.got - 2010.06.03 14:40:33.
