data_PCOD9447189
_publ_section_title
;
Structure prediction by ZEFSAII (Michael W. Deem and Ramdas Pophale) SiO2 
 PCOD9447189
Probable space group: P M M N
;
_chemical_formula_sum "Si O2"
_cell_formula_units_Z 58
_cell_length_a 7.696631
_cell_length_b 14.586105
_cell_length_c 27.678522
_cell_angle_alpha 90.000000
_cell_angle_beta 90.000000
_cell_angle_gamma 90.000000
_cell_volume 3107.297938
_symmetry_space_group_name_H-M "P M M N"
_symmetry_group_IT_number 59
_space_group.IT_coordinate_system_code '2'
_symmetry_cell_setting 'orthorhombic'
loop_
_space_group_symop_operation_xyz
x,y,z
1/2-x,1/2-y,z
1/2+x,-y,-z
-x,1/2+y,-z
-x,-y,-z
1/2+x,1/2+y,-z
1/2-x,y,z
x,1/2-y,z
loop_
_atom_site_type_symbol
_atom_site_label
_atom_site_fract_x
_atom_site_fract_y
_atom_site_fract_z
Si Si1 0.958059 0.854134 0.122217
Si Si2 0.957099 0.144076 0.984145
Si Si3 0.542476 0.643403 0.626499
Si Si4 0.548401 0.022575 0.178367
Si Si5 0.040639 0.854922 0.735000
Si Si6 0.045761 0.356089 0.088993
Si Si7 0.949203 0.403915 0.476159
Si Si8 0.250000 0.250000 0.491885
O O1 0.750000 0.849464 0.127796
O O2 0.027233 0.750000 0.125346
O O3 0.990261 0.892116 0.068158
O O4 0.029344 0.925853 0.161157
O O5 0.750000 0.144168 0.986321
O O6 0.022220 0.250000 0.983682
O O7 0.022078 0.104678 0.034810
O O8 0.750000 0.643269 0.619757
O O9 0.484159 0.750000 0.622880
O O10 0.501877 0.613200 0.680854
O O11 0.459550 0.589651 0.582372
O O12 0.750000 0.005029 0.190579
O O13 0.471932 0.078141 0.223384
O O14 0.542749 0.087085 0.131156
O O15 0.250000 0.850786 0.739467
O O16 0.975553 0.750000 0.740742
O O17 0.250000 0.355524 0.099484
O O18 0.982563 0.250000 0.088749
O O19 0.750000 0.379162 0.489147
O O20 0.000000 0.500000 0.500000
O O21 0.095256 0.329536 0.489870
#
# Coordination Sequence:
#
# PCOD9447189 Si02
#       8
#     8   8   8   8   8   8   8   2
#     4   9  18  33  51  69  89 116 155 206 254 298
#     4   9  17  30  48  68  88 115 151 190 236 293
#     4  10  18  33  53  81 115 151 194 240 287 339
#     4  10  20  33  49  71  97 126 164 203 251 310
#     4   9  18  31  49  74 102 134 171 214 269 326
#     4  10  20  32  47  67  95 125 151 183 235 301
#     4  12  22  37  60  91 130 173 219 267 319 375
#     4  12  22  40  56  92 136 172 222 268 320 376
#
# _framework density 18.665735000000002
#
# number of rings (size 3 to 8) (size 9 to 14) (size 15 to 20)
#    0.000    2.069    2.069    1.862    0.000    5.241 
#    0.000    1.379    0.000    0.000    1.793    0.000 
#    0.000    0.000    0.000    0.000    0.000    0.000 
#
# Total GULP energy -323049.056224 kJ/mol
# GULP energy per Si atom -5569.811314 kJ/mol
# Density = 1.862325 g / cm^3
# Si number density = 18.665735 Si / 1000 Ang^3
#
#
#
# Elastic Constant Matrix: (Units=GPa)
#
#
# Indices 1 2 3 4 5 6 
#
# 1 85.0214 24.4325 8.7715 0.0000 0.0000 0.0000
# 2 24.4325 108.7813 65.7058 0.0000 0.0000 0.0000
# 3 8.7715 65.7058 121.8938 0.0000 0.0000 0.0000
# 4 0.0000 0.0000 0.0000 20.1854 0.0000 0.0000
# 5 0.0000 0.0000 0.0000 0.0000 14.7096 0.0000
# 6 0.0000 0.0000 0.0000 0.0000 0.0000 15.1263
#
#
#
# Elastic Compliance Matrix: (Units=1/GPa)
#
#
# Indices 1 2 3 4 5 6 
#
# 1 0.012643 -0.003396 0.000921 0.000000 0.000000 0.000000
# 2 -0.003396 0.014543 -0.007595 0.000000 0.000000 0.000000
# 3 0.000921 -0.007595 0.012232 0.000000 0.000000 0.000000
# 4 0.000000 0.000000 0.000000 0.049541 0.000000 0.000000
# 5 0.000000 0.000000 0.000000 0.000000 0.067983 0.000000
# 6 0.000000 0.000000 0.000000 0.000000 0.000000 0.066110
#
#
# Mechanical properties :
#
#
# Convention : Reuss Voigt Hill
#
# Bulk Modulus (GPa) = 51.87458 57.05733 54.46595
# Shear Modulus (GPa) = 20.03077 24.45671 22.24374
#
# Velocity S-wave (km/s) = 3.27942 3.62366 3.45583
# Velocity P-wave (km/s) = 6.49547 6.93846 6.72061
#
# Compressibility (1/GPa) = 0.01927727
#
# Stress axis : x y z
#
# Youngs Moduli (GPa) = 79.09797 68.76243 81.75580
#
# Poissons Ratio (x) = 0.23349 -0.07527
# Poissons Ratio (y) = 0.26859 0.62092
# Poissons Ratio (z) = -0.07282 0.52224
#
# Static dielectric constant tensor:
#      x y z
#    x 1.665570 0.000000 0.000000 
#    y 0.000000 1.674390 0.000000 
#    z 0.000000 0.000000 1.650850 
# 
# From -- ./inp_files/32577.got.cif
#   From: 2010.05.17/outbox.cif.g08.bks.cpg/sg59_17_cif.got.tgz:32577.got - 2010.06.03 14:40:33.
