data_PCOD9447432
_publ_section_title
;
Structure prediction by ZEFSAII (Michael W. Deem and Ramdas Pophale) SiO2 
 PCOD9447432
Probable space group: P M M N
;
_chemical_formula_sum "Si O2"
_cell_formula_units_Z 64
_cell_length_a 14.521207
_cell_length_b 8.047120
_cell_length_c 32.857883
_cell_angle_alpha 90.000000
_cell_angle_beta 90.000000
_cell_angle_gamma 90.000000
_cell_volume 3839.571619
_symmetry_space_group_name_H-M "P M M N"
_symmetry_group_IT_number 59
_space_group.IT_coordinate_system_code '2'
_symmetry_cell_setting 'orthorhombic'
loop_
_space_group_symop_operation_xyz
x,y,z
1/2-x,1/2-y,z
1/2+x,-y,-z
-x,1/2+y,-z
-x,-y,-z
1/2+x,1/2+y,-z
1/2-x,y,z
x,1/2-y,z
loop_
_atom_site_type_symbol
_atom_site_label
_atom_site_fract_x
_atom_site_fract_y
_atom_site_fract_z
Si Si1 0.854932 0.950076 0.482047
Si Si2 0.853486 0.051017 0.063779
Si Si3 0.033971 0.448349 0.438520
Si Si4 0.643086 0.549738 0.974317
Si Si5 0.644132 0.450665 0.640592
Si Si6 0.145129 0.052087 0.182207
Si Si7 0.638358 0.442623 0.729385
Si Si8 0.469074 0.453906 0.105333
O O1 0.750000 0.010952 0.476613
O O2 0.850772 0.750000 0.484154
O O3 0.900734 0.011527 0.524435
O O4 0.929921 0.994645 0.447771
O O5 0.750000 0.981915 0.067299
O O6 0.848034 0.250000 0.067619
O O7 0.926827 0.990449 0.096724
O O8 0.889031 0.015384 0.018101
O O9 0.034830 0.250000 0.440323
O O10 0.077758 0.502195 0.396048
O O11 0.750000 0.500029 0.970209
O O12 0.638855 0.750000 0.975688
O O13 0.588577 0.494731 0.934500
O O14 0.750000 0.507935 0.633106
O O15 0.647670 0.250000 0.643291
O O16 0.611231 0.512256 0.685149
O O17 0.250000 0.984636 0.178740
O O18 0.151543 0.250000 0.176491
O O19 0.079418 0.987385 0.146553
O O20 0.110302 0.023024 0.228074
O O21 0.750000 0.449977 0.728435
O O22 0.611044 0.250000 0.731393
O O23 0.468937 0.250000 0.106007
#
# Coordination Sequence:
#
# PCOD9447432 Si02
#       8
#     8   8   8   8   8   8   8   8
#     4   9  18  32  46  61  88 125 158 186 220 263
#     4   9  17  28  40  54  74 100 129 160 191 223
#     4  10  19  29  44  68  93 116 149 192 228 257
#     4   9  16  26  40  56  75 100 127 155 189 228
#     4   9  17  29  45  64  88 119 149 175 210 260
#     4   9  16  26  41  60  80 102 129 160 195 239
#     4   8  15  28  43  60  85 113 136 162 202 250
#     4   9  16  26  40  57  77 101 128 157 191 234
#
# _framework density 16.668527000000001
#
# number of rings (size 3 to 8) (size 9 to 14) (size 15 to 20)
#    0.000    3.000    0.000    2.250    0.000    3.500 
#    0.000    2.500    0.000    3.000    0.000    0.875 
#    0.000    3.000    0.000    0.000    0.000    0.000 
#
# Total GULP energy -356458.203199 kJ/mol
# GULP energy per Si atom -5569.659425 kJ/mol
# Density = 1.663059 g / cm^3
# Si number density = 16.668527 Si / 1000 Ang^3
#
#
#
# Elastic Constant Matrix: (Units=GPa)
#
#
# Indices 1 2 3 4 5 6 
#
# 1 104.5681 10.5240 80.2215 0.0000 0.0000 0.0000
# 2 10.5240 8.4942 6.1273 0.0000 0.0000 0.0000
# 3 80.2215 6.1273 143.1121 0.0000 0.0000 0.0000
# 4 0.0000 0.0000 0.0000 20.6091 0.0000 0.0000
# 5 0.0000 0.0000 0.0000 0.0000 26.0149 0.0000
# 6 0.0000 0.0000 0.0000 0.0000 0.0000 11.3551
#
#
#
# Elastic Compliance Matrix: (Units=1/GPa)
#
#
# Indices 1 2 3 4 5 6 
#
# 1 0.018694 -0.016099 -0.009789 0.000000 0.000000 0.000000
# 2 -0.016099 0.135344 0.003230 0.000000 0.000000 0.000000
# 3 -0.009789 0.003230 0.012337 0.000000 0.000000 0.000000
# 4 0.000000 0.000000 0.000000 0.048522 0.000000 0.000000
# 5 0.000000 0.000000 0.000000 0.000000 0.038439 0.000000
# 6 0.000000 0.000000 0.000000 0.000000 0.000000 0.088066
#
#
# Mechanical properties :
#
#
# Convention : Reuss Voigt Hill
#
# Bulk Modulus (GPa) = 8.26058 49.99111 29.12584
# Shear Modulus (GPa) = 11.70761 22.21593 16.96177
#
# Velocity S-wave (km/s) = 2.65312 3.65472 3.19343
# Velocity P-wave (km/s) = 3.78839 6.91851 5.57753
#
# Compressibility (1/GPa) = 0.12105688
#
# Stress axis : x y z
#
# Youngs Moduli (GPa) = 53.49450 7.38856 81.05906
#
# Poissons Ratio (x) = 0.11895 0.79352
# Poissons Ratio (y) = 0.86121 -0.26179
# Poissons Ratio (z) = 0.52368 -0.02386
#
# Static dielectric constant tensor:
#      x y z
#    x 1.572910 0.000000 0.000000 
#    y 0.000000 1.592680 0.000000 
#    z 0.000000 0.000000 1.569280 
# 
# From -- ./inp_files/33327.got.cif
#   From: 2010.05.17/outbox.cif.g08.bks.cpg/sg59_17_cif.got.tgz:33327.got - 2010.06.03 14:40:33.
