data_PCOD9447540
_publ_section_title
;
Structure prediction by ZEFSAII (Michael W. Deem and Ramdas Pophale) SiO2 
 PCOD9447540
Probable space group: P M M N
;
_chemical_formula_sum "Si O2"
_cell_formula_units_Z 64
_cell_length_a 18.383144
_cell_length_b 7.655825
_cell_length_c 23.932682
_cell_angle_alpha 90.000000
_cell_angle_beta 90.000000
_cell_angle_gamma 90.000000
_cell_volume 3368.240992
_symmetry_space_group_name_H-M "P M M N"
_symmetry_group_IT_number 59
_space_group.IT_coordinate_system_code '2'
_symmetry_cell_setting 'orthorhombic'
loop_
_space_group_symop_operation_xyz
x,y,z
1/2-x,1/2-y,z
1/2+x,-y,-z
-x,1/2+y,-z
-x,-y,-z
1/2+x,1/2+y,-z
1/2-x,y,z
x,1/2-y,z
loop_
_atom_site_type_symbol
_atom_site_label
_atom_site_fract_x
_atom_site_fract_y
_atom_site_fract_z
Si Si1 0.670647 0.046074 0.310124
Si Si2 0.567195 0.542602 0.959082
Si Si3 0.610792 0.541121 0.426665
Si Si4 0.035258 0.044710 0.863808
Si Si5 0.979670 0.950613 0.258936
Si Si6 0.040754 0.964199 0.373497
Si Si7 0.166708 0.464004 0.943800
Si Si8 0.668500 0.458754 0.549246
O O1 0.750000 0.978071 0.294022
O O2 0.666204 0.250000 0.295058
O O3 0.660647 0.030959 0.376860
O O4 0.602812 0.952225 0.281953
O O5 0.573484 0.750000 0.952502
O O6 0.537946 0.470080 0.900688
O O7 0.500000 0.500000 0.000000
O O8 0.637118 0.481787 0.994630
O O9 0.613736 0.750000 0.422850
O O10 0.528831 0.484796 0.411119
O O11 0.635685 0.488884 0.487895
O O12 0.051264 0.250000 0.856255
O O13 0.022414 0.967298 0.802450
O O14 0.105449 0.976236 0.898781
O O15 0.004483 0.750000 0.252544
O O16 0.026223 0.026841 0.310312
O O17 0.040650 0.750000 0.372029
O O18 0.113441 0.025511 0.403659
O O19 0.250000 0.518401 0.933301
O O20 0.165553 0.250000 0.943265
O O21 0.750000 0.530445 0.552315
O O22 0.672443 0.250000 0.556750
#
# Coordination Sequence:
#
# PCOD9447540 Si02
#       8
#     8   8   8   8   8   8   8   8
#     4  10  20  32  45  64  93 124 151 184 226 271
#     4   9  16  27  45  66  90 121 153 185 221 262
#     4  10  19  31  48  67  88 115 147 184 226 276
#     4   9  17  29  47  69  91 118 153 192 228 263
#     4   9  18  32  49  67  88 119 158 194 224 261
#     4   8  16  31  47  64  87 115 148 184 223 267
#     4   8  14  25  42  66  93 118 146 180 218 261
#     4  10  19  30  46  67  89 113 143 183 232 282
#
# _framework density 19.001016
#
# number of rings (size 3 to 8) (size 9 to 14) (size 15 to 20)
#    0.000    2.875    0.000    3.375    0.000    3.750 
#    0.000    3.750    0.000   10.125    0.000    1.750 
#    0.000    0.000    0.000    0.000    0.000    0.000 
#
# Total GULP energy -356591.089316 kJ/mol
# GULP energy per Si atom -5571.735771 kJ/mol
# Density = 1.895777 g / cm^3
# Si number density = 19.001016 Si / 1000 Ang^3
#
#
#
# Elastic Constant Matrix: (Units=GPa)
#
#
# Indices 1 2 3 4 5 6 
#
# 1 88.5387 4.2098 67.0059 0.0000 0.0000 0.0000
# 2 4.2098 34.1040 -5.7728 0.0000 0.0000 0.0000
# 3 67.0059 -5.7728 141.2297 0.0000 0.0000 0.0000
# 4 0.0000 0.0000 0.0000 9.9119 0.0000 0.0000
# 5 0.0000 0.0000 0.0000 0.0000 -1.6000 0.0000
# 6 0.0000 0.0000 0.0000 0.0000 0.0000 10.4429
#
#
#
# Elastic Compliance Matrix: (Units=1/GPa)
#
#
# Indices 1 2 3 4 5 6 
#
# 1 0.018076 -0.003709 -0.008728 0.000000 0.000000 0.000000
# 2 -0.003709 0.030287 0.002998 0.000000 0.000000 0.000000
# 3 -0.008728 0.002998 0.011344 0.000000 0.000000 0.000000
# 4 0.000000 0.000000 0.000000 0.100889 0.000000 0.000000
# 5 0.000000 0.000000 0.000000 0.000000 -0.624986 0.000000
# 6 0.000000 0.000000 0.000000 0.000000 0.000000 0.095758
#
#
# Mechanical properties :
#
#
# Convention : Reuss Voigt Hill
#
# Bulk Modulus (GPa) = 24.49195 43.86202 34.17698
# Shear Modulus (GPa) = -14.87459 16.97959 1.05250
#
# Velocity S-wave (km/s) = -2.80095 2.99258 0.74506
# Velocity P-wave (km/s) = 1.56760 5.92241 4.33199
#
# Compressibility (1/GPa) = 0.04082975
#
# Stress axis : x y z
#
# Youngs Moduli (GPa) = 55.32240 33.01714 88.15259
#
# Poissons Ratio (x) = 0.12245 0.76936
# Poissons Ratio (y) = 0.20517 -0.26424
# Poissons Ratio (z) = 0.48283 -0.09897
#
# Static dielectric constant tensor:
#      x y z
#    x 1.678640 0.000000 0.000000 
#    y 0.000000 1.718050 0.000000 
#    z 0.000000 0.000000 1.677170 
# 
# From -- ./inp_files/32307.got.cif
#   From: 2010.05.17/outbox.cif.g08.bks.cpg/sg59_17_cif.got.tgz:32307.got - 2010.06.03 14:40:33.
