data_PCOD9447566
_publ_section_title
;
Structure prediction by ZEFSAII (Michael W. Deem and Ramdas Pophale) SiO2 
 PCOD9447566
Probable space group: P M M N
;
_chemical_formula_sum "Si O2"
_cell_formula_units_Z 64
_cell_length_a 18.736855
_cell_length_b 9.339419
_cell_length_c 22.115471
_cell_angle_alpha 90.000000
_cell_angle_beta 90.000000
_cell_angle_gamma 90.000000
_cell_volume 3870.015896
_symmetry_space_group_name_H-M "P M M N"
_symmetry_group_IT_number 59
_space_group.IT_coordinate_system_code '2'
_symmetry_cell_setting 'orthorhombic'
loop_
_space_group_symop_operation_xyz
x,y,z
1/2-x,1/2-y,z
1/2+x,-y,-z
-x,1/2+y,-z
-x,-y,-z
1/2+x,1/2+y,-z
1/2-x,y,z
x,1/2-y,z
loop_
_atom_site_type_symbol
_atom_site_label
_atom_site_fract_x
_atom_site_fract_y
_atom_site_fract_z
Si Si1 0.534575 0.420407 0.556699
Si Si2 0.335662 0.920243 0.143844
Si Si3 0.669027 0.924276 0.241612
Si Si4 0.662972 0.585605 0.108054
Si Si5 0.167499 0.420436 0.386779
Si Si6 0.533213 0.920206 0.314020
Si Si7 0.098846 0.079987 0.257556
Si Si8 0.836867 0.416004 0.990608
O O1 0.500000 0.500000 0.500000
O O2 0.541040 0.250000 0.546445
O O3 0.610763 0.489246 0.574746
O O4 0.484502 0.442708 0.615680
O O5 0.250000 0.937368 0.147558
O O6 0.350430 0.750000 0.149339
O O7 0.371199 0.006800 0.197635
O O8 0.358800 0.967298 0.076233
O O9 0.750000 0.973949 0.252575
O O10 0.671785 0.750000 0.238455
O O11 0.643816 0.971905 0.174642
O O12 0.612134 0.961950 0.292549
O O13 0.750000 0.585071 0.107818
O O14 0.639616 0.750000 0.103417
O O15 0.637859 0.500922 0.049298
O O16 0.250000 0.455212 0.399233
O O17 0.156718 0.250000 0.397615
O O18 0.149931 0.445897 0.315840
O O19 0.523763 0.750000 0.302055
O O20 0.475842 0.008933 0.276040
O O21 0.092430 0.250000 0.249845
O O22 0.750000 0.422014 0.990868
O O23 0.856743 0.250000 0.996059
#
# Coordination Sequence:
#
# PCOD9447566 Si02
#       8
#     8   8   8   8   8   8   8   8
#     4  10  20  34  53  76 102 134 168 197 232 281
#     4   9  17  28  42  62  90 124 160 196 234 278
#     4   8  14  27  49  74  95 115 147 194 240 281
#     4   8  13  22  39  63  87 111 142 184 234 281
#     4   9  18  33  52  74 100 129 163 203 244 284
#     4   9  18  33  52  72  94 124 160 192 229 283
#     4  10  19  30  46  69  97 127 158 196 242 286
#     4   8  14  24  37  56  85 119 152 187 229 277
#
# _framework density 16.537400999999999
#
# number of rings (size 3 to 8) (size 9 to 14) (size 15 to 20)
#    0.000    3.125    0.000    2.625    0.000    2.500 
#    0.000    2.500    0.000    4.125    0.000    0.000 
#    0.000    0.000    0.000    0.000    0.000    0.000 
#
# Total GULP energy -356375.232484 kJ/mol
# GULP energy per Si atom -5568.363008 kJ/mol
# Density = 1.649976 g / cm^3
# Si number density = 16.537401 Si / 1000 Ang^3
#
#
#
# Elastic Constant Matrix: (Units=GPa)
#
#
# Indices 1 2 3 4 5 6 
#
# 1 83.4150 48.3050 76.1665 0.0000 0.0000 0.0000
# 2 48.3050 53.4670 64.1811 0.0000 0.0000 0.0000
# 3 76.1665 64.1811 118.7193 0.0000 0.0000 0.0000
# 4 0.0000 0.0000 0.0000 24.2324 0.0000 0.0000
# 5 0.0000 0.0000 0.0000 0.0000 19.8643 0.0000
# 6 0.0000 0.0000 0.0000 0.0000 0.0000 18.2226
#
#
#
# Elastic Compliance Matrix: (Units=1/GPa)
#
#
# Indices 1 2 3 4 5 6 
#
# 1 0.031405 -0.011927 -0.013701 0.000000 0.000000 0.000000
# 2 -0.011927 0.057806 -0.023599 0.000000 0.000000 0.000000
# 3 -0.013701 -0.023599 0.029971 0.000000 0.000000 0.000000
# 4 0.000000 0.000000 0.000000 0.041267 0.000000 0.000000
# 5 0.000000 0.000000 0.000000 0.000000 0.050342 0.000000
# 6 0.000000 0.000000 0.000000 0.000000 0.000000 0.054877
#
#
# Mechanical properties :
#
#
# Convention : Reuss Voigt Hill
#
# Bulk Modulus (GPa) = 48.24055 70.32296 59.28175
# Shear Modulus (GPa) = 13.47595 16.92710 15.20152
#
# Velocity S-wave (km/s) = 2.85770 3.20279 3.03515
# Velocity P-wave (km/s) = 6.33423 7.50287 6.94318
#
# Compressibility (1/GPa) = 0.02072945
#
# Stress axis : x y z
#
# Youngs Moduli (GPa) = 31.84172 17.29910 33.36563
#
# Poissons Ratio (x) = 0.20633 0.45713
# Poissons Ratio (y) = 0.37978 0.78739
# Poissons Ratio (z) = 0.43625 0.40824
#
# Static dielectric constant tensor:
#      x y z
#    x 1.548520 0.000000 0.000000 
#    y 0.000000 1.550090 0.000000 
#    z 0.000000 0.000000 1.559450 
# 
# From -- ./inp_files/31025.got.cif
#   From: 2010.05.17/outbox.cif.g08.bks.cpg/sg59_16_cif.got.tgz:31025.got - 2010.06.03 14:40:33.
