data_PCOD9447697
_publ_section_title
;
Structure prediction by ZEFSAII (Michael W. Deem and Ramdas Pophale) SiO2 
 PCOD9447697
Probable space group: P M M N
;
_chemical_formula_sum "Si O2"
_cell_formula_units_Z 64
_cell_length_a 33.874147
_cell_length_b 9.171923
_cell_length_c 10.984210
_cell_angle_alpha 90.000000
_cell_angle_beta 90.000000
_cell_angle_gamma 90.000000
_cell_volume 3412.695936
_symmetry_space_group_name_H-M "P M M N"
_symmetry_group_IT_number 59
_space_group.IT_coordinate_system_code '2'
_symmetry_cell_setting 'orthorhombic'
loop_
_space_group_symop_operation_xyz
x,y,z
1/2-x,1/2-y,z
1/2+x,-y,-z
-x,1/2+y,-z
-x,-y,-z
1/2+x,1/2+y,-z
1/2-x,y,z
x,1/2-y,z
loop_
_atom_site_type_symbol
_atom_site_label
_atom_site_fract_x
_atom_site_fract_y
_atom_site_fract_z
Si Si1 0.704201 0.921496 0.177812
Si Si2 0.869555 0.578902 0.838786
Si Si3 0.865342 0.082416 0.298811
Si Si4 0.417296 0.918492 0.949159
Si Si5 0.445937 0.078700 0.303935
Si Si6 0.014879 0.420742 0.816849
Si Si7 0.295439 0.923105 0.084214
Si Si8 0.566816 0.921699 0.427871
O O1 0.750000 0.938019 0.214296
O O2 0.695945 0.750000 0.161133
O O3 0.673872 0.991171 0.272196
O O4 0.699538 0.003571 0.048632
O O5 0.862398 0.750000 0.859446
O O6 0.899761 0.563244 0.727127
O O7 0.893633 0.511063 0.951942
O O8 0.828361 0.494688 0.830683
O O9 0.801899 0.250000 0.926668
O O10 0.890762 0.078972 0.173413
O O11 0.893916 0.011379 0.398182
O O12 0.421772 0.750000 0.986798
O O13 0.459011 0.990268 0.913280
O O14 0.456476 0.250000 0.289921
O O15 0.452018 0.033465 0.443741
O O16 0.472162 0.986526 0.210937
O O17 0.013739 0.250000 0.848018
O O18 0.037833 0.437343 0.687212
O O19 0.250000 0.948082 0.122170
O O20 0.356231 0.750000 0.673557
O O21 0.576481 0.750000 0.438297
#
# Coordination Sequence:
#
# PCOD9447697 Si02
#       8
#     8   8   8   8   8   8   8   8
#     4  10  19  30  49  78 109 139 170 208 257 314
#     4  11  22  35  54  78 108 142 178 217 259 315
#     4  10  19  31  51  78 106 136 171 214 264 313
#     4  10  20  34  52  75 106 142 174 212 265 317
#     4  10  22  38  54  76 105 140 179 222 267 311
#     4  10  20  34  56  81 103 134 175 223 271 319
#     4  10  20  34  53  78 108 140 173 212 259 308
#     4   9  19  36  56  76 102 135 176 223 268 315
#
# _framework density 18.753501
#
# number of rings (size 3 to 8) (size 9 to 14) (size 15 to 20)
#    0.000    2.000    1.250    2.625    0.000    5.000 
#    0.000    0.000    0.000    0.750    0.000    1.750 
#    0.000    0.000    0.000    0.000    0.000    0.000 
#
# Total GULP energy -357463.749602 kJ/mol
# GULP energy per Si atom -5585.371088 kJ/mol
# Density = 1.871082 g / cm^3
# Si number density = 18.753501 Si / 1000 Ang^3
#
#
#
# Elastic Constant Matrix: (Units=GPa)
#
#
# Indices 1 2 3 4 5 6 
#
# 1 103.7589 60.2481 3.7049 0.0000 0.0000 0.0000
# 2 60.2481 99.3710 14.0318 0.0000 0.0000 0.0000
# 3 3.7049 14.0318 29.1589 0.0000 0.0000 0.0000
# 4 0.0000 0.0000 0.0000 13.7549 0.0000 0.0000
# 5 0.0000 0.0000 0.0000 0.0000 19.3047 0.0000
# 6 0.0000 0.0000 0.0000 0.0000 0.0000 35.6416
#
#
#
# Elastic Compliance Matrix: (Units=1/GPa)
#
#
# Indices 1 2 3 4 5 6 
#
# 1 0.015064 -0.009509 0.002662 0.000000 0.000000 0.000000
# 2 -0.009509 0.016800 -0.006876 0.000000 0.000000 0.000000
# 3 0.002662 -0.006876 0.037265 0.000000 0.000000 0.000000
# 4 0.000000 0.000000 0.000000 0.072701 0.000000 0.000000
# 5 0.000000 0.000000 0.000000 0.000000 0.051801 0.000000
# 6 0.000000 0.000000 0.000000 0.000000 0.000000 0.028057
#
#
# Mechanical properties :
#
#
# Convention : Reuss Voigt Hill
#
# Bulk Modulus (GPa) = 23.99076 43.13982 33.56529
# Shear Modulus (GPa) = 19.00925 24.02716 21.51820
#
# Velocity S-wave (km/s) = 3.18722 3.58328 3.39104
# Velocity P-wave (km/s) = 5.13468 6.33825 5.76794
#
# Compressibility (1/GPa) = 0.04168272
#
# Stress axis : x y z
#
# Youngs Moduli (GPa) = 66.38224 59.52505 26.83448
#
# Poissons Ratio (x) = 0.56604 -0.07143
# Poissons Ratio (y) = 0.63125 0.18451
# Poissons Ratio (z) = -0.17671 0.40930
#
# Static dielectric constant tensor:
#      x y z
#    x 1.660590 0.000000 0.000000 
#    y 0.000000 1.629230 0.000000 
#    z 0.000000 0.000000 1.645020 
# 
# From -- ./inp_files/19394.got.cif
#   From: 2010.05.17/outbox.cif.g08.bks.cpg/sg59_10_cif.got.tgz:19394.got - 2010.06.03 14:40:33.
