data_PCOD9447078
_publ_section_title
;
Structure prediction by ZEFSAII (Michael W. Deem and Ramdas Pophale) SiO2 
 PCOD9447078
Probable space group: P M M N
;
_chemical_formula_sum "Si O2"
_cell_formula_units_Z 64
_cell_length_a 7.626211
_cell_length_b 18.554324
_cell_length_c 22.300160
_cell_angle_alpha 90.000000
_cell_angle_beta 90.000000
_cell_angle_gamma 90.000000
_cell_volume 3155.454572
_symmetry_space_group_name_H-M "P M M N"
_symmetry_group_IT_number 59
_space_group.IT_coordinate_system_code '2'
_symmetry_cell_setting 'orthorhombic'
loop_
_space_group_symop_operation_xyz
x,y,z
1/2-x,1/2-y,z
1/2+x,-y,-z
-x,1/2+y,-z
-x,-y,-z
1/2+x,1/2+y,-z
1/2-x,y,z
x,1/2-y,z
loop_
_atom_site_type_symbol
_atom_site_label
_atom_site_fract_x
_atom_site_fract_y
_atom_site_fract_z
Si Si1 0.037508 0.396376 0.742708
Si Si2 0.965064 0.332271 0.224441
Si Si3 0.542339 0.452450 0.312020
Si Si4 0.961470 0.831166 0.003142
Si Si5 0.541271 0.073491 0.111530
Si Si6 0.042493 0.828359 0.380343
Si Si7 0.035190 0.091315 0.876784
Si Si8 0.957915 0.022233 0.567292
O O1 0.250000 0.396504 0.741930
O O2 0.974577 0.476021 0.721985
O O3 0.981329 0.382536 0.810733
O O4 0.978644 0.342795 0.690597
O O5 0.750000 0.329925 0.223560
O O6 0.025481 0.250000 0.224609
O O7 0.022889 0.379449 0.281649
O O8 0.023921 0.376203 0.165625
O O9 0.750000 0.452875 0.301360
O O10 0.515090 0.465093 0.382307
O O11 0.750000 0.828637 0.005049
O O12 0.025208 0.750000 0.990503
O O13 0.009247 0.886928 0.951075
O O14 0.022922 0.860197 0.067588
O O15 0.750000 0.067908 0.120293
O O16 0.475669 0.991467 0.114202
O O17 0.250000 0.826236 0.393338
O O18 0.968014 0.750000 0.396218
O O19 0.968351 0.899160 0.413578
O O20 0.250000 0.091498 0.877447
O O21 0.750000 0.026889 0.572802
O O22 0.000000 0.000000 0.500000
#
# Coordination Sequence:
#
# PCOD9447078 Si02
#       8
#     8   8   8   8   8   8   8   8
#     4   9  16  29  51  76  98 125 164 205 247 296
#     4   9  16  27  48  76 100 126 163 207 254 300
#     4   9  16  30  51  74 101 129 160 202 245 293
#     4  10  21  34  45  63  96 134 168 207 259 312
#     4  10  18  32  53  73  93 124 170 216 253 296
#     4   9  19  35  53  76 107 137 165 202 248 292
#     4   9  17  31  51  72  96 128 166 208 253 304
#     4  10  20  35  56  79 103 136 172 204 239 284
#
# _framework density 20.282339
#
# number of rings (size 3 to 8) (size 9 to 14) (size 15 to 20)
#    0.000    2.625    1.250    1.125    0.000    2.000 
#    0.000    3.750    0.000    4.875    0.000    0.000 
#    0.000    0.000    0.000    0.000    0.000    0.000 
#
# Total GULP energy -357098.719440 kJ/mol
# GULP energy per Si atom -5579.667491 kJ/mol
# Density = 2.023618 g / cm^3
# Si number density = 20.282339 Si / 1000 Ang^3
#
#
#
# Elastic Constant Matrix: (Units=GPa)
#
#
# Indices 1 2 3 4 5 6 
#
# 1 35.1898 0.7862 -15.2792 0.0000 0.0000 0.0000
# 2 0.7862 66.2452 21.1224 0.0000 0.0000 0.0000
# 3 -15.2792 21.1224 112.8648 0.0000 0.0000 0.0000
# 4 0.0000 0.0000 0.0000 16.8482 0.0000 0.0000
# 5 0.0000 0.0000 0.0000 0.0000 16.6369 0.0000
# 6 0.0000 0.0000 0.0000 0.0000 0.0000 8.9075
#
#
#
# Elastic Compliance Matrix: (Units=1/GPa)
#
#
# Indices 1 2 3 4 5 6 
#
# 1 0.030388 -0.001778 0.004447 0.000000 0.000000 0.000000
# 2 -0.001778 0.016157 -0.003265 0.000000 0.000000 0.000000
# 3 0.004447 -0.003265 0.010073 0.000000 0.000000 0.000000
# 4 0.000000 0.000000 0.000000 0.059353 0.000000 0.000000
# 5 0.000000 0.000000 0.000000 0.000000 0.060107 0.000000
# 6 0.000000 0.000000 0.000000 0.000000 0.000000 0.112265
#
#
# Mechanical properties :
#
#
# Convention : Reuss Voigt Hill
#
# Bulk Modulus (GPa) = 18.04226 25.28428 21.66327
# Shear Modulus (GPa) = 16.23311 22.32322 19.27816
#
# Velocity S-wave (km/s) = 2.83213 3.32116 3.08635
# Velocity P-wave (km/s) = 4.42826 5.21537 4.83785
#
# Compressibility (1/GPa) = 0.05542544
#
# Stress axis : x y z
#
# Youngs Moduli (GPa) = 32.90803 61.89095 99.27447
#
# Poissons Ratio (x) = 0.11007 -0.44144
# Poissons Ratio (y) = 0.05852 0.32409
# Poissons Ratio (z) = -0.14633 0.20205
#
# Static dielectric constant tensor:
#      x y z
#    x 1.769390 0.000000 0.000000 
#    y 0.000000 1.727820 0.000000 
#    z 0.000000 0.000000 1.658170 
# 
# From -- ./inp_files/29565.got.cif
#   From: 2010.05.17/outbox.cif.g08.bks.cpg/sg59_15_cif.got.tgz:29565.got - 2010.06.03 14:40:33.
