data_PCOD9447393
_publ_section_title
;
Structure prediction by ZEFSAII (Michael W. Deem and Ramdas Pophale) SiO2 
 PCOD9447393
Probable space group: P M M N
;
_chemical_formula_sum "Si O2"
_cell_formula_units_Z 64
_cell_length_a 14.173719
_cell_length_b 9.161916
_cell_length_c 32.337766
_cell_angle_alpha 90.000000
_cell_angle_beta 90.000000
_cell_angle_gamma 90.000000
_cell_volume 4199.331292
_symmetry_space_group_name_H-M "P M M N"
_symmetry_group_IT_number 59
_space_group.IT_coordinate_system_code '2'
_symmetry_cell_setting 'orthorhombic'
loop_
_space_group_symop_operation_xyz
x,y,z
1/2-x,1/2-y,z
1/2+x,-y,-z
-x,1/2+y,-z
-x,-y,-z
1/2+x,1/2+y,-z
1/2-x,y,z
x,1/2-y,z
loop_
_atom_site_type_symbol
_atom_site_label
_atom_site_fract_x
_atom_site_fract_y
_atom_site_fract_z
Si Si1 0.136661 0.080454 0.976634
Si Si2 0.640087 0.075412 0.522110
Si Si3 0.966579 0.076038 0.436208
Si Si4 0.362127 0.076317 0.639403
Si Si5 0.860362 0.073819 0.184455
Si Si6 0.642369 0.425142 0.938951
Si Si7 0.462984 0.425703 0.891455
Si Si8 0.364437 0.582127 0.723223
O O1 0.250000 0.072107 0.973433
O O2 0.109766 0.250000 0.982610
O O3 0.093751 0.031729 0.933094
O O4 0.109418 0.990548 0.017257
O O5 0.750000 0.034064 0.526080
O O6 0.632415 0.250000 0.529066
O O7 0.601863 0.047138 0.475631
O O8 0.568049 0.991567 0.552042
O O9 0.973530 0.250000 0.431075
O O10 0.921003 0.002571 0.396185
O O11 0.250000 0.043703 0.634141
O O12 0.373894 0.250000 0.637063
O O13 0.391338 0.016830 0.684525
O O14 0.750000 0.031816 0.179451
O O15 0.864440 0.250000 0.182380
O O16 0.893108 0.032226 0.230842
O O17 0.921039 0.002722 0.148439
O O18 0.750000 0.473124 0.931661
O O19 0.641278 0.250000 0.942685
O O20 0.570732 0.464200 0.902520
O O21 0.454783 0.250000 0.886920
O O22 0.250000 0.584089 0.724590
O O23 0.395008 0.750000 0.716699
#
# Coordination Sequence:
#
# PCOD9447393 Si02
#       8
#     8   8   8   8   8   8   8   8
#     4   9  17  28  41  59  83 109 138 173 212 252
#     4   9  18  32  47  64  91 126 161 197 235 272
#     4  10  19  30  46  68  93 123 159 195 232 274
#     4  10  19  29  44  68  95 122 153 187 222 264
#     4   9  18  31  46  66  91 116 141 170 208 259
#     4   9  18  31  44  59  81 110 145 181 212 244
#     4  10  19  29  43  63  86 113 142 173 212 254
#     4   8  15  29  46  63  87 117 144 173 214 262
#
# _framework density 15.240523
#
# number of rings (size 3 to 8) (size 9 to 14) (size 15 to 20)
#    0.000    2.750    0.000    2.625    0.000    4.250 
#    0.000    2.500    0.000    0.000    0.000    0.875 
#    0.000    3.000    0.000    0.000    0.000    0.000 
#
# Total GULP energy -356686.104432 kJ/mol
# GULP energy per Si atom -5573.220382 kJ/mol
# Density = 1.520583 g / cm^3
# Si number density = 15.240523 Si / 1000 Ang^3
#
#
#
# Elastic Constant Matrix: (Units=GPa)
#
#
# Indices 1 2 3 4 5 6 
#
# 1 89.1443 42.6900 70.1979 0.0000 0.0000 0.0000
# 2 42.6900 39.0106 58.1283 0.0000 0.0000 0.0000
# 3 70.1979 58.1283 142.7613 0.0000 0.0000 0.0000
# 4 0.0000 0.0000 0.0000 29.8490 0.0000 0.0000
# 5 0.0000 0.0000 0.0000 0.0000 25.2632 0.0000
# 6 0.0000 0.0000 0.0000 0.0000 0.0000 19.5944
#
#
#
# Elastic Compliance Matrix: (Units=1/GPa)
#
#
# Indices 1 2 3 4 5 6 
#
# 1 0.024007 -0.022074 -0.002816 0.000000 0.000000 0.000000
# 2 -0.022074 0.085476 -0.023949 0.000000 0.000000 0.000000
# 3 -0.002816 -0.023949 0.018141 0.000000 0.000000 0.000000
# 4 0.000000 0.000000 0.000000 0.033502 0.000000 0.000000
# 5 0.000000 0.000000 0.000000 0.000000 0.039583 0.000000
# 6 0.000000 0.000000 0.000000 0.000000 0.000000 0.051035
#
#
# Mechanical properties :
#
#
# Convention : Reuss Voigt Hill
#
# Bulk Modulus (GPa) = 33.39561 68.10538 50.75050
# Shear Modulus (GPa) = 13.91189 21.60132 17.75660
#
# Velocity S-wave (km/s) = 3.02457 3.76887 3.41705
# Velocity P-wave (km/s) = 5.84443 7.98268 6.99573
#
# Compressibility (1/GPa) = 0.02994405
#
# Stress axis : x y z
#
# Youngs Moduli (GPa) = 41.65517 11.69919 55.12377
#
# Poissons Ratio (x) = 0.25825 0.15525
# Poissons Ratio (y) = 0.91950 1.32017
# Poissons Ratio (z) = 0.11732 0.28019
#
# Static dielectric constant tensor:
#      x y z
#    x 1.509410 0.000000 0.000000 
#    y 0.000000 1.509600 0.000000 
#    z 0.000000 0.000000 1.489380 
# 
# From -- ./inp_files/33331.got.cif
#   From: 2010.05.17/outbox.cif.g08.bks.cpg/sg59_17_cif.got.tgz:33331.got - 2010.06.03 14:40:33.
