data_PCOD9447928
_publ_section_title
;
Structure prediction by ZEFSAII (Michael W. Deem and Ramdas Pophale) SiO2 
 PCOD9447928
Probable space group: P M M N
;
_chemical_formula_sum "Si O2"
_cell_formula_units_Z 64
_cell_length_a 13.144898
_cell_length_b 22.614684
_cell_length_c 11.877159
_cell_angle_alpha 90.000000
_cell_angle_beta 90.000000
_cell_angle_gamma 90.000000
_cell_volume 3530.695910
_symmetry_space_group_name_H-M "P M M N"
_symmetry_group_IT_number 59
_space_group.IT_coordinate_system_code '2'
_symmetry_cell_setting 'orthorhombic'
loop_
_space_group_symop_operation_xyz
x,y,z
1/2-x,1/2-y,z
1/2+x,-y,-z
-x,1/2+y,-z
-x,-y,-z
1/2+x,1/2+y,-z
1/2-x,y,z
x,1/2-y,z
loop_
_atom_site_type_symbol
_atom_site_label
_atom_site_fract_x
_atom_site_fract_y
_atom_site_fract_z
Si Si1 0.133595 0.532097 0.902068
Si Si2 0.972820 0.185911 0.369530
Si Si3 0.861647 0.531347 0.548955
Si Si4 0.631570 0.681588 0.183032
Si Si5 0.056425 0.093700 0.987649
Si Si6 0.363530 0.160174 0.552283
Si Si7 0.363640 0.183246 0.170180
Si Si8 0.575374 0.054720 0.353612
O O1 0.250000 0.548528 0.924298
O O2 0.111161 0.466764 0.950605
O O3 0.115075 0.533509 0.767154
O O4 0.052426 0.575392 0.961333
O O5 0.920347 0.250000 0.362160
O O6 0.910255 0.125279 0.365444
O O7 0.044887 0.185127 0.479053
O O8 0.052020 0.180781 0.266293
O O9 0.750000 0.527992 0.602573
O O10 0.865425 0.590218 0.472416
O O11 0.877440 0.477879 0.461810
O O12 0.954837 0.538777 0.635067
O O13 0.750000 0.668236 0.151823
O O14 0.612066 0.750000 0.155789
O O15 0.557628 0.637009 0.119368
O O16 0.624168 0.673516 0.316874
O O17 0.115027 0.132059 0.081281
O O18 0.250000 0.181058 0.518183
O O19 0.250000 0.176227 0.217811
O O20 0.368649 0.250000 0.120136
#
# Coordination Sequence:
#
# PCOD9447928 Si02
#       8
#     8   8   8   8   8   8   8   8
#     4  11  23  39  58  78 104 142 184 231 278 326
#     4  10  19  31  49  76 113 149 182 224 268 321
#     4   9  18  32  55  82 113 147 181 225 275 328
#     4  10  19  31  51  79 112 147 180 221 274 331
#     4  11  22  37  55  79 106 138 182 229 271 332
#     4   9  17  30  50  80 112 141 174 212 266 333
#     4  10  19  32  53  80 112 146 176 221 285 339
#     4  10  19  35  53  80 111 148 186 225 274 331
#
# _framework density 18.126739000000001
#
# number of rings (size 3 to 8) (size 9 to 14) (size 15 to 20)
#    0.000    2.000    1.250    3.375    0.000    3.750 
#    0.000    0.625    0.000    4.500    0.000    0.000 
#    0.000   10.000    0.000    0.000    0.000    0.000 
#
# Total GULP energy -357073.849393 kJ/mol
# GULP energy per Si atom -5579.278897 kJ/mol
# Density = 1.808548 g / cm^3
# Si number density = 18.126739 Si / 1000 Ang^3
#
#
#
# Elastic Constant Matrix: (Units=GPa)
#
#
# Indices 1 2 3 4 5 6 
#
# 1 51.6831 14.4612 8.8536 0.0000 0.0000 0.0000
# 2 14.4612 112.3308 19.4363 0.0000 0.0000 0.0000
# 3 8.8536 19.4363 57.8287 0.0000 0.0000 0.0000
# 4 0.0000 0.0000 0.0000 181.8390 0.0000 0.0000
# 5 0.0000 0.0000 0.0000 0.0000 9.3008 0.0000
# 6 0.0000 0.0000 0.0000 0.0000 0.0000 18.6664
#
#
#
# Elastic Compliance Matrix: (Units=1/GPa)
#
#
# Indices 1 2 3 4 5 6 
#
# 1 0.020375 -0.002212 -0.002376 0.000000 0.000000 0.000000
# 2 -0.002212 0.009692 -0.002919 0.000000 0.000000 0.000000
# 3 -0.002376 -0.002919 0.018637 0.000000 0.000000 0.000000
# 4 0.000000 0.000000 0.000000 0.005499 0.000000 0.000000
# 5 0.000000 0.000000 0.000000 0.000000 0.107517 0.000000
# 6 0.000000 0.000000 0.000000 0.000000 0.000000 0.053572
#
#
# Mechanical properties :
#
#
# Convention : Reuss Voigt Hill
#
# Bulk Modulus (GPa) = 29.68198 34.14945 31.91571
# Shear Modulus (GPa) = 20.70084 53.90068 37.30076
#
# Velocity S-wave (km/s) = 3.38302 5.45894 4.54119
# Velocity P-wave (km/s) = 5.62761 7.65595 6.71876
#
# Compressibility (1/GPa) = 0.03369048
#
# Stress axis : x y z
#
# Youngs Moduli (GPa) = 49.08075 103.17704 53.65600
#
# Poissons Ratio (x) = 0.22821 0.12748
# Poissons Ratio (y) = 0.10856 0.15662
# Poissons Ratio (z) = 0.11661 0.30116
#
# Static dielectric constant tensor:
#      x y z
#    x 1.618180 0.000000 0.000000 
#    y 0.000000 1.657000 0.000000 
#    z 0.000000 0.000000 1.615390 
# 
# From -- ./inp_files/16228.got.cif
#   From: 2010.05.17/outbox.cif.g08.bks.cpg/sg59_9_cif.got.tgz:16228.got - 2010.06.03 14:40:33.
