data_PCOD9447486
_publ_section_title
;
Structure prediction by ZEFSAII (Michael W. Deem and Ramdas Pophale) SiO2 
 PCOD9447486
Probable space group: P M M N
;
_chemical_formula_sum "Si O2"
_cell_formula_units_Z 56
_cell_length_a 7.875270
_cell_length_b 25.362996
_cell_length_c 16.925133
_cell_angle_alpha 90.000000
_cell_angle_beta 90.000000
_cell_angle_gamma 90.000000
_cell_volume 3380.633538
_symmetry_space_group_name_H-M "P M M N"
_symmetry_group_IT_number 59
_space_group.IT_coordinate_system_code '2'
_symmetry_cell_setting 'orthorhombic'
loop_
_space_group_symop_operation_xyz
x,y,z
1/2-x,1/2-y,z
1/2+x,-y,-z
-x,1/2+y,-z
-x,-y,-z
1/2+x,1/2+y,-z
1/2-x,y,z
x,1/2-y,z
loop_
_atom_site_type_symbol
_atom_site_label
_atom_site_fract_x
_atom_site_fract_y
_atom_site_fract_z
Si Si1 0.045633 0.442971 0.463719
Si Si2 0.955015 0.985478 0.695709
Si Si3 0.544503 0.901012 0.376755
Si Si4 0.455567 0.309337 0.737308
Si Si5 0.950865 0.579212 0.022205
Si Si6 0.548553 0.985309 0.872531
Si Si7 0.951466 0.190755 0.919255
O O1 0.250000 0.438405 0.460402
O O2 0.983010 0.445709 0.373350
O O3 0.984255 0.403240 0.531932
O O4 0.000000 0.500000 0.500000
O O5 0.750000 0.981392 0.698181
O O6 0.021998 0.978052 0.784444
O O7 0.996713 0.044335 0.665837
O O8 0.750000 0.898647 0.378458
O O9 0.481573 0.852549 0.324427
O O10 0.250000 0.310396 0.736673
O O11 0.511061 0.250000 0.717320
O O12 0.510332 0.320091 0.827056
O O13 0.750000 0.569893 0.024131
O O14 0.023918 0.544489 0.094266
O O15 0.981700 0.641099 0.031886
O O16 0.019717 0.553604 0.940870
O O17 0.750000 0.975732 0.867429
O O18 0.750000 0.192178 0.929748
O O19 0.018984 0.250000 0.937064
#
# Coordination Sequence:
#
# PCOD9447486 Si02
#       7
#     8   8   8   8   8   8   8
#     4   8  14  24  37  54  76 101 128 156 186 222
#     4   9  16  26  40  57  78 105 133 160 193 233
#     4   9  16  25  38  57  80 105 131 160 193 228
#     4   9  17  28  41  58  80 105 133 162 193 233
#     4  10  19  30  44  62  84 110 139 171 208 248
#     4   9  18  30  43  61  85 112 140 170 205 247
#     4  10  20  32  45  61  82 108 138 172 207 244
#
# _framework density 16.564941999999999
#
# number of rings (size 3 to 8) (size 9 to 14) (size 15 to 20)
#    0.000    2.857    0.000    1.714    0.000    4.857 
#    0.000    0.000    0.000    0.000    0.000    1.000 
#    0.000    5.714    0.000    3.857    0.000    4.143 
#
# Total GULP energy -311795.589274 kJ/mol
# GULP energy per Si atom -5567.778380 kJ/mol
# Density = 1.652724 g / cm^3
# Si number density = 16.564942 Si / 1000 Ang^3
#
#
#
# Elastic Constant Matrix: (Units=GPa)
#
#
# Indices 1 2 3 4 5 6 
#
# 1 14.8948 -4.1185 2.5593 0.0000 0.0000 0.0000
# 2 -4.1185 77.5550 43.4740 0.0000 0.0000 0.0000
# 3 2.5593 43.4740 119.4983 0.0000 0.0000 0.0000
# 4 0.0000 0.0000 0.0000 26.4491 0.0000 0.0000
# 5 0.0000 0.0000 0.0000 0.0000 10.1293 0.0000
# 6 0.0000 0.0000 0.0000 0.0000 0.0000 16.0995
#
#
#
# Elastic Compliance Matrix: (Units=1/GPa)
#
#
# Indices 1 2 3 4 5 6 
#
# 1 0.069314 0.005669 -0.003547 0.000000 0.000000 0.000000
# 2 0.005669 0.016661 -0.006183 0.000000 0.000000 0.000000
# 3 -0.003547 -0.006183 0.010694 0.000000 0.000000 0.000000
# 4 0.000000 0.000000 0.000000 0.037808 0.000000 0.000000
# 5 0.000000 0.000000 0.000000 0.000000 0.098724 0.000000
# 6 0.000000 0.000000 0.000000 0.000000 0.000000 0.062114
#
#
# Mechanical properties :
#
#
# Convention : Reuss Voigt Hill
#
# Bulk Modulus (GPa) = 11.29332 32.86420 22.07876
# Shear Modulus (GPa) = 15.01717 21.87113 18.44415
#
# Velocity S-wave (km/s) = 3.01419 3.63757 3.34045
# Velocity P-wave (km/s) = 4.35272 6.12579 5.31373
#
# Compressibility (1/GPa) = 0.08854794
#
# Stress axis : x y z
#
# Youngs Moduli (GPa) = 14.42700 60.02073 93.51393
#
# Poissons Ratio (x) = -0.34027 0.33170
# Poissons Ratio (y) = -0.08179 0.57817
# Poissons Ratio (z) = 0.05117 0.37109
#
# Static dielectric constant tensor:
#      x y z
#    x 1.597160 0.000000 0.000000 
#    y 0.000000 1.552300 0.000000 
#    z 0.000000 0.000000 1.600740 
# 
# From -- ./inp_files/26392.got.cif
#   From: 2010.05.17/outbox.cif.g08.bks.cpg/sg59_14_cif.got.tgz:26392.got - 2010.06.03 14:40:33.
