data_PCOD9447186
_publ_section_title
;
Structure prediction by ZEFSAII (Michael W. Deem and Ramdas Pophale) SiO2 
 PCOD9447186
Probable space group: P M M N
;
_chemical_formula_sum "Si O2"
_cell_formula_units_Z 56
_cell_length_a 17.774778
_cell_length_b 28.543166
_cell_length_c 5.606205
_cell_angle_alpha 90.000000
_cell_angle_beta 90.000000
_cell_angle_gamma 90.000000
_cell_volume 2844.299356
_symmetry_space_group_name_H-M "P M M N"
_symmetry_group_IT_number 59
_space_group.IT_coordinate_system_code '2'
_symmetry_cell_setting 'orthorhombic'
loop_
_space_group_symop_operation_xyz
x,y,z
1/2-x,1/2-y,z
1/2+x,-y,-z
-x,1/2+y,-z
-x,-y,-z
1/2+x,1/2+y,-z
1/2-x,y,z
x,1/2-y,z
loop_
_atom_site_type_symbol
_atom_site_label
_atom_site_fract_x
_atom_site_fract_y
_atom_site_fract_z
Si Si1 0.981186 0.626533 0.227287
Si Si2 0.168129 0.395086 0.534093
Si Si3 0.112673 0.694211 0.222351
Si Si4 0.067400 0.937344 0.573994
Si Si5 0.080483 0.444288 0.151870
Si Si6 0.833474 0.992782 0.210139
Si Si7 0.336778 0.852011 0.728329
O O1 0.907778 0.632534 0.397201
O O2 0.027943 0.673730 0.200009
O O3 0.040430 0.589512 0.339809
O O4 0.950791 0.599803 0.998043
O O5 0.250000 0.371469 0.532797
O O6 0.151055 0.422326 0.290182
O O7 0.171213 0.438463 0.717454
O O8 0.115562 0.750000 0.225614
O O9 0.144714 0.675522 0.478857
O O10 0.152136 0.675753 0.977993
O O11 0.107149 0.896405 0.729872
O O12 0.989425 0.956478 0.680098
O O13 0.129391 0.977752 0.577641
O O14 0.107540 0.489333 0.004863
O O15 0.750000 0.009705 0.150614
O O16 0.250000 0.867034 0.713498
#
# Coordination Sequence:
#
# PCOD9447186 Si02
#       7
#     8   8   8   8   8   8   8
#     4   9  20  36  55  79 108 147 186 233 289 350
#     4   9  19  34  53  79 111 145 189 239 287 341
#     4  11  23  41  64  89 116 150 194 239 288 352
#     4  10  20  34  52  75 113 152 193 235 284 343
#     4  10  18  33  53  75 106 143 193 237 286 338
#     4  10  20  32  48  75 108 148 195 240 284 332
#     4  11  23  40  60  88 122 156 192 237 291 344
#
# _framework density 19.688504999999999
#
# number of rings (size 3 to 8) (size 9 to 14) (size 15 to 20)
#    0.000    2.000    1.429    2.143    0.000    8.571 
#    0.000    0.000    0.000    0.429    0.000    0.000 
#    0.000    0.000    0.000    0.000    0.000    0.000 
#
# Total GULP energy -312038.172835 kJ/mol
# GULP energy per Si atom -5572.110229 kJ/mol
# Density = 1.964369 g / cm^3
# Si number density = 19.688505 Si / 1000 Ang^3
#
#
#
# Elastic Constant Matrix: (Units=GPa)
#
#
# Indices 1 2 3 4 5 6 
#
# 1 102.7128 38.2331 19.0620 0.0000 0.0000 0.0000
# 2 38.2331 40.5852 15.8536 0.0000 0.0000 0.0000
# 3 19.0620 15.8536 73.6261 0.0000 0.0000 0.0000
# 4 0.0000 0.0000 0.0000 21.1362 0.0000 0.0000
# 5 0.0000 0.0000 0.0000 0.0000 13.3483 0.0000
# 6 0.0000 0.0000 0.0000 0.0000 0.0000 11.0766
#
#
#
# Elastic Compliance Matrix: (Units=1/GPa)
#
#
# Indices 1 2 3 4 5 6 
#
# 1 0.015051 -0.013818 -0.000921 0.000000 0.000000 0.000000
# 2 -0.013818 0.039590 -0.004947 0.000000 0.000000 0.000000
# 3 -0.000921 -0.004947 0.014886 0.000000 0.000000 0.000000
# 4 0.000000 0.000000 0.000000 0.047312 0.000000 0.000000
# 5 0.000000 0.000000 0.000000 0.000000 0.074916 0.000000
# 6 0.000000 0.000000 0.000000 0.000000 0.000000 0.090280
#
#
# Mechanical properties :
#
#
# Convention : Reuss Voigt Hill
#
# Bulk Modulus (GPa) = 33.16455 40.35794 36.76124
# Shear Modulus (GPa) = 15.08486 18.69727 16.89107
#
# Velocity S-wave (km/s) = 2.77099 3.08499 2.93220
# Velocity P-wave (km/s) = 5.20760 5.76474 5.49324
#
# Compressibility (1/GPa) = 0.03015268
#
# Stress axis : x y z
#
# Youngs Moduli (GPa) = 66.44286 25.25920 67.17795
#
# Poissons Ratio (x) = 0.34904 0.06188
# Poissons Ratio (y) = 0.91814 0.33233
# Poissons Ratio (z) = 0.06120 0.12496
#
# Static dielectric constant tensor:
#      x y z
#    x 1.734160 0.000000 0.000000 
#    y 0.000000 1.663990 0.000000 
#    z 0.000000 0.000000 1.780610 
# 
# From -- ./inp_files/3516.got.cif
#   From: 2010.05.17/outbox.cif.g08.bks.cpg/sg59_2_cif.got.tgz:3516.got - 2010.06.03 14:40:33.
