data_PCOD9447933
_publ_section_title
;
Structure prediction by ZEFSAII (Michael W. Deem and Ramdas Pophale) SiO2 
 PCOD9447933
Probable space group: P M M N
;
_chemical_formula_sum "Si O2"
_cell_formula_units_Z 64
_cell_length_a 23.713768
_cell_length_b 8.939806
_cell_length_c 19.441805
_cell_angle_alpha 90.000000
_cell_angle_beta 90.000000
_cell_angle_gamma 90.000000
_cell_volume 4121.594331
_symmetry_space_group_name_H-M "P M M N"
_symmetry_group_IT_number 59
_space_group.IT_coordinate_system_code '2'
_symmetry_cell_setting 'orthorhombic'
loop_
_space_group_symop_operation_xyz
x,y,z
1/2-x,1/2-y,z
1/2+x,-y,-z
-x,1/2+y,-z
-x,-y,-z
1/2+x,1/2+y,-z
1/2-x,y,z
x,1/2-y,z
loop_
_atom_site_type_symbol
_atom_site_label
_atom_site_fract_x
_atom_site_fract_y
_atom_site_fract_z
Si Si1 0.498802 0.071488 0.749505
Si Si2 0.982975 0.428125 0.392835
Si Si3 0.184014 0.428936 0.392493
Si Si4 0.315475 0.070261 0.118063
Si Si5 0.086030 0.428710 0.017060
Si Si6 0.025301 0.572080 0.893166
Si Si7 0.912620 0.428081 0.526180
Si Si8 0.367475 0.928863 0.254762
O O1 0.492950 0.250000 0.746871
O O2 0.565880 0.035534 0.748502
O O3 0.472737 0.997142 0.681687
O O4 0.473572 0.007534 0.819832
O O5 0.991560 0.250000 0.388123
O O6 0.039110 0.503219 0.424548
O O7 0.933807 0.456340 0.448589
O O8 0.250000 0.465196 0.399393
O O9 0.177763 0.250000 0.391244
O O10 0.145965 0.497803 0.452809
O O11 0.160173 0.496007 0.321420
O O12 0.250000 0.035699 0.106084
O O13 0.320814 0.250000 0.128083
O O14 0.355970 0.029776 0.054513
O O15 0.337728 0.990044 0.186402
O O16 0.085306 0.250000 0.004776
O O17 0.035008 0.462010 0.070345
O O18 0.071664 0.512785 0.946780
O O19 0.029222 0.750000 0.884922
O O20 0.910373 0.250000 0.537419
O O21 0.361545 0.750000 0.259307
#
# Coordination Sequence:
#
# PCOD9447933 Si02
#       8
#     8   8   8   8   8   8   8   8
#     4  11  21  32  49  74 102 133 167 202 246 296
#     4  10  20  33  52  74 100 130 164 204 249 300
#     4  11  23  36  51  71  98 136 176 210 246 291
#     4  10  20  34  51  70  96 133 172 205 243 292
#     4   9  18  32  48  69  96 126 161 204 247 289
#     4  10  19  31  50  71  95 128 163 202 249 295
#     4  10  20  34  51  74  99 129 166 207 252 295
#     4  11  22  33  47  70 101 135 172 208 242 286
#
# _framework density 15.527971000000001
#
# number of rings (size 3 to 8) (size 9 to 14) (size 15 to 20)
#    0.000    1.750    2.500    2.625    0.000    6.250 
#    0.000    0.000    0.000    0.000    0.000    0.875 
#    0.000    5.000    0.000    0.000    0.000    0.000 
#
# Total GULP energy -357349.032129 kJ/mol
# GULP energy per Si atom -5583.578627 kJ/mol
# Density = 1.549263 g / cm^3
# Si number density = 15.527971 Si / 1000 Ang^3
#
#
#
# Elastic Constant Matrix: (Units=GPa)
#
#
# Indices 1 2 3 4 5 6 
#
# 1 85.0446 43.9705 60.0653 0.0000 0.0000 0.0000
# 2 43.9705 52.3898 59.9515 0.0000 0.0000 0.0000
# 3 60.0653 59.9515 135.1235 0.0000 0.0000 0.0000
# 4 0.0000 0.0000 0.0000 30.3916 0.0000 0.0000
# 5 0.0000 0.0000 0.0000 0.0000 18.4733 0.0000
# 6 0.0000 0.0000 0.0000 0.0000 0.0000 20.9639
#
#
#
# Elastic Compliance Matrix: (Units=1/GPa)
#
#
# Indices 1 2 3 4 5 6 
#
# 1 0.021408 -0.014377 -0.003137 0.000000 0.000000 0.000000
# 2 -0.014377 0.048430 -0.015096 0.000000 0.000000 0.000000
# 3 -0.003137 -0.015096 0.015493 0.000000 0.000000 0.000000
# 4 0.000000 0.000000 0.000000 0.032904 0.000000 0.000000
# 5 0.000000 0.000000 0.000000 0.000000 0.054132 0.000000
# 6 0.000000 0.000000 0.000000 0.000000 0.000000 0.047701
#
#
# Mechanical properties :
#
#
# Convention : Reuss Voigt Hill
#
# Bulk Modulus (GPa) = 49.72935 66.72582 58.22759
# Shear Modulus (GPa) = 17.12375 21.20381 19.16378
#
# Velocity S-wave (km/s) = 3.32440 3.69931 3.51685
# Velocity P-wave (km/s) = 6.84329 7.83014 7.35329
#
# Compressibility (1/GPa) = 0.02010885
#
# Stress axis : x y z
#
# Youngs Moduli (GPa) = 46.71178 20.64855 64.54494
#
# Poissons Ratio (x) = 0.29687 0.20250
# Poissons Ratio (y) = 0.67159 0.97438
# Poissons Ratio (z) = 0.14655 0.31171
#
# Static dielectric constant tensor:
#      x y z
#    x 1.502960 0.000000 0.000000 
#    y 0.000000 1.516000 0.000000 
#    z 0.000000 0.000000 1.503400 
# 
# From -- ./inp_files/28409.got.cif
#   From: 2010.05.17/outbox.cif.g08.bks.cpg/sg59_15_cif.got.tgz:28409.got - 2010.06.03 14:40:33.
