data_PCOD9447690
_publ_section_title
;
Structure prediction by ZEFSAII (Michael W. Deem and Ramdas Pophale) SiO2 
 PCOD9447690
Probable space group: P M M N
;
_chemical_formula_sum "Si O2"
_cell_formula_units_Z 64
_cell_length_a 28.974232
_cell_length_b 9.410111
_cell_length_c 13.475224
_cell_angle_alpha 90.000000
_cell_angle_beta 90.000000
_cell_angle_gamma 90.000000
_cell_volume 3674.029785
_symmetry_space_group_name_H-M "P M M N"
_symmetry_group_IT_number 59
_space_group.IT_coordinate_system_code '2'
_symmetry_cell_setting 'orthorhombic'
loop_
_space_group_symop_operation_xyz
x,y,z
1/2-x,1/2-y,z
1/2+x,-y,-z
-x,1/2+y,-z
-x,-y,-z
1/2+x,1/2+y,-z
1/2-x,y,z
x,1/2-y,z
loop_
_atom_site_type_symbol
_atom_site_label
_atom_site_fract_x
_atom_site_fract_y
_atom_site_fract_z
Si Si1 0.563824 0.086220 0.243281
Si Si2 0.872982 0.587041 0.105671
Si Si3 0.302670 0.917879 0.028854
Si Si4 0.641874 0.410352 0.414745
Si Si5 0.620548 0.918671 0.609761
Si Si6 0.801346 0.906222 0.286791
Si Si7 0.986661 0.578990 0.603029
Si Si8 0.302435 0.917736 0.267006
O O1 0.556816 0.250000 0.211668
O O2 0.603331 0.087387 0.328553
O O3 0.519273 0.035180 0.304965
O O4 0.582649 0.993474 0.151702
O O5 0.883226 0.750000 0.077228
O O6 0.837241 0.590056 0.197667
O O7 0.844002 0.503701 0.022325
O O8 0.250000 0.962128 0.999703
O O9 0.306965 0.750000 0.004257
O O10 0.305332 0.932301 0.147824
O O11 0.646346 0.250000 0.451827
O O12 0.628191 0.516300 0.501144
O O13 0.687533 0.470025 0.363193
O O14 0.627586 0.750000 0.610894
O O15 0.566547 0.946779 0.631246
O O16 0.657432 0.994017 0.680870
O O17 0.750000 0.919163 0.247038
O O18 0.805962 0.750000 0.335392
O O19 0.993193 0.750000 0.588326
O O20 0.000000 0.500000 0.500000
O O21 0.250000 0.960346 0.296805
O O22 0.307514 0.750000 0.289880
#
# Coordination Sequence:
#
# PCOD9447690 Si02
#       8
#     8   8   8   8   8   8   8   8
#     4   9  18  33  50  72 103 138 174 211 253 306
#     4  10  19  30  49  77 106 134 166 210 263 315
#     4   9  18  34  56  79 102 133 174 218 264 315
#     4  10  19  31  48  68  94 132 174 212 251 302
#     4  11  22  34  53  80 107 136 171 217 269 313
#     4   9  18  31  44  63  97 135 167 204 252 306
#     4  10  20  34  54  79 107 139 178 220 262 308
#     4   9  20  39  59  78 103 137 178 220 260 310
#
# _framework density 17.419564000000001
#
# number of rings (size 3 to 8) (size 9 to 14) (size 15 to 20)
#    0.000    2.375    1.250    2.250    0.000    4.250 
#    0.000    1.250    0.000    0.750    0.000    0.000 
#    0.000    0.000    0.000    0.000    0.000    0.000 
#
# Total GULP energy -356590.758927 kJ/mol
# GULP energy per Si atom -5571.730608 kJ/mol
# Density = 1.737992 g / cm^3
# Si number density = 17.419564 Si / 1000 Ang^3
#
#
#
# Elastic Constant Matrix: (Units=GPa)
#
#
# Indices 1 2 3 4 5 6 
#
# 1 85.5755 53.2385 25.5357 0.0000 0.0000 0.0000
# 2 53.2385 76.6929 32.0532 0.0000 0.0000 0.0000
# 3 25.5357 32.0532 29.6144 0.0000 0.0000 0.0000
# 4 0.0000 0.0000 0.0000 28.3221 0.0000 0.0000
# 5 0.0000 0.0000 0.0000 0.0000 24.0651 0.0000
# 6 0.0000 0.0000 0.0000 0.0000 0.0000 20.8337
#
#
#
# Elastic Compliance Matrix: (Units=1/GPa)
#
#
# Indices 1 2 3 4 5 6 
#
# 1 0.020854 -0.012711 -0.004224 0.000000 0.000000 0.000000
# 2 -0.012711 0.031557 -0.023196 0.000000 0.000000 0.000000
# 3 -0.004224 -0.023196 0.062515 0.000000 0.000000 0.000000
# 4 0.000000 0.000000 0.000000 0.035308 0.000000 0.000000
# 5 0.000000 0.000000 0.000000 0.000000 0.041554 0.000000
# 6 0.000000 0.000000 0.000000 0.000000 0.000000 0.047999
#
#
# Mechanical properties :
#
#
# Convention : Reuss Voigt Hill
#
# Bulk Modulus (GPa) = 28.84735 45.94863 37.39799
# Shear Modulus (GPa) = 15.07827 20.04788 17.56307
#
# Velocity S-wave (km/s) = 2.94529 3.39615 3.17872
# Velocity P-wave (km/s) = 5.30684 6.46632 5.91506
#
# Compressibility (1/GPa) = 0.03466523
#
# Stress axis : x y z
#
# Youngs Moduli (GPa) = 47.95305 31.68870 15.99609
#
# Poissons Ratio (x) = 0.40279 0.06757
# Poissons Ratio (y) = 0.60952 0.37104
# Poissons Ratio (z) = 0.20256 0.73504
#
# Static dielectric constant tensor:
#      x y z
#    x 1.609620 0.000000 0.000000 
#    y 0.000000 1.607600 0.000000 
#    z 0.000000 0.000000 1.574140 
# 
# From -- ./inp_files/19380.got.cif
#   From: 2010.05.17/outbox.cif.g08.bks.cpg/sg59_10_cif.got.tgz:19380.got - 2010.06.03 14:40:33.
