data_PCOD9447404
_publ_section_title
;
Structure prediction by ZEFSAII (Michael W. Deem and Ramdas Pophale) SiO2 
 PCOD9447404
Probable space group: P M M N
;
_chemical_formula_sum "Si O2"
_cell_formula_units_Z 64
_cell_length_a 9.044671
_cell_length_b 19.579058
_cell_length_c 21.878728
_cell_angle_alpha 90.000000
_cell_angle_beta 90.000000
_cell_angle_gamma 90.000000
_cell_volume 3874.419448
_symmetry_space_group_name_H-M "P M M N"
_symmetry_group_IT_number 59
_space_group.IT_coordinate_system_code '2'
_symmetry_cell_setting 'orthorhombic'
loop_
_space_group_symop_operation_xyz
x,y,z
1/2-x,1/2-y,z
1/2+x,-y,-z
-x,1/2+y,-z
-x,-y,-z
1/2+x,1/2+y,-z
1/2-x,y,z
x,1/2-y,z
loop_
_atom_site_type_symbol
_atom_site_label
_atom_site_fract_x
_atom_site_fract_y
_atom_site_fract_z
Si Si1 0.926161 0.097141 0.348743
Si Si2 0.429931 0.327787 0.601313
Si Si3 0.427863 0.056421 0.695899
Si Si4 0.080936 0.981618 0.183218
Si Si5 0.572106 0.472526 0.061671
Si Si6 0.572827 0.830560 0.538438
Si Si7 0.418274 0.138751 0.229379
Si Si8 0.427159 0.823425 0.893380
O O1 0.750000 0.104780 0.347868
O O2 0.992076 0.123114 0.412201
O O3 0.997641 0.140435 0.293501
O O4 0.960330 0.017417 0.334730
O O5 0.250000 0.327568 0.601650
O O6 0.477714 0.250000 0.614568
O O7 0.477499 0.383268 0.650817
O O8 0.472545 0.345371 0.531633
O O9 0.250000 0.059783 0.703539
O O10 0.503475 0.059619 0.762205
O O11 0.250000 0.959877 0.172344
O O12 0.084706 0.059224 0.208915
O O13 0.989877 0.986550 0.120428
O O14 0.750000 0.477108 0.059598
O O15 0.529143 0.392652 0.071820
O O16 0.500000 0.500000 0.000000
O O17 0.750000 0.840090 0.543234
O O18 0.543030 0.750000 0.549521
O O19 0.250000 0.162739 0.235470
O O20 0.502252 0.174001 0.173783
O O21 0.250000 0.826442 0.887071
O O22 0.466314 0.750000 0.922188
#
# Coordination Sequence:
#
# PCOD9447404 Si02
#       8
#     8   8   8   8   8   8   8   8
#     4  10  19  29  43  66  95 124 153 189 236 284
#     4   8  15  30  51  70  88 116 155 197 242 291
#     4   9  17  30  49  72  95 119 151 193 238 283
#     4   9  17  30  48  71  97 122 151 187 227 272
#     4  10  19  32  52  76 102 132 163 194 230 274
#     4   9  18  32  47  62  84 118 159 198 235 282
#     4   9  17  29  45  65  90 121 155 189 225 269
#     4   9  18  32  49  70  97 128 160 194 233 275
#
# _framework density 16.518602000000001
#
# number of rings (size 3 to 8) (size 9 to 14) (size 15 to 20)
#    0.000    2.875    0.000    2.250    0.000    5.500 
#    0.000    0.625    0.000    1.875    0.000    0.000 
#    0.000    0.000    0.000    0.000    0.000    0.000 
#
# Total GULP energy -356568.607657 kJ/mol
# GULP energy per Si atom -5571.384495 kJ/mol
# Density = 1.648101 g / cm^3
# Si number density = 16.518602 Si / 1000 Ang^3
#
#
#
# Elastic Constant Matrix: (Units=GPa)
#
#
# Indices 1 2 3 4 5 6 
#
# 1 42.6832 36.6591 54.1776 0.0000 0.0000 0.0000
# 2 36.6591 77.9994 75.5494 0.0000 0.0000 0.0000
# 3 54.1776 75.5494 148.5046 0.0000 0.0000 0.0000
# 4 0.0000 0.0000 0.0000 14.5330 0.0000 0.0000
# 5 0.0000 0.0000 0.0000 0.0000 29.3908 0.0000
# 6 0.0000 0.0000 0.0000 0.0000 0.0000 11.5507
#
#
#
# Elastic Compliance Matrix: (Units=1/GPa)
#
#
# Indices 1 2 3 4 5 6 
#
# 1 0.048016 -0.011040 -0.011901 0.000000 0.000000 0.000000
# 2 -0.011040 0.027814 -0.010122 0.000000 0.000000 0.000000
# 3 -0.011901 -0.010122 0.016225 0.000000 0.000000 0.000000
# 4 0.000000 0.000000 0.000000 0.068809 0.000000 0.000000
# 5 0.000000 0.000000 0.000000 0.000000 0.034024 0.000000
# 6 0.000000 0.000000 0.000000 0.000000 0.000000 0.086575
#
#
# Mechanical properties :
#
#
# Convention : Reuss Voigt Hill
#
# Bulk Modulus (GPa) = 38.56757 66.88438 52.72597
# Shear Modulus (GPa) = 14.03581 17.94828 15.99204
#
# Velocity S-wave (km/s) = 2.91812 3.29986 3.11484
# Velocity P-wave (km/s) = 5.89513 7.42274 6.70259
#
# Compressibility (1/GPa) = 0.02592852
#
# Stress axis : x y z
#
# Youngs Moduli (GPa) = 20.82632 35.95375 61.63391
#
# Poissons Ratio (x) = 0.39694 0.73349
# Poissons Ratio (y) = 0.22993 0.62386
# Poissons Ratio (z) = 0.24785 0.36392
#
# Static dielectric constant tensor:
#      x y z
#    x 1.554620 0.000000 0.000000 
#    y 0.000000 1.572450 0.000000 
#    z 0.000000 0.000000 1.529110 
# 
# From -- ./inp_files/29789.got.cif
#   From: 2010.05.17/outbox.cif.g08.bks.cpg/sg59_15_cif.got.tgz:29789.got - 2010.06.03 14:40:33.
