data_PCOD9447786
_publ_section_title
;
Structure prediction by ZEFSAII (Michael W. Deem and Ramdas Pophale) SiO2 
 PCOD9447786
Probable space group: P M M N
;
_chemical_formula_sum "Si O2"
_cell_formula_units_Z 64
_cell_length_a 23.463102
_cell_length_b 7.606069
_cell_length_c 18.294437
_cell_angle_alpha 90.000000
_cell_angle_beta 90.000000
_cell_angle_gamma 90.000000
_cell_volume 3264.861318
_symmetry_space_group_name_H-M "P M M N"
_symmetry_group_IT_number 59
_space_group.IT_coordinate_system_code '2'
_symmetry_cell_setting 'orthorhombic'
loop_
_space_group_symop_operation_xyz
x,y,z
1/2-x,1/2-y,z
1/2+x,-y,-z
-x,1/2+y,-z
-x,-y,-z
1/2+x,1/2+y,-z
1/2-x,y,z
x,1/2-y,z
loop_
_atom_site_type_symbol
_atom_site_label
_atom_site_fract_x
_atom_site_fract_y
_atom_site_fract_z
Si Si1 0.686846 0.961424 0.432181
Si Si2 0.581761 0.462671 0.847912
Si Si3 0.414068 0.539033 0.678652
Si Si4 0.067020 0.960405 0.992072
Si Si5 0.853745 0.537040 0.591831
Si Si6 0.687425 0.041302 0.750906
Si Si7 0.447382 0.539310 0.834036
Si Si8 0.482093 0.460909 0.417341
O O1 0.750000 0.025474 0.413641
O O2 0.688373 0.750000 0.436837
O O3 0.669696 0.024615 0.513438
O O4 0.640605 0.004389 0.370981
O O5 0.582905 0.250000 0.847511
O O6 0.593426 0.524661 0.931549
O O7 0.631177 0.527674 0.793187
O O8 0.516004 0.509433 0.829143
O O9 0.419658 0.750000 0.682623
O O10 0.416553 0.471852 0.761384
O O11 0.469473 0.469187 0.636081
O O12 0.075674 0.750000 0.991219
O O13 0.078595 0.029918 0.910484
O O14 0.000000 0.000000 0.000000
O O15 0.853556 0.750000 0.589921
O O16 0.820397 0.483839 0.664167
O O17 0.918857 0.473390 0.598513
O O18 0.750000 0.970303 0.772563
O O19 0.688445 0.250000 0.765175
O O20 0.440712 0.750000 0.836624
O O21 0.500000 0.500000 0.500000
O O22 0.480258 0.250000 0.409544
#
# Coordination Sequence:
#
# PCOD9447786 Si02
#       8
#     8   8   8   8   8   8   8   8
#     4  10  21  36  52  68  88 121 164 202 235 275
#     4   9  17  30  48  71  98 128 159 191 233 285
#     4  10  20  32  48  72  99 125 154 192 240 284
#     4   8  14  26  46  70  96 123 150 183 226 278
#     4  10  20  35  53  71  93 123 159 199 239 282
#     4  10  21  34  47  67  96 129 164 201 238 279
#     4   9  17  30  49  74 101 125 153 194 241 288
#     4  10  19  31  48  70  95 121 151 189 235 284
#
# _framework density 19.602668999999999
#
# number of rings (size 3 to 8) (size 9 to 14) (size 15 to 20)
#    0.000    2.500    1.250    1.125    0.000    4.000 
#    0.000    0.000    0.000    0.750    0.000    3.500 
#    0.000    0.000    0.000    0.000    0.000    0.000 
#
# Total GULP energy -356837.938900 kJ/mol
# GULP energy per Si atom -5575.592795 kJ/mol
# Density = 1.955805 g / cm^3
# Si number density = 19.602669 Si / 1000 Ang^3
#
#
#
# Elastic Constant Matrix: (Units=GPa)
#
#
# Indices 1 2 3 4 5 6 
#
# 1 87.1519 -1.8312 48.7917 0.0000 0.0000 0.0000
# 2 -1.8312 41.0327 -0.9057 0.0000 0.0000 0.0000
# 3 48.7917 -0.9057 162.8482 0.0000 0.0000 0.0000
# 4 0.0000 0.0000 0.0000 9.8654 0.0000 0.0000
# 5 0.0000 0.0000 0.0000 0.0000 12.7962 0.0000
# 6 0.0000 0.0000 0.0000 0.0000 0.0000 12.5006
#
#
#
# Elastic Compliance Matrix: (Units=1/GPa)
#
#
# Indices 1 2 3 4 5 6 
#
# 1 0.013798 0.000525 -0.004131 0.000000 0.000000 0.000000
# 2 0.000525 0.024394 -0.000022 0.000000 0.000000 0.000000
# 3 -0.004131 -0.000022 0.007378 0.000000 0.000000 0.000000
# 4 0.000000 0.000000 0.000000 0.101364 0.000000 0.000000
# 5 0.000000 0.000000 0.000000 0.000000 0.078148 0.000000
# 6 0.000000 0.000000 0.000000 0.000000 0.000000 0.079996
#
#
# Mechanical properties :
#
#
# Convention : Reuss Voigt Hill
#
# Bulk Modulus (GPa) = 26.10017 42.57139 34.33578
# Shear Modulus (GPa) = 15.37959 23.36431 19.37195
#
# Velocity S-wave (km/s) = 2.80405 3.45613 3.14702
# Velocity P-wave (km/s) = 4.88130 6.13928 5.54607
#
# Compressibility (1/GPa) = 0.03831393
#
# Stress axis : x y z
#
# Youngs Moduli (GPa) = 72.47394 40.99415 135.53206
#
# Poissons Ratio (x) = -0.02151 0.55991
# Poissons Ratio (y) = -0.03802 0.00292
# Poissons Ratio (z) = 0.29940 0.00088
#
# Static dielectric constant tensor:
#      x y z
#    x 1.670720 0.000000 0.000000 
#    y 0.000000 1.743270 0.000000 
#    z 0.000000 0.000000 1.728280 
# 
# From -- ./inp_files/26220.got.cif
#   From: 2010.05.17/outbox.cif.g08.bks.cpg/sg59_14_cif.got.tgz:26220.got - 2010.06.03 14:40:33.
