data_PCOD9447228
_publ_section_title
;
Structure prediction by ZEFSAII (Michael W. Deem and Ramdas Pophale) SiO2 
 PCOD9447228
Probable space group: P M M N
;
_chemical_formula_sum "Si O2"
_cell_formula_units_Z 64
_cell_length_a 31.935917
_cell_length_b 8.493324
_cell_length_c 12.220132
_cell_angle_alpha 90.000000
_cell_angle_beta 90.000000
_cell_angle_gamma 90.000000
_cell_volume 3314.614148
_symmetry_space_group_name_H-M "P M M N"
_symmetry_group_IT_number 59
_space_group.IT_coordinate_system_code '2'
_symmetry_cell_setting 'orthorhombic'
loop_
_space_group_symop_operation_xyz
x,y,z
1/2-x,1/2-y,z
1/2+x,-y,-z
-x,1/2+y,-z
-x,-y,-z
1/2+x,1/2+y,-z
1/2-x,y,z
x,1/2-y,z
loop_
_atom_site_type_symbol
_atom_site_label
_atom_site_fract_x
_atom_site_fract_y
_atom_site_fract_z
Si Si1 0.953050 0.060665 0.738948
Si Si2 0.296894 0.440248 0.261922
Si Si3 0.796805 0.062367 0.264672
Si Si4 0.924221 0.939231 0.506046
Si Si5 0.545911 0.942248 0.267448
Si Si6 0.874116 0.438518 0.879793
Si Si7 0.625412 0.561646 0.125960
Si Si8 0.325273 0.060716 0.503978
O O1 0.953130 0.250000 0.746112
O O2 0.915517 0.001495 0.815822
O O3 0.999776 0.005260 0.768677
O O4 0.943352 0.014645 0.614152
O O5 0.250000 0.489446 0.229877
O O6 0.298857 0.250000 0.258312
O O7 0.333112 0.505664 0.185093
O O8 0.305683 0.486493 0.387873
O O9 0.750000 0.008872 0.233265
O O10 0.798891 0.250000 0.251995
O O11 0.833389 0.986979 0.192830
O O12 0.804776 0.018708 0.391112
O O13 0.928201 0.750000 0.514812
O O14 0.945575 0.990740 0.392858
O O15 0.874772 0.975330 0.499003
O O16 0.546586 0.750000 0.267032
O O17 0.584107 0.995301 0.191254
O O18 0.874963 0.250000 0.878712
O O19 0.873612 0.496556 0.003773
O O20 0.623684 0.750000 0.121923
O O21 0.320747 0.250000 0.515593
#
# Coordination Sequence:
#
# PCOD9447228 Si02
#       8
#     8   8   8   8   8   8   8   8
#     4  10  21  37  58  85 120 156 190 231 288 350
#     4  10  21  38  61  87 115 152 197 240 283 339
#     4  11  24  40  60  89 123 154 187 234 292 351
#     4  10  18  33  59  88 119 151 190 237 284 336
#     4   9  19  37  59  86 117 151 191 238 286 338
#     4  11  24  40  58  84 117 153 192 242 296 346
#     4  11  23  42  65  84 109 152 200 246 289 338
#     4  10  19  35  61  90 120 155 195 237 283 339
#
# _framework density 19.308432
#
# number of rings (size 3 to 8) (size 9 to 14) (size 15 to 20)
#    0.000    1.750    2.500    1.875    0.000    4.250 
#    0.000    1.250    0.000    0.000    0.000    0.000 
#    0.000    0.000    0.000    0.000    0.000    0.000 
#
# Total GULP energy -357583.982639 kJ/mol
# GULP energy per Si atom -5587.249729 kJ/mol
# Density = 1.926448 g / cm^3
# Si number density = 19.308432 Si / 1000 Ang^3
#
#
#
# Elastic Constant Matrix: (Units=GPa)
#
#
# Indices 1 2 3 4 5 6 
#
# 1 187.3745 30.9852 89.1987 0.0000 0.0000 0.0000
# 2 30.9852 15.1896 20.0586 0.0000 0.0000 0.0000
# 3 89.1987 20.0586 151.6003 0.0000 0.0000 0.0000
# 4 0.0000 0.0000 0.0000 29.3978 0.0000 0.0000
# 5 0.0000 0.0000 0.0000 0.0000 1.4869 0.0000
# 6 0.0000 0.0000 0.0000 0.0000 0.0000 13.4686
#
#
#
# Elastic Compliance Matrix: (Units=1/GPa)
#
#
# Indices 1 2 3 4 5 6 
#
# 1 0.009475 -0.014500 -0.003657 0.000000 0.000000 0.000000
# 2 -0.014500 0.101963 -0.004959 0.000000 0.000000 0.000000
# 3 -0.003657 -0.004959 0.009404 0.000000 0.000000 0.000000
# 4 0.000000 0.000000 0.000000 0.034016 0.000000 0.000000
# 5 0.000000 0.000000 0.000000 0.000000 0.672525 0.000000
# 6 0.000000 0.000000 0.000000 0.000000 0.000000 0.074247
#
#
# Mechanical properties :
#
#
# Convention : Reuss Voigt Hill
#
# Bulk Modulus (GPa) = 13.40308 70.51661 41.95984
# Shear Modulus (GPa) = 5.14016 23.13212 14.13614
#
# Velocity S-wave (km/s) = 1.63337 3.46501 2.70871
# Velocity P-wave (km/s) = 3.24251 7.25320 5.61795
#
# Compressibility (1/GPa) = 0.07460970
#
# Stress axis : x y z
#
# Youngs Moduli (GPa) = 105.53591 9.80753 106.33841
#
# Poissons Ratio (x) = 0.14221 0.38884
# Poissons Ratio (y) = 1.53029 0.52736
# Poissons Ratio (z) = 0.38590 0.04864
#
# Static dielectric constant tensor:
#      x y z
#    x 1.684580 0.000000 0.000000 
#    y 0.000000 1.667730 0.000000 
#    z 0.000000 0.000000 1.630730 
# 
# From -- ./inp_files/14868.got.cif
#   From: 2010.05.17/outbox.cif.g08.bks.cpg/sg59_8_cif.got.tgz:14868.got - 2010.06.03 14:40:33.
