data_PCOD9447376
_publ_section_title
;
Structure prediction by ZEFSAII (Michael W. Deem and Ramdas Pophale) SiO2 
 PCOD9447376
Probable space group: P M M N
;
_chemical_formula_sum "Si O2"
_cell_formula_units_Z 56
_cell_length_a 7.913305
_cell_length_b 14.768799
_cell_length_c 21.274779
_cell_angle_alpha 90.000000
_cell_angle_beta 90.000000
_cell_angle_gamma 90.000000
_cell_volume 2486.383655
_symmetry_space_group_name_H-M "P M M N"
_symmetry_group_IT_number 59
_space_group.IT_coordinate_system_code '2'
_symmetry_cell_setting 'orthorhombic'
loop_
_space_group_symop_operation_xyz
x,y,z
1/2-x,1/2-y,z
1/2+x,-y,-z
-x,1/2+y,-z
-x,-y,-z
1/2+x,1/2+y,-z
1/2-x,y,z
x,1/2-y,z
loop_
_atom_site_type_symbol
_atom_site_label
_atom_site_fract_x
_atom_site_fract_y
_atom_site_fract_z
Si Si1 0.550775 0.922131 0.925245
Si Si2 0.954726 0.347002 0.613770
Si Si3 0.556225 0.347703 0.810250
Si Si4 0.442819 0.376929 0.944460
Si Si5 0.547171 0.399027 0.479093
Si Si6 0.546881 0.049601 0.346482
Si Si7 0.447921 0.947344 0.790056
O O1 0.750000 0.940863 0.933938
O O2 0.448981 0.014329 0.936811
O O3 0.525652 0.901365 0.851991
O O4 0.504227 0.857853 0.983755
O O5 0.750000 0.350511 0.615039
O O6 0.006583 0.250000 0.642241
O O7 0.011091 0.345537 0.540460
O O8 0.013890 0.441943 0.643016
O O9 0.750000 0.353855 0.788143
O O10 0.485480 0.250000 0.789311
O O11 0.552308 0.344982 0.886233
O O12 0.469431 0.442805 0.793908
O O13 0.250000 0.347591 0.934727
O O14 0.500000 0.500000 0.500000
O O15 0.750000 0.387029 0.476211
O O16 0.483013 0.394660 0.407392
O O17 0.750000 0.059661 0.345218
O O18 0.480896 0.078370 0.278269
O O19 0.250000 0.927237 0.792044
#
# Coordination Sequence:
#
# PCOD9447376 Si02
#       7
#     8   8   8   8   8   8   8
#     4   9  16  26  41  61  82 102 129 167 208 244
#     4   9  17  28  44  66  87 109 139 174 214 257
#     4  10  20  31  42  58  82 112 142 171 206 247
#     4   9  16  26  42  61  79 102 133 169 207 243
#     4   8  14  27  44  60  82 108 137 175 212 248
#     4   9  18  30  43  61  85 115 147 175 209 251
#     4  10  19  29  42  60  82 111 144 172 202 243
#
# _framework density 22.522672
#
# number of rings (size 3 to 8) (size 9 to 14) (size 15 to 20)
#    0.000    2.857    0.000    3.429    0.000    4.857 
#    0.000    2.857    0.000    0.000    0.000    1.000 
#    0.000    3.429    0.000    0.000    0.000    0.000 
#
# Total GULP energy -311815.217460 kJ/mol
# GULP energy per Si atom -5568.128883 kJ/mol
# Density = 2.247141 g / cm^3
# Si number density = 22.522672 Si / 1000 Ang^3
#
#
#
# Elastic Constant Matrix: (Units=GPa)
#
#
# Indices 1 2 3 4 5 6 
#
# 1 35.9998 -3.3797 5.8674 0.0000 0.0000 0.0000
# 2 -3.3797 20.9305 -5.8147 0.0000 0.0000 0.0000
# 3 5.8674 -5.8147 190.1905 0.0000 0.0000 0.0000
# 4 0.0000 0.0000 0.0000 -17.4977 0.0000 0.0000
# 5 0.0000 0.0000 0.0000 0.0000 16.5294 0.0000
# 6 0.0000 0.0000 0.0000 0.0000 0.0000 -4.0585
#
#
#
# Elastic Compliance Matrix: (Units=1/GPa)
#
#
# Indices 1 2 3 4 5 6 
#
# 1 0.028308 0.004366 -0.000740 0.000000 0.000000 0.000000
# 2 0.004366 0.048860 0.001359 0.000000 0.000000 0.000000
# 3 -0.000740 0.001359 0.005322 0.000000 0.000000 0.000000
# 4 0.000000 0.000000 0.000000 -0.057151 0.000000 0.000000
# 5 0.000000 0.000000 0.000000 0.000000 0.060498 0.000000
# 6 0.000000 0.000000 0.000000 0.000000 0.000000 -0.246396
#
#
# Mechanical properties :
#
#
# Convention : Reuss Voigt Hill
#
# Bulk Modulus (GPa) = 10.81551 26.71852 18.76702
# Shear Modulus (GPa) = -35.78905 15.69118 -10.04894
#
# Velocity S-wave (km/s) = -3.99058 2.64234 -2.11456
# Velocity P-wave (km/s) = 4.05222 4.60413 1.54556
#
# Compressibility (1/GPa) = 0.09245978
#
# Stress axis : x y z
#
# Youngs Moduli (GPa) = 35.32526 20.46681 187.89000
#
# Poissons Ratio (x) = -0.08935 0.13901
# Poissons Ratio (y) = -0.15421 -0.25536
# Poissons Ratio (z) = 0.02614 -0.02782
#
# Static dielectric constant tensor:
#      x y z
#    x 1.795650 0.000000 0.000000 
#    y 0.000000 1.833440 0.000000 
#    z 0.000000 0.000000 1.947920 
# 
# From -- ./inp_files/29308.got.cif
#   From: 2010.05.17/outbox.cif.g08.bks.cpg/sg59_15_cif.got.tgz:29308.got - 2010.06.03 14:40:33.
