data_PCOD9447638
_publ_section_title
;
Structure prediction by ZEFSAII (Michael W. Deem and Ramdas Pophale) SiO2 
 PCOD9447638
Probable space group: P M M N
;
_chemical_formula_sum "Si O2"
_cell_formula_units_Z 48
_cell_length_a 16.039591
_cell_length_b 8.652788
_cell_length_c 19.798782
_cell_angle_alpha 90.000000
_cell_angle_beta 90.000000
_cell_angle_gamma 90.000000
_cell_volume 2747.817132
_symmetry_space_group_name_H-M "P M M N"
_symmetry_group_IT_number 59
_space_group.IT_coordinate_system_code '2'
_symmetry_cell_setting 'orthorhombic'
loop_
_space_group_symop_operation_xyz
x,y,z
1/2-x,1/2-y,z
1/2+x,-y,-z
-x,1/2+y,-z
-x,-y,-z
1/2+x,1/2+y,-z
1/2-x,y,z
x,1/2-y,z
loop_
_atom_site_type_symbol
_atom_site_label
_atom_site_fract_x
_atom_site_fract_y
_atom_site_fract_z
Si Si1 0.656797 0.938114 0.424399
Si Si2 0.926569 0.064280 0.797706
Si Si3 0.750000 0.573427 0.955985
Si Si4 0.427838 0.935192 0.047311
Si Si5 0.844684 0.936461 0.581942
Si Si6 0.498746 0.436705 0.663224
Si Si7 0.250000 0.074309 0.207964
O O1 0.750000 0.988672 0.404458
O O2 0.656528 0.750000 0.422448
O O3 0.643611 0.979557 0.502944
O O4 0.582764 0.993906 0.376414
O O5 0.925565 0.250000 0.799771
O O6 0.940370 0.010700 0.874668
O O7 0.992570 0.013521 0.741299
O O8 0.835567 0.008569 0.773502
O O9 0.750000 0.750000 0.979794
O O10 0.663938 0.491003 0.975373
O O11 0.750000 0.574938 0.874019
O O12 0.429741 0.750000 0.046669
O O13 0.500000 0.000000 0.000000
O O14 0.750000 0.981482 0.601845
O O15 0.849415 0.750000 0.586634
O O16 0.918100 0.009617 0.625021
O O17 0.496537 0.250000 0.662302
O O18 0.250000 0.250000 0.232990
#
# Coordination Sequence:
#
# PCOD9447638 Si02
#       7
#     8   8   4   8   8   8   4
#     4   8  15  30  50  68  89 122 162 202 240 284
#     4   9  19  32  46  69 102 130 157 199 248 290
#     4   9  17  31  51  77 101 125 164 205 242 295
#     4  10  19  33  53  74 102 136 168 205 252 299
#     4   9  18  31  46  68  98 127 156 193 241 290
#     4  10  19  30  48  71  95 124 161 200 241 286
#     4   9  17  29  47  69  95 127 162 191 230 295
#
# _framework density 17.468411
#
# number of rings (size 3 to 8) (size 9 to 14) (size 15 to 20)
#    0.000    2.833    0.000    2.500    1.167    3.667 
#    0.000    0.000    1.833    1.500    0.000    0.000 
#    0.000    0.000    0.000    0.000    0.000    0.000 
#
# Total GULP energy -267540.482974 kJ/mol
# GULP energy per Si atom -5573.760062 kJ/mol
# Density = 1.742865 g / cm^3
# Si number density = 17.468411 Si / 1000 Ang^3
#
#
#
# Elastic Constant Matrix: (Units=GPa)
#
#
# Indices 1 2 3 4 5 6 
#
# 1 135.3841 23.1348 81.5467 0.0000 0.0000 0.0000
# 2 23.1348 16.3355 19.3295 0.0000 0.0000 0.0000
# 3 81.5467 19.3295 90.2465 0.0000 0.0000 0.0000
# 4 0.0000 0.0000 0.0000 15.4579 0.0000 0.0000
# 5 0.0000 0.0000 0.0000 0.0000 28.3960 0.0000
# 6 0.0000 0.0000 0.0000 0.0000 0.0000 25.8744
#
#
#
# Elastic Compliance Matrix: (Units=1/GPa)
#
#
# Indices 1 2 3 4 5 6 
#
# 1 0.016931 -0.007870 -0.013613 0.000000 0.000000 0.000000
# 2 -0.007870 0.085656 -0.011235 0.000000 0.000000 0.000000
# 3 -0.013613 -0.011235 0.025788 0.000000 0.000000 0.000000
# 4 0.000000 0.000000 0.000000 0.064692 0.000000 0.000000
# 5 0.000000 0.000000 0.000000 0.000000 0.035216 0.000000
# 6 0.000000 0.000000 0.000000 0.000000 0.000000 0.038648
#
#
# Mechanical properties :
#
#
# Convention : Reuss Voigt Hill
#
# Bulk Modulus (GPa) = 15.88844 54.44313 35.16579
# Shear Modulus (GPa) = 14.15039 21.80933 17.97986
#
# Velocity S-wave (km/s) = 2.84924 3.53725 3.21172
# Velocity P-wave (km/s) = 4.46536 6.92222 5.82480
#
# Compressibility (1/GPa) = 0.06293883
#
# Stress axis : x y z
#
# Youngs Moduli (GPa) = 59.06357 11.67458 38.77771
#
# Poissons Ratio (x) = 0.09188 0.52789
# Poissons Ratio (y) = 0.46482 0.43567
# Poissons Ratio (z) = 0.80404 0.13117
#
# Static dielectric constant tensor:
#      x y z
#    x 1.580020 0.000000 0.000000 
#    y 0.000000 1.597370 0.000000 
#    z 0.000000 0.000000 1.617550 
# 
# From -- ./inp_files/27461.got.cif
#   From: 2010.05.17/outbox.cif.g08.bks.cpg/sg59_14_cif.got.tgz:27461.got - 2010.06.03 14:40:33.
