data_PCOD9447715
_publ_section_title
;
Structure prediction by ZEFSAII (Michael W. Deem and Ramdas Pophale) SiO2 
 PCOD9447715
Probable space group: P M M N
;
_chemical_formula_sum "Si O2"
_cell_formula_units_Z 64
_cell_length_a 19.444116
_cell_length_b 28.333313
_cell_length_c 5.581790
_cell_angle_alpha 90.000000
_cell_angle_beta 90.000000
_cell_angle_gamma 90.000000
_cell_volume 3075.098674
_symmetry_space_group_name_H-M "P M M N"
_symmetry_group_IT_number 59
_space_group.IT_coordinate_system_code '2'
_symmetry_cell_setting 'orthorhombic'
loop_
_space_group_symop_operation_xyz
x,y,z
1/2-x,1/2-y,z
1/2+x,-y,-z
-x,1/2+y,-z
-x,-y,-z
1/2+x,1/2+y,-z
1/2-x,y,z
x,1/2-y,z
loop_
_atom_site_type_symbol
_atom_site_label
_atom_site_fract_x
_atom_site_fract_y
_atom_site_fract_z
Si Si1 0.991215 0.303676 0.946908
Si Si2 0.325357 0.437458 0.677184
Si Si3 0.642403 0.694812 0.546673
Si Si4 0.912904 0.982582 0.676803
Si Si5 0.861363 0.649824 0.043963
Si Si6 0.019832 0.669246 0.553942
Si Si7 0.456661 0.936823 0.695867
Si Si8 0.326033 0.534266 0.947825
O O1 0.018364 0.250000 0.934767
O O2 0.056714 0.339008 0.958249
O O3 0.951259 0.314712 0.702378
O O4 0.951973 0.309676 0.197424
O O5 0.250000 0.423281 0.588057
O O6 0.383965 0.438828 0.478577
O O7 0.345280 0.404338 0.898611
O O8 0.321868 0.491728 0.756959
O O9 0.657843 0.750000 0.567862
O O10 0.665559 0.675575 0.287111
O O11 0.559402 0.687305 0.544616
O O12 0.665953 0.668337 0.789314
O O13 0.976514 0.960062 0.822415
O O14 0.940037 0.025491 0.512514
O O15 0.851001 0.006017 0.819999
O O16 0.025722 0.613353 0.584014
O O17 0.389843 0.933777 0.864804
O O18 0.250000 0.555456 0.972736
#
# Coordination Sequence:
#
# PCOD9447715 Si02
#       8
#     8   8   8   8   8   8   8   8
#     4  10  19  32  52  79 114 152 185 231 300 355
#     4  10  22  36  53  80 108 150 207 246 287 343
#     4  10  19  34  54  79 110 149 186 233 302 355
#     4  10  20  37  56  78 113 155 189 247 301 348
#     4  10  19  31  53  77 103 142 190 245 279 337
#     4  10  19  30  52  79 114 145 182 234 285 347
#     4  10  22  34  54  87 115 144 196 247 297 344
#     4  10  22  38  57  77 114 158 194 238 289 357
#
# _framework density 20.812339999999999
#
# number of rings (size 3 to 8) (size 9 to 14) (size 15 to 20)
#    0.000    2.000    0.000    6.000    7.000    0.500 
#    0.000    0.000    0.000    4.125    0.000    0.000 
#    0.000    5.500    0.000    0.000    0.000    0.000 
#
# Total GULP energy -356947.375352 kJ/mol
# GULP energy per Si atom -5577.302740 kJ/mol
# Density = 2.076497 g / cm^3
# Si number density = 20.812340 Si / 1000 Ang^3
#
#
#
# Elastic Constant Matrix: (Units=GPa)
#
#
# Indices 1 2 3 4 5 6 
#
# 1 57.2387 14.3037 13.5314 0.0000 0.0000 0.0000
# 2 14.3037 64.3892 7.8945 0.0000 0.0000 0.0000
# 3 13.5314 7.8945 129.7951 0.0000 0.0000 0.0000
# 4 0.0000 0.0000 0.0000 26.9165 0.0000 0.0000
# 5 0.0000 0.0000 0.0000 0.0000 6.1940 0.0000
# 6 0.0000 0.0000 0.0000 0.0000 0.0000 -74.9139
#
#
#
# Elastic Compliance Matrix: (Units=1/GPa)
#
#
# Indices 1 2 3 4 5 6 
#
# 1 0.018873 -0.003981 -0.001725 0.000000 0.000000 0.000000
# 2 -0.003981 0.016487 -0.000588 0.000000 0.000000 0.000000
# 3 -0.001725 -0.000588 0.007920 0.000000 0.000000 0.000000
# 4 0.000000 0.000000 0.000000 0.037152 0.000000 0.000000
# 5 0.000000 0.000000 0.000000 0.000000 0.161447 0.000000
# 6 0.000000 0.000000 0.000000 0.000000 0.000000 -0.013349
#
#
# Mechanical properties :
#
#
# Convention : Reuss Voigt Hill
#
# Bulk Modulus (GPa) = 32.58185 35.87582 34.22883
# Shear Modulus (GPa) = 19.89261 6.01888 12.95574
#
# Velocity S-wave (km/s) = 3.09497 1.70243 2.49771
# Velocity P-wave (km/s) = 5.33487 4.59777 4.97998
#
# Compressibility (1/GPa) = 0.03069194
#
# Stress axis : x y z
#
# Youngs Moduli (GPa) = 52.98452 60.65390 126.26130
#
# Poissons Ratio (x) = 0.24147 0.21786
# Poissons Ratio (y) = 0.21094 0.07421
# Poissons Ratio (z) = 0.09142 0.03565
#
# Static dielectric constant tensor:
#      x y z
#    x 1.795410 0.000000 0.000000 
#    y 0.000000 1.748860 0.000000 
#    z 0.000000 0.000000 1.853760 
# 
# From -- ./inp_files/3544.got.cif
#   From: 2010.05.17/outbox.cif.g08.bks.cpg/sg59_2_cif.got.tgz:3544.got - 2010.06.03 14:40:33.
