data_PCOD9447401
_publ_section_title
;
Structure prediction by ZEFSAII (Michael W. Deem and Ramdas Pophale) SiO2 
 PCOD9447401
Probable space group: P M M N
;
_chemical_formula_sum "Si O2"
_cell_formula_units_Z 56
_cell_length_a 14.009477
_cell_length_b 15.398765
_cell_length_c 13.298217
_cell_angle_alpha 90.000000
_cell_angle_beta 90.000000
_cell_angle_gamma 90.000000
_cell_volume 2868.806322
_symmetry_space_group_name_H-M "P M M N"
_symmetry_group_IT_number 59
_space_group.IT_coordinate_system_code '2'
_symmetry_cell_setting 'orthorhombic'
loop_
_space_group_symop_operation_xyz
x,y,z
1/2-x,1/2-y,z
1/2+x,-y,-z
-x,1/2+y,-z
-x,-y,-z
1/2+x,1/2+y,-z
1/2-x,y,z
x,1/2-y,z
loop_
_atom_site_type_symbol
_atom_site_label
_atom_site_fract_x
_atom_site_fract_y
_atom_site_fract_z
Si Si1 0.640697 0.351917 0.909211
Si Si2 0.357793 0.902492 0.302167
Si Si3 0.364767 0.650511 0.696974
Si Si4 0.366746 0.155773 0.443711
Si Si5 0.867023 0.464539 0.489244
Si Si6 0.356761 0.100564 0.227654
Si Si7 0.024420 0.853838 0.902476
O O1 0.750000 0.388139 0.910059
O O2 0.649812 0.250000 0.931787
O O3 0.598585 0.359588 0.796803
O O4 0.573607 0.388523 0.996515
O O5 0.250000 0.865727 0.310402
O O6 0.398533 0.907513 0.414047
O O7 0.351719 0.002909 0.268976
O O8 0.250000 0.645879 0.702205
O O9 0.388979 0.750000 0.668123
O O10 0.397096 0.581469 0.613384
O O11 0.406540 0.632560 0.806826
O O12 0.250000 0.153859 0.444006
O O13 0.396454 0.250000 0.485623
O O14 0.394319 0.151754 0.325595
O O15 0.396104 0.065243 0.496272
O O16 0.750000 0.463857 0.492664
O O17 0.250000 0.130671 0.204190
O O18 0.424828 0.106388 0.132719
O O19 0.009629 0.750000 0.912258
#
# Coordination Sequence:
#
# PCOD9447401 Si02
#       7
#     8   8   8   8   8   8   8
#     4   9  17  29  45  65  91 122 152 182 217 263
#     4   8  15  28  44  64  90 117 147 184 224 268
#     4   9  17  29  44  63  92 127 157 187 223 265
#     4   8  13  23  40  60  84 113 142 180 230 272
#     4   8  14  25  42  65  91 117 150 190 228 270
#     4   9  17  29  45  65  88 112 142 187 236 273
#     4  10  19  29  43  65  91 120 154 185 220 272
#
# _framework density 19.520313000000002
#
# number of rings (size 3 to 8) (size 9 to 14) (size 15 to 20)
#    0.000    3.286    0.000    2.571    0.000    3.714 
#    0.000    5.714    0.000    0.000    0.000    1.000 
#    0.000    6.857    0.000   64.000    0.000    0.286 
#
# Total GULP energy -311966.487030 kJ/mol
# GULP energy per Si atom -5570.830126 kJ/mol
# Density = 1.947588 g / cm^3
# Si number density = 19.520313 Si / 1000 Ang^3
#
#
#
# Elastic Constant Matrix: (Units=GPa)
#
#
# Indices 1 2 3 4 5 6 
#
# 1 57.1922 3.0902 13.7854 0.0000 0.0000 0.0000
# 2 3.0902 45.2505 15.3615 0.0000 0.0000 0.0000
# 3 13.7854 15.3615 54.5822 0.0000 0.0000 0.0000
# 4 0.0000 0.0000 0.0000 17.2384 0.0000 0.0000
# 5 0.0000 0.0000 0.0000 0.0000 17.0098 0.0000
# 6 0.0000 0.0000 0.0000 0.0000 0.0000 6.6153
#
#
#
# Elastic Compliance Matrix: (Units=1/GPa)
#
#
# Indices 1 2 3 4 5 6 
#
# 1 0.018624 0.000359 -0.004805 0.000000 0.000000 0.000000
# 2 0.000359 0.024441 -0.006969 0.000000 0.000000 0.000000
# 3 -0.004805 -0.006969 0.021496 0.000000 0.000000 0.000000
# 4 0.000000 0.000000 0.000000 0.058010 0.000000 0.000000
# 5 0.000000 0.000000 0.000000 0.000000 0.058789 0.000000
# 6 0.000000 0.000000 0.000000 0.000000 0.000000 0.151166
#
#
# Mechanical properties :
#
#
# Convention : Reuss Voigt Hill
#
# Bulk Modulus (GPa) = 23.96320 24.61103 24.28711
# Shear Modulus (GPa) = 13.54042 16.49189 15.01616
#
# Velocity S-wave (km/s) = 2.63660 2.90980 2.77656
# Velocity P-wave (km/s) = 4.64452 4.89127 4.76949
#
# Compressibility (1/GPa) = 0.04173065
#
# Stress axis : x y z
#
# Youngs Moduli (GPa) = 53.69532 40.91553 46.52052
#
# Poissons Ratio (x) = -0.01470 0.22352
# Poissons Ratio (y) = -0.01929 0.32421
# Poissons Ratio (z) = 0.25799 0.28515
#
# Static dielectric constant tensor:
#      x y z
#    x 1.726770 0.000000 0.000000 
#    y 0.000000 1.715970 0.000000 
#    z 0.000000 0.000000 1.693980 
# 
# From -- ./inp_files/17903.got.cif
#   From: 2010.05.17/outbox.cif.g08.bks.cpg/sg59_9_cif.got.tgz:17903.got - 2010.06.03 14:40:33.
