data_PCOD9447582
_publ_section_title
;
Structure prediction by ZEFSAII (Michael W. Deem and Ramdas Pophale) SiO2 
 PCOD9447582
Probable space group: P M M N
;
_chemical_formula_sum "Si O2"
_cell_formula_units_Z 64
_cell_length_a 14.472141
_cell_length_b 7.636455
_cell_length_c 30.038091
_cell_angle_alpha 90.000000
_cell_angle_beta 90.000000
_cell_angle_gamma 90.000000
_cell_volume 3319.685264
_symmetry_space_group_name_H-M "P M M N"
_symmetry_group_IT_number 59
_space_group.IT_coordinate_system_code '2'
_symmetry_cell_setting 'orthorhombic'
loop_
_space_group_symop_operation_xyz
x,y,z
1/2-x,1/2-y,z
1/2+x,-y,-z
-x,1/2+y,-z
-x,-y,-z
1/2+x,1/2+y,-z
1/2-x,y,z
x,1/2-y,z
loop_
_atom_site_type_symbol
_atom_site_label
_atom_site_fract_x
_atom_site_fract_y
_atom_site_fract_z
Si Si1 0.354605 0.540385 0.610909
Si Si2 0.144017 0.463749 0.154011
Si Si3 0.856669 0.455341 0.583712
Si Si4 0.980251 0.952255 0.665530
Si Si5 0.855564 0.535702 0.744740
Si Si6 0.645464 0.460994 0.018758
Si Si7 0.467179 0.460151 0.069692
Si Si8 0.356474 0.458526 0.513043
O O1 0.250000 0.470223 0.613153
O O2 0.350035 0.750000 0.616147
O O3 0.424251 0.467952 0.647781
O O4 0.393764 0.509134 0.561272
O O5 0.250000 0.516279 0.144155
O O6 0.143142 0.250000 0.153441
O O7 0.122068 0.516728 0.204634
O O8 0.074232 0.526461 0.116083
O O9 0.750000 0.519471 0.583027
O O10 0.856021 0.250000 0.593946
O O11 0.913484 0.545226 0.622599
O O12 0.896077 0.476436 0.533674
O O13 0.999414 0.750000 0.677184
O O14 0.926231 0.029409 0.707484
O O15 0.750000 0.482030 0.734727
O O16 0.855568 0.750000 0.743622
O O17 0.750000 0.526767 0.024601
O O18 0.648277 0.250000 0.022523
O O19 0.567255 0.526519 0.053288
O O20 0.605130 0.502750 0.969969
O O21 0.474863 0.250000 0.073401
O O22 0.250000 0.525666 0.513802
O O23 0.355638 0.250000 0.510727
#
# Coordination Sequence:
#
# PCOD9447582 Si02
#       8
#     8   8   8   8   8   8   8   8
#     4   9  18  32  47  63  85 111 139 174 214 249
#     4   8  13  22  39  63  86 107 137 180 220 249
#     4  10  20  32  46  66  93 119 138 164 207 254
#     4  10  19  30  47  67  85 111 144 174 207 252
#     4   8  14  25  42  65  89 108 132 173 219 256
#     4   9  17  27  38  57  89 122 147 179 225 265
#     4   9  16  26  42  62  83 113 154 189 214 253
#     4   9  17  30  48  67  86 111 144 176 203 241
#
# _framework density 19.278936000000002
#
# number of rings (size 3 to 8) (size 9 to 14) (size 15 to 20)
#    0.000    3.000    0.000    2.250    0.000    4.500 
#    0.000    0.000    0.000    1.500    0.000    8.750 
#    0.000    0.000    0.000    6.375    0.000    8.250 
#
# Total GULP energy -356877.178277 kJ/mol
# GULP energy per Si atom -5576.205911 kJ/mol
# Density = 1.923506 g / cm^3
# Si number density = 19.278936 Si / 1000 Ang^3
#
#
#
# Elastic Constant Matrix: (Units=GPa)
#
#
# Indices 1 2 3 4 5 6 
#
# 1 136.7273 1.4327 87.9536 0.0000 0.0000 0.0000
# 2 1.4327 40.4586 -2.8379 0.0000 0.0000 0.0000
# 3 87.9536 -2.8379 136.9735 0.0000 0.0000 0.0000
# 4 0.0000 0.0000 0.0000 9.1447 0.0000 0.0000
# 5 0.0000 0.0000 0.0000 0.0000 33.9891 0.0000
# 6 0.0000 0.0000 0.0000 0.0000 0.0000 4.7021
#
#
#
# Elastic Compliance Matrix: (Units=1/GPa)
#
#
# Indices 1 2 3 4 5 6 
#
# 1 0.012502 -0.001007 -0.008049 0.000000 0.000000 0.000000
# 2 -0.001007 0.024834 0.001161 0.000000 0.000000 0.000000
# 3 -0.008049 0.001161 0.012493 0.000000 0.000000 0.000000
# 4 0.000000 0.000000 0.000000 0.109353 0.000000 0.000000
# 5 0.000000 0.000000 0.000000 0.000000 0.029421 0.000000
# 6 0.000000 0.000000 0.000000 0.000000 0.000000 0.212671
#
#
# Mechanical properties :
#
#
# Convention : Reuss Voigt Hill
#
# Bulk Modulus (GPa) = 29.37770 54.13958 41.75864
# Shear Modulus (GPa) = 11.67108 24.74124 18.20616
#
# Velocity S-wave (km/s) = 2.46312 3.58625 3.07637
# Velocity P-wave (km/s) = 4.83328 6.72989 5.85884
#
# Compressibility (1/GPa) = 0.03403942
#
# Stress axis : x y z
#
# Youngs Moduli (GPa) = 79.98814 40.26781 80.04542
#
# Poissons Ratio (x) = 0.04056 0.64425
# Poissons Ratio (y) = 0.08057 -0.09296
# Poissons Ratio (z) = 0.64379 -0.04676
#
# Static dielectric constant tensor:
#      x y z
#    x 1.717650 0.000000 0.000000 
#    y 0.000000 1.726840 0.000000 
#    z 0.000000 0.000000 1.659990 
# 
# From -- ./inp_files/33344.got.cif
#   From: 2010.05.17/outbox.cif.g08.bks.cpg/sg59_17_cif.got.tgz:33344.got - 2010.06.03 14:40:33.
