data_PCOD9447663
_publ_section_title
;
Structure prediction by ZEFSAII (Michael W. Deem and Ramdas Pophale) SiO2 
 PCOD9447663
Probable space group: P M M N
;
_chemical_formula_sum "Si O2"
_cell_formula_units_Z 64
_cell_length_a 15.121392
_cell_length_b 8.285631
_cell_length_c 28.933791
_cell_angle_alpha 90.000000
_cell_angle_beta 90.000000
_cell_angle_gamma 90.000000
_cell_volume 3625.122611
_symmetry_space_group_name_H-M "P M M N"
_symmetry_group_IT_number 59
_space_group.IT_coordinate_system_code '2'
_symmetry_cell_setting 'orthorhombic'
loop_
_space_group_symop_operation_xyz
x,y,z
1/2-x,1/2-y,z
1/2+x,-y,-z
-x,1/2+y,-z
-x,-y,-z
1/2+x,1/2+y,-z
1/2-x,y,z
x,1/2-y,z
loop_
_atom_site_type_symbol
_atom_site_label
_atom_site_fract_x
_atom_site_fract_y
_atom_site_fract_z
Si Si1 0.148556 0.553407 0.529920
Si Si2 0.027376 0.942355 0.613629
Si Si3 0.149754 0.944503 0.424836
Si Si4 0.096105 0.944312 0.983317
Si Si5 0.149727 0.055481 0.801525
Si Si6 0.654828 0.445301 0.918888
Si Si7 0.537290 0.057223 0.113291
Si Si8 0.850466 0.944756 0.303995
O O1 0.250000 0.507273 0.540689
O O2 0.146049 0.750000 0.529818
O O3 0.081614 0.493909 0.568846
O O4 0.128610 0.500338 0.477494
O O5 0.029027 0.750000 0.611624
O O6 0.078800 0.995915 0.659252
O O7 0.926732 0.998615 0.608996
O O8 0.250000 0.997827 0.413921
O O9 0.150228 0.750000 0.425365
O O10 0.103314 0.750000 0.981927
O O11 0.098216 0.001880 0.930236
O O12 0.153768 0.997957 0.026985
O O13 0.000000 0.000000 0.000000
O O14 0.250000 0.001173 0.813234
O O15 0.150252 0.250000 0.801401
O O16 0.130976 0.003015 0.748789
O O17 0.079607 0.999302 0.839082
O O18 0.750000 0.496121 0.898609
O O19 0.651668 0.250000 0.918120
O O20 0.564116 0.503540 0.895407
O O21 0.537849 0.250000 0.112108
O O22 0.750000 0.997977 0.315983
O O23 0.850494 0.750000 0.304459
#
# Coordination Sequence:
#
# PCOD9447663 Si02
#       8
#     8   8   8   8   8   8   8   8
#     4   8  15  28  45  68  99 132 164 197 234 279
#     4  11  20  29  48  76 103 129 157 197 248 293
#     4   9  18  33  50  66  92 134 176 206 232 272
#     4   8  15  27  42  63  92 125 160 196 233 274
#     4   9  19  36  55  73  95 125 160 197 237 285
#     4   9  17  30  48  68  95 135 175 204 232 274
#     4  10  19  30  48  74 102 129 158 199 248 292
#     4   9  19  36  55  74  97 125 158 195 235 286
#
# _framework density 17.654574
#
# number of rings (size 3 to 8) (size 9 to 14) (size 15 to 20)
#    0.000    2.875    0.000    3.000    0.000    3.000 
#    0.000    3.125    0.000    2.250    0.000    5.250 
#    0.000    0.000    0.000    0.000    0.000    0.000 
#
# Total GULP energy -356441.554100 kJ/mol
# GULP energy per Si atom -5569.399283 kJ/mol
# Density = 1.761439 g / cm^3
# Si number density = 17.654574 Si / 1000 Ang^3
#
#
#
# Elastic Constant Matrix: (Units=GPa)
#
#
# Indices 1 2 3 4 5 6 
#
# 1 136.9020 20.3789 94.4568 0.0000 0.0000 0.0000
# 2 20.3789 13.4184 19.4910 0.0000 0.0000 0.0000
# 3 94.4568 19.4910 113.1884 0.0000 0.0000 0.0000
# 4 0.0000 0.0000 0.0000 19.3277 0.0000 0.0000
# 5 0.0000 0.0000 0.0000 0.0000 29.3891 0.0000
# 6 0.0000 0.0000 0.0000 0.0000 0.0000 12.6078
#
#
#
# Elastic Compliance Matrix: (Units=1/GPa)
#
#
# Indices 1 2 3 4 5 6 
#
# 1 0.017732 -0.007249 -0.013549 0.000000 0.000000 0.000000
# 2 -0.007249 0.102347 -0.011575 0.000000 0.000000 0.000000
# 3 -0.013549 -0.011575 0.022135 0.000000 0.000000 0.000000
# 4 0.000000 0.000000 0.000000 0.051739 0.000000 0.000000
# 5 0.000000 0.000000 0.000000 0.000000 0.034026 0.000000
# 6 0.000000 0.000000 0.000000 0.000000 0.000000 0.079316
#
#
# Mechanical properties :
#
#
# Convention : Reuss Voigt Hill
#
# Bulk Modulus (GPa) = 12.90858 59.12915 36.01887
# Shear Modulus (GPa) = 12.56712 20.87707 16.72210
#
# Velocity S-wave (km/s) = 2.67092 3.44252 3.08097
# Velocity P-wave (km/s) = 4.10358 7.02611 5.75350
#
# Compressibility (1/GPa) = 0.07746784
#
# Stress axis : x y z
#
# Youngs Moduli (GPa) = 56.39524 9.77069 45.17741
#
# Poissons Ratio (x) = 0.07083 0.61212
# Poissons Ratio (y) = 0.40881 0.52292
# Poissons Ratio (z) = 0.76411 0.11309
#
# Static dielectric constant tensor:
#      x y z
#    x 1.612650 0.000000 0.000000 
#    y 0.000000 1.613880 0.000000 
#    z 0.000000 0.000000 1.607970 
# 
# From -- ./inp_files/32237.got.cif
#   From: 2010.05.17/outbox.cif.g08.bks.cpg/sg59_17_cif.got.tgz:32237.got - 2010.06.03 14:40:33.
