data_PCOD9447016
_publ_section_title
;
Structure prediction by ZEFSAII (Michael W. Deem and Ramdas Pophale) SiO2 
 PCOD9447016
Probable space group: P M M N
;
_chemical_formula_sum "Si O2"
_cell_formula_units_Z 64
_cell_length_a 8.730155
_cell_length_b 19.971740
_cell_length_c 20.835557
_cell_angle_alpha 90.000000
_cell_angle_beta 90.000000
_cell_angle_gamma 90.000000
_cell_volume 3632.812415
_symmetry_space_group_name_H-M "P M M N"
_symmetry_group_IT_number 59
_space_group.IT_coordinate_system_code '2'
_symmetry_cell_setting 'orthorhombic'
loop_
_space_group_symop_operation_xyz
x,y,z
1/2-x,1/2-y,z
1/2+x,-y,-z
-x,1/2+y,-z
-x,-y,-z
1/2+x,1/2+y,-z
1/2-x,y,z
x,1/2-y,z
loop_
_atom_site_type_symbol
_atom_site_label
_atom_site_fract_x
_atom_site_fract_y
_atom_site_fract_z
Si Si1 0.066329 0.674129 0.264895
Si Si2 0.563131 0.826812 0.902131
Si Si3 0.065442 0.425533 0.208886
Si Si4 0.933709 0.573149 0.015799
Si Si5 0.434959 0.929138 0.154026
Si Si6 0.932587 0.896137 0.384891
Si Si7 0.065860 0.548271 0.653060
Si Si8 0.433484 0.926142 0.513945
O O1 0.250000 0.668215 0.272806
O O2 0.030698 0.750000 0.245864
O O3 0.019693 0.621619 0.210321
O O4 0.988260 0.655276 0.331651
O O5 0.750000 0.826076 0.902214
O O6 0.511059 0.750000 0.905887
O O7 0.515295 0.864852 0.836995
O O8 0.516371 0.872552 0.962632
O O9 0.250000 0.425052 0.211665
O O10 0.020394 0.495682 0.175064
O O11 0.003522 0.425375 0.281064
O O12 0.750000 0.569547 0.013817
O O13 0.000000 0.500000 0.000000
O O14 0.990610 0.590357 0.086831
O O15 0.250000 0.927885 0.147438
O O16 0.750000 0.896964 0.390313
O O17 0.002670 0.883257 0.455109
O O18 0.981003 0.970600 0.359736
O O19 0.250000 0.548897 0.658327
O O20 0.023346 0.588214 0.587882
O O21 0.250000 0.928455 0.510619
O O22 0.500000 0.000000 0.500000
#
# Coordination Sequence:
#
# PCOD9447016 Si02
#       8
#     8   8   8   8   8   8   8   8
#     4  10  21  36  53  73 104 146 181 217 272 332
#     4   9  19  36  55  77 105 136 174 215 258 312
#     4  10  18  31  54  78 101 136 174 214 262 309
#     4  11  21  35  57  82 107 140 176 217 264 314
#     4  10  20  35  53  79 107 134 177 222 262 317
#     4  10  19  31  49  74 104 138 178 225 269 313
#     4   9  18  30  47  76 107 134 169 216 266 310
#     4   9  17  29  46  72 105 137 171 216 268 319
#
# _framework density 17.617204999999998
#
# number of rings (size 3 to 8) (size 9 to 14) (size 15 to 20)
#    0.000    2.250    2.500    1.875    0.000    4.250 
#    0.000    0.000    0.000    3.750    0.000    3.500 
#    0.000    0.000    0.000    0.000    0.000    0.000 
#
# Total GULP energy -356903.186847 kJ/mol
# GULP energy per Si atom -5576.612294 kJ/mol
# Density = 1.757711 g / cm^3
# Si number density = 17.617205 Si / 1000 Ang^3
#
#
#
# Elastic Constant Matrix: (Units=GPa)
#
#
# Indices 1 2 3 4 5 6 
#
# 1 18.4057 23.9060 33.7550 0.0000 0.0000 0.0000
# 2 23.9060 102.5003 63.6426 0.0000 0.0000 0.0000
# 3 33.7550 63.6426 167.9028 0.0000 0.0000 0.0000
# 4 0.0000 0.0000 0.0000 21.6776 0.0000 0.0000
# 5 0.0000 0.0000 0.0000 0.0000 36.1117 0.0000
# 6 0.0000 0.0000 0.0000 0.0000 0.0000 13.9950
#
#
#
# Elastic Compliance Matrix: (Units=1/GPa)
#
#
# Indices 1 2 3 4 5 6 
#
# 1 0.099558 -0.014114 -0.014665 0.000000 0.000000 0.000000
# 2 -0.014114 0.014760 -0.002757 0.000000 0.000000 0.000000
# 3 -0.014665 -0.002757 0.009949 0.000000 0.000000 0.000000
# 4 0.000000 0.000000 0.000000 0.046130 0.000000 0.000000
# 5 0.000000 0.000000 0.000000 0.000000 0.027692 0.000000
# 6 0.000000 0.000000 0.000000 0.000000 0.000000 0.071454
#
#
# Mechanical properties :
#
#
# Convention : Reuss Voigt Hill
#
# Bulk Modulus (GPa) = 16.34144 59.04624 37.69384
# Shear Modulus (GPa) = 14.16373 25.52388 19.84380
#
# Velocity S-wave (km/s) = 2.83851 3.81045 3.35981
# Velocity P-wave (km/s) = 4.47648 7.27656 6.04099
#
# Compressibility (1/GPa) = 0.06119410
#
# Stress axis : x y z
#
# Youngs Moduli (GPa) = 10.04439 67.75155 100.51106
#
# Poissons Ratio (x) = 0.95626 1.47401
# Poissons Ratio (y) = 0.14177 0.27712
# Poissons Ratio (z) = 0.14730 0.18680
#
# Static dielectric constant tensor:
#      x y z
#    x 1.594990 0.000000 0.000000 
#    y 0.000000 1.615010 0.000000 
#    z 0.000000 0.000000 1.641520 
# 
# From -- ./inp_files/29671.got.cif
#   From: 2010.05.17/outbox.cif.g08.bks.cpg/sg59_15_cif.got.tgz:29671.got - 2010.06.03 14:40:33.
