data_PCOD9447082
_publ_section_title
;
Structure prediction by ZEFSAII (Michael W. Deem and Ramdas Pophale) SiO2 
 PCOD9447082
Probable space group: P M M N
;
_chemical_formula_sum "Si O2"
_cell_formula_units_Z 64
_cell_length_a 19.779734
_cell_length_b 7.355338
_cell_length_c 19.725731
_cell_angle_alpha 90.000000
_cell_angle_beta 90.000000
_cell_angle_gamma 90.000000
_cell_volume 2869.830110
_symmetry_space_group_name_H-M "P M M N"
_symmetry_group_IT_number 59
_space_group.IT_coordinate_system_code '2'
_symmetry_cell_setting 'orthorhombic'
loop_
_space_group_symop_operation_xyz
x,y,z
1/2-x,1/2-y,z
1/2+x,-y,-z
-x,1/2+y,-z
-x,-y,-z
1/2+x,1/2+y,-z
1/2-x,y,z
x,1/2-y,z
loop_
_atom_site_type_symbol
_atom_site_label
_atom_site_fract_x
_atom_site_fract_y
_atom_site_fract_z
Si Si1 0.397549 0.030672 0.410496
Si Si2 0.913279 0.528518 0.859753
Si Si3 0.957041 0.026985 0.372603
Si Si4 0.040475 0.538994 0.781132
Si Si5 0.825985 0.969244 0.140116
Si Si6 0.172738 0.471396 0.014501
Si Si7 0.672630 0.528764 0.728657
Si Si8 0.674400 0.037918 0.449808
O O1 0.397018 0.250000 0.410771
O O2 0.475777 0.971791 0.413475
O O3 0.366648 0.970581 0.338715
O O4 0.351733 0.971996 0.473044
O O5 0.913498 0.750000 0.864294
O O6 0.864788 0.475865 0.797460
O O7 0.987598 0.465858 0.836606
O O8 0.881345 0.465229 0.930363
O O9 0.955836 0.250000 0.373270
O O10 0.964515 0.964835 0.294802
O O11 0.886898 0.961931 0.404791
O O12 0.021354 0.750000 0.773287
O O13 0.115871 0.528124 0.809276
O O14 0.750000 0.029103 0.158015
O O15 0.825785 0.750000 0.139932
O O16 0.840583 0.028849 0.062811
O O17 0.250000 0.523930 0.032453
O O18 0.172118 0.250000 0.014428
O O19 0.750000 0.469110 0.727329
O O20 0.672418 0.750000 0.728050
O O21 0.750000 0.960287 0.442913
O O22 0.679257 0.250000 0.431505
#
# Coordination Sequence:
#
# PCOD9447082 Si02
#       8
#     8   8   8   8   8   8   8   8
#     4  10  18  32  53  76 100 127 160 202 249 292
#     4   9  15  25  43  70 101 128 159 201 241 286
#     4   9  18  34  53  72 100 134 164 199 245 296
#     4  10  19  32  52  77 101 126 162 206 248 291
#     4   9  19  35  51  69  97 132 168 206 247 290
#     4   8  14  26  45  68  97 134 169 199 239 293
#     4   9  15  23  41  70 100 128 157 193 240 286
#     4  10  21  35  50  70  97 131 169 204 242 293
#
# _framework density 22.300972000000002
#
# number of rings (size 3 to 8) (size 9 to 14) (size 15 to 20)
#    0.000    2.750    1.250    1.875    0.000    3.500 
#    0.000    2.500    0.000    0.000    0.000    0.000 
#    0.000    3.000    0.000    0.000    0.000    0.000 
#
# Total GULP energy -357442.564111 kJ/mol
# GULP energy per Si atom -5585.040064 kJ/mol
# Density = 2.225021 g / cm^3
# Si number density = 22.300972 Si / 1000 Ang^3
#
#
#
# Elastic Constant Matrix: (Units=GPa)
#
#
# Indices 1 2 3 4 5 6 
#
# 1 133.0278 -4.5808 7.5876 0.0000 0.0000 0.0000
# 2 -4.5808 79.4120 -10.4104 0.0000 0.0000 0.0000
# 3 7.5876 -10.4104 14.9955 0.0000 0.0000 0.0000
# 4 0.0000 0.0000 0.0000 84.9703 0.0000 0.0000
# 5 0.0000 0.0000 0.0000 0.0000 25.7743 0.0000
# 6 0.0000 0.0000 0.0000 0.0000 0.0000 0.7981
#
#
#
# Elastic Compliance Matrix: (Units=1/GPa)
#
#
# Indices 1 2 3 4 5 6 
#
# 1 0.007741 -0.000074 -0.003968 0.000000 0.000000 0.000000
# 2 -0.000074 0.013854 0.009655 0.000000 0.000000 0.000000
# 3 -0.003968 0.009655 0.075397 0.000000 0.000000 0.000000
# 4 0.000000 0.000000 0.000000 0.011769 0.000000 0.000000
# 5 0.000000 0.000000 0.000000 0.000000 0.038798 0.000000
# 6 0.000000 0.000000 0.000000 0.000000 0.000000 1.252902
#
#
# Mechanical properties :
#
#
# Convention : Reuss Voigt Hill
#
# Bulk Modulus (GPa) = 9.24048 23.62533 16.43290
# Shear Modulus (GPa) = 3.50802 37.96447 20.73624
#
# Velocity S-wave (km/s) = 1.25557 4.13045 3.05263
# Velocity P-wave (km/s) = 2.50089 5.77619 4.45078
#
# Compressibility (1/GPa) = 0.10821953
#
# Stress axis : x y z
#
# Youngs Moduli (GPa) = 129.18200 72.18106 13.26307
#
# Poissons Ratio (x) = 0.00532 0.05263
# Poissons Ratio (y) = 0.00951 -0.12806
# Poissons Ratio (z) = 0.51260 -0.69692
#
# Static dielectric constant tensor:
#      x y z
#    x 1.800760 0.000000 0.000000 
#    y 0.000000 1.894580 0.000000 
#    z 0.000000 0.000000 1.770470 
# 
# From -- ./inp_files/27990.got.cif
#   From: 2010.05.17/outbox.cif.g08.bks.cpg/sg59_14_cif.got.tgz:27990.got - 2010.06.03 14:40:33.
