data_PCOD9447729
_publ_section_title
;
Structure prediction by ZEFSAII (Michael W. Deem and Ramdas Pophale) SiO2 
 PCOD9447729
Probable space group: P M M N
;
_chemical_formula_sum "Si O2"
_cell_formula_units_Z 64
_cell_length_a 31.567176
_cell_length_b 8.668775
_cell_length_c 14.802740
_cell_angle_alpha 90.000000
_cell_angle_beta 90.000000
_cell_angle_gamma 90.000000
_cell_volume 4050.751240
_symmetry_space_group_name_H-M "P M M N"
_symmetry_group_IT_number 59
_space_group.IT_coordinate_system_code '2'
_symmetry_cell_setting 'orthorhombic'
loop_
_space_group_symop_operation_xyz
x,y,z
1/2-x,1/2-y,z
1/2+x,-y,-z
-x,1/2+y,-z
-x,-y,-z
1/2+x,1/2+y,-z
1/2-x,y,z
x,1/2-y,z
loop_
_atom_site_type_symbol
_atom_site_label
_atom_site_fract_x
_atom_site_fract_y
_atom_site_fract_z
Si Si1 0.202099 0.438530 0.847812
Si Si2 0.798318 0.564168 0.362191
Si Si3 0.424365 0.427428 0.737765
Si Si4 0.041541 0.063570 0.051173
Si Si5 0.517011 0.935015 0.747786
Si Si6 0.381866 0.930128 0.567336
Si Si7 0.381380 0.068647 0.933721
Si Si8 0.957652 0.933768 0.548090
O O1 0.250000 0.484642 0.871096
O O2 0.200684 0.250000 0.848391
O O3 0.193945 0.482440 0.742958
O O4 0.165494 0.496063 0.914840
O O5 0.750000 0.518686 0.384828
O O6 0.800455 0.750000 0.364037
O O7 0.834735 0.498902 0.426091
O O8 0.419573 0.250000 0.706852
O O9 0.472987 0.474462 0.744839
O O10 0.401976 0.535651 0.665547
O O11 0.403776 0.439194 0.836056
O O12 0.040522 0.250000 0.041122
O O13 0.039348 0.027596 0.157488
O O14 0.084747 0.003960 0.004696
O O15 0.000000 0.000000 0.000000
O O16 0.508522 0.750000 0.747890
O O17 0.540951 0.971176 0.654720
O O18 0.379808 0.750000 0.549836
O O19 0.415098 0.005325 0.498340
O O20 0.375982 0.250000 0.956936
O O21 0.959414 0.750000 0.538028
O O22 0.000000 0.000000 0.500000
#
# Coordination Sequence:
#
# PCOD9447729 Si02
#       8
#     8   8   8   8   8   8   8   8
#     4   8  13  23  42  68  94 119 151 188 223 269
#     4   9  17  31  51  73  98 129 163 198 238 288
#     4  11  19  29  48  69  94 128 164 199 235 283
#     4  10  19  31  46  68  95 124 157 194 234 284
#     4  10  21  34  47  66  95 125 161 205 247 284
#     4  12  23  33  47  71 101 133 165 202 245 292
#     4   9  16  26  43  68  94 124 158 188 229 276
#     4  11  22  35  50  69  93 127 168 209 251 293
#
# _framework density 15.799538999999999
#
# number of rings (size 3 to 8) (size 9 to 14) (size 15 to 20)
#    0.000    2.000    3.750    2.625    0.000    0.750 
#    0.000    0.000    0.000    0.000    0.000    0.875 
#    0.000    5.000    0.000    0.000    0.000    0.000 
#
# Total GULP energy -356779.013991 kJ/mol
# GULP energy per Si atom -5574.672094 kJ/mol
# Density = 1.576358 g / cm^3
# Si number density = 15.799539 Si / 1000 Ang^3
#
#
#
# Elastic Constant Matrix: (Units=GPa)
#
#
# Indices 1 2 3 4 5 6 
#
# 1 151.6183 30.8161 61.4661 0.0000 0.0000 0.0000
# 2 30.8161 24.0591 24.8201 0.0000 0.0000 0.0000
# 3 61.4661 24.8201 85.0643 0.0000 0.0000 0.0000
# 4 0.0000 0.0000 0.0000 11.2927 0.0000 0.0000
# 5 0.0000 0.0000 0.0000 0.0000 20.0435 0.0000
# 6 0.0000 0.0000 0.0000 0.0000 0.0000 20.4990
#
#
#
# Elastic Compliance Matrix: (Units=1/GPa)
#
#
# Indices 1 2 3 4 5 6 
#
# 1 0.010274 -0.007869 -0.005127 0.000000 0.000000 0.000000
# 2 -0.007869 0.065491 -0.013423 0.000000 0.000000 0.000000
# 3 -0.005127 -0.013423 0.019377 0.000000 0.000000 0.000000
# 4 0.000000 0.000000 0.000000 0.088553 0.000000 0.000000
# 5 0.000000 0.000000 0.000000 0.000000 0.049891 0.000000
# 6 0.000000 0.000000 0.000000 0.000000 0.000000 0.048783
#
#
# Mechanical properties :
#
#
# Convention : Reuss Voigt Hill
#
# Bulk Modulus (GPa) = 23.63903 54.99404 39.31653
# Shear Modulus (GPa) = 14.31399 19.94301 17.12850
#
# Velocity S-wave (km/s) = 3.01321 3.55667 3.29616
# Velocity P-wave (km/s) = 5.20579 7.19371 6.27892
#
# Compressibility (1/GPa) = 0.04230292
#
# Stress axis : x y z
#
# Youngs Moduli (GPa) = 97.33688 15.26929 51.60689
#
# Poissons Ratio (x) = 0.12016 0.26461
# Poissons Ratio (y) = 0.76598 0.69270
# Poissons Ratio (z) = 0.49909 0.20495
#
# Static dielectric constant tensor:
#      x y z
#    x 1.549480 0.000000 0.000000 
#    y 0.000000 1.540990 0.000000 
#    z 0.000000 0.000000 1.521950 
# 
# From -- ./inp_files/25027.got.cif
#   From: 2010.05.17/outbox.cif.g08.bks.cpg/sg59_13_cif.got.tgz:25027.got - 2010.06.03 14:40:33.
