data_PCOD9447245
_publ_section_title
;
Structure prediction by ZEFSAII (Michael W. Deem and Ramdas Pophale) SiO2 
 PCOD9447245
Probable space group: P M M N
;
_chemical_formula_sum "Si O2"
_cell_formula_units_Z 48
_cell_length_a 10.201345
_cell_length_b 7.763754
_cell_length_c 29.613122
_cell_angle_alpha 90.000000
_cell_angle_beta 90.000000
_cell_angle_gamma 90.000000
_cell_volume 2345.380970
_symmetry_space_group_name_H-M "P M M N"
_symmetry_group_IT_number 59
_space_group.IT_coordinate_system_code '2'
_symmetry_cell_setting 'orthorhombic'
loop_
_space_group_symop_operation_xyz
x,y,z
1/2-x,1/2-y,z
1/2+x,-y,-z
-x,1/2+y,-z
-x,-y,-z
1/2+x,1/2+y,-z
1/2-x,y,z
x,1/2-y,z
loop_
_atom_site_type_symbol
_atom_site_label
_atom_site_fract_x
_atom_site_fract_y
_atom_site_fract_z
Si Si1 0.598091 0.957689 0.541183
Si Si2 0.250000 0.042060 0.036912
Si Si3 0.395839 0.042849 0.204631
Si Si4 0.898543 0.045993 0.383915
Si Si5 0.603541 0.544946 0.281068
Si Si6 0.523684 0.538657 0.895286
Si Si7 0.750000 0.454837 0.067898
O O1 0.750000 0.020778 0.537032
O O2 0.607559 0.750000 0.543723
O O3 0.516366 0.022095 0.584970
O O4 0.500000 0.000000 0.500000
O O5 0.250000 0.250000 0.035843
O O6 0.375118 0.985243 0.065948
O O7 0.250000 0.981732 0.985679
O O8 0.250000 0.979498 0.215885
O O9 0.390722 0.250000 0.201930
O O10 0.435336 0.981358 0.154611
O O11 0.500077 0.999615 0.242821
O O12 0.750000 0.975310 0.392551
O O13 0.890922 0.250000 0.393089
O O14 0.927958 0.023027 0.331022
O O15 0.750000 0.481022 0.269114
O O16 0.608395 0.750000 0.284823
O O17 0.525265 0.750000 0.894935
O O18 0.380846 0.476356 0.909236
O O19 0.750000 0.250000 0.075704
#
# Coordination Sequence:
#
# PCOD9447245 Si02
#       7
#     8   4   8   8   8   8   4
#     4  10  21  36  56  84 117 152 191 235 280 325
#     4  10  18  34  54  72 102 136 168 208 259 314
#     4  10  20  36  58  81 104 138 184 228 270 321
#     4   9  18  35  57  80 109 148 192 233 272 322
#     4  10  22  38  56  82 115 146 177 222 279 335
#     4   9  18  33  53  76 101 132 172 216 259 310
#     4  10  20  32  50  78 104 130 170 214 255 310
#
# _framework density 20.465758999999998
#
# number of rings (size 3 to 8) (size 9 to 14) (size 15 to 20)
#    0.000    2.333    0.833    1.500    1.167    3.667 
#    0.000    5.000    0.000    0.000    0.000    0.000 
#    0.000    0.000    0.000    0.000    0.000    0.000 
#
# Total GULP energy -267892.342748 kJ/mol
# GULP energy per Si atom -5581.090474 kJ/mol
# Density = 2.041918 g / cm^3
# Si number density = 20.465759 Si / 1000 Ang^3
#
#
#
# Elastic Constant Matrix: (Units=GPa)
#
#
# Indices 1 2 3 4 5 6 
#
# 1 185.2030 6.3806 93.6456 0.0000 0.0000 0.0000
# 2 6.3806 27.0685 -5.8441 0.0000 0.0000 0.0000
# 3 93.6456 -5.8441 114.1854 0.0000 0.0000 0.0000
# 4 0.0000 0.0000 0.0000 21.5214 0.0000 0.0000
# 5 0.0000 0.0000 0.0000 0.0000 45.5212 0.0000
# 6 0.0000 0.0000 0.0000 0.0000 0.0000 9.7392
#
#
#
# Elastic Compliance Matrix: (Units=1/GPa)
#
#
# Indices 1 2 3 4 5 6 
#
# 1 0.009640 -0.004024 -0.008112 0.000000 0.000000 0.000000
# 2 -0.004024 0.039036 0.005298 0.000000 0.000000 0.000000
# 3 -0.008112 0.005298 0.015681 0.000000 0.000000 0.000000
# 4 0.000000 0.000000 0.000000 0.046465 0.000000 0.000000
# 5 0.000000 0.000000 0.000000 0.000000 0.021968 0.000000
# 6 0.000000 0.000000 0.000000 0.000000 0.000000 0.102678
#
#
# Mechanical properties :
#
#
# Convention : Reuss Voigt Hill
#
# Bulk Modulus (GPa) = 19.73107 57.20236 38.46671
# Shear Modulus (GPa) = 18.79440 30.84133 24.81786
#
# Velocity S-wave (km/s) = 3.03369 3.88619 3.48609
# Velocity P-wave (km/s) = 4.68327 6.93884 5.91948
#
# Compressibility (1/GPa) = 0.05068149
#
# Stress axis : x y z
#
# Youngs Moduli (GPa) = 103.73865 25.61770 63.77034
#
# Poissons Ratio (x) = 0.10307 0.51728
# Poissons Ratio (y) = 0.41740 -0.33783
# Poissons Ratio (z) = 0.84148 -0.13571
#
# Static dielectric constant tensor:
#      x y z
#    x 1.760530 0.000000 0.000000 
#    y 0.000000 1.758990 0.000000 
#    z 0.000000 0.000000 1.683930 
# 
# From -- ./inp_files/33049.got.cif
#   From: 2010.05.17/outbox.cif.g08.bks.cpg/sg59_17_cif.got.tgz:33049.got - 2010.06.03 14:40:33.
