data_PCOD9447819
_publ_section_title
;
Structure prediction by ZEFSAII (Michael W. Deem and Ramdas Pophale) SiO2 
 PCOD9447819
Probable space group: P M M N
;
_chemical_formula_sum "Si O2"
_cell_formula_units_Z 64
_cell_length_a 23.510265
_cell_length_b 9.003111
_cell_length_c 15.280427
_cell_angle_alpha 90.000000
_cell_angle_beta 90.000000
_cell_angle_gamma 90.000000
_cell_volume 3234.339610
_symmetry_space_group_name_H-M "P M M N"
_symmetry_group_IT_number 59
_space_group.IT_coordinate_system_code '2'
_symmetry_cell_setting 'orthorhombic'
loop_
_space_group_symop_operation_xyz
x,y,z
1/2-x,1/2-y,z
1/2+x,-y,-z
-x,1/2+y,-z
-x,-y,-z
1/2+x,1/2+y,-z
1/2-x,y,z
x,1/2-y,z
loop_
_atom_site_type_symbol
_atom_site_label
_atom_site_fract_x
_atom_site_fract_y
_atom_site_fract_z
Si Si1 0.315974 0.069196 0.363102
Si Si2 0.414976 0.085378 0.801840
Si Si3 0.026819 0.584686 0.082054
Si Si4 0.894198 0.577540 0.475600
Si Si5 0.187221 0.920535 0.852555
Si Si6 0.523413 0.425506 0.350740
Si Si7 0.314347 0.913720 0.641573
Si Si8 0.586530 0.571155 0.762658
O O1 0.250000 0.018308 0.367349
O O2 0.314170 0.250000 0.369397
O O3 0.358487 0.018772 0.441059
O O4 0.351478 0.032362 0.275499
O O5 0.400231 0.250000 0.767197
O O6 0.472742 0.098476 0.854732
O O7 0.366051 0.026382 0.866590
O O8 0.431649 0.969713 0.725680
O O9 0.046903 0.750000 0.057207
O O10 0.072002 0.500078 0.143593
O O11 0.000000 0.500000 0.000000
O O12 0.906758 0.750000 0.490358
O O13 0.950734 0.500081 0.437718
O O14 0.848528 0.548036 0.399126
O O15 0.250000 0.966940 0.883825
O O16 0.177210 0.750000 0.879891
O O17 0.189402 0.920550 0.746282
O O18 0.521101 0.250000 0.362855
O O19 0.462217 0.472543 0.309900
O O20 0.250000 0.918883 0.607914
O O21 0.338754 0.750000 0.618041
O O22 0.582295 0.750000 0.770189
#
# Coordination Sequence:
#
# PCOD9447819 Si02
#       8
#     8   8   8   8   8   8   8   8
#     4   9  19  36  56  79 108 144 190 241 285 324
#     4  10  19  31  49  76 106 136 173 217 261 311
#     4  10  21  37  60  90 117 137 165 210 266 329
#     4  11  20  29  46  73 104 140 187 236 278 319
#     4   9  17  28  43  65  96 137 178 212 253 307
#     4  10  19  31  48  72 104 143 183 224 276 331
#     4   9  17  28  41  60  91 132 178 224 266 309
#     4   9  19  37  60  82 108 145 185 225 278 339
#
# _framework density 19.787655000000001
#
# number of rings (size 3 to 8) (size 9 to 14) (size 15 to 20)
#    0.000    2.375    1.250    2.625    0.000    3.500 
#    0.000    2.500    0.000    2.625    0.000    1.750 
#    0.000    0.000    0.000    0.000    0.000    0.000 
#
# Total GULP energy -356336.218037 kJ/mol
# GULP energy per Si atom -5567.753407 kJ/mol
# Density = 1.974262 g / cm^3
# Si number density = 19.787655 Si / 1000 Ang^3
#
#
#
# Elastic Constant Matrix: (Units=GPa)
#
#
# Indices 1 2 3 4 5 6 
#
# 1 58.2152 17.5609 20.4133 0.0000 0.0000 0.0000
# 2 17.5609 51.6150 23.6731 0.0000 0.0000 0.0000
# 3 20.4133 23.6731 74.6344 0.0000 0.0000 0.0000
# 4 0.0000 0.0000 0.0000 10.9498 0.0000 0.0000
# 5 0.0000 0.0000 0.0000 0.0000 7.4280 0.0000
# 6 0.0000 0.0000 0.0000 0.0000 0.0000 20.5350
#
#
#
# Elastic Compliance Matrix: (Units=1/GPa)
#
#
# Indices 1 2 3 4 5 6 
#
# 1 0.020062 -0.005043 -0.003888 0.000000 0.000000 0.000000
# 2 -0.005043 0.023940 -0.006214 0.000000 0.000000 0.000000
# 3 -0.003888 -0.006214 0.016433 0.000000 0.000000 0.000000
# 4 0.000000 0.000000 0.000000 0.091325 0.000000 0.000000
# 5 0.000000 0.000000 0.000000 0.000000 0.134626 0.000000
# 6 0.000000 0.000000 0.000000 0.000000 0.000000 0.048697
#
#
# Mechanical properties :
#
#
# Convention : Reuss Voigt Hill
#
# Bulk Modulus (GPa) = 33.17196 34.19546 33.68371
# Shear Modulus (GPa) = 13.31834 15.97038 14.64436
#
# Velocity S-wave (km/s) = 2.59716 2.84401 2.72338
# Velocity P-wave (km/s) = 5.07878 5.30125 5.19121
#
# Compressibility (1/GPa) = 0.03014594
#
# Stress axis : x y z
#
# Youngs Moduli (GPa) = 49.84547 41.77105 60.85289
#
# Poissons Ratio (x) = 0.21063 0.23658
# Poissons Ratio (y) = 0.25135 0.37816
# Poissons Ratio (z) = 0.19379 0.25958
#
# Static dielectric constant tensor:
#      x y z
#    x 1.764740 0.000000 0.000000 
#    y 0.000000 1.748470 0.000000 
#    z 0.000000 0.000000 1.733860 
# 
# From -- ./inp_files/24695.got.cif
#   From: 2010.05.17/outbox.cif.g08.bks.cpg/sg59_13_cif.got.tgz:24695.got - 2010.06.03 14:40:33.
