data_PCOD9447732
_publ_section_title
;
Structure prediction by ZEFSAII (Michael W. Deem and Ramdas Pophale) SiO2 
 PCOD9447732
Probable space group: P M M N
;
_chemical_formula_sum "Si O2"
_cell_formula_units_Z 64
_cell_length_a 24.850272
_cell_length_b 9.342875
_cell_length_c 18.894145
_cell_angle_alpha 90.000000
_cell_angle_beta 90.000000
_cell_angle_gamma 90.000000
_cell_volume 4386.710044
_symmetry_space_group_name_H-M "P M M N"
_symmetry_group_IT_number 59
_space_group.IT_coordinate_system_code '2'
_symmetry_cell_setting 'orthorhombic'
loop_
_space_group_symop_operation_xyz
x,y,z
1/2-x,1/2-y,z
1/2+x,-y,-z
-x,1/2+y,-z
-x,-y,-z
1/2+x,1/2+y,-z
1/2-x,y,z
x,1/2-y,z
loop_
_atom_site_type_symbol
_atom_site_label
_atom_site_fract_x
_atom_site_fract_y
_atom_site_fract_z
Si Si1 0.993032 0.082777 0.727521
Si Si2 0.079167 0.585442 0.535227
Si Si3 0.491208 0.579197 0.107177
Si Si4 0.956442 0.914710 0.596300
Si Si5 0.686305 0.585016 0.202669
Si Si6 0.386133 0.417380 0.666696
Si Si7 0.186943 0.579174 0.942540
Si Si8 0.086616 0.079429 0.999586
O O1 0.977861 0.250000 0.720753
O O2 0.990305 0.042601 0.809921
O O3 0.054821 0.070887 0.701876
O O4 0.958846 0.988896 0.672792
O O5 0.094221 0.750000 0.525195
O O6 0.077727 0.501273 0.461433
O O7 0.114020 0.508707 0.595456
O O8 0.017803 0.582617 0.565783
O O9 0.480555 0.750000 0.099930
O O10 0.447775 0.489017 0.063260
O O11 0.549263 0.554180 0.070244
O O12 0.939780 0.750000 0.600654
O O13 0.750000 0.587221 0.215448
O O14 0.669079 0.750000 0.186140
O O15 0.655672 0.538398 0.273053
O O16 0.676705 0.483604 0.135963
O O17 0.377320 0.250000 0.649831
O O18 0.250000 0.549177 0.959426
O O19 0.179242 0.750000 0.944481
O O20 0.143603 0.498747 0.990958
O O21 0.092918 0.250000 0.007813
#
# Coordination Sequence:
#
# PCOD9447732 Si02
#       8
#     8   8   8   8   8   8   8   8
#     4   9  16  26  40  57  80 110 140 169 204 247
#     4   9  16  25  37  54  76 104 136 165 197 236
#     4   9  18  31  45  63  88 117 146 177 216 260
#     4   9  16  25  37  54  77 103 132 167 201 233
#     4   9  17  29  44  61  82 109 141 176 212 249
#     4   9  16  26  40  58  81 109 140 172 205 242
#     4  10  20  32  46  64  86 113 145 182 222 260
#     4  10  19  31  47  65  86 114 147 181 217 258
#
# _framework density 14.589521
#
# number of rings (size 3 to 8) (size 9 to 14) (size 15 to 20)
#    0.000    2.750    0.000    2.250    0.000    7.250 
#    0.000    2.500    0.000    0.000    0.000    0.000 
#    0.000    1.000    0.000    6.500    0.000    3.875 
#
# Total GULP energy -356568.739822 kJ/mol
# GULP energy per Si atom -5571.386560 kJ/mol
# Density = 1.455631 g / cm^3
# Si number density = 14.589521 Si / 1000 Ang^3
#
#
#
# Elastic Constant Matrix: (Units=GPa)
#
#
# Indices 1 2 3 4 5 6 
#
# 1 41.6752 35.9058 23.6508 0.0000 0.0000 0.0000
# 2 35.9058 82.2280 58.1085 0.0000 0.0000 0.0000
# 3 23.6508 58.1085 97.5653 0.0000 0.0000 0.0000
# 4 0.0000 0.0000 0.0000 26.7015 0.0000 0.0000
# 5 0.0000 0.0000 0.0000 0.0000 23.8776 0.0000
# 6 0.0000 0.0000 0.0000 0.0000 0.0000 17.1658
#
#
#
# Elastic Compliance Matrix: (Units=1/GPa)
#
#
# Indices 1 2 3 4 5 6 
#
# 1 0.038545 -0.017662 0.001175 0.000000 0.000000 0.000000
# 2 -0.017662 0.029093 -0.013046 0.000000 0.000000 0.000000
# 3 0.001175 -0.013046 0.017734 0.000000 0.000000 0.000000
# 4 0.000000 0.000000 0.000000 0.037451 0.000000 0.000000
# 5 0.000000 0.000000 0.000000 0.000000 0.041880 0.000000
# 6 0.000000 0.000000 0.000000 0.000000 0.000000 0.058255
#
#
# Mechanical properties :
#
#
# Convention : Reuss Voigt Hill
#
# Bulk Modulus (GPa) = 38.01161 50.75540 44.38350
# Shear Modulus (GPa) = 17.19445 20.46922 18.83184
#
# Velocity S-wave (km/s) = 3.43672 3.74974 3.59664
# Velocity P-wave (km/s) = 6.46983 7.32201 6.90907
#
# Compressibility (1/GPa) = 0.02630775
#
# Stress axis : x y z
#
# Youngs Moduli (GPa) = 25.94395 34.37303 56.38732
#
# Poissons Ratio (x) = 0.60708 -0.06628
# Poissons Ratio (y) = 0.45821 0.73562
# Poissons Ratio (z) = -0.03049 0.44842
#
# Static dielectric constant tensor:
#      x y z
#    x 1.467290 0.000000 0.000000 
#    y 0.000000 1.490360 0.000000 
#    z 0.000000 0.000000 1.469840 
# 
# From -- ./inp_files/26552.got.cif
#   From: 2010.05.17/outbox.cif.g08.bks.cpg/sg59_14_cif.got.tgz:26552.got - 2010.06.03 14:40:33.
