data_PCOD9447523
_publ_section_title
;
Structure prediction by ZEFSAII (Michael W. Deem and Ramdas Pophale) SiO2 
 PCOD9447523
Probable space group: P M M N
;
_chemical_formula_sum "Si O2"
_cell_formula_units_Z 48
_cell_length_a 7.754804
_cell_length_b 13.958203
_cell_length_c 18.307607
_cell_angle_alpha 90.000000
_cell_angle_beta 90.000000
_cell_angle_gamma 90.000000
_cell_volume 1981.672656
_symmetry_space_group_name_H-M "P M M N"
_symmetry_group_IT_number 59
_space_group.IT_coordinate_system_code '2'
_symmetry_cell_setting 'orthorhombic'
loop_
_space_group_symop_operation_xyz
x,y,z
1/2-x,1/2-y,z
1/2+x,-y,-z
-x,1/2+y,-z
-x,-y,-z
1/2+x,1/2+y,-z
1/2-x,y,z
x,1/2-y,z
loop_
_atom_site_type_symbol
_atom_site_label
_atom_site_fract_x
_atom_site_fract_y
_atom_site_fract_z
Si Si1 0.458570 0.149300 0.724001
Si Si2 0.549588 0.144834 0.941931
Si Si3 0.054062 0.388651 0.406529
Si Si4 0.540120 0.604807 0.439030
Si Si5 0.546828 0.434594 0.248286
Si Si6 0.952067 0.934551 0.906918
O O1 0.250000 0.146906 0.733696
O O2 0.522522 0.250000 0.757423
O O3 0.491775 0.154944 0.637390
O O4 0.525075 0.044201 0.745909
O O5 0.750000 0.148399 0.919943
O O6 0.471627 0.250000 0.926312
O O7 0.538998 0.125532 0.028932
O O8 0.477384 0.045014 0.908864
O O9 0.250000 0.356691 0.400970
O O10 0.979591 0.352026 0.483848
O O11 0.042784 0.501535 0.424833
O O12 0.978778 0.380632 0.325410
O O13 0.750000 0.594550 0.444117
O O14 0.750000 0.441467 0.237892
O O15 0.471846 0.392835 0.173949
O O16 0.750000 0.939402 0.925614
#
# Coordination Sequence:
#
# PCOD9447523 Si02
#       6
#     8   8   8   8   8   8
#     4   8  14  25  41  62  89 122 161 204 250 301
#     4   9  19  37  59  81 107 139 170 203 251 308
#     4   9  15  24  40  61  84 113 152 198 245 291
#     4   8  14  24  39  59  82 111 150 194 241 295
#     4  10  19  30  45  67  96 130 165 202 249 302
#     4  10  20  34  54  81 109 136 171 213 252 299
#
# _framework density 24.221962000000001
#
# number of rings (size 3 to 8) (size 9 to 14) (size 15 to 20)
#    0.000    3.000    0.000    2.500    0.000    2.333 
#    0.000    0.000    0.000   13.000    0.000    2.333 
#    0.000    0.000    0.000    0.000    0.000    0.000 
#
# Total GULP energy -267442.050453 kJ/mol
# GULP energy per Si atom -5571.709384 kJ/mol
# Density = 2.416683 g / cm^3
# Si number density = 24.221962 Si / 1000 Ang^3
#
#
#
# Elastic Constant Matrix: (Units=GPa)
#
#
# Indices 1 2 3 4 5 6 
#
# 1 40.8648 4.8124 -0.1756 0.0000 0.0000 0.0000
# 2 4.8124 83.4919 -2.4584 0.0000 0.0000 0.0000
# 3 -0.1756 -2.4584 163.5813 0.0000 0.0000 0.0000
# 4 0.0000 0.0000 0.0000 7.9113 0.0000 0.0000
# 5 0.0000 0.0000 0.0000 0.0000 22.6345 0.0000
# 6 0.0000 0.0000 0.0000 0.0000 0.0000 -17.6864
#
#
#
# Elastic Compliance Matrix: (Units=1/GPa)
#
#
# Indices 1 2 3 4 5 6 
#
# 1 0.024638 -0.001420 0.000005 0.000000 0.000000 0.000000
# 2 -0.001420 0.012064 0.000180 0.000000 0.000000 0.000000
# 3 0.000005 0.000180 0.006116 0.000000 0.000000 0.000000
# 4 0.000000 0.000000 0.000000 0.126402 0.000000 0.000000
# 5 0.000000 0.000000 0.000000 0.000000 0.044180 0.000000
# 6 0.000000 0.000000 0.000000 0.000000 0.000000 -0.056540
#
#
# Mechanical properties :
#
#
# Convention : Reuss Voigt Hill
#
# Bulk Modulus (GPa) = 24.78421 32.47718 28.63069
# Shear Modulus (GPa) = 28.93851 21.62250 25.28050
#
# Velocity S-wave (km/s) = 3.46022 2.99102 3.23414
# Velocity P-wave (km/s) = 5.12040 5.03642 5.07859
#
# Compressibility (1/GPa) = 0.04034828
#
# Stress axis : x y z
#
# Youngs Moduli (GPa) = 40.58743 82.88886 163.50885
#
# Poissons Ratio (x) = 0.11770 -0.00084
# Poissons Ratio (y) = 0.05763 -0.02940
# Poissons Ratio (z) = -0.00021 -0.01490
#
# Static dielectric constant tensor:
#      x y z
#    x 1.877680 0.000000 0.000000 
#    y 0.000000 1.998820 0.000000 
#    z 0.000000 0.000000 1.961560 
# 
# From -- ./inp_files/25742.got.cif
#   From: 2010.05.17/outbox.cif.g08.bks.cpg/sg59_13_cif.got.tgz:25742.got - 2010.06.03 14:40:33.
