data_PCOD9447058
_publ_section_title
;
Structure prediction by ZEFSAII (Michael W. Deem and Ramdas Pophale) SiO2 
 PCOD9447058
Probable space group: P M M N
;
_chemical_formula_sum "Si O2"
_cell_formula_units_Z 56
_cell_length_a 7.711052
_cell_length_b 22.335302
_cell_length_c 17.499971
_cell_angle_alpha 90.000000
_cell_angle_beta 90.000000
_cell_angle_gamma 90.000000
_cell_volume 3013.996821
_symmetry_space_group_name_H-M "P M M N"
_symmetry_group_IT_number 59
_space_group.IT_coordinate_system_code '2'
_symmetry_cell_setting 'orthorhombic'
loop_
_space_group_symop_operation_xyz
x,y,z
1/2-x,1/2-y,z
1/2+x,-y,-z
-x,1/2+y,-z
-x,-y,-z
1/2+x,1/2+y,-z
1/2-x,y,z
x,1/2-y,z
loop_
_atom_site_type_symbol
_atom_site_label
_atom_site_fract_x
_atom_site_fract_y
_atom_site_fract_z
Si Si1 0.543112 0.468435 0.377508
Si Si2 0.456228 0.938766 0.953496
Si Si3 0.957766 0.817159 0.043132
Si Si4 0.539880 0.411863 0.529257
Si Si5 0.042120 0.378129 0.804326
Si Si6 0.041162 0.816730 0.354983
Si Si7 0.963009 0.485042 0.206370
O O1 0.750000 0.459813 0.372427
O O2 0.475300 0.424008 0.443444
O O3 0.511419 0.533398 0.415208
O O4 0.476407 0.465839 0.290899
O O5 0.250000 0.937368 0.950802
O O6 0.520758 0.946622 0.866399
O O7 0.510405 0.875758 0.990925
O O8 0.500000 0.000000 0.000000
O O9 0.750000 0.812210 0.047574
O O10 0.022100 0.750000 0.021497
O O11 0.024914 0.836657 0.127083
O O12 0.750000 0.411722 0.526418
O O13 0.478207 0.352398 0.570961
O O14 0.250000 0.380391 0.812336
O O15 0.980582 0.446524 0.808813
O O16 0.001553 0.352040 0.721820
O O17 0.250000 0.814258 0.359967
O O18 0.971696 0.750000 0.350270
O O19 0.750000 0.484819 0.207811
#
# Coordination Sequence:
#
# PCOD9447058 Si02
#       7
#     8   8   8   8   8   8   8
#     4   9  16  29  48  67  89 119 152 191 235 279
#     4  11  21  35  54  76 103 133 170 212 255 302
#     4  10  21  37  54  73 101 135 171 209 252 306
#     4   9  17  28  44  66  91 120 154 189 230 276
#     4  10  18  32  51  71  97 131 166 196 238 294
#     4  10  20  31  42  64 100 132 157 191 234 282
#     4   9  17  30  50  73  98 125 157 203 247 288
#
# _framework density 18.579979000000002
#
# number of rings (size 3 to 8) (size 9 to 14) (size 15 to 20)
#    0.000    2.286    2.857    0.857    0.000    1.714 
#    0.000    1.429    0.000    0.857    0.000    4.000 
#    0.000    0.000    0.000    0.000    0.000    0.000 
#
# Total GULP energy -312171.569538 kJ/mol
# GULP energy per Si atom -5574.492313 kJ/mol
# Density = 1.853769 g / cm^3
# Si number density = 18.579979 Si / 1000 Ang^3
#
#
#
# Elastic Constant Matrix: (Units=GPa)
#
#
# Indices 1 2 3 4 5 6 
#
# 1 28.7723 8.9086 11.6208 0.0000 0.0000 0.0000
# 2 8.9086 129.7678 76.6205 0.0000 0.0000 0.0000
# 3 11.6208 76.6205 150.3294 0.0000 0.0000 0.0000
# 4 0.0000 0.0000 0.0000 18.3906 0.0000 0.0000
# 5 0.0000 0.0000 0.0000 0.0000 12.4819 0.0000
# 6 0.0000 0.0000 0.0000 0.0000 0.0000 15.2947
#
#
#
# Elastic Compliance Matrix: (Units=1/GPa)
#
#
# Indices 1 2 3 4 5 6 
#
# 1 0.036003 -0.001185 -0.002179 0.000000 0.000000 0.000000
# 2 -0.001185 0.011062 -0.005547 0.000000 0.000000 0.000000
# 3 -0.002179 -0.005547 0.009648 0.000000 0.000000 0.000000
# 4 0.000000 0.000000 0.000000 0.054376 0.000000 0.000000
# 5 0.000000 0.000000 0.000000 0.000000 0.080116 0.000000
# 6 0.000000 0.000000 0.000000 0.000000 0.000000 0.065382
#
#
# Mechanical properties :
#
#
# Convention : Reuss Voigt Hill
#
# Bulk Modulus (GPa) = 25.71284 55.90770 40.81027
# Shear Modulus (GPa) = 17.39906 23.34808 20.37357
#
# Velocity S-wave (km/s) = 3.06345 3.54874 3.31499
# Velocity P-wave (km/s) = 5.13635 6.85179 6.05512
#
# Compressibility (1/GPa) = 0.03889107
#
# Stress axis : x y z
#
# Youngs Moduli (GPa) = 27.77570 90.39574 103.65261
#
# Poissons Ratio (x) = 0.10711 0.22588
# Poissons Ratio (y) = 0.03291 0.57494
# Poissons Ratio (z) = 0.06053 0.50140
#
# Static dielectric constant tensor:
#      x y z
#    x 1.574470 0.000000 0.000000 
#    y 0.000000 1.925220 0.000000 
#    z 0.000000 0.000000 1.666100 
# 
# From -- ./inp_files/26006.got.cif
#   From: 2010.05.17/outbox.cif.g08.bks.cpg/sg59_14_cif.got.tgz:26006.got - 2010.06.03 14:40:33.
