data_PCOD9447837
_publ_section_title
;
Structure prediction by ZEFSAII (Michael W. Deem and Ramdas Pophale) SiO2 
 PCOD9447837
Probable space group: P M M N
;
_chemical_formula_sum "Si O2"
_cell_formula_units_Z 64
_cell_length_a 9.120358
_cell_length_b 19.477774
_cell_length_c 19.627957
_cell_angle_alpha 90.000000
_cell_angle_beta 90.000000
_cell_angle_gamma 90.000000
_cell_volume 3486.794131
_symmetry_space_group_name_H-M "P M M N"
_symmetry_group_IT_number 59
_space_group.IT_coordinate_system_code '2'
_symmetry_cell_setting 'orthorhombic'
loop_
_space_group_symop_operation_xyz
x,y,z
1/2-x,1/2-y,z
1/2+x,-y,-z
-x,1/2+y,-z
-x,-y,-z
1/2+x,1/2+y,-z
1/2-x,y,z
x,1/2-y,z
loop_
_atom_site_type_symbol
_atom_site_label
_atom_site_fract_x
_atom_site_fract_y
_atom_site_fract_z
Si Si1 0.417586 0.575671 0.418494
Si Si2 0.075591 0.327141 0.193669
Si Si3 0.584368 0.587586 0.552253
Si Si4 0.072029 0.330996 0.856766
Si Si5 0.573967 0.077204 0.739608
Si Si6 0.585533 0.948262 0.048826
Si Si7 0.084192 0.960641 0.816098
Si Si8 0.580045 0.172612 0.338422
O O1 0.250000 0.600430 0.429617
O O2 0.527884 0.602016 0.475993
O O3 0.414866 0.493611 0.431613
O O4 0.458467 0.590012 0.340105
O O5 0.250000 0.335384 0.189466
O O6 0.037931 0.250000 0.169473
O O7 0.992005 0.390505 0.160225
O O8 0.020324 0.332324 0.271599
O O9 0.750000 0.613202 0.562150
O O10 0.473841 0.621012 0.605055
O O11 0.250000 0.338225 0.851214
O O12 0.038006 0.250000 0.860471
O O13 0.027241 0.374254 0.924810
O O14 0.997536 0.367383 0.791180
O O15 0.750000 0.076678 0.747932
O O16 0.509743 0.002607 0.760673
O O17 0.750000 0.938212 0.021154
O O18 0.592694 0.989274 0.119776
O O19 0.500000 0.000000 0.000000
O O20 0.250000 0.948360 0.791837
O O21 0.750000 0.162506 0.320098
O O22 0.565197 0.250000 0.365249
#
# Coordination Sequence:
#
# PCOD9447837 Si02
#       8
#     8   8   8   8   8   8   8   8
#     4   9  19  33  47  68  98 128 160 205 260 311
#     4  10  20  33  50  74 103 134 172 217 260 303
#     4  10  19  31  49  70  93 125 167 213 258 307
#     4   9  19  37  58  80 109 142 177 219 266 317
#     4  10  19  32  53  79 105 133 171 218 265 315
#     4   9  19  35  56  82 109 140 176 213 255 303
#     4  10  20  34  53  77 106 139 173 208 252 306
#     4  10  20  33  49  68  93 128 165 202 250 305
#
# _framework density 18.354970000000002
#
# number of rings (size 3 to 8) (size 9 to 14) (size 15 to 20)
#    0.000    2.375    0.000    3.375    0.000    6.750 
#    0.000    1.250    0.000    3.000    0.000    0.000 
#    0.000    0.000    0.000    0.000    0.000    0.000 
#
# Total GULP energy -356651.065184 kJ/mol
# GULP energy per Si atom -5572.672893 kJ/mol
# Density = 1.831319 g / cm^3
# Si number density = 18.354970 Si / 1000 Ang^3
#
#
#
# Elastic Constant Matrix: (Units=GPa)
#
#
# Indices 1 2 3 4 5 6 
#
# 1 47.7027 30.0409 5.7252 0.0000 0.0000 0.0000
# 2 30.0409 96.2649 8.7686 0.0000 0.0000 0.0000
# 3 5.7252 8.7686 38.6739 0.0000 0.0000 0.0000
# 4 0.0000 0.0000 0.0000 16.4919 0.0000 0.0000
# 5 0.0000 0.0000 0.0000 0.0000 28.0632 0.0000
# 6 0.0000 0.0000 0.0000 0.0000 0.0000 28.7507
#
#
#
# Elastic Compliance Matrix: (Units=1/GPa)
#
#
# Indices 1 2 3 4 5 6 
#
# 1 0.026252 -0.008004 -0.002072 0.000000 0.000000 0.000000
# 2 -0.008004 0.013047 -0.001773 0.000000 0.000000 0.000000
# 3 -0.002072 -0.001773 0.026566 0.000000 0.000000 0.000000
# 4 0.000000 0.000000 0.000000 0.060636 0.000000 0.000000
# 5 0.000000 0.000000 0.000000 0.000000 0.035634 0.000000
# 6 0.000000 0.000000 0.000000 0.000000 0.000000 0.034782
#
#
# Mechanical properties :
#
#
# Convention : Reuss Voigt Hill
#
# Bulk Modulus (GPa) = 23.71469 30.19012 26.95241
# Shear Modulus (GPa) = 21.30651 23.86828 22.58740
#
# Velocity S-wave (km/s) = 3.41075 3.60998 3.51178
# Velocity P-wave (km/s) = 5.33470 5.81890 5.58205
#
# Compressibility (1/GPa) = 0.04216795
#
# Stress axis : x y z
#
# Youngs Moduli (GPa) = 38.09214 76.64476 37.64213
#
# Poissons Ratio (x) = 0.61344 0.07798
# Poissons Ratio (y) = 0.30488 0.06675
# Poissons Ratio (z) = 0.07891 0.13592
#
# Static dielectric constant tensor:
#      x y z
#    x 1.632950 0.000000 0.000000 
#    y 0.000000 1.661880 0.000000 
#    z 0.000000 0.000000 1.628550 
# 
# From -- ./inp_files/29593.got.cif
#   From: 2010.05.17/outbox.cif.g08.bks.cpg/sg59_15_cif.got.tgz:29593.got - 2010.06.03 14:40:33.
