data_PCOD9447807
_publ_section_title
;
Structure prediction by ZEFSAII (Michael W. Deem and Ramdas Pophale) SiO2 
 PCOD9447807
Probable space group: P M M N
;
_chemical_formula_sum "Si O2"
_cell_formula_units_Z 64
_cell_length_a 20.908785
_cell_length_b 8.108008
_cell_length_c 20.251940
_cell_angle_alpha 90.000000
_cell_angle_beta 90.000000
_cell_angle_gamma 90.000000
_cell_volume 3433.282955
_symmetry_space_group_name_H-M "P M M N"
_symmetry_group_IT_number 59
_space_group.IT_coordinate_system_code '2'
_symmetry_cell_setting 'orthorhombic'
loop_
_space_group_symop_operation_xyz
x,y,z
1/2-x,1/2-y,z
1/2+x,-y,-z
-x,1/2+y,-z
-x,-y,-z
1/2+x,1/2+y,-z
1/2-x,y,z
x,1/2-y,z
loop_
_atom_site_type_symbol
_atom_site_label
_atom_site_fract_x
_atom_site_fract_y
_atom_site_fract_z
Si Si1 0.181468 0.056377 0.922168
Si Si2 0.819439 0.057602 0.226804
Si Si3 0.955815 0.051910 0.204881
Si Si4 0.678783 0.549116 0.472217
Si Si5 0.820765 0.948646 0.626690
Si Si6 0.050189 0.946055 0.945868
Si Si7 0.460514 0.050333 0.565106
Si Si8 0.952856 0.053866 0.685820
O O1 0.250000 0.025976 0.954440
O O2 0.177671 0.250000 0.904910
O O3 0.180346 0.956928 0.853244
O O4 0.120822 0.007078 0.964137
O O5 0.750000 0.984909 0.248346
O O6 0.818563 0.250000 0.246051
O O7 0.890393 0.987015 0.240969
O O8 0.948703 0.250000 0.202367
O O9 0.960765 0.990460 0.129294
O O10 0.018079 0.010319 0.246302
O O11 0.750000 0.494016 0.449553
O O12 0.679478 0.750000 0.469311
O O13 0.671806 0.502520 0.549588
O O14 0.613535 0.492573 0.437044
O O15 0.750000 0.004352 0.648501
O O16 0.821273 0.750000 0.627434
O O17 0.880396 0.008196 0.668860
O O18 0.049932 0.750000 0.942555
O O19 0.000000 0.000000 0.000000
O O20 0.458960 0.250000 0.566576
O O21 0.500847 0.988582 0.627506
O O22 0.500000 0.000000 0.500000
O O23 0.957803 0.250000 0.685959
#
# Coordination Sequence:
#
# PCOD9447807 Si02
#       8
#     8   8   8   8   8   8   8   8
#     4   9  16  26  44  72 103 132 163 201 243 289
#     4   8  14  27  47  69  93 125 167 210 247 285
#     4   9  19  34  51  72 100 137 173 203 243 302
#     4   8  14  27  48  70  92 123 165 207 243 288
#     4   9  17  31  53  75  92 123 170 210 250 303
#     4  10  20  34  54  78 102 132 170 211 258 305
#     4  10  19  31  48  71  97 126 162 203 249 295
#     4  11  22  32  47  75 106 134 164 206 258 300
#
# _framework density 18.64105
#
# number of rings (size 3 to 8) (size 9 to 14) (size 15 to 20)
#    0.000    2.750    1.250    2.625    0.000    4.000 
#    0.000    0.625    0.000    1.875    0.000    5.250 
#    0.000    0.000    0.000    0.000    0.000    0.000 
#
# Total GULP energy -356445.620424 kJ/mol
# GULP energy per Si atom -5569.462819 kJ/mol
# Density = 1.859862 g / cm^3
# Si number density = 18.641050 Si / 1000 Ang^3
#
#
#
# Elastic Constant Matrix: (Units=GPa)
#
#
# Indices 1 2 3 4 5 6 
#
# 1 171.8749 10.4606 48.8180 0.0000 0.0000 0.0000
# 2 10.4606 17.7306 6.4691 0.0000 0.0000 0.0000
# 3 48.8180 6.4691 47.7686 0.0000 0.0000 0.0000
# 4 0.0000 0.0000 0.0000 11.8152 0.0000 0.0000
# 5 0.0000 0.0000 0.0000 0.0000 25.2405 0.0000
# 6 0.0000 0.0000 0.0000 0.0000 0.0000 19.9726
#
#
#
# Elastic Compliance Matrix: (Units=1/GPa)
#
#
# Indices 1 2 3 4 5 6 
#
# 1 0.008257 -0.001886 -0.008183 0.000000 0.000000 0.000000
# 2 -0.001886 0.059762 -0.006166 0.000000 0.000000 0.000000
# 3 -0.008183 -0.006166 0.030132 0.000000 0.000000 0.000000
# 4 0.000000 0.000000 0.000000 0.084637 0.000000 0.000000
# 5 0.000000 0.000000 0.000000 0.000000 0.039619 0.000000
# 6 0.000000 0.000000 0.000000 0.000000 0.000000 0.050069
#
#
# Mechanical properties :
#
#
# Convention : Reuss Voigt Hill
#
# Bulk Modulus (GPa) = 15.22502 40.98550 28.10526
# Shear Modulus (GPa) = 15.29803 22.84744 19.07274
#
# Velocity S-wave (km/s) = 2.86783 3.50473 3.20215
# Velocity P-wave (km/s) = 4.37620 6.19774 5.36484
#
# Compressibility (1/GPa) = 0.06568135
#
# Stress axis : x y z
#
# Youngs Moduli (GPa) = 121.10540 16.73305 33.18702
#
# Poissons Ratio (x) = 0.03156 0.27158
# Poissons Ratio (y) = 0.22839 0.20463
# Poissons Ratio (z) = 0.99104 0.10317
#
# Static dielectric constant tensor:
#      x y z
#    x 1.702840 0.000000 0.000000 
#    y 0.000000 1.671270 0.000000 
#    z 0.000000 0.000000 1.677020 
# 
# From -- ./inp_files/28311.got.cif
#   From: 2010.05.17/outbox.cif.g08.bks.cpg/sg59_15_cif.got.tgz:28311.got - 2010.06.03 14:40:33.
