data_PCOD9447826
_publ_section_title
;
Structure prediction by ZEFSAII (Michael W. Deem and Ramdas Pophale) SiO2 
 PCOD9447826
Probable space group: P M M N
;
_chemical_formula_sum "Si O2"
_cell_formula_units_Z 48
_cell_length_a 8.989283
_cell_length_b 19.919316
_cell_length_c 15.744503
_cell_angle_alpha 90.000000
_cell_angle_beta 90.000000
_cell_angle_gamma 90.000000
_cell_volume 2819.216512
_symmetry_space_group_name_H-M "P M M N"
_symmetry_group_IT_number 59
_space_group.IT_coordinate_system_code '2'
_symmetry_cell_setting 'orthorhombic'
loop_
_space_group_symop_operation_xyz
x,y,z
1/2-x,1/2-y,z
1/2+x,-y,-z
-x,1/2+y,-z
-x,-y,-z
1/2+x,1/2+y,-z
1/2-x,y,z
x,1/2-y,z
loop_
_atom_site_type_symbol
_atom_site_label
_atom_site_fract_x
_atom_site_fract_y
_atom_site_fract_z
Si Si1 0.925469 0.434575 0.390113
Si Si2 0.924378 0.550600 0.781510
Si Si3 0.572392 0.077591 0.574770
Si Si4 0.076689 0.610953 0.242695
Si Si5 0.926736 0.433510 0.040300
Si Si6 0.076489 0.170811 0.917126
O O1 0.750000 0.431447 0.372605
O O2 0.955863 0.396676 0.479358
O O3 0.015617 0.417038 0.305612
O O4 0.974050 0.511169 0.411048
O O5 0.750000 0.564127 0.792633
O O6 0.941311 0.469425 0.772377
O O7 0.014850 0.572888 0.863785
O O8 0.750000 0.059181 0.578382
O O9 0.545582 0.122934 0.657474
O O10 0.250000 0.626936 0.225918
O O11 0.974439 0.649694 0.177094
O O12 0.750000 0.440248 0.038233
O O13 0.000000 0.500000 0.000000
O O14 0.979772 0.371648 0.983058
O O15 0.250000 0.153749 0.929027
O O16 0.057047 0.250000 0.928756
#
# Coordination Sequence:
#
# PCOD9447826 Si02
#       6
#     8   8   8   8   8   8
#     4   9  15  24  40  65  97 132 166 205 250 301
#     4  10  19  31  48  73 104 135 169 213 259 311
#     4   8  15  26  40  62  96 132 166 203 248 300
#     4   9  17  30  49  71  98 135 173 211 254 307
#     4  12  23  36  56  79 103 136 176 220 267 320
#     4  11  24  39  54  75 105 139 176 220 266 316
#
# _framework density 17.026005999999999
#
# number of rings (size 3 to 8) (size 9 to 14) (size 15 to 20)
#    0.000    2.167    1.667    4.000    0.000    4.667 
#    0.000    0.000    0.000    0.000    0.000    1.167 
#    0.000    6.667    0.000    0.000    0.000    0.000 
#
# Total GULP energy -267568.642427 kJ/mol
# GULP energy per Si atom -5574.346717 kJ/mol
# Density = 1.698725 g / cm^3
# Si number density = 17.026006 Si / 1000 Ang^3
#
#
#
# Elastic Constant Matrix: (Units=GPa)
#
#
# Indices 1 2 3 4 5 6 
#
# 1 113.9002 34.7700 73.6510 0.0000 0.0000 0.0000
# 2 34.7700 22.5943 28.7734 0.0000 0.0000 0.0000
# 3 73.6510 28.7734 148.9867 0.0000 0.0000 0.0000
# 4 0.0000 0.0000 0.0000 9.3917 0.0000 0.0000
# 5 0.0000 0.0000 0.0000 0.0000 33.7797 0.0000
# 6 0.0000 0.0000 0.0000 0.0000 0.0000 16.3818
#
#
#
# Elastic Compliance Matrix: (Units=1/GPa)
#
#
# Indices 1 2 3 4 5 6 
#
# 1 0.018970 -0.022877 -0.004960 0.000000 0.000000 0.000000
# 2 -0.022877 0.086282 -0.005354 0.000000 0.000000 0.000000
# 3 -0.004960 -0.005354 0.010198 0.000000 0.000000 0.000000
# 4 0.000000 0.000000 0.000000 0.106477 0.000000 0.000000
# 5 0.000000 0.000000 0.000000 0.000000 0.029604 0.000000
# 6 0.000000 0.000000 0.000000 0.000000 0.000000 0.061043
#
#
# Mechanical properties :
#
#
# Convention : Reuss Voigt Hill
#
# Bulk Modulus (GPa) = 20.37964 62.20779 41.29371
# Shear Modulus (GPa) = 12.64821 21.79643 17.22232
#
# Velocity S-wave (km/s) = 2.72853 3.58185 3.18391
# Velocity P-wave (km/s) = 4.68212 7.32956 6.14999
#
# Compressibility (1/GPa) = 0.04906859
#
# Stress axis : x y z
#
# Youngs Moduli (GPa) = 52.71405 11.58984 98.05925
#
# Poissons Ratio (x) = 0.26514 0.48635
# Poissons Ratio (y) = 1.20593 0.52505
# Poissons Ratio (z) = 0.26145 0.06206
#
# Static dielectric constant tensor:
#      x y z
#    x 1.571210 0.000000 0.000000 
#    y 0.000000 1.542150 0.000000 
#    z 0.000000 0.000000 1.624160 
# 
# From -- ./inp_files/20458.got.cif
#   From: 2010.05.17/outbox.cif.g08.bks.cpg/sg59_11_cif.got.tgz:20458.got - 2010.06.03 14:40:33.
