data_PCOD9447522
_publ_section_title
;
Structure prediction by ZEFSAII (Michael W. Deem and Ramdas Pophale) SiO2 
 PCOD9447522
Probable space group: P M M N
;
_chemical_formula_sum "Si O2"
_cell_formula_units_Z 64
_cell_length_a 15.902827
_cell_length_b 23.022733
_cell_length_c 6.726574
_cell_angle_alpha 90.000000
_cell_angle_beta 90.000000
_cell_angle_gamma 90.000000
_cell_volume 2462.777264
_symmetry_space_group_name_H-M "P M M N"
_symmetry_group_IT_number 59
_space_group.IT_coordinate_system_code '2'
_symmetry_cell_setting 'orthorhombic'
loop_
_space_group_symop_operation_xyz
x,y,z
1/2-x,1/2-y,z
1/2+x,-y,-z
-x,1/2+y,-z
-x,-y,-z
1/2+x,1/2+y,-z
1/2-x,y,z
x,1/2-y,z
loop_
_atom_site_type_symbol
_atom_site_label
_atom_site_fract_x
_atom_site_fract_y
_atom_site_fract_z
Si Si1 0.652038 0.059635 0.055981
Si Si2 0.078251 0.684964 0.869259
Si Si3 0.031407 0.688662 0.331319
Si Si4 0.883383 0.814295 0.829792
Si Si5 0.338786 0.338558 0.618336
Si Si6 0.600728 0.959518 0.453186
Si Si7 0.091800 0.571755 0.393960
Si Si8 0.850111 0.940203 0.907940
O O1 0.750000 0.058352 0.101407
O O2 0.615658 0.119328 0.149224
O O3 0.638690 0.068454 0.815479
O O4 0.619690 0.991364 0.057657
O O5 0.116947 0.750000 0.824145
O O6 0.063967 0.687251 0.107663
O O7 0.982936 0.684261 0.788212
O O8 0.050987 0.750000 0.422063
O O9 0.079867 0.638470 0.445305
O O10 0.930760 0.682161 0.316623
O O11 0.863178 0.750000 0.910921
O O12 0.839777 0.822174 0.616573
O O13 0.863453 0.872117 0.956287
O O14 0.250000 0.317694 0.703315
O O15 0.341890 0.408544 0.627858
O O16 0.506036 0.948687 0.378267
O O17 0.603100 0.948362 0.695330
O O18 0.629145 0.026542 0.448155
O O19 0.750000 0.948181 0.877383
#
# Coordination Sequence:
#
# PCOD9447522 Si02
#       8
#     8   8   8   8   8   8   8   8
#     4   9  17  30  48  69  92 117 151 200 246 280
#     4   9  19  34  49  69  95 121 154 192 235 286
#     4   9  17  30  46  65  93 124 152 185 223 268
#     4  10  19  30  45  67  96 127 158 192 227 269
#     4  10  19  30  47  71  95 121 156 191 223 266
#     4   8  13  24  41  62  90 120 150 185 223 264
#     4   8  14  24  41  64  88 117 150 184 226 271
#     4   9  17  28  44  69  96 123 159 196 230 273
#
# _framework density 25.986923000000001
#
# number of rings (size 3 to 8) (size 9 to 14) (size 15 to 20)
#    0.000    3.000    0.000    1.875    0.000    3.000 
#    0.000    1.250    0.000    4.500    0.000   14.000 
#    0.000   25.000    0.000    0.000    0.000    0.000 
#
# Total GULP energy -357331.710511 kJ/mol
# GULP energy per Si atom -5583.307977 kJ/mol
# Density = 2.592778 g / cm^3
# Si number density = 25.986923 Si / 1000 Ang^3
#
#
#
# Elastic Constant Matrix: (Units=GPa)
#
#
# Indices 1 2 3 4 5 6 
#
# 1 68.4072 41.2384 17.7701 0.0000 0.0000 0.0000
# 2 41.2384 292.0884 23.0680 0.0000 0.0000 0.0000
# 3 17.7701 23.0680 76.4247 0.0000 0.0000 0.0000
# 4 0.0000 0.0000 0.0000 32.6257 0.0000 0.0000
# 5 0.0000 0.0000 0.0000 0.0000 23.5751 0.0000
# 6 0.0000 0.0000 0.0000 0.0000 0.0000 20.3165
#
#
#
# Elastic Compliance Matrix: (Units=1/GPa)
#
#
# Indices 1 2 3 4 5 6 
#
# 1 0.016733 -0.002105 -0.003255 0.000000 0.000000 0.000000
# 2 -0.002105 0.003772 -0.000649 0.000000 0.000000 0.000000
# 3 -0.003255 -0.000649 0.014038 0.000000 0.000000 0.000000
# 4 0.000000 0.000000 0.000000 0.030651 0.000000 0.000000
# 5 0.000000 0.000000 0.000000 0.000000 0.042418 0.000000
# 6 0.000000 0.000000 0.000000 0.000000 0.000000 0.049221
#
#
# Mechanical properties :
#
#
# Convention : Reuss Voigt Hill
#
# Bulk Modulus (GPa) = 44.39810 66.78595 55.59202
# Shear Modulus (GPa) = 28.35118 38.95971 33.65545
#
# Velocity S-wave (km/s) = 3.30658 3.87616 3.60264
# Velocity P-wave (km/s) = 5.63026 6.76671 6.22448
#
# Compressibility (1/GPa) = 0.02252349
#
# Stress axis : x y z
#
# Youngs Moduli (GPa) = 59.76154 265.10243 71.23733
#
# Poissons Ratio (x) = 0.55814 0.23190
# Poissons Ratio (y) = 0.12582 0.04624
# Poissons Ratio (z) = 0.19454 0.17206
#
# Static dielectric constant tensor:
#      x y z
#    x 1.903890 0.000000 0.000000 
#    y 0.000000 2.172770 0.000000 
#    z 0.000000 0.000000 2.155450 
# 
# From -- ./inp_files/10783.got.cif
#   From: 2010.05.17/outbox.cif.g08.bks.cpg/sg59_6_cif.got.tgz:10783.got - 2010.06.03 14:40:33.
