data_PCOD9447641
_publ_section_title
;
Structure prediction by ZEFSAII (Michael W. Deem and Ramdas Pophale) SiO2 
 PCOD9447641
Probable space group: P M M N
;
_chemical_formula_sum "Si O2"
_cell_formula_units_Z 64
_cell_length_a 7.574462
_cell_length_b 20.451658
_cell_length_c 20.831256
_cell_angle_alpha 90.000000
_cell_angle_beta 90.000000
_cell_angle_gamma 90.000000
_cell_volume 3226.976249
_symmetry_space_group_name_H-M "P M M N"
_symmetry_group_IT_number 59
_space_group.IT_coordinate_system_code '2'
_symmetry_cell_setting 'orthorhombic'
loop_
_space_group_symop_operation_xyz
x,y,z
1/2-x,1/2-y,z
1/2+x,-y,-z
-x,1/2+y,-z
-x,-y,-z
1/2+x,1/2+y,-z
1/2-x,y,z
x,1/2-y,z
loop_
_atom_site_type_symbol
_atom_site_label
_atom_site_fract_x
_atom_site_fract_y
_atom_site_fract_z
Si Si1 0.033820 0.174138 0.610499
Si Si2 0.456433 0.823845 0.672226
Si Si3 0.033338 0.938731 0.762573
Si Si4 0.545860 0.829128 0.530000
Si Si5 0.957162 0.098904 0.960042
Si Si6 0.456388 0.322059 0.840133
Si Si7 0.966007 0.583731 0.271326
Si Si8 0.536127 0.454450 0.091643
O O1 0.250000 0.174900 0.608837
O O2 0.980836 0.250000 0.622085
O O3 0.972861 0.151461 0.539638
O O4 0.979316 0.125109 0.666493
O O5 0.250000 0.818050 0.687898
O O6 0.532844 0.750000 0.675928
O O7 0.530503 0.877770 0.720451
O O8 0.466089 0.847624 0.598316
O O9 0.250000 0.938372 0.762041
O O10 0.978191 0.935938 0.837078
O O11 0.977554 0.008590 0.733500
O O12 0.750000 0.849018 0.532505
O O13 0.538103 0.750000 0.527912
O O14 0.750000 0.111996 0.964346
O O15 0.033600 0.152736 0.912741
O O16 0.027308 0.090366 0.032453
O O17 0.984347 0.028466 0.926245
O O18 0.250000 0.317176 0.823434
O O19 0.534988 0.250000 0.832455
O O20 0.528052 0.376382 0.791442
O O21 0.750000 0.582306 0.271309
O O22 0.750000 0.453104 0.091112
#
# Coordination Sequence:
#
# PCOD9447641 Si02
#       8
#     8   8   8   8   8   8   8   8
#     4   8  13  22  39  65  91 113 146 190 227 262
#     4   9  17  29  46  67  88 113 149 190 230 275
#     4   9  16  28  47  68  90 117 151 192 231 267
#     4   8  14  26  44  64  87 115 145 181 227 276
#     4  10  19  30  48  72  96 123 155 193 235 277
#     4  10  19  31  49  71  96 128 162 196 233 274
#     4   9  15  25  44  68  91 117 153 195 229 264
#     4   9  17  32  51  69  90 119 157 194 231 279
#
# _framework density 19.832808
#
# number of rings (size 3 to 8) (size 9 to 14) (size 15 to 20)
#    0.000    3.000    1.250    1.500    0.000    2.250 
#    0.000    1.875    0.000    3.000    0.000    3.500 
#    0.000    0.000    0.000    0.000    0.000    0.000 
#
# Total GULP energy -356661.221678 kJ/mol
# GULP energy per Si atom -5572.831589 kJ/mol
# Density = 1.978767 g / cm^3
# Si number density = 19.832808 Si / 1000 Ang^3
#
#
#
# Elastic Constant Matrix: (Units=GPa)
#
#
# Indices 1 2 3 4 5 6 
#
# 1 39.7941 2.3712 -1.0268 0.0000 0.0000 0.0000
# 2 2.3712 105.5131 81.4430 0.0000 0.0000 0.0000
# 3 -1.0268 81.4430 152.0270 0.0000 0.0000 0.0000
# 4 0.0000 0.0000 0.0000 18.2969 0.0000 0.0000
# 5 0.0000 0.0000 0.0000 0.0000 11.1388 0.0000
# 6 0.0000 0.0000 0.0000 0.0000 0.0000 2.7467
#
#
#
# Elastic Compliance Matrix: (Units=1/GPa)
#
#
# Indices 1 2 3 4 5 6 
#
# 1 0.025221 -0.001191 0.000808 0.000000 0.000000 0.000000
# 2 -0.001191 0.016216 -0.008695 0.000000 0.000000 0.000000
# 3 0.000808 -0.008695 0.011241 0.000000 0.000000 0.000000
# 4 0.000000 0.000000 0.000000 0.054654 0.000000 0.000000
# 5 0.000000 0.000000 0.000000 0.000000 0.089776 0.000000
# 6 0.000000 0.000000 0.000000 0.000000 0.000000 0.364071
#
#
# Mechanical properties :
#
#
# Convention : Reuss Voigt Hill
#
# Bulk Modulus (GPa) = 28.96598 51.43433 40.20015
# Shear Modulus (GPa) = 8.46250 20.73961 14.60105
#
# Velocity S-wave (km/s) = 2.06789 3.23727 2.71626
# Velocity P-wave (km/s) = 4.50981 6.32167 5.49099
#
# Compressibility (1/GPa) = 0.03452326
#
# Stress axis : x y z
#
# Youngs Moduli (GPa) = 39.64925 61.66850 88.95780
#
# Poissons Ratio (x) = 0.07342 -0.07189
# Poissons Ratio (y) = 0.04721 0.77349
# Poissons Ratio (z) = -0.03204 0.53621
#
# Static dielectric constant tensor:
#      x y z
#    x 1.716490 0.000000 0.000000 
#    y 0.000000 1.674830 0.000000 
#    z 0.000000 0.000000 1.713760 
# 
# From -- ./inp_files/29713.got.cif
#   From: 2010.05.17/outbox.cif.g08.bks.cpg/sg59_15_cif.got.tgz:29713.got - 2010.06.03 14:40:33.
