data_PCOD9447800
_publ_section_title
;
Structure prediction by ZEFSAII (Michael W. Deem and Ramdas Pophale) SiO2 
 PCOD9447800
Probable space group: P M M N
;
_chemical_formula_sum "Si O2"
_cell_formula_units_Z 48
_cell_length_a 13.911037
_cell_length_b 8.461973
_cell_length_c 18.142636
_cell_angle_alpha 90.000000
_cell_angle_beta 90.000000
_cell_angle_gamma 90.000000
_cell_volume 2135.657122
_symmetry_space_group_name_H-M "P M M N"
_symmetry_group_IT_number 59
_space_group.IT_coordinate_system_code '2'
_symmetry_cell_setting 'orthorhombic'
loop_
_space_group_symop_operation_xyz
x,y,z
1/2-x,1/2-y,z
1/2+x,-y,-z
-x,1/2+y,-z
-x,-y,-z
1/2+x,1/2+y,-z
1/2-x,y,z
x,1/2-y,z
loop_
_atom_site_type_symbol
_atom_site_label
_atom_site_fract_x
_atom_site_fract_y
_atom_site_fract_z
Si Si1 0.148129 0.565451 0.782467
Si Si2 0.935664 0.439866 0.604504
Si Si3 0.381779 0.072892 0.933881
Si Si4 0.856888 0.940631 0.450667
Si Si5 0.067970 0.060577 0.240264
Si Si6 0.388382 0.929727 0.086188
O O1 0.250000 0.495367 0.754725
O O2 0.147035 0.750000 0.762372
O O3 0.150096 0.547326 0.871042
O O4 0.043537 0.498072 0.762009
O O5 0.933354 0.250000 0.603819
O O6 0.048048 0.493178 0.594329
O O7 0.894607 0.503833 0.681121
O O8 0.878694 0.504718 0.534041
O O9 0.351364 0.250000 0.914684
O O10 0.496991 0.072252 0.927720
O O11 0.352666 0.028505 0.016427
O O12 0.750000 0.996852 0.428065
O O13 0.856310 0.750000 0.448131
O O14 0.065857 0.250000 0.236258
O O15 0.122763 0.998775 0.167979
O O16 0.354929 0.750000 0.082942
#
# Coordination Sequence:
#
# PCOD9447800 Si02
#       6
#     8   8   8   8   8   8
#     4   9  18  31  45  64  94 133 174 214 258 307
#     4  10  20  34  54  82 112 140 175 218 262 313
#     4   9  16  26  42  64  88 117 157 202 246 295
#     4   9  19  37  59  81 107 141 178 215 258 310
#     4  10  19  31  48  71 101 135 170 210 255 305
#     4   9  16  27  44  65  89 119 157 201 247 294
#
# _framework density 22.475518999999998
#
# number of rings (size 3 to 8) (size 9 to 14) (size 15 to 20)
#    0.000    2.667    0.000    2.000    0.000    6.667 
#    0.000    0.000    0.000    1.000    0.000    0.000 
#    0.000    0.000    0.000    0.000    0.000    0.000 
#
# Total GULP energy -267773.997097 kJ/mol
# GULP energy per Si atom -5578.624940 kJ/mol
# Density = 2.242436 g / cm^3
# Si number density = 22.475519 Si / 1000 Ang^3
#
#
#
# Elastic Constant Matrix: (Units=GPa)
#
#
# Indices 1 2 3 4 5 6 
#
# 1 83.3852 -3.8209 -15.0145 0.0000 0.0000 0.0000
# 2 -3.8209 27.8721 -0.8097 0.0000 0.0000 0.0000
# 3 -15.0145 -0.8097 133.8901 0.0000 0.0000 0.0000
# 4 0.0000 0.0000 0.0000 25.3677 0.0000 0.0000
# 5 0.0000 0.0000 0.0000 0.0000 141.0683 0.0000
# 6 0.0000 0.0000 0.0000 0.0000 0.0000 -11.0153
#
#
#
# Elastic Compliance Matrix: (Units=1/GPa)
#
#
# Indices 1 2 3 4 5 6 
#
# 1 0.012322 0.001730 0.001392 0.000000 0.000000 0.000000
# 2 0.001730 0.036127 0.000412 0.000000 0.000000 0.000000
# 3 0.001392 0.000412 0.007627 0.000000 0.000000 0.000000
# 4 0.000000 0.000000 0.000000 0.039420 0.000000 0.000000
# 5 0.000000 0.000000 0.000000 0.000000 0.007089 0.000000
# 6 0.000000 0.000000 0.000000 0.000000 0.000000 -0.090783
#
#
# Mechanical properties :
#
#
# Convention : Reuss Voigt Hill
#
# Bulk Modulus (GPa) = 15.83629 22.87304 19.35466
# Shear Modulus (GPa) = 193.92700 48.73698 121.33199
#
# Velocity S-wave (km/s) = 9.29898 4.66171 7.35536
# Velocity P-wave (km/s) = 11.06146 6.25894 8.98694
#
# Compressibility (1/GPa) = 0.06314610
#
# Stress axis : x y z
#
# Youngs Moduli (GPa) = 81.15241 27.67991 131.10559
#
# Poissons Ratio (x) = -0.04788 -0.18254
# Poissons Ratio (y) = -0.14037 -0.05407
# Poissons Ratio (z) = -0.11299 -0.01142
#
# Static dielectric constant tensor:
#      x y z
#    x 1.914380 0.000000 0.000000 
#    y 0.000000 1.771970 0.000000 
#    z 0.000000 0.000000 1.799190 
# 
# From -- ./inp_files/27770.got.cif
#   From: 2010.05.17/outbox.cif.g08.bks.cpg/sg59_14_cif.got.tgz:27770.got - 2010.06.03 14:40:33.
