data_PCOD9447967
_publ_section_title
;
Structure prediction by ZEFSAII (Michael W. Deem and Ramdas Pophale) SiO2 
 PCOD9447967
Probable space group: P M M N
;
_chemical_formula_sum "Si O2"
_cell_formula_units_Z 56
_cell_length_a 8.703891
_cell_length_b 14.362283
_cell_length_c 26.779707
_cell_angle_alpha 90.000000
_cell_angle_beta 90.000000
_cell_angle_gamma 90.000000
_cell_volume 3347.670804
_symmetry_space_group_name_H-M "P M M N"
_symmetry_group_IT_number 59
_space_group.IT_coordinate_system_code '2'
_symmetry_cell_setting 'orthorhombic'
loop_
_space_group_symop_operation_xyz
x,y,z
1/2-x,1/2-y,z
1/2+x,-y,-z
-x,1/2+y,-z
-x,-y,-z
1/2+x,1/2+y,-z
1/2-x,y,z
x,1/2-y,z
loop_
_atom_site_type_symbol
_atom_site_label
_atom_site_fract_x
_atom_site_fract_y
_atom_site_fract_z
Si Si1 0.063255 0.642150 0.032796
Si Si2 0.064565 0.142511 0.476643
Si Si3 0.565997 0.357751 0.669777
Si Si4 0.933924 0.140062 0.079027
Si Si5 0.566171 0.857601 0.221043
Si Si6 0.566100 0.532187 0.422878
Si Si7 0.933525 0.028184 0.870442
O O1 0.250000 0.638662 0.031852
O O2 0.019972 0.750000 0.040002
O O3 0.010292 0.582658 0.079759
O O4 0.011838 0.613426 0.977241
O O5 0.250000 0.139912 0.473227
O O6 0.015371 0.250000 0.471472
O O7 0.021708 0.100388 0.530938
O O8 0.995898 0.070074 0.436904
O O9 0.750000 0.362352 0.670365
O O10 0.520604 0.250000 0.658833
O O11 0.502196 0.380346 0.724680
O O12 0.500823 0.425317 0.627609
O O13 0.750000 0.125678 0.081544
O O14 0.961985 0.250000 0.084760
O O15 0.015672 0.077250 0.119864
O O16 0.750000 0.862378 0.223299
O O17 0.521931 0.750000 0.209576
O O18 0.504199 0.924560 0.178148
O O19 0.750000 0.529866 0.420313
O O20 0.750000 0.035605 0.867929
#
# Coordination Sequence:
#
# PCOD9447967 Si02
#       7
#     8   8   8   8   8   8   8
#     4   8  15  28  46  69  97 128 159 192 235 288
#     4   9  18  32  49  72 105 142 177 212 249 290
#     4  10  20  34  53  76 102 132 166 204 246 293
#     4   9  18  33  50  67  92 128 167 203 239 284
#     4  10  21  36  53  74 100 129 162 200 242 291
#     4  10  19  31  50  76 105 137 173 211 251 296
#     4  11  20  30  49  74 100 128 158 198 246 294
#
# _framework density 16.728048999999999
#
# number of rings (size 3 to 8) (size 9 to 14) (size 15 to 20)
#    0.000    2.429    0.000    3.857    0.000    4.000 
#    0.000    0.714    0.000    2.571    0.000    0.000 
#    0.000    0.000    0.000    0.000    0.000    0.000 
#
# Total GULP energy -312435.747643 kJ/mol
# GULP energy per Si atom -5579.209779 kJ/mol
# Density = 1.668997 g / cm^3
# Si number density = 16.728049 Si / 1000 Ang^3
#
#
#
# Elastic Constant Matrix: (Units=GPa)
#
#
# Indices 1 2 3 4 5 6 
#
# 1 33.4353 38.5403 40.5005 0.0000 0.0000 0.0000
# 2 38.5403 109.8996 80.4484 0.0000 0.0000 0.0000
# 3 40.5005 80.4484 120.5764 0.0000 0.0000 0.0000
# 4 0.0000 0.0000 0.0000 31.2950 0.0000 0.0000
# 5 0.0000 0.0000 0.0000 0.0000 22.3199 0.0000
# 6 0.0000 0.0000 0.0000 0.0000 0.0000 23.0330
#
#
#
# Elastic Compliance Matrix: (Units=1/GPa)
#
#
# Indices 1 2 3 4 5 6 
#
# 1 0.057235 -0.011725 -0.011402 0.000000 0.000000 0.000000
# 2 -0.011725 0.020188 -0.009531 0.000000 0.000000 0.000000
# 3 -0.011402 -0.009531 0.018482 0.000000 0.000000 0.000000
# 4 0.000000 0.000000 0.000000 0.031954 0.000000 0.000000
# 5 0.000000 0.000000 0.000000 0.000000 0.044803 0.000000
# 6 0.000000 0.000000 0.000000 0.000000 0.000000 0.043416
#
#
# Mechanical properties :
#
#
# Convention : Reuss Voigt Hill
#
# Bulk Modulus (GPa) = 32.69106 64.76551 48.72829
# Shear Modulus (GPa) = 17.14735 22.29106 19.71920
#
# Velocity S-wave (km/s) = 3.20514 3.65438 3.43711
# Velocity P-wave (km/s) = 5.76908 7.52375 6.70407
#
# Compressibility (1/GPa) = 0.03058940
#
# Stress axis : x y z
#
# Youngs Moduli (GPa) = 17.47184 49.53448 54.10619
#
# Poissons Ratio (x) = 0.58081 0.61689
# Poissons Ratio (y) = 0.20486 0.51568
# Poissons Ratio (z) = 0.19921 0.47211
#
# Static dielectric constant tensor:
#      x y z
#    x 1.556250 0.000000 0.000000 
#    y 0.000000 1.565180 0.000000 
#    z 0.000000 0.000000 1.540820 
# 
# From -- ./inp_files/29020.got.cif
#   From: 2010.05.17/outbox.cif.g08.bks.cpg/sg59_15_cif.got.tgz:29020.got - 2010.06.03 14:40:33.
