data_PCOD9447526
_publ_section_title
;
Structure prediction by ZEFSAII (Michael W. Deem and Ramdas Pophale) SiO2 
 PCOD9447526
Probable space group: P M M N
;
_chemical_formula_sum "Si O2"
_cell_formula_units_Z 64
_cell_length_a 19.220981
_cell_length_b 9.340178
_cell_length_c 19.972496
_cell_angle_alpha 90.000000
_cell_angle_beta 90.000000
_cell_angle_gamma 90.000000
_cell_volume 3585.609956
_symmetry_space_group_name_H-M "P M M N"
_symmetry_group_IT_number 59
_space_group.IT_coordinate_system_code '2'
_symmetry_cell_setting 'orthorhombic'
loop_
_space_group_symop_operation_xyz
x,y,z
1/2-x,1/2-y,z
1/2+x,-y,-z
-x,1/2+y,-z
-x,-y,-z
1/2+x,1/2+y,-z
1/2-x,y,z
x,1/2-y,z
loop_
_atom_site_type_symbol
_atom_site_label
_atom_site_fract_x
_atom_site_fract_y
_atom_site_fract_z
Si Si1 0.596812 0.414784 0.045948
Si Si2 0.576846 0.080596 0.424568
Si Si3 0.068276 0.415539 0.083856
Si Si4 0.169586 0.421490 0.466064
Si Si5 0.172962 0.913232 0.702342
Si Si6 0.936131 0.921448 0.644962
Si Si7 0.960489 0.417856 0.784504
Si Si8 0.123829 0.084647 0.824771
O O1 0.618175 0.250000 0.039244
O O2 0.514175 0.415497 0.064613
O O3 0.632631 0.493905 0.107923
O O4 0.604546 0.501117 0.977030
O O5 0.578225 0.250000 0.440663
O O6 0.616946 0.058607 0.354489
O O7 0.497651 0.038896 0.407622
O O8 0.619487 0.995423 0.480001
O O9 0.089865 0.250000 0.088809
O O10 0.075210 0.498518 0.153902
O O11 0.250000 0.467825 0.471516
O O12 0.167086 0.250000 0.476523
O O13 0.136168 0.448775 0.393087
O O14 0.250000 0.922053 0.672142
O O15 0.162207 0.750000 0.726758
O O16 0.166444 0.018936 0.763955
O O17 0.943306 0.750000 0.657581
O O18 0.945424 0.006390 0.713851
O O19 0.941591 0.250000 0.783166
O O20 0.043094 0.425576 0.800933
O O21 0.139758 0.250000 0.837011
#
# Coordination Sequence:
#
# PCOD9447526 Si02
#       8
#     8   8   8   8   8   8   8   8
#     4   9  16  26  42  64  94 132 170 209 252 300
#     4  10  20  35  56  78 101 133 174 215 257 309
#     4   9  16  26  42  66  98 133 168 206 252 304
#     4  10  22  38  55  78 107 136 168 210 261 314
#     4  10  20  33  49  70  98 133 173 215 261 313
#     4  10  20  35  55  77 103 137 173 212 259 312
#     4  10  19  30  47  73 103 132 167 212 258 305
#     4  10  19  30  45  67  97 132 170 213 259 307
#
# _framework density 17.849125999999998
#
# number of rings (size 3 to 8) (size 9 to 14) (size 15 to 20)
#    0.000    2.250    1.250    2.250    0.000    6.500 
#    0.000    0.000    0.000    0.000    0.000    0.875 
#    0.000    5.000    0.000    0.000    0.000    0.000 
#
# Total GULP energy -356994.285805 kJ/mol
# GULP energy per Si atom -5578.035716 kJ/mol
# Density = 1.780850 g / cm^3
# Si number density = 17.849126 Si / 1000 Ang^3
#
#
#
# Elastic Constant Matrix: (Units=GPa)
#
#
# Indices 1 2 3 4 5 6 
#
# 1 43.9056 26.9060 32.3681 0.0000 0.0000 0.0000
# 2 26.9060 104.7227 70.6595 0.0000 0.0000 0.0000
# 3 32.3681 70.6595 106.9987 0.0000 0.0000 0.0000
# 4 0.0000 0.0000 0.0000 35.9211 0.0000 0.0000
# 5 0.0000 0.0000 0.0000 0.0000 4.8687 0.0000
# 6 0.0000 0.0000 0.0000 0.0000 0.0000 13.0386
#
#
#
# Elastic Compliance Matrix: (Units=1/GPa)
#
#
# Indices 1 2 3 4 5 6 
#
# 1 0.029773 -0.002836 -0.007134 0.000000 0.000000 0.000000
# 2 -0.002836 0.017494 -0.010694 0.000000 0.000000 0.000000
# 3 -0.007134 -0.010694 0.018566 0.000000 0.000000 0.000000
# 4 0.000000 0.000000 0.000000 0.027839 0.000000 0.000000
# 5 0.000000 0.000000 0.000000 0.000000 0.205393 0.000000
# 6 0.000000 0.000000 0.000000 0.000000 0.000000 0.076695
#
#
# Mechanical properties :
#
#
# Convention : Reuss Voigt Hill
#
# Bulk Modulus (GPa) = 40.80885 57.27716 49.04301
# Shear Modulus (GPa) = 11.75761 19.14524 15.45142
#
# Velocity S-wave (km/s) = 2.56934 3.27863 2.94542
# Velocity P-wave (km/s) = 5.63160 6.81849 6.25327
#
# Compressibility (1/GPa) = 0.02450449
#
# Stress axis : x y z
#
# Youngs Moduli (GPa) = 33.58711 57.16407 53.86115
#
# Poissons Ratio (x) = 0.16213 0.38423
# Poissons Ratio (y) = 0.09526 0.57601
# Poissons Ratio (z) = 0.23960 0.61133
#
# Static dielectric constant tensor:
#      x y z
#    x 1.611240 0.000000 0.000000 
#    y 0.000000 1.600360 0.000000 
#    z 0.000000 0.000000 1.586130 
# 
# From -- ./inp_files/30660.got.cif
#   From: 2010.05.17/outbox.cif.g08.bks.cpg/sg59_16_cif.got.tgz:30660.got - 2010.06.03 14:40:33.
