data_PCOD9447686
_publ_section_title
;
Structure prediction by ZEFSAII (Michael W. Deem and Ramdas Pophale) SiO2 
 PCOD9447686
Probable space group: P M M N
;
_chemical_formula_sum "Si O2"
_cell_formula_units_Z 40
_cell_length_a 7.363508
_cell_length_b 13.538195
_cell_length_c 16.062558
_cell_angle_alpha 90.000000
_cell_angle_beta 90.000000
_cell_angle_gamma 90.000000
_cell_volume 1601.254035
_symmetry_space_group_name_H-M "P M M N"
_symmetry_group_IT_number 59
_space_group.IT_coordinate_system_code '2'
_symmetry_cell_setting 'orthorhombic'
loop_
_space_group_symop_operation_xyz
x,y,z
1/2-x,1/2-y,z
1/2+x,-y,-z
-x,1/2+y,-z
-x,-y,-z
1/2+x,1/2+y,-z
1/2-x,y,z
x,1/2-y,z
loop_
_atom_site_type_symbol
_atom_site_label
_atom_site_fract_x
_atom_site_fract_y
_atom_site_fract_z
Si Si1 0.970283 0.637343 0.349162
Si Si2 0.028724 0.073493 0.112158
Si Si3 0.041042 0.067468 0.290500
Si Si4 0.039053 0.855877 0.067892
Si Si5 0.539456 0.631777 0.534571
O O1 0.750000 0.637088 0.349483
O O2 0.027018 0.750000 0.331213
O O3 0.034805 0.608390 0.442890
O O4 0.036114 0.551849 0.288505
O O5 0.250000 0.073144 0.112079
O O6 0.966953 0.106678 0.203484
O O7 0.962933 0.960487 0.098336
O O8 0.970653 0.135411 0.032466
O O9 0.250000 0.101807 0.294813
O O10 0.955476 0.095613 0.379034
O O11 0.250000 0.855335 0.092341
O O12 0.959584 0.750000 0.094312
O O13 0.750000 0.598960 0.532375
O O14 0.538183 0.750000 0.537867
#
# Coordination Sequence:
#
# PCOD9447686 Si02
#       5
#     8   8   8   8   8
#     4   9  18  32  48  66  93 131 167 195 229 276
#     4   9  19  33  49  74 101 122 153 196 239 285
#     4  10  19  30  49  75  98 122 154 197 243 278
#     4   9  18  34  53  69  92 128 161 191 234 285
#     4   8  15  29  47  67  94 128 163 196 233 278
#
# _framework density 24.980419000000001
#
# number of rings (size 3 to 8) (size 9 to 14) (size 15 to 20)
#    0.000    3.000    0.000    1.800    0.000    3.200 
#    0.000    4.000    0.000    1.800    0.000    0.000 
#    0.000    0.000    0.000    0.000    0.000    0.000 
#
# Total GULP energy -223340.167057 kJ/mol
# GULP energy per Si atom -5583.504176 kJ/mol
# Density = 2.492356 g / cm^3
# Si number density = 24.980419 Si / 1000 Ang^3
#
#
#
# Elastic Constant Matrix: (Units=GPa)
#
#
# Indices 1 2 3 4 5 6 
#
# 1 98.2788 0.3520 -10.8781 0.0000 0.0000 0.0000
# 2 0.3520 56.6198 -9.7531 0.0000 0.0000 0.0000
# 3 -10.8781 -9.7531 79.7930 0.0000 0.0000 0.0000
# 4 0.0000 0.0000 0.0000 0.2100 0.0000 0.0000
# 5 0.0000 0.0000 0.0000 0.0000 3.0086 0.0000
# 6 0.0000 0.0000 0.0000 0.0000 0.0000 11.1778
#
#
#
# Elastic Compliance Matrix: (Units=1/GPa)
#
#
# Indices 1 2 3 4 5 6 
#
# 1 0.010333 0.000182 0.001431 0.000000 0.000000 0.000000
# 2 0.000182 0.018045 0.002230 0.000000 0.000000 0.000000
# 3 0.001431 0.002230 0.013000 0.000000 0.000000 0.000000
# 4 0.000000 0.000000 0.000000 4.762259 0.000000 0.000000
# 5 0.000000 0.000000 0.000000 0.000000 0.332381 0.000000
# 6 0.000000 0.000000 0.000000 0.000000 0.000000 0.089463
#
#
# Mechanical properties :
#
#
# Convention : Reuss Voigt Hill
#
# Bulk Modulus (GPa) = 20.38111 21.57035 20.97573
# Shear Modulus (GPa) = 0.95527 19.87733 10.41630
#
# Velocity S-wave (km/s) = 0.61906 2.82390 2.04422
# Velocity P-wave (km/s) = 2.94746 4.39161 3.73990
#
# Compressibility (1/GPa) = 0.04906504
#
# Stress axis : x y z
#
# Youngs Moduli (GPa) = 96.77855 55.41782 76.92222
#
# Poissons Ratio (x) = -0.01010 -0.11007
# Poissons Ratio (y) = -0.01764 -0.17157
# Poissons Ratio (z) = -0.13849 -0.12361
#
# Static dielectric constant tensor:
#      x y z
#    x 1.946720 0.000000 0.000000 
#    y 0.000000 1.976250 0.000000 
#    z 0.000000 0.000000 1.983350 
# 
# From -- ./inp_files/19851.got.cif
#   From: 2010.05.17/outbox.cif.g08.bks.cpg/sg59_10_cif.got.tgz:19851.got - 2010.06.03 14:40:33.
