data_PCOD9447295
_publ_section_title
;
Structure prediction by ZEFSAII (Michael W. Deem and Ramdas Pophale) SiO2 
 PCOD9447295
Probable space group: P M M N
;
_chemical_formula_sum "Si O2"
_cell_formula_units_Z 48
_cell_length_a 16.515368
_cell_length_b 15.182385
_cell_length_c 9.713948
_cell_angle_alpha 90.000000
_cell_angle_beta 90.000000
_cell_angle_gamma 90.000000
_cell_volume 2435.701310
_symmetry_space_group_name_H-M "P M M N"
_symmetry_group_IT_number 59
_space_group.IT_coordinate_system_code '2'
_symmetry_cell_setting 'orthorhombic'
loop_
_space_group_symop_operation_xyz
x,y,z
1/2-x,1/2-y,z
1/2+x,-y,-z
-x,1/2+y,-z
-x,-y,-z
1/2+x,1/2+y,-z
1/2-x,y,z
x,1/2-y,z
loop_
_atom_site_type_symbol
_atom_site_label
_atom_site_fract_x
_atom_site_fract_y
_atom_site_fract_z
Si Si1 0.100013 0.347142 0.784852
Si Si2 0.655266 0.465907 0.098285
Si Si3 0.543074 0.415775 0.320979
Si Si4 0.563435 0.428693 0.816762
Si Si5 0.611170 0.844883 0.547894
Si Si6 0.660201 0.463466 0.568371
O O1 0.131711 0.250000 0.824487
O O2 0.144778 0.433404 0.844726
O O3 0.102717 0.351789 0.618106
O O4 0.006180 0.355888 0.831319
O O5 0.750000 0.447750 0.081845
O O6 0.611537 0.399975 0.206436
O O7 0.605758 0.456537 0.957145
O O8 0.488431 0.491240 0.249646
O O9 0.477091 0.349089 0.380396
O O10 0.592944 0.449002 0.452445
O O11 0.631812 0.410982 0.702986
O O12 0.648629 0.750000 0.578638
O O13 0.658000 0.931539 0.596866
O O14 0.750000 0.438866 0.522392
#
# Coordination Sequence:
#
# PCOD9447295 Si02
#       6
#     8   8   8   8   8   8
#     4  10  19  34  57  82 107 139 178 223 270 324
#     4  11  22  35  55  84 112 143 182 225 273 323
#     4  10  18  35  55  78 105 143 188 221 254 324
#     4  10  19  37  54  77 109 149 189 218 256 327
#     4  10  19  33  55  82 110 138 177 226 274 323
#     4  11  19  32  55  81 110 141 177 227 276 318
#
# _framework density 19.706848000000001
#
# number of rings (size 3 to 8) (size 9 to 14) (size 15 to 20)
#    0.000    1.667    5.000    4.000    0.000    0.667 
#    0.000    9.167    0.000   10.000    0.000    0.000 
#    0.000    0.000    0.000    0.000    0.000    0.000 
#
# Total GULP energy -267433.380691 kJ/mol
# GULP energy per Si atom -5571.528764 kJ/mol
# Density = 1.966199 g / cm^3
# Si number density = 19.706848 Si / 1000 Ang^3
#
#
#
# Elastic Constant Matrix: (Units=GPa)
#
#
# Indices 1 2 3 4 5 6 
#
# 1 92.5070 -3.6780 13.2552 0.0000 0.0000 0.0000
# 2 -3.6780 14.2155 -1.6910 0.0000 0.0000 0.0000
# 3 13.2552 -1.6910 82.2393 0.0000 0.0000 0.0000
# 4 0.0000 0.0000 0.0000 10.0087 0.0000 0.0000
# 5 0.0000 0.0000 0.0000 0.0000 15.2216 0.0000
# 6 0.0000 0.0000 0.0000 0.0000 0.0000 13.1258
#
#
#
# Elastic Compliance Matrix: (Units=1/GPa)
#
#
# Indices 1 2 3 4 5 6 
#
# 1 0.011167 0.002682 -0.001745 0.000000 0.000000 0.000000
# 2 0.002682 0.071162 0.001031 0.000000 0.000000 0.000000
# 3 -0.001745 0.001031 0.012462 0.000000 0.000000 0.000000
# 4 0.000000 0.000000 0.000000 0.099913 0.000000 0.000000
# 5 0.000000 0.000000 0.000000 0.000000 0.065696 0.000000
# 6 0.000000 0.000000 0.000000 0.000000 0.000000 0.076186
#
#
# Mechanical properties :
#
#
# Convention : Reuss Voigt Hill
#
# Bulk Modulus (GPa) = 10.12899 22.74826 16.43862
# Shear Modulus (GPa) = 13.67771 19.74294 16.71033
#
# Velocity S-wave (km/s) = 2.63736 3.16861 2.91511
# Velocity P-wave (km/s) = 3.79805 4.99551 4.43736
#
# Compressibility (1/GPa) = 0.09872654
#
# Stress axis : x y z
#
# Youngs Moduli (GPa) = 89.55281 14.05242 80.24370
#
# Poissons Ratio (x) = -0.03768 0.14000
# Poissons Ratio (y) = -0.24014 -0.08273
# Poissons Ratio (z) = 0.15624 -0.01449
#
# Static dielectric constant tensor:
#      x y z
#    x 1.739970 0.000000 0.000000 
#    y 0.000000 1.709910 0.000000 
#    z 0.000000 0.000000 1.701670 
# 
# From -- ./inp_files/10397.got.cif
#   From: 2010.05.17/outbox.cif.g08.bks.cpg/sg59_6_cif.got.tgz:10397.got - 2010.06.03 14:40:33.
