data_PCOD9447739
_publ_section_title
;
Structure prediction by ZEFSAII (Michael W. Deem and Ramdas Pophale) SiO2 
 PCOD9447739
Probable space group: P M M N
;
_chemical_formula_sum "Si O2"
_cell_formula_units_Z 64
_cell_length_a 7.762301
_cell_length_b 24.688160
_cell_length_c 17.471731
_cell_angle_alpha 90.000000
_cell_angle_beta 90.000000
_cell_angle_gamma 90.000000
_cell_volume 3348.228874
_symmetry_space_group_name_H-M "P M M N"
_symmetry_group_IT_number 59
_space_group.IT_coordinate_system_code '2'
_symmetry_cell_setting 'orthorhombic'
loop_
_space_group_symop_operation_xyz
x,y,z
1/2-x,1/2-y,z
1/2+x,-y,-z
-x,1/2+y,-z
-x,-y,-z
1/2+x,1/2+y,-z
1/2-x,y,z
x,1/2-y,z
loop_
_atom_site_type_symbol
_atom_site_label
_atom_site_fract_x
_atom_site_fract_y
_atom_site_fract_z
Si Si1 0.051893 0.815787 0.087576
Si Si2 0.047233 0.915793 0.530117
Si Si3 0.545236 0.626226 0.770061
Si Si4 0.045360 0.522452 0.679685
Si Si5 0.459169 0.311527 0.380749
Si Si6 0.956720 0.311659 0.077984
Si Si7 0.538040 0.312384 0.744077
Si Si8 0.046980 0.591486 0.361159
O O1 0.250000 0.835453 0.088602
O O2 0.056603 0.750000 0.086308
O O3 0.976847 0.829264 0.170622
O O4 0.974297 0.830637 0.005127
O O5 0.250000 0.929105 0.526564
O O6 0.973732 0.951731 0.599846
O O7 0.971737 0.921216 0.445320
O O8 0.025838 0.853897 0.557073
O O9 0.750000 0.627891 0.767385
O O10 0.491066 0.565943 0.745837
O O11 0.481451 0.665736 0.701829
O O12 0.491751 0.648792 0.851959
O O13 0.250000 0.517857 0.672989
O O14 0.972913 0.462547 0.688794
O O15 0.250000 0.312829 0.382229
O O16 0.514910 0.250000 0.392521
O O17 0.750000 0.308099 0.069603
O O18 0.019331 0.250000 0.094166
O O19 0.750000 0.312896 0.746108
O O20 0.488111 0.250000 0.729129
O O21 0.478021 0.355534 0.681497
O O22 0.250000 0.601773 0.372671
#
# Coordination Sequence:
#
# PCOD9447739 Si02
#       8
#     8   8   8   8   8   8   8   8
#     4   7  11  22  41  66  95 124 151 179 216 266
#     4   9  19  32  46  67  92 120 156 196 234 272
#     4  10  19  31  47  67  93 123 157 197 235 271
#     4  10  20  34  49  65  90 124 159 193 234 281
#     4   9  18  31  45  63  91 126 157 185 225 276
#     4   9  16  26  44  71  99 125 154 186 221 268
#     4   8  14  26  46  72  99 123 147 180 225 275
#     4  10  19  31  50  74  94 115 151 196 235 271
#
# _framework density 19.114584000000001
#
# number of rings (size 3 to 8) (size 9 to 14) (size 15 to 20)
#    0.000    3.000    0.000    3.000    0.000    3.000 
#    0.000    1.250    0.000    1.875    0.000    1.750 
#    0.000    0.000    0.000    0.000    0.000    0.000 
#
# Total GULP energy -356608.439871 kJ/mol
# GULP energy per Si atom -5572.006873 kJ/mol
# Density = 1.907108 g / cm^3
# Si number density = 19.114584 Si / 1000 Ang^3
#
#
#
# Elastic Constant Matrix: (Units=GPa)
#
#
# Indices 1 2 3 4 5 6 
#
# 1 26.6481 -4.3842 8.9224 0.0000 0.0000 0.0000
# 2 -4.3842 93.6936 38.8248 0.0000 0.0000 0.0000
# 3 8.9224 38.8248 78.4134 0.0000 0.0000 0.0000
# 4 0.0000 0.0000 0.0000 11.7127 0.0000 0.0000
# 5 0.0000 0.0000 0.0000 0.0000 -2.8720 0.0000
# 6 0.0000 0.0000 0.0000 0.0000 0.0000 17.0594
#
#
#
# Elastic Compliance Matrix: (Units=1/GPa)
#
#
# Indices 1 2 3 4 5 6 
#
# 1 0.040663 0.004806 -0.007006 0.000000 0.000000 0.000000
# 2 0.004806 0.013996 -0.007477 0.000000 0.000000 0.000000
# 3 -0.007006 -0.007477 0.017252 0.000000 0.000000 0.000000
# 4 0.000000 0.000000 0.000000 0.085377 0.000000 0.000000
# 5 0.000000 0.000000 0.000000 0.000000 -0.348192 0.000000
# 6 0.000000 0.000000 0.000000 0.000000 0.000000 0.058619
#
#
# Mechanical properties :
#
#
# Convention : Reuss Voigt Hill
#
# Bulk Modulus (GPa) = 19.02710 31.72013 25.37361
# Shear Modulus (GPa) = -52.40446 15.53950 -18.43248
#
# Velocity S-wave (km/s) = -5.24171 2.85435 -3.10871
# Velocity P-wave (km/s) = 5.16315 5.24346 0.64642
#
# Compressibility (1/GPa) = 0.05255661
#
# Stress axis : x y z
#
# Youngs Moduli (GPa) = 24.59257 71.44791 57.96382
#
# Poissons Ratio (x) = -0.34338 0.40612
# Poissons Ratio (y) = -0.11819 0.43338
# Poissons Ratio (z) = 0.17231 0.53420
#
# Static dielectric constant tensor:
#      x y z
#    x 1.703220 0.000000 0.000000 
#    y 0.000000 1.658960 0.000000 
#    z 0.000000 0.000000 1.718670 
# 
# From -- ./inp_files/26335.got.cif
#   From: 2010.05.17/outbox.cif.g08.bks.cpg/sg59_14_cif.got.tgz:26335.got - 2010.06.03 14:40:33.
