data_PCOD9447483
_publ_section_title
;
Structure prediction by ZEFSAII (Michael W. Deem and Ramdas Pophale) SiO2 
 PCOD9447483
Probable space group: P M M N
;
_chemical_formula_sum "Si O2"
_cell_formula_units_Z 64
_cell_length_a 7.984718
_cell_length_b 30.659609
_cell_length_c 15.474331
_cell_angle_alpha 90.000000
_cell_angle_beta 90.000000
_cell_angle_gamma 90.000000
_cell_volume 3788.245159
_symmetry_space_group_name_H-M "P M M N"
_symmetry_group_IT_number 59
_space_group.IT_coordinate_system_code '2'
_symmetry_cell_setting 'orthorhombic'
loop_
_space_group_symop_operation_xyz
x,y,z
1/2-x,1/2-y,z
1/2+x,-y,-z
-x,1/2+y,-z
-x,-y,-z
1/2+x,1/2+y,-z
1/2-x,y,z
x,1/2-y,z
loop_
_atom_site_type_symbol
_atom_site_label
_atom_site_fract_x
_atom_site_fract_y
_atom_site_fract_z
Si Si1 0.448629 0.614564 0.198580
Si Si2 0.052719 0.438736 0.957176
Si Si3 0.448717 0.527639 0.869978
Si Si4 0.547664 0.058219 0.638242
Si Si5 0.950651 0.798927 0.291606
Si Si6 0.048499 0.960784 0.677165
Si Si7 0.044411 0.892120 0.536282
Si Si8 0.949521 0.298330 0.509681
O O1 0.250000 0.608884 0.193727
O O2 0.521726 0.601230 0.106449
O O3 0.513531 0.582196 0.274475
O O4 0.488059 0.663153 0.229376
O O5 0.250000 0.444863 0.968639
O O6 0.982724 0.481572 0.906630
O O7 0.977058 0.438289 0.052788
O O8 0.250000 0.521611 0.859060
O O9 0.516811 0.539627 0.775801
O O10 0.750000 0.059294 0.639339
O O11 0.492810 0.084674 0.553412
O O12 0.492310 0.008165 0.638095
O O13 0.750000 0.800912 0.297628
O O14 0.999003 0.750000 0.263797
O O15 0.022177 0.805487 0.387965
O O16 0.250000 0.956698 0.679716
O O17 0.986986 0.922009 0.615693
O O18 0.250000 0.891605 0.536114
O O19 0.986356 0.841896 0.536924
O O20 0.750000 0.296654 0.495008
O O21 0.018890 0.250000 0.488296
#
# Coordination Sequence:
#
# PCOD9447483 Si02
#       8
#     8   8   8   8   8   8   8   8
#     4  11  20  31  49  70  95 127 157 191 232 280
#     4  10  19  31  48  68  91 119 154 196 236 281
#     4   9  18  31  45  66  90 120 158 194 237 281
#     4  10  19  30  43  64  95 126 159 190 223 273
#     4  10  20  32  47  69  96 124 156 195 234 275
#     4  10  19  31  47  64  91 125 160 199 234 275
#     4   9  17  30  45  66  92 123 159 193 230 275
#     4   9  16  29  48  67  90 121 156 192 232 276
#
# _framework density 16.894366999999999
#
# number of rings (size 3 to 8) (size 9 to 14) (size 15 to 20)
#    0.000    2.250    2.500    1.500    0.000    2.250 
#    0.000    0.625    0.000    0.000    0.000    0.875 
#    0.000    3.000    0.000    0.000    0.000    0.000 
#
# Total GULP energy -356914.891140 kJ/mol
# GULP energy per Si atom -5576.795174 kJ/mol
# Density = 1.685591 g / cm^3
# Si number density = 16.894367 Si / 1000 Ang^3
#
#
#
# Elastic Constant Matrix: (Units=GPa)
#
#
# Indices 1 2 3 4 5 6 
#
# 1 9.1429 -5.4296 0.6499 0.0000 0.0000 0.0000
# 2 -5.4296 121.8023 56.1965 0.0000 0.0000 0.0000
# 3 0.6499 56.1965 83.2012 0.0000 0.0000 0.0000
# 4 0.0000 0.0000 0.0000 22.1376 0.0000 0.0000
# 5 0.0000 0.0000 0.0000 0.0000 10.7462 0.0000
# 6 0.0000 0.0000 0.0000 0.0000 0.0000 18.9491
#
#
#
# Elastic Compliance Matrix: (Units=1/GPa)
#
#
# Indices 1 2 3 4 5 6 
#
# 1 0.114586 0.008020 -0.006312 0.000000 0.000000 0.000000
# 2 0.008020 0.012488 -0.008497 0.000000 0.000000 0.000000
# 3 -0.006312 -0.008497 0.017808 0.000000 0.000000 0.000000
# 4 0.000000 0.000000 0.000000 0.045172 0.000000 0.000000
# 5 0.000000 0.000000 0.000000 0.000000 0.093056 0.000000
# 6 0.000000 0.000000 0.000000 0.000000 0.000000 0.052773
#
#
# Mechanical properties :
#
#
# Convention : Reuss Voigt Hill
#
# Bulk Modulus (GPa) = 7.61596 35.22002 21.41799
# Shear Modulus (GPa) = 12.71522 21.21523 16.96522
#
# Velocity S-wave (km/s) = 2.74639 3.54751 3.17234
# Velocity P-wave (km/s) = 3.81767 6.13777 5.11111
#
# Compressibility (1/GPa) = 0.13130314
#
# Stress axis : x y z
#
# Youngs Moduli (GPa) = 8.72706 80.07665 56.15526
#
# Poissons Ratio (x) = -0.64223 0.35446
# Poissons Ratio (y) = -0.06999 0.47718
# Poissons Ratio (z) = 0.05509 0.68045
#
# Static dielectric constant tensor:
#      x y z
#    x 1.601070 0.000000 0.000000 
#    y 0.000000 1.581840 0.000000 
#    z 0.000000 0.000000 1.568390 
# 
# From -- ./inp_files/21852.got.cif
#   From: 2010.05.17/outbox.cif.g08.bks.cpg/sg59_11_cif.got.tgz:21852.got - 2010.06.03 14:40:33.
