data_PCOD9447814
_publ_section_title
;
Structure prediction by ZEFSAII (Michael W. Deem and Ramdas Pophale) SiO2 
 PCOD9447814
Probable space group: P M M N
;
_chemical_formula_sum "Si O2"
_cell_formula_units_Z 64
_cell_length_a 9.140154
_cell_length_b 25.173459
_cell_length_c 16.073482
_cell_angle_alpha 90.000000
_cell_angle_beta 90.000000
_cell_angle_gamma 90.000000
_cell_volume 3698.336093
_symmetry_space_group_name_H-M "P M M N"
_symmetry_group_IT_number 59
_space_group.IT_coordinate_system_code '2'
_symmetry_cell_setting 'orthorhombic'
loop_
_space_group_symop_operation_xyz
x,y,z
1/2-x,1/2-y,z
1/2+x,-y,-z
-x,1/2+y,-z
-x,-y,-z
1/2+x,1/2+y,-z
1/2-x,y,z
x,1/2-y,z
loop_
_atom_site_type_symbol
_atom_site_label
_atom_site_fract_x
_atom_site_fract_y
_atom_site_fract_z
Si Si1 0.078043 0.084575 0.724820
Si Si2 0.071691 0.188318 0.130763
Si Si3 0.585869 0.686968 0.685269
Si Si4 0.921565 0.550794 0.464067
Si Si5 0.925924 0.581756 0.963112
Si Si6 0.424672 0.971536 0.121902
Si Si7 0.575859 0.157045 0.481357
Si Si8 0.925431 0.309068 0.666563
O O1 0.250000 0.089589 0.744220
O O2 0.063270 0.056176 0.635343
O O3 0.996901 0.050674 0.794669
O O4 0.007568 0.142951 0.711958
O O5 0.250000 0.189500 0.132304
O O6 0.025114 0.250000 0.113593
O O7 0.026081 0.170590 0.224230
O O8 0.029852 0.140489 0.068710
O O9 0.750000 0.664339 0.672856
O O10 0.600525 0.750000 0.694600
O O11 0.489268 0.678128 0.604359
O O12 0.750000 0.551375 0.483906
O O13 0.000000 0.500000 0.500000
O O14 0.002626 0.600582 0.503755
O O15 0.750000 0.582334 0.977465
O O16 0.954548 0.533997 0.896998
O O17 0.008120 0.562490 0.045813
O O18 0.250000 0.964925 0.124545
O O19 0.750000 0.154005 0.475279
O O20 0.541535 0.188073 0.567285
O O21 0.750000 0.316385 0.674973
O O22 0.963920 0.250000 0.696829
#
# Coordination Sequence:
#
# PCOD9447814 Si02
#       8
#     8   8   8   8   8   8   8   8
#     4  10  21  36  54  77 104 134 171 215 259 305
#     4   8  15  30  52  77 104 133 167 209 258 312
#     4   9  17  29  46  70 100 132 166 205 249 299
#     4  10  21  36  52  72 100 134 171 211 256 303
#     4   9  18  34  56  79 101 130 169 210 255 309
#     4  10  20  34  54  79 105 134 169 210 257 308
#     4  10  19  31  48  71  99 133 173 213 254 300
#     4   9  18  33  52  73 100 135 173 214 261 310
#
# _framework density 17.30508
#
# number of rings (size 3 to 8) (size 9 to 14) (size 15 to 20)
#    0.000    2.625    0.000    2.625    0.000    4.500 
#    0.000    2.500    0.000    3.375    0.000    0.000 
#    0.000    0.000    0.000    0.000    0.000    0.000 
#
# Total GULP energy -356560.478931 kJ/mol
# GULP energy per Si atom -5571.257483 kJ/mol
# Density = 1.726569 g / cm^3
# Si number density = 17.305080 Si / 1000 Ang^3
#
#
#
# Elastic Constant Matrix: (Units=GPa)
#
#
# Indices 1 2 3 4 5 6 
#
# 1 37.3312 28.8466 15.9702 0.0000 0.0000 0.0000
# 2 28.8466 95.1495 28.7743 0.0000 0.0000 0.0000
# 3 15.9702 28.7743 32.6290 0.0000 0.0000 0.0000
# 4 0.0000 0.0000 0.0000 20.7712 0.0000 0.0000
# 5 0.0000 0.0000 0.0000 0.0000 27.6863 0.0000
# 6 0.0000 0.0000 0.0000 0.0000 0.0000 24.3993
#
#
#
# Elastic Compliance Matrix: (Units=1/GPa)
#
#
# Indices 1 2 3 4 5 6 
#
# 1 0.037892 -0.008017 -0.011476 0.000000 0.000000 0.000000
# 2 -0.008017 0.016028 -0.010211 0.000000 0.000000 0.000000
# 3 -0.011476 -0.010211 0.045269 0.000000 0.000000 0.000000
# 4 0.000000 0.000000 0.000000 0.048144 0.000000 0.000000
# 5 0.000000 0.000000 0.000000 0.000000 0.036119 0.000000
# 6 0.000000 0.000000 0.000000 0.000000 0.000000 0.040985
#
#
# Mechanical properties :
#
#
# Convention : Reuss Voigt Hill
#
# Bulk Modulus (GPa) = 25.13753 34.69908 29.91830
# Shear Modulus (GPa) = 16.82912 20.67260 18.75086
#
# Velocity S-wave (km/s) = 3.12187 3.46004 3.29530
# Velocity P-wave (km/s) = 5.24904 6.00479 5.63959
#
# Compressibility (1/GPa) = 0.03978116
#
# Stress axis : x y z
#
# Youngs Moduli (GPa) = 26.39099 62.39017 22.09026
#
# Poissons Ratio (x) = 0.50020 0.25351
# Poissons Ratio (y) = 0.21158 0.22556
# Poissons Ratio (z) = 0.30286 0.63704
#
# Static dielectric constant tensor:
#      x y z
#    x 1.569510 0.000000 0.000000 
#    y 0.000000 1.585700 0.000000 
#    z 0.000000 0.000000 1.592580 
# 
# From -- ./inp_files/21417.got.cif
#   From: 2010.05.17/outbox.cif.g08.bks.cpg/sg59_11_cif.got.tgz:21417.got - 2010.06.03 14:40:33.
