data_PCOD9447654
_publ_section_title
;
Structure prediction by ZEFSAII (Michael W. Deem and Ramdas Pophale) SiO2 
 PCOD9447654
Probable space group: P M M N
;
_chemical_formula_sum "Si O2"
_cell_formula_units_Z 56
_cell_length_a 20.893392
_cell_length_b 7.482065
_cell_length_c 17.614607
_cell_angle_alpha 90.000000
_cell_angle_beta 90.000000
_cell_angle_gamma 90.000000
_cell_volume 2753.616069
_symmetry_space_group_name_H-M "P M M N"
_symmetry_group_IT_number 59
_space_group.IT_coordinate_system_code '2'
_symmetry_cell_setting 'orthorhombic'
loop_
_space_group_symop_operation_xyz
x,y,z
1/2-x,1/2-y,z
1/2+x,-y,-z
-x,1/2+y,-z
-x,-y,-z
1/2+x,1/2+y,-z
1/2-x,y,z
x,1/2-y,z
loop_
_atom_site_type_symbol
_atom_site_label
_atom_site_fract_x
_atom_site_fract_y
_atom_site_fract_z
Si Si1 0.822359 0.968317 0.319860
Si Si2 0.321302 0.538793 0.128967
Si Si3 0.177861 0.034282 0.952339
Si Si4 0.452829 0.039654 0.386704
Si Si5 0.055460 0.543499 0.213372
Si Si6 0.092508 0.465727 0.545319
Si Si7 0.586365 0.969084 0.181872
O O1 0.750000 0.027052 0.305923
O O2 0.822122 0.750000 0.319155
O O3 0.849672 0.025453 0.401483
O O4 0.871453 0.024225 0.254393
O O5 0.250000 0.463656 0.143953
O O6 0.317670 0.750000 0.146298
O O7 0.380988 0.462986 0.175853
O O8 0.333693 0.519528 0.039105
O O9 0.250000 0.974762 0.930895
O O10 0.178227 0.250000 0.949761
O O11 0.124070 0.973738 0.893478
O O12 0.440728 0.250000 0.379162
O O13 0.412450 0.969043 0.458738
O O14 0.440993 0.959194 0.304501
O O15 0.526464 0.013459 0.412072
O O16 0.053646 0.750000 0.188040
O O17 0.986529 0.466700 0.189314
O O18 0.094281 0.250000 0.541703
O O19 0.585138 0.750000 0.183001
#
# Coordination Sequence:
#
# PCOD9447654 Si02
#       7
#     8   8   8   8   8   8   8
#     4   9  15  25  46  73  98 125 160 199 233 276
#     4   9  19  35  52  69  92 127 167 200 240 296
#     4   9  17  30  49  72  97 124 156 196 241 287
#     4  10  19  30  48  73  99 125 160 203 243 282
#     4  10  19  33  52  71  95 127 163 203 242 286
#     4   9  17  31  49  70  96 129 165 195 234 288
#     4   9  16  27  46  73  98 122 159 197 234 283
#
# _framework density 20.336894999999998
#
# number of rings (size 3 to 8) (size 9 to 14) (size 15 to 20)
#    0.000    2.714    1.429    0.857    0.000    3.429 
#    0.000    1.429    0.000    1.286    0.000    0.000 
#    0.000    0.000    0.000    0.000    0.000    0.000 
#
# Total GULP energy -312414.655375 kJ/mol
# GULP energy per Si atom -5578.833132 kJ/mol
# Density = 2.029061 g / cm^3
# Si number density = 20.336895 Si / 1000 Ang^3
#
#
#
# Elastic Constant Matrix: (Units=GPa)
#
#
# Indices 1 2 3 4 5 6 
#
# 1 185.4842 7.0759 106.8522 0.0000 0.0000 0.0000
# 2 7.0759 56.7666 -6.7800 0.0000 0.0000 0.0000
# 3 106.8522 -6.7800 111.3901 0.0000 0.0000 0.0000
# 4 0.0000 0.0000 0.0000 15.6345 0.0000 0.0000
# 5 0.0000 0.0000 0.0000 0.0000 23.0180 0.0000
# 6 0.0000 0.0000 0.0000 0.0000 0.0000 1.8206
#
#
#
# Elastic Compliance Matrix: (Units=1/GPa)
#
#
# Indices 1 2 3 4 5 6 
#
# 1 0.012545 -0.003023 -0.012218 0.000000 0.000000 0.000000
# 2 -0.003023 0.018473 0.004024 0.000000 0.000000 0.000000
# 3 -0.012218 0.004024 0.020943 0.000000 0.000000 0.000000
# 4 0.000000 0.000000 0.000000 0.063961 0.000000 0.000000
# 5 0.000000 0.000000 0.000000 0.000000 0.043444 0.000000
# 6 0.000000 0.000000 0.000000 0.000000 0.000000 0.549259
#
#
# Mechanical properties :
#
#
# Convention : Reuss Voigt Hill
#
# Bulk Modulus (GPa) = 33.86651 63.10412 48.48531
# Shear Modulus (GPa) = 6.74853 24.52747 15.63800
#
# Velocity S-wave (km/s) = 1.82362 3.47660 2.77600
# Velocity P-wave (km/s) = 4.59598 6.87113 5.84531
#
# Compressibility (1/GPa) = 0.02952770
#
# Stress axis : x y z
#
# Youngs Moduli (GPa) = 79.71285 54.13179 47.74957
#
# Poissons Ratio (x) = 0.16364 0.58340
# Poissons Ratio (y) = 0.24097 -0.19216
# Poissons Ratio (z) = 0.97393 -0.21784
#
# Static dielectric constant tensor:
#      x y z
#    x 1.718640 0.000000 0.000000 
#    y 0.000000 1.764600 0.000000 
#    z 0.000000 0.000000 1.695110 
# 
# From -- ./inp_files/24186.got.cif
#   From: 2010.05.17/outbox.cif.g08.bks.cpg/sg59_13_cif.got.tgz:24186.got - 2010.06.03 14:40:33.
