data_PCOD9447682
_publ_section_title
;
Structure prediction by ZEFSAII (Michael W. Deem and Ramdas Pophale) SiO2 
 PCOD9447682
Probable space group: P M M N
;
_chemical_formula_sum "Si O2"
_cell_formula_units_Z 64
_cell_length_a 30.269886
_cell_length_b 8.733485
_cell_length_c 15.275295
_cell_angle_alpha 90.000000
_cell_angle_beta 90.000000
_cell_angle_gamma 90.000000
_cell_volume 4038.201355
_symmetry_space_group_name_H-M "P M M N"
_symmetry_group_IT_number 59
_space_group.IT_coordinate_system_code '2'
_symmetry_cell_setting 'orthorhombic'
loop_
_space_group_symop_operation_xyz
x,y,z
1/2-x,1/2-y,z
1/2+x,-y,-z
-x,1/2+y,-z
-x,-y,-z
1/2+x,1/2+y,-z
1/2-x,y,z
x,1/2-y,z
loop_
_atom_site_type_symbol
_atom_site_label
_atom_site_fract_x
_atom_site_fract_y
_atom_site_fract_z
Si Si1 0.392038 0.567548 0.039579
Si Si2 0.027837 0.434540 0.372016
Si Si3 0.441749 0.432764 0.870966
Si Si4 0.121825 0.432913 0.706971
Si Si5 0.036905 0.434315 0.171322
Si Si6 0.063175 0.434653 0.552288
Si Si7 0.199473 0.927403 0.811454
Si Si8 0.699849 0.567871 0.997991
O O1 0.393749 0.750000 0.036510
O O2 0.423107 0.504028 0.116314
O O3 0.412654 0.500805 0.949557
O O4 0.341447 0.512222 0.048254
O O5 0.024587 0.250000 0.371904
O O6 0.980906 0.501517 0.402006
O O7 0.039150 0.481643 0.273538
O O8 0.061359 0.479296 0.450226
O O9 0.445725 0.250000 0.882728
O O10 0.416258 0.461696 0.779619
O O11 0.490161 0.506782 0.866572
O O12 0.129681 0.250000 0.706549
O O13 0.104026 0.482826 0.612386
O O14 0.165014 0.518079 0.739884
O O15 0.038062 0.250000 0.165742
O O16 0.061193 0.250000 0.556576
O O17 0.250000 0.941721 0.781320
O O18 0.191434 0.750000 0.835271
O O19 0.194672 0.027060 0.899256
O O20 0.750000 0.519138 0.973180
O O21 0.696655 0.750000 0.986541
#
# Coordination Sequence:
#
# PCOD9447682 Si02
#       8
#     8   8   8   8   8   8   8   8
#     4  12  24  36  51  71  97 133 170 206 245 290
#     4   9  18  31  49  71  95 125 160 200 243 284
#     4  11  21  34  49  70 100 135 171 204 240 285
#     4  10  19  30  49  72  99 133 164 198 240 289
#     4  11  22  35  50  70  99 134 171 209 248 291
#     4   9  17  31  49  71  97 124 158 198 240 286
#     4  10  20  32  48  71  99 129 162 201 241 287
#     4  10  20  35  54  74  97 125 159 201 248 295
#
# _framework density 15.848641000000001
#
# number of rings (size 3 to 8) (size 9 to 14) (size 15 to 20)
#    0.000    1.750    2.500    3.000    0.000    3.000 
#    0.000    0.000    0.000    0.000    0.000    0.875 
#    0.000    3.000    0.000    0.000    0.000    0.000 
#
# Total GULP energy -357143.844259 kJ/mol
# GULP energy per Si atom -5580.372567 kJ/mol
# Density = 1.581257 g / cm^3
# Si number density = 15.848641 Si / 1000 Ang^3
#
#
#
# Elastic Constant Matrix: (Units=GPa)
#
#
# Indices 1 2 3 4 5 6 
#
# 1 105.0024 39.3163 41.9509 0.0000 0.0000 0.0000
# 2 39.3163 48.8946 27.4291 0.0000 0.0000 0.0000
# 3 41.9509 27.4291 66.8968 0.0000 0.0000 0.0000
# 4 0.0000 0.0000 0.0000 14.2137 0.0000 0.0000
# 5 0.0000 0.0000 0.0000 0.0000 22.8151 0.0000
# 6 0.0000 0.0000 0.0000 0.0000 0.0000 28.2117
#
#
#
# Elastic Compliance Matrix: (Units=1/GPa)
#
#
# Indices 1 2 3 4 5 6 
#
# 1 0.015220 -0.008941 -0.005879 0.000000 0.000000 0.000000
# 2 -0.008941 0.031814 -0.007438 0.000000 0.000000 0.000000
# 3 -0.005879 -0.007438 0.021684 0.000000 0.000000 0.000000
# 4 0.000000 0.000000 0.000000 0.070355 0.000000 0.000000
# 5 0.000000 0.000000 0.000000 0.000000 0.043831 0.000000
# 6 0.000000 0.000000 0.000000 0.000000 0.000000 0.035446
#
#
# Mechanical properties :
#
#
# Convention : Reuss Voigt Hill
#
# Bulk Modulus (GPa) = 41.31474 48.68740 45.00107
# Shear Modulus (GPa) = 18.45486 20.52127 19.48807
#
# Velocity S-wave (km/s) = 3.41610 3.60228 3.51042
# Velocity P-wave (km/s) = 6.45636 6.93461 6.69975
#
# Compressibility (1/GPa) = 0.02420443
#
# Stress axis : x y z
#
# Youngs Moduli (GPa) = 65.70369 31.43293 46.11604
#
# Poissons Ratio (x) = 0.28103 0.27109
# Poissons Ratio (y) = 0.58743 0.34300
# Poissons Ratio (z) = 0.38624 0.23379
#
# Static dielectric constant tensor:
#      x y z
#    x 1.522450 0.000000 0.000000 
#    y 0.000000 1.530990 0.000000 
#    z 0.000000 0.000000 1.531960 
# 
# From -- ./inp_files/25100.got.cif
#   From: 2010.05.17/outbox.cif.g08.bks.cpg/sg59_13_cif.got.tgz:25100.got - 2010.06.03 14:40:33.
