data_PCOD9447500
_publ_section_title
;
Structure prediction by ZEFSAII (Michael W. Deem and Ramdas Pophale) SiO2 
 PCOD9447500
Probable space group: P M M N
;
_chemical_formula_sum "Si O2"
_cell_formula_units_Z 64
_cell_length_a 9.184973
_cell_length_b 14.206325
_cell_length_c 32.386196
_cell_angle_alpha 90.000000
_cell_angle_beta 90.000000
_cell_angle_gamma 90.000000
_cell_volume 4225.903443
_symmetry_space_group_name_H-M "P M M N"
_symmetry_group_IT_number 59
_space_group.IT_coordinate_system_code '2'
_symmetry_cell_setting 'orthorhombic'
loop_
_space_group_symop_operation_xyz
x,y,z
1/2-x,1/2-y,z
1/2+x,-y,-z
-x,1/2+y,-z
-x,-y,-z
1/2+x,1/2+y,-z
1/2-x,y,z
x,1/2-y,z
loop_
_atom_site_type_symbol
_atom_site_label
_atom_site_fract_x
_atom_site_fract_y
_atom_site_fract_z
Si Si1 0.423268 0.137857 0.315370
Si Si2 0.925115 0.953457 0.939110
Si Si3 0.924975 0.142993 0.983529
Si Si4 0.918955 0.363052 0.477810
Si Si5 0.917410 0.135676 0.231070
Si Si6 0.575386 0.857426 0.437958
Si Si7 0.924107 0.861486 0.852939
Si Si8 0.574679 0.461099 0.392118
O O1 0.250000 0.124793 0.314081
O O2 0.451688 0.250000 0.320779
O O3 0.494875 0.107775 0.271986
O O4 0.494395 0.082408 0.353185
O O5 0.750000 0.942753 0.942447
O O6 0.967337 0.919351 0.893579
O O7 0.961692 0.061787 0.950250
O O8 0.000051 0.889440 0.973970
O O9 0.750000 0.140732 0.988850
O O10 0.966662 0.250000 0.972707
O O11 0.750000 0.389593 0.484261
O O12 0.927402 0.250000 0.474219
O O13 0.965893 0.406721 0.434378
O O14 0.009708 0.389576 0.518247
O O15 0.750000 0.104723 0.233030
O O16 0.918551 0.250000 0.230748
O O17 0.994103 0.107088 0.188458
O O18 0.750000 0.858252 0.441844
O O19 0.527597 0.750000 0.430270
O O20 0.537582 0.930541 0.402070
O O21 0.750000 0.870666 0.846969
O O22 0.953696 0.750000 0.859849
O O23 0.750000 0.452023 0.386846
#
# Coordination Sequence:
#
# PCOD9447500 Si02
#       8
#     8   8   8   8   8   8   8   8
#     4  10  20  32  46  66  91 115 139 170 209 255
#     4   9  17  28  42  61  85 116 152 185 220 261
#     4   9  17  28  41  59  86 118 151 188 225 258
#     4   9  17  28  42  61  85 113 144 177 212 249
#     4   9  17  29  45  64  87 114 139 166 207 258
#     4   9  18  31  45  62  85 113 146 182 215 246
#     4   9  16  26  41  61  85 112 142 176 212 252
#     4  10  19  30  45  64  87 116 146 175 210 252
#
# _framework density 15.144691
#
# number of rings (size 3 to 8) (size 9 to 14) (size 15 to 20)
#    0.000    2.750    0.000    1.875    0.000    5.000 
#    0.000    2.500    0.000    0.000    0.000    0.875 
#    0.000    3.000    0.000    0.000    0.000    0.000 
#
# Total GULP energy -356649.343514 kJ/mol
# GULP energy per Si atom -5572.645992 kJ/mol
# Density = 1.511022 g / cm^3
# Si number density = 15.144691 Si / 1000 Ang^3
#
#
#
# Elastic Constant Matrix: (Units=GPa)
#
#
# Indices 1 2 3 4 5 6 
#
# 1 38.8167 37.4069 59.5362 0.0000 0.0000 0.0000
# 2 37.4069 77.3579 68.0344 0.0000 0.0000 0.0000
# 3 59.5362 68.0344 151.6786 0.0000 0.0000 0.0000
# 4 0.0000 0.0000 0.0000 24.7943 0.0000 0.0000
# 5 0.0000 0.0000 0.0000 0.0000 29.7789 0.0000
# 6 0.0000 0.0000 0.0000 0.0000 0.0000 15.2353
#
#
#
# Elastic Compliance Matrix: (Units=1/GPa)
#
#
# Indices 1 2 3 4 5 6 
#
# 1 0.076908 -0.017572 -0.022306 0.000000 0.000000 0.000000
# 2 -0.017572 0.025363 -0.004479 0.000000 0.000000 0.000000
# 3 -0.022306 -0.004479 0.017357 0.000000 0.000000 0.000000
# 4 0.000000 0.000000 0.000000 0.040332 0.000000 0.000000
# 5 0.000000 0.000000 0.000000 0.000000 0.033581 0.000000
# 6 0.000000 0.000000 0.000000 0.000000 0.000000 0.065637
#
#
# Mechanical properties :
#
#
# Convention : Reuss Voigt Hill
#
# Bulk Modulus (GPa) = 32.34703 66.42313 49.38508
# Shear Modulus (GPa) = 13.95875 20.82007 17.38941
#
# Velocity S-wave (km/s) = 3.03923 3.71178 3.39221
# Velocity P-wave (km/s) = 5.80697 7.89455 6.92982
#
# Compressibility (1/GPa) = 0.03091474
#
# Stress axis : x y z
#
# Youngs Moduli (GPa) = 13.00250 39.42679 57.61224
#
# Poissons Ratio (x) = 0.69281 1.28509
# Poissons Ratio (y) = 0.22848 0.25806
# Poissons Ratio (z) = 0.29003 0.17660
#
# Static dielectric constant tensor:
#      x y z
#    x 1.508090 0.000000 0.000000 
#    y 0.000000 1.516440 0.000000 
#    z 0.000000 0.000000 1.474990 
# 
# From -- ./inp_files/33215.got.cif
#   From: 2010.05.17/outbox.cif.g08.bks.cpg/sg59_17_cif.got.tgz:33215.got - 2010.06.03 14:40:33.
