data_PCOD9447834
_publ_section_title
;
Structure prediction by ZEFSAII (Michael W. Deem and Ramdas Pophale) SiO2 
 PCOD9447834
Probable space group: P M M N
;
_chemical_formula_sum "Si O2"
_cell_formula_units_Z 58
_cell_length_a 7.788076
_cell_length_b 15.707142
_cell_length_c 25.480517
_cell_angle_alpha 90.000000
_cell_angle_beta 90.000000
_cell_angle_gamma 90.000000
_cell_volume 3116.991274
_symmetry_space_group_name_H-M "P M M N"
_symmetry_group_IT_number 59
_space_group.IT_coordinate_system_code '2'
_symmetry_cell_setting 'orthorhombic'
loop_
_space_group_symop_operation_xyz
x,y,z
1/2-x,1/2-y,z
1/2+x,-y,-z
-x,1/2+y,-z
-x,-y,-z
1/2+x,1/2+y,-z
1/2-x,y,z
x,1/2-y,z
loop_
_atom_site_type_symbol
_atom_site_label
_atom_site_fract_x
_atom_site_fract_y
_atom_site_fract_z
Si Si1 0.946987 0.126539 0.959022
Si Si2 0.546955 0.344137 0.594356
Si Si3 0.949618 0.441079 0.067684
Si Si4 0.545715 0.527672 0.616444
Si Si5 0.954273 0.347109 0.290499
Si Si6 0.541871 0.845694 0.527348
Si Si7 0.455226 0.347019 0.172100
Si Si8 0.250000 0.250000 0.927105
O O1 0.750000 0.156545 0.953074
O O2 0.095955 0.177168 0.929951
O O3 0.995380 0.124899 0.021199
O O4 0.950837 0.028357 0.941046
O O5 0.750000 0.340048 0.606270
O O6 0.473781 0.250000 0.607561
O O7 0.475796 0.431270 0.619408
O O8 0.525224 0.355409 0.531649
O O9 0.750000 0.460475 0.059084
O O10 0.975164 0.403363 0.125056
O O11 0.750000 0.519228 0.607878
O O12 0.520513 0.585659 0.667387
O O13 0.477890 0.581822 0.566801
O O14 0.750000 0.343571 0.295995
O O15 0.022251 0.250000 0.298475
O O16 0.997045 0.373659 0.231037
O O17 0.750000 0.848996 0.525339
O O18 0.494707 0.750000 0.545941
O O19 0.250000 0.346642 0.168154
O O20 0.519182 0.250000 0.165978
#
# Coordination Sequence:
#
# PCOD9447834 Si02
#       8
#     8   8   8   8   8   8   8   2
#     4  10  22  36  55  82 116 153 192 233 280 330
#     4   9  18  31  46  68  96 125 163 208 248 291
#     4  10  20  36  54  80 116 150 183 228 274 323
#     4  10  19  31  49  69  95 132 166 200 250 306
#     4  10  21  36  51  74 104 130 163 208 256 313
#     4   9  17  28  43  66  95 127 161 200 245 300
#     4  10  21  34  55  81 109 142 177 214 260 318
#     4  12  22  36  56  82 114 156 194 240 272 334
#
# _framework density 18.607686999999999
#
# number of rings (size 3 to 8) (size 9 to 14) (size 15 to 20)
#    0.000    2.207    0.690    2.276    2.897    3.310 
#    0.000    1.379    0.000    0.000    1.793    0.000 
#    0.000    0.000    0.000    0.000    0.000    0.000 
#
# Total GULP energy -323000.750058 kJ/mol
# GULP energy per Si atom -5568.978449 kJ/mol
# Density = 1.856534 g / cm^3
# Si number density = 18.607687 Si / 1000 Ang^3
#
#
#
# Elastic Constant Matrix: (Units=GPa)
#
#
# Indices 1 2 3 4 5 6 
#
# 1 53.2778 12.4333 -12.8507 0.0000 0.0000 0.0000
# 2 12.4333 102.0865 47.8202 0.0000 0.0000 0.0000
# 3 -12.8507 47.8202 62.0793 0.0000 0.0000 0.0000
# 4 0.0000 0.0000 0.0000 27.2591 0.0000 0.0000
# 5 0.0000 0.0000 0.0000 0.0000 22.2725 0.0000
# 6 0.0000 0.0000 0.0000 0.0000 0.0000 13.7518
#
#
#
# Elastic Compliance Matrix: (Units=1/GPa)
#
#
# Indices 1 2 3 4 5 6 
#
# 1 0.023270 -0.007964 0.010952 0.000000 0.000000 0.000000
# 2 -0.007964 0.018051 -0.015554 0.000000 0.000000 0.000000
# 3 0.010952 -0.015554 0.030357 0.000000 0.000000 0.000000
# 4 0.000000 0.000000 0.000000 0.036685 0.000000 0.000000
# 5 0.000000 0.000000 0.000000 0.000000 0.044898 0.000000
# 6 0.000000 0.000000 0.000000 0.000000 0.000000 0.072718
#
#
# Mechanical properties :
#
#
# Convention : Reuss Voigt Hill
#
# Bulk Modulus (GPa) = 21.48431 34.69433 28.08932
# Shear Modulus (GPa) = 18.75283 23.99275 21.37279
#
# Velocity S-wave (km/s) = 3.17803 3.59472 3.39278
# Velocity P-wave (km/s) = 5.00375 5.99291 5.52053
#
# Compressibility (1/GPa) = 0.04654560
#
# Stress axis : x y z
#
# Youngs Moduli (GPa) = 42.97429 55.39729 32.94161
#
# Poissons Ratio (x) = 0.44120 -0.36077
# Poissons Ratio (y) = 0.34226 0.51237
# Poissons Ratio (z) = -0.47065 0.86164
#
# Static dielectric constant tensor:
#      x y z
#    x 1.657800 0.000000 0.000000 
#    y 0.000000 1.685850 0.000000 
#    z 0.000000 0.000000 1.614630 
# 
# From -- ./inp_files/31339.got.cif
#   From: 2010.05.17/outbox.cif.g08.bks.cpg/sg59_16_cif.got.tgz:31339.got - 2010.06.03 14:40:33.
