data_PCOD9447519
_publ_section_title
;
Structure prediction by ZEFSAII (Michael W. Deem and Ramdas Pophale) SiO2 
 PCOD9447519
Probable space group: P M M N
;
_chemical_formula_sum "Si O2"
_cell_formula_units_Z 56
_cell_length_a 24.646748
_cell_length_b 9.004516
_cell_length_c 16.492442
_cell_angle_alpha 90.000000
_cell_angle_beta 90.000000
_cell_angle_gamma 90.000000
_cell_volume 3660.201243
_symmetry_space_group_name_H-M "P M M N"
_symmetry_group_IT_number 59
_space_group.IT_coordinate_system_code '2'
_symmetry_cell_setting 'orthorhombic'
loop_
_space_group_symop_operation_xyz
x,y,z
1/2-x,1/2-y,z
1/2+x,-y,-z
-x,1/2+y,-z
-x,-y,-z
1/2+x,1/2+y,-z
1/2-x,y,z
x,1/2-y,z
loop_
_atom_site_type_symbol
_atom_site_label
_atom_site_fract_x
_atom_site_fract_y
_atom_site_fract_z
Si Si1 0.585977 0.927092 0.008228
Si Si2 0.013111 0.572676 0.127945
Si Si3 0.685861 0.921829 0.260455
Si Si4 0.392334 0.575133 0.617181
Si Si5 0.947563 0.071954 0.542900
Si Si6 0.686716 0.072882 0.089151
Si Si7 0.011672 0.073789 0.303882
O O1 0.588442 0.750000 0.997079
O O2 0.544212 0.957480 0.082635
O O3 0.644247 0.993103 0.030588
O O4 0.558995 0.003858 0.930272
O O5 0.019408 0.750000 0.133713
O O6 0.014619 0.499203 0.215929
O O7 0.750000 0.933451 0.277044
O O8 0.672991 0.750000 0.242483
O O9 0.651350 0.979222 0.335682
O O10 0.674295 0.018406 0.180494
O O11 0.379503 0.750000 0.625011
O O12 0.399906 0.540820 0.521735
O O13 0.450830 0.551517 0.660325
O O14 0.953975 0.250000 0.547434
O O15 0.947317 0.001656 0.631909
O O16 0.000000 0.000000 0.500000
O O17 0.750000 0.035217 0.073010
O O18 0.680627 0.250000 0.084052
O O19 0.021131 0.250000 0.300028
#
# Coordination Sequence:
#
# PCOD9447519 Si02
#       7
#     8   8   8   8   8   8   8
#     4  10  20  33  49  69  93 122 156 193 232 274
#     4  10  20  32  47  68  95 126 156 189 231 278
#     4  10  20  31  44  65  91 119 153 189 223 263
#     4   9  18  30  45  65  90 121 152 184 222 265
#     4   9  17  29  44  64  89 116 148 182 218 262
#     4  10  20  33  49  68  92 123 156 191 231 274
#     4  10  19  30  45  67  93 120 152 186 222 267
#
# _framework density 15.299704999999999
#
# number of rings (size 3 to 8) (size 9 to 14) (size 15 to 20)
#    0.000    2.286    0.000    4.286    0.000    9.143 
#    0.000    0.000    0.000    0.000    0.000    1.000 
#    0.000    3.429    0.000    0.000    0.000    0.000 
#
# Total GULP energy -312300.803405 kJ/mol
# GULP energy per Si atom -5576.800061 kJ/mol
# Density = 1.526488 g / cm^3
# Si number density = 15.299705 Si / 1000 Ang^3
#
#
#
# Elastic Constant Matrix: (Units=GPa)
#
#
# Indices 1 2 3 4 5 6 
#
# 1 46.3101 39.6623 33.4698 0.0000 0.0000 0.0000
# 2 39.6623 73.6677 58.1422 0.0000 0.0000 0.0000
# 3 33.4698 58.1422 119.4481 0.0000 0.0000 0.0000
# 4 0.0000 0.0000 0.0000 30.9271 0.0000 0.0000
# 5 0.0000 0.0000 0.0000 0.0000 24.4677 0.0000
# 6 0.0000 0.0000 0.0000 0.0000 0.0000 25.1366
#
#
#
# Elastic Compliance Matrix: (Units=1/GPa)
#
#
# Indices 1 2 3 4 5 6 
#
# 1 0.040173 -0.020695 -0.001183 0.000000 0.000000 0.000000
# 2 -0.020695 0.032704 -0.010120 0.000000 0.000000 0.000000
# 3 -0.001183 -0.010120 0.013629 0.000000 0.000000 0.000000
# 4 0.000000 0.000000 0.000000 0.032334 0.000000 0.000000
# 5 0.000000 0.000000 0.000000 0.000000 0.040870 0.000000
# 6 0.000000 0.000000 0.000000 0.000000 0.000000 0.039783
#
#
# Mechanical properties :
#
#
# Convention : Reuss Voigt Hill
#
# Bulk Modulus (GPa) = 44.42532 55.77493 50.10013
# Shear Modulus (GPa) = 18.45069 23.31638 20.88353
#
# Velocity S-wave (km/s) = 3.47645 3.90805 3.69855
# Velocity P-wave (km/s) = 6.72414 7.54307 7.14534
#
# Compressibility (1/GPa) = 0.02250968
#
# Stress axis : x y z
#
# Youngs Moduli (GPa) = 24.89235 30.57756 73.37139
#
# Poissons Ratio (x) = 0.63281 0.08681
# Poissons Ratio (y) = 0.51515 0.74251
# Poissons Ratio (z) = 0.02945 0.30944
#
# Static dielectric constant tensor:
#      x y z
#    x 1.497130 0.000000 0.000000 
#    y 0.000000 1.506170 0.000000 
#    z 0.000000 0.000000 1.506510 
# 
# From -- ./inp_files/28024.got.cif
#   From: 2010.05.17/outbox.cif.g08.bks.cpg/sg59_15_cif.got.tgz:28024.got - 2010.06.03 14:40:33.
