data_PCOD9447429
_publ_section_title
;
Structure prediction by ZEFSAII (Michael W. Deem and Ramdas Pophale) SiO2 
 PCOD9447429
Probable space group: P M M N
;
_chemical_formula_sum "Si O2"
_cell_formula_units_Z 64
_cell_length_a 9.076713
_cell_length_b 14.158521
_cell_length_c 32.296430
_cell_angle_alpha 90.000000
_cell_angle_beta 90.000000
_cell_angle_gamma 90.000000
_cell_volume 4150.505671
_symmetry_space_group_name_H-M "P M M N"
_symmetry_group_IT_number 59
_space_group.IT_coordinate_system_code '2'
_symmetry_cell_setting 'orthorhombic'
loop_
_space_group_symop_operation_xyz
x,y,z
1/2-x,1/2-y,z
1/2+x,-y,-z
-x,1/2+y,-z
-x,-y,-z
1/2+x,1/2+y,-z
1/2-x,y,z
x,1/2-y,z
loop_
_atom_site_type_symbol
_atom_site_label
_atom_site_fract_x
_atom_site_fract_y
_atom_site_fract_z
Si Si1 0.425464 0.137663 0.313442
Si Si2 0.074133 0.953650 0.936814
Si Si3 0.073965 0.141664 0.984407
Si Si4 0.921073 0.363466 0.477295
Si Si5 0.919523 0.135384 0.228078
Si Si6 0.573187 0.857466 0.437553
Si Si7 0.925828 0.862368 0.857589
Si Si8 0.572333 0.461011 0.391463
O O1 0.250000 0.125644 0.311348
O O2 0.455508 0.250000 0.318884
O O3 0.499316 0.106643 0.270244
O O4 0.493585 0.082128 0.351929
O O5 0.250000 0.942509 0.933549
O O6 0.997027 0.920187 0.894976
O O7 0.041954 0.062311 0.949793
O O8 0.012215 0.890264 0.974522
O O9 0.250000 0.136297 0.992893
O O10 0.039296 0.250000 0.973290
O O11 0.750000 0.390417 0.483181
O O12 0.929602 0.250000 0.474109
O O13 0.970119 0.406147 0.433655
O O14 0.010681 0.390578 0.518182
O O15 0.750000 0.103709 0.227390
O O16 0.919410 0.250000 0.228365
O O17 0.004666 0.108139 0.186353
O O18 0.750000 0.857357 0.440633
O O19 0.522614 0.750000 0.430306
O O20 0.533776 0.930524 0.401585
O O21 0.750000 0.873701 0.856870
O O22 0.956706 0.750000 0.863630
O O23 0.750000 0.452272 0.386660
#
# Coordination Sequence:
#
# PCOD9447429 Si02
#       8
#     8   8   8   8   8   8   8   8
#     4  10  20  32  46  67  94 119 143 174 214 262
#     4  10  19  29  44  67  91 118 157 198 231 269
#     4   9  18  32  46  61  88 125 159 193 235 276
#     4   9  17  28  42  61  85 113 145 180 217 257
#     4   9  17  30  48  68  91 119 148 178 214 259
#     4   9  18  31  45  62  85 113 147 186 222 254
#     4  10  19  30  45  66  94 125 153 183 221 264
#     4  10  19  30  45  64  87 117 149 179 214 258
#
# _framework density 15.419808
#
# number of rings (size 3 to 8) (size 9 to 14) (size 15 to 20)
#    0.000    2.500    0.000    2.625    0.000    6.750 
#    0.000    1.250    0.000    0.000    0.000    0.875 
#    0.000    7.000    0.000    0.000    0.000    0.000 
#
# Total GULP energy -356855.425441 kJ/mol
# GULP energy per Si atom -5575.866023 kJ/mol
# Density = 1.538471 g / cm^3
# Si number density = 15.419808 Si / 1000 Ang^3
#
#
#
# Elastic Constant Matrix: (Units=GPa)
#
#
# Indices 1 2 3 4 5 6 
#
# 1 59.7384 46.9279 70.2508 0.0000 0.0000 0.0000
# 2 46.9279 80.4173 68.3386 0.0000 0.0000 0.0000
# 3 70.2508 68.3386 153.5844 0.0000 0.0000 0.0000
# 4 0.0000 0.0000 0.0000 25.4017 0.0000 0.0000
# 5 0.0000 0.0000 0.0000 0.0000 32.7226 0.0000
# 6 0.0000 0.0000 0.0000 0.0000 0.0000 17.2827
#
#
#
# Elastic Compliance Matrix: (Units=1/GPa)
#
#
# Indices 1 2 3 4 5 6 
#
# 1 0.044062 -0.013806 -0.014011 0.000000 0.000000 0.000000
# 2 -0.013806 0.024322 -0.004507 0.000000 0.000000 0.000000
# 3 -0.014011 -0.004507 0.014926 0.000000 0.000000 0.000000
# 4 0.000000 0.000000 0.000000 0.039367 0.000000 0.000000
# 5 0.000000 0.000000 0.000000 0.000000 0.030560 0.000000
# 6 0.000000 0.000000 0.000000 0.000000 0.000000 0.057861
#
#
# Mechanical properties :
#
#
# Convention : Reuss Voigt Hill
#
# Bulk Modulus (GPa) = 53.58912 73.86386 63.72649
# Shear Modulus (GPa) = 17.73261 22.29627 20.01444
#
# Velocity S-wave (km/s) = 3.39483 3.80669 3.60664
# Velocity P-wave (km/s) = 7.08487 8.20531 7.66559
#
# Compressibility (1/GPa) = 0.01866050
#
# Stress axis : x y z
#
# Youngs Moduli (GPa) = 22.69547 41.11528 66.99929
#
# Poissons Ratio (x) = 0.56762 0.93874
# Poissons Ratio (y) = 0.31333 0.30199
# Poissons Ratio (z) = 0.31799 0.18532
#
# Static dielectric constant tensor:
#      x y z
#    x 1.513740 0.000000 0.000000 
#    y 0.000000 1.525100 0.000000 
#    z 0.000000 0.000000 1.483270 
# 
# From -- ./inp_files/33256.got.cif
#   From: 2010.05.17/outbox.cif.g08.bks.cpg/sg59_17_cif.got.tgz:33256.got - 2010.06.03 14:40:33.
