data_PCOD9447232
_publ_section_title
;
Structure prediction by ZEFSAII (Michael W. Deem and Ramdas Pophale) SiO2 
 PCOD9447232
Probable space group: P M M N
;
_chemical_formula_sum "Si O2"
_cell_formula_units_Z 64
_cell_length_a 15.899636
_cell_length_b 8.672542
_cell_length_c 24.349481
_cell_angle_alpha 90.000000
_cell_angle_beta 90.000000
_cell_angle_gamma 90.000000
_cell_volume 3357.556290
_symmetry_space_group_name_H-M "P M M N"
_symmetry_group_IT_number 59
_space_group.IT_coordinate_system_code '2'
_symmetry_cell_setting 'orthorhombic'
loop_
_space_group_symop_operation_xyz
x,y,z
1/2-x,1/2-y,z
1/2+x,-y,-z
-x,1/2+y,-z
-x,-y,-z
1/2+x,1/2+y,-z
1/2-x,y,z
x,1/2-y,z
loop_
_atom_site_type_symbol
_atom_site_label
_atom_site_fract_x
_atom_site_fract_y
_atom_site_fract_z
Si Si1 0.499228 0.933225 0.938860
Si Si2 0.899283 0.433812 0.245158
Si Si3 0.155814 0.434242 0.869713
Si Si4 0.913501 0.064566 0.752303
Si Si5 0.501745 0.935176 0.438761
Si Si6 0.843490 0.437531 0.633906
Si Si7 0.344430 0.564524 0.128345
Si Si8 0.345048 0.936100 0.632065
O O1 0.497614 0.750000 0.940878
O O2 0.417737 0.991865 0.905732
O O3 0.582478 0.988783 0.907082
O O4 0.500000 0.000000 0.000000
O O5 0.890342 0.250000 0.238835
O O6 0.856887 0.515119 0.193323
O O7 0.861442 0.478270 0.304253
O O8 0.997063 0.480912 0.245306
O O9 0.250000 0.479285 0.887681
O O10 0.148189 0.250000 0.873214
O O11 0.928171 0.250000 0.750632
O O12 0.865666 0.020823 0.696603
O O13 0.862085 0.031247 0.807500
O O14 0.501012 0.750000 0.440215
O O15 0.418692 0.988914 0.405566
O O16 0.500000 0.000000 0.500000
O O17 0.583799 0.990776 0.405893
O O18 0.750000 0.491635 0.618831
O O19 0.842569 0.250000 0.631922
O O20 0.250000 0.515527 0.113328
O O21 0.349815 0.750000 0.121848
O O22 0.250000 0.980217 0.616459
O O23 0.351698 0.750000 0.628442
#
# Coordination Sequence:
#
# PCOD9447232 Si02
#       8
#     8   8   8   8   8   8   8   8
#     4  12  26  44  66  90 121 162 206 256 305 357
#     4  11  21  35  60  92 127 162 196 242 304 367
#     4  11  24  42  65  93 125 161 203 252 304 362
#     4  10  18  33  60  90 122 156 195 242 295 359
#     4  11  23  39  60  86 116 155 203 253 303 358
#     4   9  18  34  58  87 116 151 196 242 292 353
#     4  10  21  38  63  94 127 162 199 244 300 361
#     4  10  22  40  61  86 120 160 200 246 302 362
#
# _framework density 19.061482000000002
#
# number of rings (size 3 to 8) (size 9 to 14) (size 15 to 20)
#    0.000    1.500    2.500    3.000    0.000    5.000 
#    0.000    1.250    0.000    3.750    0.000    0.000 
#    0.000    0.000    0.000    0.000    0.000    0.000 
#
# Total GULP energy -357710.174244 kJ/mol
# GULP energy per Si atom -5589.221473 kJ/mol
# Density = 1.901810 g / cm^3
# Si number density = 19.061482 Si / 1000 Ang^3
#
#
#
# Elastic Constant Matrix: (Units=GPa)
#
#
# Indices 1 2 3 4 5 6 
#
# 1 201.2696 58.9004 95.7150 0.0000 0.0000 0.0000
# 2 58.9004 49.7482 51.1656 0.0000 0.0000 0.0000
# 3 95.7150 51.1656 158.1726 0.0000 0.0000 0.0000
# 4 0.0000 0.0000 0.0000 31.8314 0.0000 0.0000
# 5 0.0000 0.0000 0.0000 0.0000 -3.4624 0.0000
# 6 0.0000 0.0000 0.0000 0.0000 0.0000 13.1393
#
#
#
# Elastic Compliance Matrix: (Units=1/GPa)
#
#
# Indices 1 2 3 4 5 6 
#
# 1 0.008345 -0.007023 -0.002778 0.000000 0.000000 0.000000
# 2 -0.007023 0.036033 -0.007406 0.000000 0.000000 0.000000
# 3 -0.002778 -0.007406 0.010399 0.000000 0.000000 0.000000
# 4 0.000000 0.000000 0.000000 0.031416 0.000000 0.000000
# 5 0.000000 0.000000 0.000000 0.000000 -0.288820 0.000000
# 6 0.000000 0.000000 0.000000 0.000000 0.000000 0.076108
#
#
# Mechanical properties :
#
#
# Convention : Reuss Voigt Hill
#
# Bulk Modulus (GPa) = 49.10874 91.19472 70.15173
# Shear Modulus (GPa) = -58.60416 21.86230 -18.37093
#
# Velocity S-wave (km/s) = -5.55082 3.39032 -3.10784
# Velocity P-wave (km/s) = 3.90676 7.95437 4.89945
#
# Compressibility (1/GPa) = 0.02036297
#
# Stress axis : x y z
#
# Youngs Moduli (GPa) = 119.83674 27.75201 96.16321
#
# Poissons Ratio (x) = 0.19490 0.26713
# Poissons Ratio (y) = 0.84159 0.71222
# Poissons Ratio (z) = 0.33289 0.20554
#
# Static dielectric constant tensor:
#      x y z
#    x 1.648660 0.000000 0.000000 
#    y 0.000000 1.682370 0.000000 
#    z 0.000000 0.000000 1.634700 
# 
# From -- ./inp_files/32191.got.cif
#   From: 2010.05.17/outbox.cif.g08.bks.cpg/sg59_17_cif.got.tgz:32191.got - 2010.06.03 14:40:33.
