data_PCOD9447880
_publ_section_title
;
Structure prediction by ZEFSAII (Michael W. Deem and Ramdas Pophale) SiO2 
 PCOD9447880
Probable space group: P M M N
;
_chemical_formula_sum "Si O2"
_cell_formula_units_Z 40
_cell_length_a 18.877403
_cell_length_b 8.206531
_cell_length_c 14.211590
_cell_angle_alpha 90.000000
_cell_angle_beta 90.000000
_cell_angle_gamma 90.000000
_cell_volume 2201.630999
_symmetry_space_group_name_H-M "P M M N"
_symmetry_group_IT_number 59
_space_group.IT_coordinate_system_code '2'
_symmetry_cell_setting 'orthorhombic'
loop_
_space_group_symop_operation_xyz
x,y,z
1/2-x,1/2-y,z
1/2+x,-y,-z
-x,1/2+y,-z
-x,-y,-z
1/2+x,1/2+y,-z
1/2-x,y,z
x,1/2-y,z
loop_
_atom_site_type_symbol
_atom_site_label
_atom_site_fract_x
_atom_site_fract_y
_atom_site_fract_z
Si Si1 0.168703 0.550482 0.916711
Si Si2 0.471469 0.943614 0.400144
Si Si3 0.958146 0.055887 0.209459
Si Si4 0.900291 0.053230 0.886501
Si Si5 0.171232 0.551176 0.308726
O O1 0.250000 0.496947 0.908322
O O2 0.169278 0.750000 0.917322
O O3 0.116153 0.497373 0.833522
O O4 0.133637 0.498764 0.015632
O O5 0.466857 0.750000 0.402244
O O6 0.392554 0.007232 0.375092
O O7 0.500000 0.000000 0.500000
O O8 0.520640 0.989578 0.311574
O O9 0.955325 0.250000 0.216564
O O10 0.021611 0.010885 0.137674
O O11 0.904421 0.250000 0.888114
O O12 0.850963 0.007474 0.797805
O O13 0.250000 0.493525 0.331800
O O14 0.172094 0.750000 0.312163
#
# Coordination Sequence:
#
# PCOD9447880 Si02
#       5
#     8   8   8   8   8
#     4   9  17  29  47  72 100 133 173 207 231 267
#     4  10  20  35  55  74  94 123 159 201 247 295
#     4  10  19  31  49  72  99 129 162 202 243 288
#     4   9  16  28  49  73  98 129 163 201 241 281
#     4   8  14  26  47  74  96 116 151 197 239 279
#
# _framework density 18.168348999999999
#
# number of rings (size 3 to 8) (size 9 to 14) (size 15 to 20)
#    0.000    2.800    0.000    3.600    0.000    2.400 
#    0.000    2.000    0.000   31.200    0.000    0.000 
#    0.000    0.000    0.000    0.000    0.000    0.000 
#
# Total GULP energy -223033.343748 kJ/mol
# GULP energy per Si atom -5575.833594 kJ/mol
# Density = 1.812700 g / cm^3
# Si number density = 18.168349 Si / 1000 Ang^3
#
#
#
# Elastic Constant Matrix: (Units=GPa)
#
#
# Indices 1 2 3 4 5 6 
#
# 1 154.9479 14.3310 103.5609 0.0000 0.0000 0.0000
# 2 14.3310 16.9741 16.3337 0.0000 0.0000 0.0000
# 3 103.5609 16.3337 127.7832 0.0000 0.0000 0.0000
# 4 0.0000 0.0000 0.0000 21.6764 0.0000 0.0000
# 5 0.0000 0.0000 0.0000 0.0000 16.4677 0.0000
# 6 0.0000 0.0000 0.0000 0.0000 0.0000 20.6145
#
#
#
# Elastic Compliance Matrix: (Units=1/GPa)
#
#
# Indices 1 2 3 4 5 6 
#
# 1 0.014097 -0.001035 -0.011292 0.000000 0.000000 0.000000
# 2 -0.001035 0.067252 -0.007757 0.000000 0.000000 0.000000
# 3 -0.011292 -0.007757 0.017969 0.000000 0.000000 0.000000
# 4 0.000000 0.000000 0.000000 0.046133 0.000000 0.000000
# 5 0.000000 0.000000 0.000000 0.000000 0.060725 0.000000
# 6 0.000000 0.000000 0.000000 0.000000 0.000000 0.048509
#
#
# Mechanical properties :
#
#
# Convention : Reuss Voigt Hill
#
# Bulk Modulus (GPa) = 16.90677 63.12851 40.01764
# Shear Modulus (GPa) = 15.89463 22.78370 19.33916
#
# Velocity S-wave (km/s) = 2.96100 3.54507 3.26612
# Velocity P-wave (km/s) = 4.58430 7.18182 6.02472
#
# Compressibility (1/GPa) = 0.05914789
#
# Stress axis : x y z
#
# Youngs Moduli (GPa) = 70.93751 14.86945 55.65104
#
# Poissons Ratio (x) = 0.01540 0.62843
# Poissons Ratio (y) = 0.07346 0.43170
# Poissons Ratio (z) = 0.80105 0.11535
#
# Static dielectric constant tensor:
#      x y z
#    x 1.648150 0.000000 0.000000 
#    y 0.000000 1.645040 0.000000 
#    z 0.000000 0.000000 1.669420 
# 
# From -- ./inp_files/20111.got.cif
#   From: 2010.05.17/outbox.cif.g08.bks.cpg/sg59_11_cif.got.tgz:20111.got - 2010.06.03 14:40:33.
