data_PCOD9447166
_publ_section_title
;
Structure prediction by ZEFSAII (Michael W. Deem and Ramdas Pophale) SiO2 
 PCOD9447166
Probable space group: P M M N
;
_chemical_formula_sum "Si O2"
_cell_formula_units_Z 64
_cell_length_a 7.673858
_cell_length_b 32.040544
_cell_length_c 12.224482
_cell_angle_alpha 90.000000
_cell_angle_beta 90.000000
_cell_angle_gamma 90.000000
_cell_volume 3005.689437
_symmetry_space_group_name_H-M "P M M N"
_symmetry_group_IT_number 59
_space_group.IT_coordinate_system_code '2'
_symmetry_cell_setting 'orthorhombic'
loop_
_space_group_symop_operation_xyz
x,y,z
1/2-x,1/2-y,z
1/2+x,-y,-z
-x,1/2+y,-z
-x,-y,-z
1/2+x,1/2+y,-z
1/2-x,y,z
x,1/2-y,z
loop_
_atom_site_type_symbol
_atom_site_label
_atom_site_fract_x
_atom_site_fract_y
_atom_site_fract_z
Si Si1 0.044460 0.456871 0.211234
Si Si2 0.046534 0.955152 0.260383
Si Si3 0.959949 0.376630 0.602844
Si Si4 0.040302 0.296243 0.747522
Si Si5 0.044572 0.622344 0.644917
Si Si6 0.462350 0.328000 0.983023
Si Si7 0.961794 0.574669 0.020052
Si Si8 0.460826 0.296080 0.218006
O O1 0.250000 0.464828 0.196119
O O2 0.970456 0.498205 0.269259
O O3 0.028505 0.415199 0.282179
O O4 0.974306 0.448474 0.089244
O O5 0.250000 0.957154 0.291897
O O6 0.971067 0.916694 0.329757
O O7 0.031352 0.943825 0.132529
O O8 0.750000 0.379373 0.599527
O O9 0.025868 0.376802 0.478550
O O10 0.998241 0.333763 0.665903
O O11 0.250000 0.294579 0.753336
O O12 0.977789 0.250000 0.715219
O O13 0.977016 0.307758 0.869725
O O14 0.250000 0.614761 0.639038
O O15 0.015397 0.666371 0.704116
O O16 0.250000 0.326400 0.982370
O O17 0.511424 0.376627 0.987106
O O18 0.519897 0.305601 0.093959
O O19 0.750000 0.572931 0.023501
O O20 0.250000 0.296134 0.216558
O O21 0.519638 0.250000 0.252456
#
# Coordination Sequence:
#
# PCOD9447166 Si02
#       8
#     8   8   8   8   8   8   8   8
#     4  10  21  38  59  84 113 145 183 230 278 330
#     4  10  21  37  58  83 113 147 185 228 275 331
#     4  10  23  41  56  76 110 150 187 227 281 329
#     4  10  20  35  58  86 111 140 182 226 268 322
#     4  11  24  40  57  78 110 149 189 234 278 325
#     4   9  16  31  56  85 115 143 174 219 274 327
#     4  10  18  32  57  85 115 146 177 218 277 338
#     4  10  20  37  62  87 113 147 184 225 277 334
#
# _framework density 21.292953000000001
#
# number of rings (size 3 to 8) (size 9 to 14) (size 15 to 20)
#    0.000    2.000    2.500    1.125    0.000    5.000 
#    0.000    3.125    0.000    1.500    0.000    0.000 
#    0.000    0.000    0.000    0.000    0.000    0.000 
#
# Total GULP energy -357502.154396 kJ/mol
# GULP energy per Si atom -5585.971162 kJ/mol
# Density = 2.124449 g / cm^3
# Si number density = 21.292953 Si / 1000 Ang^3
#
#
#
# Elastic Constant Matrix: (Units=GPa)
#
#
# Indices 1 2 3 4 5 6 
#
# 1 32.8066 -16.2990 -17.5480 0.0000 0.0000 0.0000
# 2 -16.2990 137.9809 38.7070 0.0000 0.0000 0.0000
# 3 -17.5480 38.7070 119.6034 0.0000 0.0000 0.0000
# 4 0.0000 0.0000 0.0000 -4.0550 0.0000 0.0000
# 5 0.0000 0.0000 0.0000 0.0000 -0.5757 0.0000
# 6 0.0000 0.0000 0.0000 0.0000 0.0000 8.4495
#
#
#
# Elastic Compliance Matrix: (Units=1/GPa)
#
#
# Indices 1 2 3 4 5 6 
#
# 1 0.034091 0.002886 0.004068 0.000000 0.000000 0.000000
# 2 0.002886 0.008215 -0.002235 0.000000 0.000000 0.000000
# 3 0.004068 -0.002235 0.009681 0.000000 0.000000 0.000000
# 4 0.000000 0.000000 0.000000 -0.246609 0.000000 0.000000
# 5 0.000000 0.000000 0.000000 0.000000 -1.737020 0.000000
# 6 0.000000 0.000000 0.000000 0.000000 0.000000 0.118350
#
#
# Mechanical properties :
#
#
# Convention : Reuss Voigt Hill
#
# Bulk Modulus (GPa) = 16.28008 33.34564 24.81286
# Shear Modulus (GPa) = -2.77430 19.79915 8.51242
#
# Velocity S-wave (km/s) = -1.14269 3.05264 2.00161
# Velocity P-wave (km/s) = 2.43338 5.30276 4.12557
#
# Compressibility (1/GPa) = 0.06142478
#
# Stress axis : x y z
#
# Youngs Moduli (GPa) = 29.33299 121.72365 103.29296
#
# Poissons Ratio (x) = -0.35128 -0.42018
# Poissons Ratio (y) = -0.08465 0.23089
# Poissons Ratio (z) = -0.11932 0.27209
#
# Static dielectric constant tensor:
#      x y z
#    x 1.803900 0.000000 0.000000 
#    y 0.000000 1.771900 0.000000 
#    z 0.000000 0.000000 1.738680 
# 
# From -- ./inp_files/15058.got.cif
#   From: 2010.05.17/outbox.cif.g08.bks.cpg/sg59_8_cif.got.tgz:15058.got - 2010.06.03 14:40:33.
