data_PCOD9447023
_publ_section_title
;
Structure prediction by ZEFSAII (Michael W. Deem and Ramdas Pophale) SiO2 
 PCOD9447023
Probable space group: P M M N
;
_chemical_formula_sum "Si O2"
_cell_formula_units_Z 40
_cell_length_a 13.719551
_cell_length_b 17.939217
_cell_length_c 9.546748
_cell_angle_alpha 90.000000
_cell_angle_beta 90.000000
_cell_angle_gamma 90.000000
_cell_volume 2349.626548
_symmetry_space_group_name_H-M "P M M N"
_symmetry_group_IT_number 59
_space_group.IT_coordinate_system_code '2'
_symmetry_cell_setting 'orthorhombic'
loop_
_space_group_symop_operation_xyz
x,y,z
1/2-x,1/2-y,z
1/2+x,-y,-z
-x,1/2+y,-z
-x,-y,-z
1/2+x,1/2+y,-z
1/2-x,y,z
x,1/2-y,z
loop_
_atom_site_type_symbol
_atom_site_label
_atom_site_fract_x
_atom_site_fract_y
_atom_site_fract_z
Si Si1 0.965577 0.476263 0.347542
Si Si2 0.360445 0.512581 0.150318
Si Si3 0.134653 0.665206 0.756276
Si Si4 0.446696 0.834449 0.070904
Si Si5 0.637842 0.580342 0.133688
O O1 0.910795 0.397499 0.342074
O O2 0.895821 0.537291 0.273313
O O3 0.000000 0.500000 0.500000
O O4 0.060696 0.473667 0.248382
O O5 0.250000 0.500222 0.196571
O O6 0.385618 0.600205 0.145106
O O7 0.370512 0.479370 0.993673
O O8 0.250000 0.651539 0.777838
O O9 0.122907 0.750000 0.704365
O O10 0.081745 0.660421 0.907099
O O11 0.425876 0.750000 0.116563
O O12 0.559213 0.856129 0.098125
O O13 0.750000 0.604717 0.141275
#
# Coordination Sequence:
#
# PCOD9447023 Si02
#       5
#     8   8   8   8   8
#     4  11  21  35  54  79 111 145 183 221 264 321
#     4  10  19  34  54  78 107 137 178 224 266 316
#     4  10  19  33  56  84 111 138 174 222 274 325
#     4  10  18  31  54  83 109 136 174 226 277 317
#     4  10  19  35  56  77 107 142 180 223 266 320
#
# _framework density 17.023980999999999
#
# number of rings (size 3 to 8) (size 9 to 14) (size 15 to 20)
#    0.000    1.800    4.000    2.400    0.000    3.200 
#    0.000    4.000    0.000    0.600    0.000    0.000 
#    0.000    0.000    0.000    0.000    0.000    0.000 
#
# Total GULP energy -223120.828718 kJ/mol
# GULP energy per Si atom -5578.020718 kJ/mol
# Density = 1.698523 g / cm^3
# Si number density = 17.023981 Si / 1000 Ang^3
#
#
#
# Elastic Constant Matrix: (Units=GPa)
#
#
# Indices 1 2 3 4 5 6 
#
# 1 85.8547 20.3806 30.2704 0.0000 0.0000 0.0000
# 2 20.3806 85.6344 24.3088 0.0000 0.0000 0.0000
# 3 30.2704 24.3088 71.5581 0.0000 0.0000 0.0000
# 4 0.0000 0.0000 0.0000 14.4203 0.0000 0.0000
# 5 0.0000 0.0000 0.0000 0.0000 11.7644 0.0000
# 6 0.0000 0.0000 0.0000 0.0000 0.0000 20.1563
#
#
#
# Elastic Compliance Matrix: (Units=1/GPa)
#
#
# Indices 1 2 3 4 5 6 
#
# 1 0.013941 -0.001819 -0.005279 0.000000 0.000000 0.000000
# 2 -0.001819 0.013161 -0.003701 0.000000 0.000000 0.000000
# 3 -0.005279 -0.003701 0.017465 0.000000 0.000000 0.000000
# 4 0.000000 0.000000 0.000000 0.069347 0.000000 0.000000
# 5 0.000000 0.000000 0.000000 0.000000 0.085002 0.000000
# 6 0.000000 0.000000 0.000000 0.000000 0.000000 0.049612
#
#
# Mechanical properties :
#
#
# Convention : Reuss Voigt Hill
#
# Bulk Modulus (GPa) = 43.53962 43.66297 43.60130
# Shear Modulus (GPa) = 17.99963 20.47405 19.23684
#
# Velocity S-wave (km/s) = 3.25516 3.47170 3.36517
# Velocity P-wave (km/s) = 6.30548 6.46327 6.38486
#
# Compressibility (1/GPa) = 0.02296759
#
# Stress axis : x y z
#
# Youngs Moduli (GPa) = 71.73205 75.98084 57.25658
#
# Poissons Ratio (x) = 0.13823 0.30227
# Poissons Ratio (y) = 0.13050 0.21193
# Poissons Ratio (z) = 0.37869 0.28123
#
# Static dielectric constant tensor:
#      x y z
#    x 1.584660 0.000000 0.000000 
#    y 0.000000 1.579140 0.000000 
#    z 0.000000 0.000000 1.553410 
# 
# From -- ./inp_files/8790.got.cif
#   From: 2010.05.17/outbox.cif.g08.bks.cpg/sg59_5_cif.got.tgz:8790.got - 2010.06.03 14:40:33.
