data_PCOD9447161
_publ_section_title
;
Structure prediction by ZEFSAII (Michael W. Deem and Ramdas Pophale) SiO2 
 PCOD9447161
Probable space group: P M M N
;
_chemical_formula_sum "Si O2"
_cell_formula_units_Z 56
_cell_length_a 7.635301
_cell_length_b 15.995883
_cell_length_c 21.929021
_cell_angle_alpha 90.000000
_cell_angle_beta 90.000000
_cell_angle_gamma 90.000000
_cell_volume 2678.265487
_symmetry_space_group_name_H-M "P M M N"
_symmetry_group_IT_number 59
_space_group.IT_coordinate_system_code '2'
_symmetry_cell_setting 'orthorhombic'
loop_
_space_group_symop_operation_xyz
x,y,z
1/2-x,1/2-y,z
1/2+x,-y,-z
-x,1/2+y,-z
-x,-y,-z
1/2+x,1/2+y,-z
1/2-x,y,z
x,1/2-y,z
loop_
_atom_site_type_symbol
_atom_site_label
_atom_site_fract_x
_atom_site_fract_y
_atom_site_fract_z
Si Si1 0.043621 0.502779 0.285920
Si Si2 0.464458 0.656620 0.368048
Si Si3 0.461932 0.657153 0.632252
Si Si4 0.539183 0.156072 0.068445
Si Si5 0.543741 0.498594 0.145571
Si Si6 0.539990 0.098373 0.499611
Si Si7 0.039553 0.343773 0.927676
O O1 0.250000 0.515621 0.279737
O O2 0.973768 0.581939 0.324400
O O3 0.014696 0.418005 0.323741
O O4 0.971743 0.496703 0.217999
O O5 0.250000 0.654170 0.368597
O O6 0.516427 0.750000 0.349081
O O7 0.523498 0.638573 0.437371
O O8 0.250000 0.657317 0.630964
O O9 0.519692 0.750000 0.651212
O O10 0.525287 0.637811 0.563466
O O11 0.750000 0.159708 0.074456
O O12 0.471809 0.250000 0.080694
O O13 0.470545 0.084368 0.113193
O O14 0.498708 0.135306 0.998147
O O15 0.750000 0.498997 0.130550
O O16 0.470386 0.583681 0.116236
O O17 0.750000 0.108796 0.499383
O O18 0.500000 0.000000 0.500000
O O19 0.250000 0.339743 0.920942
O O20 0.970826 0.250000 0.915642
#
# Coordination Sequence:
#
# PCOD9447161 Si02
#       7
#     8   8   8   8   8   8   8
#     4  11  23  37  54  79 108 142 183 230 273 311
#     4   9  18  34  55  78 106 140 177 218 268 323
#     4  10  21  37  58  81 106 142 183 220 268 331
#     4   9  18  33  54  79 104 132 170 215 260 309
#     4  10  21  36  53  74 106 145 179 213 259 318
#     4  10  18  32  57  83 108 137 173 220 272 323
#     4   9  18  33  54  80 108 137 170 213 266 316
#
# _framework density 20.909056
#
# number of rings (size 3 to 8) (size 9 to 14) (size 15 to 20)
#    0.000    2.286    1.429    1.286    0.000    4.286 
#    0.000    1.429    0.000    4.286    0.000    0.000 
#    0.000    0.000    0.000    0.000    0.000    0.000 
#
# Total GULP energy -312708.715428 kJ/mol
# GULP energy per Si atom -5584.084204 kJ/mol
# Density = 2.086147 g / cm^3
# Si number density = 20.909056 Si / 1000 Ang^3
#
#
#
# Elastic Constant Matrix: (Units=GPa)
#
#
# Indices 1 2 3 4 5 6 
#
# 1 36.6472 -5.4788 -12.2563 0.0000 0.0000 0.0000
# 2 -5.4788 172.5074 95.8845 0.0000 0.0000 0.0000
# 3 -12.2563 95.8845 126.1874 0.0000 0.0000 0.0000
# 4 0.0000 0.0000 0.0000 34.2860 0.0000 0.0000
# 5 0.0000 0.0000 0.0000 0.0000 67.9020 0.0000
# 6 0.0000 0.0000 0.0000 0.0000 0.0000 7.6343
#
#
#
# Elastic Compliance Matrix: (Units=1/GPa)
#
#
# Indices 1 2 3 4 5 6 
#
# 1 0.028321 -0.001090 0.003579 0.000000 0.000000 0.000000
# 2 -0.001090 0.010077 -0.007763 0.000000 0.000000 0.000000
# 3 0.003579 -0.007763 0.014171 0.000000 0.000000 0.000000
# 4 0.000000 0.000000 0.000000 0.029166 0.000000 0.000000
# 5 0.000000 0.000000 0.000000 0.000000 0.014727 0.000000
# 6 0.000000 0.000000 0.000000 0.000000 0.000000 0.130988
#
#
# Mechanical properties :
#
#
# Convention : Reuss Voigt Hill
#
# Bulk Modulus (GPa) = 23.79729 54.62675 39.21202
# Shear Modulus (GPa) = 19.84078 39.11062 29.47570
#
# Velocity S-wave (km/s) = 3.08378 4.32963 3.75868
# Velocity P-wave (km/s) = 4.90771 7.15380 6.13443
#
# Compressibility (1/GPa) = 0.04202159
#
# Stress axis : x y z
#
# Youngs Moduli (GPa) = 35.30920 99.23413 70.56588
#
# Poissons Ratio (x) = 0.10814 -0.25254
# Poissons Ratio (y) = 0.03848 0.54781
# Poissons Ratio (z) = -0.12636 0.77036
#
# Static dielectric constant tensor:
#      x y z
#    x 1.785150 0.000000 0.000000 
#    y 0.000000 1.761130 0.000000 
#    z 0.000000 0.000000 1.700040 
# 
# From -- ./inp_files/29013.got.cif
#   From: 2010.05.17/outbox.cif.g08.bks.cpg/sg59_15_cif.got.tgz:29013.got - 2010.06.03 14:40:33.
