data_PCOD9447342
_publ_section_title
;
Structure prediction by ZEFSAII (Michael W. Deem and Ramdas Pophale) SiO2 
 PCOD9447342
Probable space group: P M M N
;
_chemical_formula_sum "Si O2"
_cell_formula_units_Z 48
_cell_length_a 22.658625
_cell_length_b 9.613535
_cell_length_c 9.675178
_cell_angle_alpha 90.000000
_cell_angle_beta 90.000000
_cell_angle_gamma 90.000000
_cell_volume 2107.539036
_symmetry_space_group_name_H-M "P M M N"
_symmetry_group_IT_number 59
_space_group.IT_coordinate_system_code '2'
_symmetry_cell_setting 'orthorhombic'
loop_
_space_group_symop_operation_xyz
x,y,z
1/2-x,1/2-y,z
1/2+x,-y,-z
-x,1/2+y,-z
-x,-y,-z
1/2+x,1/2+y,-z
1/2-x,y,z
x,1/2-y,z
loop_
_atom_site_type_symbol
_atom_site_label
_atom_site_fract_x
_atom_site_fract_y
_atom_site_fract_z
Si Si1 0.060590 0.084082 0.985787
Si Si2 0.818206 0.902249 0.277054
Si Si3 0.320188 0.590773 0.476981
Si Si4 0.526467 0.592532 0.309916
Si Si5 0.920044 0.589641 0.618263
Si Si6 0.314402 0.413068 0.055309
O O1 0.053079 0.250000 0.011964
O O2 0.070422 0.071051 0.818723
O O3 0.117968 0.033795 0.072048
O O4 0.000000 0.000000 0.000000
O O5 0.750000 0.888694 0.323057
O O6 0.845400 0.750000 0.314240
O O7 0.813219 0.915503 0.112503
O O8 0.834973 0.035730 0.368334
O O9 0.250000 0.584932 0.451868
O O10 0.339520 0.750000 0.461163
O O11 0.357959 0.489905 0.379388
O O12 0.502877 0.750000 0.297709
O O13 0.472764 0.485259 0.301210
O O14 0.556537 0.581219 0.459118
O O15 0.914065 0.750000 0.655862
O O16 0.250000 0.472163 0.101602
O O17 0.314686 0.250000 0.096281
#
# Coordination Sequence:
#
# PCOD9447342 Si02
#       6
#     8   8   8   8   8   8
#     4  10  20  34  53  77 106 139 174 212 255 305
#     4   8  13  23  41  64  90 122 161 204 250 302
#     4  10  19  28  40  64 100 136 165 198 247 303
#     4   9  19  35  52  73 102 132 163 205 260 313
#     4  10  19  32  53  76  97 128 170 213 253 299
#     4   8  14  27  49  74  98 127 165 209 256 303
#
# _framework density 22.775379000000001
#
# number of rings (size 3 to 8) (size 9 to 14) (size 15 to 20)
#    0.000    2.833    0.000    3.000    0.000    5.000 
#    0.000    2.500    0.000    2.500    0.000    4.667 
#    0.000    0.000    0.000    0.000    0.000    0.000 
#
# Total GULP energy -267501.863247 kJ/mol
# GULP energy per Si atom -5572.955484 kJ/mol
# Density = 2.272354 g / cm^3
# Si number density = 22.775379 Si / 1000 Ang^3
#
#
#
# Elastic Constant Matrix: (Units=GPa)
#
#
# Indices 1 2 3 4 5 6 
#
# 1 144.3923 52.2736 9.3876 0.0000 0.0000 0.0000
# 2 52.2736 101.1351 5.8574 0.0000 0.0000 0.0000
# 3 9.3876 5.8574 64.9551 0.0000 0.0000 0.0000
# 4 0.0000 0.0000 0.0000 14.9572 0.0000 0.0000
# 5 0.0000 0.0000 0.0000 0.0000 34.2268 0.0000
# 6 0.0000 0.0000 0.0000 0.0000 0.0000 41.2512
#
#
#
# Elastic Compliance Matrix: (Units=1/GPa)
#
#
# Indices 1 2 3 4 5 6 
#
# 1 0.008565 -0.004378 -0.000843 0.000000 0.000000 0.000000
# 2 -0.004378 0.012178 -0.000465 0.000000 0.000000 0.000000
# 3 -0.000843 -0.000465 0.015559 0.000000 0.000000 0.000000
# 4 0.000000 0.000000 0.000000 0.066857 0.000000 0.000000
# 5 0.000000 0.000000 0.000000 0.000000 0.029217 0.000000
# 6 0.000000 0.000000 0.000000 0.000000 0.000000 0.024242
#
#
# Mechanical properties :
#
#
# Convention : Reuss Voigt Hill
#
# Bulk Modulus (GPa) = 40.11456 49.50219 44.80838
# Shear Modulus (GPa) = 28.36050 34.28464 31.32257
#
# Velocity S-wave (km/s) = 3.53260 3.88408 3.71250
# Velocity P-wave (km/s) = 5.85580 6.47278 6.17201
#
# Compressibility (1/GPa) = 0.02492860
#
# Stress axis : x y z
#
# Youngs Moduli (GPa) = 116.74764 82.11675 64.27125
#
# Poissons Ratio (x) = 0.35954 0.05419
# Poissons Ratio (y) = 0.51117 0.02991
# Poissons Ratio (z) = 0.09843 0.03821
#
# Static dielectric constant tensor:
#      x y z
#    x 2.031580 0.000000 0.000000 
#    y 0.000000 1.796500 0.000000 
#    z 0.000000 0.000000 1.918020 
# 
# From -- ./inp_files/18601.got.cif
#   From: 2010.05.17/outbox.cif.g08.bks.cpg/sg59_10_cif.got.tgz:18601.got - 2010.06.03 14:40:33.
