data_PCOD9447912
_publ_section_title
;
Structure prediction by ZEFSAII (Michael W. Deem and Ramdas Pophale) SiO2 
 PCOD9447912
Probable space group: P M M N
;
_chemical_formula_sum "Si O2"
_cell_formula_units_Z 48
_cell_length_a 12.508415
_cell_length_b 27.104546
_cell_length_c 7.499736
_cell_angle_alpha 90.000000
_cell_angle_beta 90.000000
_cell_angle_gamma 90.000000
_cell_volume 2542.672318
_symmetry_space_group_name_H-M "P M M N"
_symmetry_group_IT_number 59
_space_group.IT_coordinate_system_code '2'
_symmetry_cell_setting 'orthorhombic'
loop_
_space_group_symop_operation_xyz
x,y,z
1/2-x,1/2-y,z
1/2+x,-y,-z
-x,1/2+y,-z
-x,-y,-z
1/2+x,1/2+y,-z
1/2-x,y,z
x,1/2-y,z
loop_
_atom_site_type_symbol
_atom_site_label
_atom_site_fract_x
_atom_site_fract_y
_atom_site_fract_z
Si Si1 0.033571 0.305700 0.927616
Si Si2 0.628931 0.907531 0.002937
Si Si3 0.124961 0.049961 0.376056
Si Si4 0.469613 0.944061 0.288524
Si Si5 0.872037 0.158113 0.643674
Si Si6 0.629457 0.308128 0.251268
O O1 0.076654 0.250000 0.938875
O O2 0.954777 0.315091 0.095020
O O3 0.115519 0.350896 0.934708
O O4 0.958606 0.311114 0.754164
O O5 0.750000 0.924672 0.038517
O O6 0.610188 0.913727 0.791858
O O7 0.541923 0.938543 0.112692
O O8 0.250000 0.050231 0.426225
O O9 0.050445 0.061684 0.544003
O O10 0.090257 0.995750 0.307714
O O11 0.388854 0.898215 0.296291
O O12 0.750000 0.174548 0.676526
O O13 0.892008 0.162832 0.432751
O O14 0.750000 0.320363 0.189074
O O15 0.628154 0.250000 0.297973
#
# Coordination Sequence:
#
# PCOD9447912 Si02
#       6
#     8   8   8   8   8   8
#     4  10  20  33  50  72  98 130 169 210 250 295
#     4  10  21  36  53  73  99 132 168 207 251 296
#     4  10  20  35  55  77 102 133 167 204 249 300
#     4  10  20  34  53  77 103 131 166 206 248 298
#     4  10  19  31  49  74 103 133 165 204 251 301
#     4   9  17  29  46  69  97 128 161 198 244 298
#
# _framework density 18.877776999999998
#
# number of rings (size 3 to 8) (size 9 to 14) (size 15 to 20)
#    0.000    2.167    0.000    3.500    0.000    2.000 
#    0.000    0.000    0.000   16.000    0.000    4.667 
#    0.000    0.000    0.000    0.000    0.000    0.000 
#
# Total GULP energy -267867.595114 kJ/mol
# GULP energy per Si atom -5580.574898 kJ/mol
# Density = 1.883481 g / cm^3
# Si number density = 18.877777 Si / 1000 Ang^3
#
#
#
# Elastic Constant Matrix: (Units=GPa)
#
#
# Indices 1 2 3 4 5 6 
#
# 1 40.1693 -3.3522 5.8820 0.0000 0.0000 0.0000
# 2 -3.3522 40.9678 -12.8280 0.0000 0.0000 0.0000
# 3 5.8820 -12.8280 36.4369 0.0000 0.0000 0.0000
# 4 0.0000 0.0000 0.0000 24.5156 0.0000 0.0000
# 5 0.0000 0.0000 0.0000 0.0000 13.2226 0.0000
# 6 0.0000 0.0000 0.0000 0.0000 0.0000 -17.8799
#
#
#
# Elastic Compliance Matrix: (Units=1/GPa)
#
#
# Indices 1 2 3 4 5 6 
#
# 1 0.025527 0.000897 -0.003805 0.000000 0.000000 0.000000
# 2 0.000897 0.027465 0.009525 0.000000 0.000000 0.000000
# 3 -0.003805 0.009525 0.031412 0.000000 0.000000 0.000000
# 4 0.000000 0.000000 0.000000 0.040790 0.000000 0.000000
# 5 0.000000 0.000000 0.000000 0.000000 0.075628 0.000000
# 6 0.000000 0.000000 0.000000 0.000000 0.000000 -0.055929
#
#
# Mechanical properties :
#
#
# Convention : Reuss Voigt Hill
#
# Bulk Modulus (GPa) = 10.24190 10.77530 10.50860
# Shear Modulus (GPa) = 30.44957 12.49646 21.47302
#
# Velocity S-wave (km/s) = 4.02056 2.57566 3.37631
# Velocity P-wave (km/s) = 5.19522 3.81650 4.55829
#
# Compressibility (1/GPa) = 0.09763810
#
# Stress axis : x y z
#
# Youngs Moduli (GPa) = 39.17474 36.40968 31.83476
#
# Poissons Ratio (x) = -0.03267 0.12113
# Poissons Ratio (y) = -0.03515 -0.30321
# Poissons Ratio (z) = 0.14906 -0.34679
#
# Static dielectric constant tensor:
#      x y z
#    x 1.629900 0.000000 0.000000 
#    y 0.000000 1.656570 0.000000 
#    z 0.000000 0.000000 1.642700 
# 
# From -- ./inp_files/2139.got.cif
#   From: 2010.05.17/outbox.cif.g08.bks.cpg/sg59_2_cif.got.tgz:2139.got - 2010.06.03 14:40:33.
