data_PCOD9447065
_publ_section_title
;
Structure prediction by ZEFSAII (Michael W. Deem and Ramdas Pophale) SiO2 
 PCOD9447065
Probable space group: P M M N
;
_chemical_formula_sum "Si O2"
_cell_formula_units_Z 48
_cell_length_a 8.700907
_cell_length_b 10.456438
_cell_length_c 29.793547
_cell_angle_alpha 90.000000
_cell_angle_beta 90.000000
_cell_angle_gamma 90.000000
_cell_volume 2710.631642
_symmetry_space_group_name_H-M "P M M N"
_symmetry_group_IT_number 59
_space_group.IT_coordinate_system_code '2'
_symmetry_cell_setting 'orthorhombic'
loop_
_space_group_symop_operation_xyz
x,y,z
1/2-x,1/2-y,z
1/2+x,-y,-z
-x,1/2+y,-z
-x,-y,-z
1/2+x,1/2+y,-z
1/2-x,y,z
x,1/2-y,z
loop_
_atom_site_type_symbol
_atom_site_label
_atom_site_fract_x
_atom_site_fract_y
_atom_site_fract_z
Si Si1 0.931846 0.401853 0.700278
Si Si2 0.434188 0.896719 0.965651
Si Si3 0.433433 0.397715 0.797426
Si Si4 0.937370 0.005703 0.604724
Si Si5 0.934049 0.896591 0.866259
Si Si6 0.563920 0.750000 0.553902
Si Si7 0.564033 0.250000 0.546341
O O1 0.750000 0.427285 0.706903
O O2 0.947011 0.250000 0.690690
O O3 0.987508 0.475803 0.656114
O O4 0.018079 0.429459 0.746453
O O5 0.250000 0.904421 0.965157
O O6 0.477568 0.750000 0.977904
O O7 0.497194 0.920373 0.915623
O O8 0.500000 0.000000 0.000000
O O9 0.250000 0.401655 0.801509
O O10 0.484053 0.250000 0.805937
O O11 0.506001 0.498658 0.831475
O O12 0.750000 0.007814 0.606076
O O13 0.985127 0.125207 0.574143
O O14 0.985712 0.875515 0.581045
O O15 0.750000 0.903056 0.868712
O O16 0.976761 0.750000 0.853411
O O17 0.750000 0.750000 0.551769
O O18 0.500579 0.750000 0.503660
O O19 0.750000 0.250000 0.544236
#
# Coordination Sequence:
#
# PCOD9447065 Si02
#       7
#     8   8   8   8   8   4   4
#     4   9  16  31  54  74  94 129 174 214 254 308
#     4  10  21  37  58  84 115 152 191 232 278 326
#     4  10  21  36  55  81 111 142 177 222 274 327
#     4   9  17  31  51  71  95 128 165 205 250 302
#     4  10  21  38  59  83 111 146 188 230 274 326
#     4  10  20  32  46  72 102 124 156 208 257 296
#     4  10  18  32  52  70  92 130 170 198 241 308
#
# _framework density 17.708048000000002
#
# number of rings (size 3 to 8) (size 9 to 14) (size 15 to 20)
#    0.000    2.333    0.833    2.000    0.000    3.667 
#    1.500    1.667    0.000    0.000    0.000    0.000 
#    0.000    0.000    0.000    0.000    0.000    0.000 
#
# Total GULP energy -267849.948571 kJ/mol
# GULP energy per Si atom -5580.207262 kJ/mol
# Density = 1.766774 g / cm^3
# Si number density = 17.708048 Si / 1000 Ang^3
#
#
#
# Elastic Constant Matrix: (Units=GPa)
#
#
# Indices 1 2 3 4 5 6 
#
# 1 35.3264 41.9985 44.2990 0.0000 0.0000 0.0000
# 2 41.9985 157.2486 119.6078 0.0000 0.0000 0.0000
# 3 44.2990 119.6078 158.3748 0.0000 0.0000 0.0000
# 4 0.0000 0.0000 0.0000 16.0505 0.0000 0.0000
# 5 0.0000 0.0000 0.0000 0.0000 34.7607 0.0000
# 6 0.0000 0.0000 0.0000 0.0000 0.0000 18.7139
#
#
#
# Elastic Compliance Matrix: (Units=1/GPa)
#
#
# Indices 1 2 3 4 5 6 
#
# 1 0.045777 -0.005844 -0.008391 0.000000 0.000000 0.000000
# 2 -0.005844 0.015690 -0.010214 0.000000 0.000000 0.000000
# 3 -0.008391 -0.010214 0.016375 0.000000 0.000000 0.000000
# 4 0.000000 0.000000 0.000000 0.062304 0.000000 0.000000
# 5 0.000000 0.000000 0.000000 0.000000 0.028768 0.000000
# 6 0.000000 0.000000 0.000000 0.000000 0.000000 0.053436
#
#
# Mechanical properties :
#
#
# Convention : Reuss Voigt Hill
#
# Bulk Modulus (GPa) = 34.55007 84.75117 59.65062
# Shear Modulus (GPa) = 17.80014 23.57463 20.68738
#
# Velocity S-wave (km/s) = 3.17393 3.65265 3.42167
# Velocity P-wave (km/s) = 5.74326 8.10884 7.02632
#
# Compressibility (1/GPa) = 0.02894350
#
# Stress axis : x y z
#
# Youngs Moduli (GPa) = 21.84490 63.73637 61.06761
#
# Poissons Ratio (x) = 0.37248 0.51241
# Poissons Ratio (y) = 0.12766 0.62377
# Poissons Ratio (z) = 0.18330 0.65103
#
# Static dielectric constant tensor:
#      x y z
#    x 1.601070 0.000000 0.000000 
#    y 0.000000 1.600390 0.000000 
#    z 0.000000 0.000000 1.568390 
# 
# From -- ./inp_files/32963.got.cif
#   From: 2010.05.17/outbox.cif.g08.bks.cpg/sg59_17_cif.got.tgz:32963.got - 2010.06.03 14:40:33.
