data_PCOD9447093
_publ_section_title
;
Structure prediction by ZEFSAII (Michael W. Deem and Ramdas Pophale) SiO2 
 PCOD9447093
Probable space group: P M M N
;
_chemical_formula_sum "Si O2"
_cell_formula_units_Z 48
_cell_length_a 17.323805
_cell_length_b 14.591706
_cell_length_c 10.126922
_cell_angle_alpha 90.000000
_cell_angle_beta 90.000000
_cell_angle_gamma 90.000000
_cell_volume 2559.922528
_symmetry_space_group_name_H-M "P M M N"
_symmetry_group_IT_number 59
_space_group.IT_coordinate_system_code '2'
_symmetry_cell_setting 'orthorhombic'
loop_
_space_group_symop_operation_xyz
x,y,z
1/2-x,1/2-y,z
1/2+x,-y,-z
-x,1/2+y,-z
-x,-y,-z
1/2+x,1/2+y,-z
1/2-x,y,z
x,1/2-y,z
loop_
_atom_site_type_symbol
_atom_site_label
_atom_site_fract_x
_atom_site_fract_y
_atom_site_fract_z
Si Si1 0.340824 0.443034 0.056681
Si Si2 0.835181 0.551721 0.459295
Si Si3 0.053471 0.057446 0.310724
Si Si4 0.108621 0.250000 0.629645
Si Si5 0.339815 0.250000 0.918281
Si Si6 0.507208 0.250000 0.419311
Si Si7 0.657867 0.250000 0.278112
Si Si8 0.386567 0.548025 0.794880
O O1 0.250000 0.458509 0.075809
O O2 0.386500 0.451635 0.192157
O O3 0.352398 0.339922 0.003811
O O4 0.370011 0.507185 0.937971
O O5 0.750000 0.542536 0.520490
O O6 0.903560 0.519904 0.558132
O O7 0.850222 0.658155 0.423234
O O8 0.836617 0.496872 0.322164
O O9 0.029885 0.161481 0.349015
O O10 0.972573 0.020984 0.254386
O O11 0.110221 0.250000 0.786567
O O12 0.023273 0.250000 0.568108
O O13 0.250000 0.250000 0.873543
O O14 0.599400 0.250000 0.403440
O O15 0.750000 0.250000 0.302277
O O16 0.632553 0.156316 0.204955
#
# Coordination Sequence:
#
# PCOD9447093 Si02
#       8
#     8   8   8   4   4   4   4   8
#     4  11  21  35  56  83 112 144 180 217 267 330
#     4  11  20  34  57  84 111 143 178 218 271 328
#     4  10  21  36  53  80 115 145 176 223 272 322
#     4  10  18  32  53  84 118 142 168 212 266 332
#     4  10  19  31  53  83 115 142 172 210 259 325
#     4   8  19  34  53  78 113 146 176 212 271 326
#     4  10  20  37  57  77 100 136 192 240 266 299
#     4  11  22  37  57  78 105 145 188 228 270 315
#
# _framework density 18.750568000000001
#
# number of rings (size 3 to 8) (size 9 to 14) (size 15 to 20)
#    0.000    1.667    1.667    4.250    0.000    0.000 
#    0.000    2.500    0.000    1.000    0.000    3.500 
#    0.000    0.000    0.000    0.000    0.000    0.000 
#
# Total GULP energy -267741.110730 kJ/mol
# GULP energy per Si atom -5577.939807 kJ/mol
# Density = 1.870789 g / cm^3
# Si number density = 18.750568 Si / 1000 Ang^3
#
#
#
# Elastic Constant Matrix: (Units=GPa)
#
#
# Indices 1 2 3 4 5 6 
#
# 1 61.3459 -9.9334 17.2477 0.0000 0.0000 0.0000
# 2 -9.9334 58.5924 1.7383 0.0000 0.0000 0.0000
# 3 17.2477 1.7383 87.4856 0.0000 0.0000 0.0000
# 4 0.0000 0.0000 0.0000 2.5340 0.0000 0.0000
# 5 0.0000 0.0000 0.0000 0.0000 33.7379 0.0000
# 6 0.0000 0.0000 0.0000 0.0000 0.0000 23.8675
#
#
#
# Elastic Compliance Matrix: (Units=1/GPa)
#
#
# Indices 1 2 3 4 5 6 
#
# 1 0.017812 0.003126 -0.003574 0.000000 0.000000 0.000000
# 2 0.003126 0.017626 -0.000966 0.000000 0.000000 0.000000
# 3 -0.003574 -0.000966 0.012154 0.000000 0.000000 0.000000
# 4 0.000000 0.000000 0.000000 0.394633 0.000000 0.000000
# 5 0.000000 0.000000 0.000000 0.000000 0.029640 0.000000
# 6 0.000000 0.000000 0.000000 0.000000 0.000000 0.041898
#
#
# Mechanical properties :
#
#
# Convention : Reuss Voigt Hill
#
# Bulk Modulus (GPa) = 22.33990 25.05877 23.69933
# Shear Modulus (GPa) = 9.40712 25.25264 17.32988
#
# Velocity S-wave (km/s) = 2.24229 3.67381 3.04342
# Velocity P-wave (km/s) = 4.31786 5.60260 5.00165
#
# Compressibility (1/GPa) = 0.04476297
#
# Stress axis : x y z
#
# Youngs Moduli (GPa) = 56.14225 56.73549 82.27602
#
# Poissons Ratio (x) = -0.17734 0.29403
# Poissons Ratio (y) = -0.17549 0.07952
# Poissons Ratio (z) = 0.20064 0.05483
#
# Static dielectric constant tensor:
#      x y z
#    x 1.683610 0.000000 0.000000 
#    y 0.000000 1.663710 0.000000 
#    z 0.000000 0.000000 1.617900 
# 
# From -- ./inp_files/10301.got.cif
#   From: 2010.05.17/outbox.cif.g08.bks.cpg/sg59_6_cif.got.tgz:10301.got - 2010.06.03 14:40:33.
