data_PCOD9447714
_publ_section_title
;
Structure prediction by ZEFSAII (Michael W. Deem and Ramdas Pophale) SiO2 
 PCOD9447714
Probable space group: P M M N
;
_chemical_formula_sum "Si O2"
_cell_formula_units_Z 48
_cell_length_a 7.528124
_cell_length_b 19.888376
_cell_length_c 15.183614
_cell_angle_alpha 90.000000
_cell_angle_beta 90.000000
_cell_angle_gamma 90.000000
_cell_volume 2273.323495
_symmetry_space_group_name_H-M "P M M N"
_symmetry_group_IT_number 59
_space_group.IT_coordinate_system_code '2'
_symmetry_cell_setting 'orthorhombic'
loop_
_space_group_symop_operation_xyz
x,y,z
1/2-x,1/2-y,z
1/2+x,-y,-z
-x,1/2+y,-z
-x,-y,-z
1/2+x,1/2+y,-z
1/2-x,y,z
x,1/2-y,z
loop_
_atom_site_type_symbol
_atom_site_label
_atom_site_fract_x
_atom_site_fract_y
_atom_site_fract_z
Si Si1 0.038231 0.963290 0.876966
Si Si2 0.047020 0.893455 0.046260
Si Si3 0.963904 0.416770 0.625290
Si Si4 0.538399 0.673952 0.544395
Si Si5 0.532451 0.175029 0.785061
Si Si6 0.536155 0.562334 0.673727
O O1 0.250000 0.970899 0.890261
O O2 0.005514 0.942991 0.776926
O O3 0.970857 0.910217 0.950270
O O4 0.955053 0.035043 0.902136
O O5 0.250000 0.871648 0.031456
O O6 0.967338 0.842555 0.116985
O O7 0.750000 0.419156 0.628926
O O8 0.027021 0.379420 0.713828
O O9 0.028376 0.493724 0.626330
O O10 0.011122 0.370997 0.542445
O O11 0.750000 0.680031 0.556110
O O12 0.466818 0.750000 0.536898
O O13 0.468113 0.628942 0.625270
O O14 0.750000 0.172313 0.786883
O O15 0.481670 0.250000 0.758032
O O16 0.750000 0.562705 0.666078
#
# Coordination Sequence:
#
# PCOD9447714 Si02
#       6
#     8   8   8   8   8   8
#     4  10  19  30  51  79 103 131 172 217 255 293
#     4   9  17  32  50  72 105 139 169 204 255 310
#     4  10  19  33  55  79 101 133 175 216 259 306
#     4  10  22  38  54  75 105 140 173 210 263 316
#     4   9  16  28  49  75 103 135 170 206 251 310
#     4  10  20  36  56  76 103 138 174 214 258 311
#
# _framework density 21.114462
#
# number of rings (size 3 to 8) (size 9 to 14) (size 15 to 20)
#    0.000    2.333    1.667    1.500    0.000    3.000 
#    0.000    0.833    0.000    1.500    0.000    0.000 
#    0.000    0.000    0.000    0.000    0.000    0.000 
#
# Total GULP energy -267881.589963 kJ/mol
# GULP energy per Si atom -5580.866458 kJ/mol
# Density = 2.106640 g / cm^3
# Si number density = 21.114462 Si / 1000 Ang^3
#
#
#
# Elastic Constant Matrix: (Units=GPa)
#
#
# Indices 1 2 3 4 5 6 
#
# 1 59.6118 11.3952 -9.7068 0.0000 0.0000 0.0000
# 2 11.3952 97.0983 70.2656 0.0000 0.0000 0.0000
# 3 -9.7068 70.2656 131.9768 0.0000 0.0000 0.0000
# 4 0.0000 0.0000 0.0000 26.9452 0.0000 0.0000
# 5 0.0000 0.0000 0.0000 0.0000 14.5626 0.0000
# 6 0.0000 0.0000 0.0000 0.0000 0.0000 5.8940
#
#
#
# Elastic Compliance Matrix: (Units=1/GPa)
#
#
# Indices 1 2 3 4 5 6 
#
# 1 0.018416 -0.005110 0.004075 0.000000 0.000000 0.000000
# 2 -0.005110 0.018172 -0.010051 0.000000 0.000000 0.000000
# 3 0.004075 -0.010051 0.013228 0.000000 0.000000 0.000000
# 4 0.000000 0.000000 0.000000 0.037112 0.000000 0.000000
# 5 0.000000 0.000000 0.000000 0.000000 0.068669 0.000000
# 6 0.000000 0.000000 0.000000 0.000000 0.000000 0.169663
#
#
# Mechanical properties :
#
#
# Convention : Reuss Voigt Hill
#
# Bulk Modulus (GPa) = 36.17439 48.06610 42.12024
# Shear Modulus (GPa) = 14.01951 23.92923 18.97437
#
# Velocity S-wave (km/s) = 2.57957 3.37012 3.00099
# Velocity P-wave (km/s) = 5.10313 6.16097 5.65683
#
# Compressibility (1/GPa) = 0.02764387
#
# Stress axis : x y z
#
# Youngs Moduli (GPa) = 54.30165 55.03042 75.59798
#
# Poissons Ratio (x) = 0.28122 -0.30808
# Poissons Ratio (y) = 0.27750 0.75981
# Poissons Ratio (z) = -0.22129 0.55309
#
# Static dielectric constant tensor:
#      x y z
#    x 1.798680 0.000000 0.000000 
#    y 0.000000 1.767140 0.000000 
#    z 0.000000 0.000000 1.755430 
# 
# From -- ./inp_files/20379.got.cif
#   From: 2010.05.17/outbox.cif.g08.bks.cpg/sg59_11_cif.got.tgz:20379.got - 2010.06.03 14:40:33.
