data_PCOD9447129
_publ_section_title
;
Structure prediction by ZEFSAII (Michael W. Deem and Ramdas Pophale) SiO2 
 PCOD9447129
Probable space group: P M M N
;
_chemical_formula_sum "Si O2"
_cell_formula_units_Z 64
_cell_length_a 8.213389
_cell_length_b 18.191801
_cell_length_c 22.220696
_cell_angle_alpha 90.000000
_cell_angle_beta 90.000000
_cell_angle_gamma 90.000000
_cell_volume 3320.135029
_symmetry_space_group_name_H-M "P M M N"
_symmetry_group_IT_number 59
_space_group.IT_coordinate_system_code '2'
_symmetry_cell_setting 'orthorhombic'
loop_
_space_group_symop_operation_xyz
x,y,z
1/2-x,1/2-y,z
1/2+x,-y,-z
-x,1/2+y,-z
-x,-y,-z
1/2+x,1/2+y,-z
1/2-x,y,z
x,1/2-y,z
loop_
_atom_site_type_symbol
_atom_site_label
_atom_site_fract_x
_atom_site_fract_y
_atom_site_fract_z
Si Si1 0.941607 0.897851 0.116774
Si Si2 0.441689 0.833386 0.994978
Si Si3 0.551091 0.666090 0.781928
Si Si4 0.558389 0.937630 0.892583
Si Si5 0.948753 0.669568 0.373935
Si Si6 0.443844 0.479978 0.566359
Si Si7 0.946704 0.598078 0.251345
Si Si8 0.055783 0.448300 0.313730
O O1 0.750000 0.880393 0.113487
O O2 0.002833 0.882628 0.184490
O O3 0.030403 0.853932 0.064339
O O4 0.966689 0.985040 0.106617
O O5 0.250000 0.837819 0.981284
O O6 0.497958 0.750000 0.982938
O O7 0.532646 0.892137 0.953530
O O8 0.750000 0.667602 0.782667
O O9 0.494351 0.750000 0.786873
O O10 0.501885 0.615126 0.838116
O O11 0.499269 0.624840 0.720825
O O12 0.750000 0.953415 0.884050
O O13 0.750000 0.669277 0.375957
O O14 0.004749 0.750000 0.393246
O O15 0.006786 0.600422 0.412925
O O16 0.994809 0.653005 0.304780
O O17 0.500000 0.500000 0.500000
O O18 0.250000 0.476397 0.566434
O O19 0.493337 0.536234 0.619190
O O20 0.750000 0.595819 0.249728
O O21 0.004825 0.517818 0.272652
O O22 0.250000 0.446478 0.316316
#
# Coordination Sequence:
#
# PCOD9447129 Si02
#       8
#     8   8   8   8   8   8   8   8
#     4  11  22  36  57  83 111 144 184 228 277 337
#     4  11  25  42  56  75 107 144 184 234 290 343
#     4   9  18  32  53  82 110 139 179 226 274 325
#     4  11  21  37  60  82 107 142 186 234 280 333
#     4   8  15  30  53  80 107 136 175 221 264 307
#     4  10  20  35  56  81 109 145 185 224 267 319
#     4   9  18  32  53  80 109 140 175 219 265 320
#     4  10  18  32  55  80 109 142 176 219 266 320
#
# _framework density 19.276325
#
# number of rings (size 3 to 8) (size 9 to 14) (size 15 to 20)
#    0.000    2.125    1.250    3.375    0.000    2.500 
#    0.000    1.875    0.000   16.875    0.000    0.000 
#    0.000    0.000    0.000    0.000    0.000    0.000 
#
# Total GULP energy -357277.232897 kJ/mol
# GULP energy per Si atom -5582.456764 kJ/mol
# Density = 1.923245 g / cm^3
# Si number density = 19.276325 Si / 1000 Ang^3
#
#
#
# Elastic Constant Matrix: (Units=GPa)
#
#
# Indices 1 2 3 4 5 6 
#
# 1 16.8244 -5.0304 1.9431 0.0000 0.0000 0.0000
# 2 -5.0304 46.4475 5.6642 0.0000 0.0000 0.0000
# 3 1.9431 5.6642 105.6574 0.0000 0.0000 0.0000
# 4 0.0000 0.0000 0.0000 14.2937 0.0000 0.0000
# 5 0.0000 0.0000 0.0000 0.0000 23.4010 0.0000
# 6 0.0000 0.0000 0.0000 0.0000 0.0000 12.3117
#
#
#
# Elastic Compliance Matrix: (Units=1/GPa)
#
#
# Indices 1 2 3 4 5 6 
#
# 1 0.061662 0.006861 -0.001502 0.000000 0.000000 0.000000
# 2 0.006861 0.022435 -0.001329 0.000000 0.000000 0.000000
# 3 -0.001502 -0.001329 0.009563 0.000000 0.000000 0.000000
# 4 0.000000 0.000000 0.000000 0.069961 0.000000 0.000000
# 5 0.000000 0.000000 0.000000 0.000000 0.042733 0.000000
# 6 0.000000 0.000000 0.000000 0.000000 0.000000 0.081223
#
#
# Mechanical properties :
#
#
# Convention : Reuss Voigt Hill
#
# Bulk Modulus (GPa) = 9.83070 19.34253 14.58662
# Shear Modulus (GPa) = 15.95282 21.09145 18.52214
#
# Velocity S-wave (km/s) = 2.87990 3.31140 3.10316
# Velocity P-wave (km/s) = 4.02112 4.96756 4.51918
#
# Compressibility (1/GPa) = 0.10172217
#
# Stress axis : x y z
#
# Youngs Moduli (GPa) = 16.21733 44.57346 104.56519
#
# Poissons Ratio (x) = -0.30584 0.15704
# Poissons Ratio (y) = -0.11127 0.13896
# Poissons Ratio (z) = 0.02436 0.05923
#
# Static dielectric constant tensor:
#      x y z
#    x 1.671490 0.000000 0.000000 
#    y 0.000000 1.666090 0.000000 
#    z 0.000000 0.000000 1.535020 
# 
# From -- ./inp_files/29436.got.cif
#   From: 2010.05.17/outbox.cif.g08.bks.cpg/sg59_15_cif.got.tgz:29436.got - 2010.06.03 14:40:33.
