data_PCOD9447331
_publ_section_title
;
Structure prediction by ZEFSAII (Michael W. Deem and Ramdas Pophale) SiO2 
 PCOD9447331
Probable space group: P M M N
;
_chemical_formula_sum "Si O2"
_cell_formula_units_Z 64
_cell_length_a 18.509386
_cell_length_b 7.417160
_cell_length_c 23.302172
_cell_angle_alpha 90.000000
_cell_angle_beta 90.000000
_cell_angle_gamma 90.000000
_cell_volume 3199.087092
_symmetry_space_group_name_H-M "P M M N"
_symmetry_group_IT_number 59
_space_group.IT_coordinate_system_code '2'
_symmetry_cell_setting 'orthorhombic'
loop_
_space_group_symop_operation_xyz
x,y,z
1/2-x,1/2-y,z
1/2+x,-y,-z
-x,1/2+y,-z
-x,-y,-z
1/2+x,1/2+y,-z
1/2-x,y,z
x,1/2-y,z
loop_
_atom_site_type_symbol
_atom_site_label
_atom_site_fract_x
_atom_site_fract_y
_atom_site_fract_z
Si Si1 0.671286 0.530421 0.296920
Si Si2 0.172328 0.960467 0.449306
Si Si3 0.485675 0.469945 0.738774
Si Si4 0.432017 0.035222 0.958436
Si Si5 0.532964 0.033484 0.861329
Si Si6 0.831359 0.965992 0.943737
Si Si7 0.469798 0.970150 0.387623
Si Si8 0.626272 0.532541 0.424008
O O1 0.750000 0.471316 0.275682
O O2 0.670834 0.750000 0.296016
O O3 0.598650 0.473924 0.264123
O O4 0.661790 0.476869 0.363742
O O5 0.250000 0.040605 0.434138
O O6 0.174235 0.750000 0.433293
O O7 0.102168 0.037203 0.418098
O O8 0.161942 0.969287 0.517687
O O9 0.486028 0.250000 0.738693
O O10 0.525842 0.531058 0.796160
O O11 0.521693 0.524999 0.678689
O O12 0.421364 0.250000 0.952004
O O13 0.463763 0.965968 0.898293
O O14 0.364302 0.965567 0.995425
O O15 0.500000 0.000000 0.000000
O O16 0.527143 0.250000 0.860215
O O17 0.607940 0.997652 0.894794
O O18 0.750000 0.032676 0.932080
O O19 0.827139 0.750000 0.948604
O O20 0.470122 0.750000 0.388569
O O21 0.542618 0.025176 0.420551
O O22 0.628989 0.750000 0.424923
#
# Coordination Sequence:
#
# PCOD9447331 Si02
#       8
#     8   8   8   8   8   8   8   8
#     4   8  13  22  38  61  85 106 131 165 206 251
#     4  10  19  28  39  58  83 107 132 167 210 251
#     4   8  14  25  41  60  83 111 140 170 204 242
#     4   8  14  25  41  61  84 108 133 163 201 242
#     4   9  16  27  45  67  87 108 140 179 210 238
#     4   9  17  29  44  62  87 118 145 169 204 249
#     4   8  15  28  43  59  81 109 138 167 203 250
#     4   9  16  27  45  63  78 102 136 170 204 248
#
# _framework density 20.005706
#
# number of rings (size 3 to 8) (size 9 to 14) (size 15 to 20)
#    0.000    3.375    0.000    2.250    0.000    1.000 
#    0.000    1.250    0.000    9.750    0.000    0.000 
#    0.000    1.000    0.000    0.000    0.000    0.000 
#
# Total GULP energy -356530.364884 kJ/mol
# GULP energy per Si atom -5570.786951 kJ/mol
# Density = 1.996017 g / cm^3
# Si number density = 20.005706 Si / 1000 Ang^3
#
#
#
# Elastic Constant Matrix: (Units=GPa)
#
#
# Indices 1 2 3 4 5 6 
#
# 1 148.8011 2.8125 54.0529 0.0000 0.0000 0.0000
# 2 2.8125 64.4118 -3.8868 0.0000 0.0000 0.0000
# 3 54.0529 -3.8868 68.1291 0.0000 0.0000 0.0000
# 4 0.0000 0.0000 0.0000 1.8133 0.0000 0.0000
# 5 0.0000 0.0000 0.0000 0.0000 17.5131 0.0000
# 6 0.0000 0.0000 0.0000 0.0000 0.0000 1.6846
#
#
#
# Elastic Compliance Matrix: (Units=1/GPa)
#
#
# Indices 1 2 3 4 5 6 
#
# 1 0.009490 -0.000872 -0.007579 0.000000 0.000000 0.000000
# 2 -0.000872 0.015659 0.001585 0.000000 0.000000 0.000000
# 3 -0.007579 0.001585 0.020782 0.000000 0.000000 0.000000
# 4 0.000000 0.000000 0.000000 0.551490 0.000000 0.000000
# 5 0.000000 0.000000 0.000000 0.000000 0.057100 0.000000
# 6 0.000000 0.000000 0.000000 0.000000 0.000000 0.593621
#
#
# Mechanical properties :
#
#
# Convention : Reuss Voigt Hill
#
# Bulk Modulus (GPa) = 31.05705 43.03324 37.04515
# Shear Modulus (GPa) = 3.92895 19.42642 11.67768
#
# Velocity S-wave (km/s) = 1.40292 3.11954 2.41865
# Velocity P-wave (km/s) = 4.26404 5.87644 5.13393
#
# Compressibility (1/GPa) = 0.03219881
#
# Stress axis : x y z
#
# Youngs Moduli (GPa) = 105.37451 63.86187 48.11968
#
# Poissons Ratio (x) = 0.05567 0.36470
# Poissons Ratio (y) = 0.09186 -0.07627
# Poissons Ratio (z) = 0.79863 -0.10122
#
# Static dielectric constant tensor:
#      x y z
#    x 1.721800 0.000000 0.000000 
#    y 0.000000 1.779020 0.000000 
#    z 0.000000 0.000000 1.692450 
# 
# From -- ./inp_files/32327.got.cif
#   From: 2010.05.17/outbox.cif.g08.bks.cpg/sg59_17_cif.got.tgz:32327.got - 2010.06.03 14:40:33.
