data_PCOD9447515
_publ_section_title
;
Structure prediction by ZEFSAII (Michael W. Deem and Ramdas Pophale) SiO2 
 PCOD9447515
Probable space group: P M M N
;
_chemical_formula_sum "Si O2"
_cell_formula_units_Z 64
_cell_length_a 9.099170
_cell_length_b 18.474088
_cell_length_c 22.165937
_cell_angle_alpha 90.000000
_cell_angle_beta 90.000000
_cell_angle_gamma 90.000000
_cell_volume 3726.068902
_symmetry_space_group_name_H-M "P M M N"
_symmetry_group_IT_number 59
_space_group.IT_coordinate_system_code '2'
_symmetry_cell_setting 'orthorhombic'
loop_
_space_group_symop_operation_xyz
x,y,z
1/2-x,1/2-y,z
1/2+x,-y,-z
-x,1/2+y,-z
-x,-y,-z
1/2+x,1/2+y,-z
1/2-x,y,z
x,1/2-y,z
loop_
_atom_site_type_symbol
_atom_site_label
_atom_site_fract_x
_atom_site_fract_y
_atom_site_fract_z
Si Si1 0.577683 0.662691 0.638557
Si Si2 0.925350 0.667764 0.868820
Si Si3 0.425848 0.958365 0.188750
Si Si4 0.573715 0.835555 0.260008
Si Si5 0.925778 0.401913 0.244791
Si Si6 0.580433 0.838150 0.395737
Si Si7 0.082024 0.838198 0.515740
Si Si8 0.074820 0.474419 0.060915
O O1 0.750000 0.645593 0.644234
O O2 0.562018 0.750000 0.643726
O O3 0.486003 0.625738 0.691513
O O4 0.516296 0.640997 0.572967
O O5 0.750000 0.658800 0.856125
O O6 0.949913 0.750000 0.888573
O O7 0.965803 0.606923 0.917788
O O8 0.013404 0.650732 0.807854
O O9 0.250000 0.963676 0.195760
O O10 0.487086 0.882542 0.211860
O O11 0.504990 0.020582 0.227786
O O12 0.460984 0.975655 0.118867
O O13 0.750000 0.845795 0.254432
O O14 0.544742 0.750000 0.254150
O O15 0.532171 0.859171 0.328376
O O16 0.750000 0.404707 0.244177
O O17 0.750000 0.860185 0.404372
O O18 0.579427 0.750000 0.395807
O O19 0.483437 0.863085 0.451814
O O20 0.250000 0.861483 0.523716
O O21 0.081020 0.750000 0.514139
O O22 0.250000 0.476072 0.052646
O O23 0.000000 0.500000 0.000000
#
# Coordination Sequence:
#
# PCOD9447515 Si02
#       8
#     8   8   8   8   8   8   8   8
#     4  10  19  30  45  66  96 134 171 208 254 304
#     4   9  18  34  54  76 104 136 172 213 255 301
#     4  10  21  37  55  76 103 134 168 203 246 302
#     4   9  18  33  54  80 106 131 165 210 255 299
#     4  11  21  32  49  73 101 132 168 210 254 301
#     4   8  14  26  44  66  94 127 161 200 249 301
#     4   9  16  25  39  63  94 126 165 211 252 294
#     4   9  19  35  55  78 104 137 173 208 249 299
#
# _framework density 17.176279000000001
#
# number of rings (size 3 to 8) (size 9 to 14) (size 15 to 20)
#    0.000    2.625    0.000    4.125    0.000    7.250 
#    0.000    1.875    0.000    3.000    0.000    0.000 
#    0.000    0.000    0.000    0.000    0.000    0.000 
#
# Total GULP energy -356871.323880 kJ/mol
# GULP energy per Si atom -5576.114436 kJ/mol
# Density = 1.713718 g / cm^3
# Si number density = 17.176279 Si / 1000 Ang^3
#
#
#
# Elastic Constant Matrix: (Units=GPa)
#
#
# Indices 1 2 3 4 5 6 
#
# 1 86.2679 45.5441 69.2957 0.0000 0.0000 0.0000
# 2 45.5441 61.0017 65.1922 0.0000 0.0000 0.0000
# 3 69.2957 65.1922 132.9294 0.0000 0.0000 0.0000
# 4 0.0000 0.0000 0.0000 16.1448 0.0000 0.0000
# 5 0.0000 0.0000 0.0000 0.0000 34.1956 0.0000
# 6 0.0000 0.0000 0.0000 0.0000 0.0000 22.5944
#
#
#
# Elastic Compliance Matrix: (Units=1/GPa)
#
#
# Indices 1 2 3 4 5 6 
#
# 1 0.021958 -0.008744 -0.007159 0.000000 0.000000 0.000000
# 2 -0.008744 0.037929 -0.014043 0.000000 0.000000 0.000000
# 3 -0.007159 -0.014043 0.018142 0.000000 0.000000 0.000000
# 4 0.000000 0.000000 0.000000 0.061939 0.000000 0.000000
# 5 0.000000 0.000000 0.000000 0.000000 0.029244 0.000000
# 6 0.000000 0.000000 0.000000 0.000000 0.000000 0.044259
#
#
# Mechanical properties :
#
#
# Convention : Reuss Voigt Hill
#
# Bulk Modulus (GPa) = 55.13371 71.14036 63.13703
# Shear Modulus (GPa) = 17.89496 21.26475 19.57986
#
# Velocity S-wave (km/s) = 3.23126 3.52238 3.37996
# Velocity P-wave (km/s) = 6.78895 7.61910 7.21597
#
# Compressibility (1/GPa) = 0.01813772
#
# Stress axis : x y z
#
# Youngs Moduli (GPa) = 45.54119 26.36489 55.12134
#
# Poissons Ratio (x) = 0.23053 0.39459
# Poissons Ratio (y) = 0.39820 0.77409
# Poissons Ratio (z) = 0.32601 0.37025
#
# Static dielectric constant tensor:
#      x y z
#    x 1.580370 0.000000 0.000000 
#    y 0.000000 1.590430 0.000000 
#    z 0.000000 0.000000 1.564450 
# 
# From -- ./inp_files/29360.got.cif
#   From: 2010.05.17/outbox.cif.g08.bks.cpg/sg59_15_cif.got.tgz:29360.got - 2010.06.03 14:40:33.
