data_PCOD9447873
_publ_section_title
;
Structure prediction by ZEFSAII (Michael W. Deem and Ramdas Pophale) SiO2 
 PCOD9447873
Probable space group: P M M N
;
_chemical_formula_sum "Si O2"
_cell_formula_units_Z 56
_cell_length_a 19.418730
_cell_length_b 7.549036
_cell_length_c 18.602783
_cell_angle_alpha 90.000000
_cell_angle_beta 90.000000
_cell_angle_gamma 90.000000
_cell_volume 2727.032036
_symmetry_space_group_name_H-M "P M M N"
_symmetry_group_IT_number 59
_space_group.IT_coordinate_system_code '2'
_symmetry_cell_setting 'orthorhombic'
loop_
_space_group_symop_operation_xyz
x,y,z
1/2-x,1/2-y,z
1/2+x,-y,-z
-x,1/2+y,-z
-x,-y,-z
1/2+x,1/2+y,-z
1/2-x,y,z
x,1/2-y,z
loop_
_atom_site_type_symbol
_atom_site_label
_atom_site_fract_x
_atom_site_fract_y
_atom_site_fract_z
Si Si1 0.599715 0.044477 0.862874
Si Si2 0.583862 0.032897 0.703783
Si Si3 0.328834 0.967530 0.993772
Si Si4 0.058610 0.543458 0.879010
Si Si5 0.171765 0.037774 0.590342
Si Si6 0.328428 0.537514 0.431341
Si Si7 0.073491 0.035517 0.716395
O O1 0.619672 0.250000 0.857771
O O2 0.608294 0.969881 0.782515
O O3 0.517994 0.037886 0.881081
O O4 0.643945 0.970612 0.928424
O O5 0.585562 0.250000 0.704949
O O6 0.627856 0.971783 0.636027
O O7 0.504175 0.981466 0.696906
O O8 0.250000 0.021477 0.980126
O O9 0.329519 0.750000 0.992910
O O10 0.384832 0.026296 0.934737
O O11 0.048074 0.750000 0.895025
O O12 0.086311 0.524070 0.797827
O O13 0.250000 0.968053 0.592757
O O14 0.175014 0.250000 0.597573
O O15 0.126141 0.970947 0.656124
O O16 0.142995 0.001579 0.510718
O O17 0.250000 0.469065 0.429005
O O18 0.325592 0.750000 0.425048
O O19 0.075090 0.250000 0.717330
#
# Coordination Sequence:
#
# PCOD9447873 Si02
#       7
#     8   8   8   8   8   8   8
#     4   9  17  32  53  71  93 128 163 193 229 280
#     4   8  15  28  46  68  90 114 149 189 224 262
#     4   9  18  31  48  73 100 125 158 198 236 275
#     4  10  19  31  49  72  98 125 155 196 241 282
#     4   9  18  32  48  66  90 121 155 189 228 277
#     4   9  17  29  45  66  92 119 148 185 229 275
#     4   9  18  33  50  67  90 121 157 193 229 275
#
# _framework density 20.535146000000001
#
# number of rings (size 3 to 8) (size 9 to 14) (size 15 to 20)
#    0.000    3.000    0.000    1.714    0.000    2.286 
#    0.000    6.429    0.000    3.429    0.000    0.000 
#    0.000    0.000    0.000    0.000    0.000    0.000 
#
# Total GULP energy -312356.412465 kJ/mol
# GULP energy per Si atom -5577.793080 kJ/mol
# Density = 2.048841 g / cm^3
# Si number density = 20.535146 Si / 1000 Ang^3
#
#
#
# Elastic Constant Matrix: (Units=GPa)
#
#
# Indices 1 2 3 4 5 6 
#
# 1 32.4938 -8.7285 37.2691 0.0000 0.0000 0.0000
# 2 -8.7285 47.3198 -10.4581 0.0000 0.0000 0.0000
# 3 37.2691 -10.4581 94.1507 0.0000 0.0000 0.0000
# 4 0.0000 0.0000 0.0000 12.7332 0.0000 0.0000
# 5 0.0000 0.0000 0.0000 0.0000 241.7144 0.0000
# 6 0.0000 0.0000 0.0000 0.0000 0.0000 1.0983
#
#
#
# Elastic Compliance Matrix: (Units=1/GPa)
#
#
# Indices 1 2 3 4 5 6 
#
# 1 0.057854 0.005751 -0.022262 0.000000 0.000000 0.000000
# 2 0.005751 0.022236 0.000193 0.000000 0.000000 0.000000
# 3 -0.022262 0.000193 0.019455 0.000000 0.000000 0.000000
# 4 0.000000 0.000000 0.000000 0.078535 0.000000 0.000000
# 5 0.000000 0.000000 0.000000 0.000000 0.004137 0.000000
# 6 0.000000 0.000000 0.000000 0.000000 0.000000 0.910478
#
#
# Mechanical properties :
#
#
# Convention : Reuss Voigt Hill
#
# Bulk Modulus (GPa) = 14.94538 23.34771 19.14654
# Shear Modulus (GPa) = 4.35679 61.50131 32.92905
#
# Velocity S-wave (km/s) = 1.45816 5.47853 4.00877
# Velocity P-wave (km/s) = 3.18257 7.17031 5.54717
#
# Compressibility (1/GPa) = 0.06691032
#
# Stress axis : x y z
#
# Youngs Moduli (GPa) = 17.28487 44.97131 51.40017
#
# Poissons Ratio (x) = -0.25865 1.14429
# Poissons Ratio (y) = -0.09941 -0.00994
# Poissons Ratio (z) = 0.38480 -0.00869
#
# Static dielectric constant tensor:
#      x y z
#    x 1.703610 0.000000 0.000000 
#    y 0.000000 1.775900 0.000000 
#    z 0.000000 0.000000 1.723740 
# 
# From -- ./inp_files/24180.got.cif
#   From: 2010.05.17/outbox.cif.g08.bks.cpg/sg59_13_cif.got.tgz:24180.got - 2010.06.03 14:40:33.
