data_PCOD9447618
_publ_section_title
;
Structure prediction by ZEFSAII (Michael W. Deem and Ramdas Pophale) SiO2 
 PCOD9447618
Probable space group: P M M N
;
_chemical_formula_sum "Si O2"
_cell_formula_units_Z 64
_cell_length_a 7.963472
_cell_length_b 14.452247
_cell_length_c 31.613418
_cell_angle_alpha 90.000000
_cell_angle_beta 90.000000
_cell_angle_gamma 90.000000
_cell_volume 3638.390311
_symmetry_space_group_name_H-M "P M M N"
_symmetry_group_IT_number 59
_space_group.IT_coordinate_system_code '2'
_symmetry_cell_setting 'orthorhombic'
loop_
_space_group_symop_operation_xyz
x,y,z
1/2-x,1/2-y,z
1/2+x,-y,-z
-x,1/2+y,-z
-x,-y,-z
1/2+x,1/2+y,-z
1/2-x,y,z
x,1/2-y,z
loop_
_atom_site_type_symbol
_atom_site_label
_atom_site_fract_x
_atom_site_fract_y
_atom_site_fract_z
Si Si1 0.044428 0.356415 0.624072
Si Si2 0.548105 0.645817 0.760774
Si Si3 0.451693 0.982331 0.686172
Si Si4 0.548989 0.354165 0.984761
Si Si5 0.044758 0.646856 0.610507
Si Si6 0.048247 0.489497 0.548600
Si Si7 0.050596 0.973602 0.935851
Si Si8 0.047595 0.353415 0.142218
O O1 0.250000 0.356371 0.624126
O O2 0.989082 0.250000 0.626933
O O3 0.991154 0.421638 0.663803
O O4 0.991417 0.405825 0.579778
O O5 0.750000 0.649859 0.761010
O O6 0.488902 0.750000 0.746872
O O7 0.500389 0.559384 0.731369
O O8 0.491227 0.632489 0.809334
O O9 0.250000 0.987086 0.685652
O O10 0.507673 0.903116 0.653358
O O11 0.750000 0.348004 0.989054
O O12 0.482881 0.250000 0.980132
O O13 0.513458 0.423937 0.946345
O O14 0.482783 0.405327 0.027101
O O15 0.250000 0.648427 0.610535
O O16 0.982195 0.750000 0.607377
O O17 0.991079 0.582323 0.572221
O O18 0.250000 0.485583 0.550047
O O19 0.000000 0.500000 0.500000
O O20 0.250000 0.976533 0.940130
O O21 0.007941 0.930270 0.890814
O O22 0.250000 0.352760 0.142662
O O23 0.990895 0.250000 0.128735
#
# Coordination Sequence:
#
# PCOD9447618 Si02
#       8
#     8   8   8   8   8   8   8   8
#     4   8  15  29  47  65  87 117 150 183 223 268
#     4   9  18  31  46  67  96 125 147 174 222 278
#     4   9  16  27  47  70  86 107 145 187 220 257
#     4   9  18  32  48  67  94 128 162 194 234 284
#     4   8  14  25  40  58  81 107 133 164 206 254
#     4   9  17  28  42  60  82 110 142 174 210 254
#     4  10  19  30  47  72  98 122 155 201 242 273
#     4   9  18  32  48  66  92 127 159 183 220 281
#
# _framework density 17.590195999999999
#
# number of rings (size 3 to 8) (size 9 to 14) (size 15 to 20)
#    0.000    3.125    0.000    3.375    0.000    3.250 
#    0.000    3.750    0.000    2.625    0.000    3.500 
#    0.000    0.000    0.000    0.000    0.000    0.000 
#
# Total GULP energy -356297.971782 kJ/mol
# GULP energy per Si atom -5567.155809 kJ/mol
# Density = 1.755016 g / cm^3
# Si number density = 17.590196 Si / 1000 Ang^3
#
#
#
# Elastic Constant Matrix: (Units=GPa)
#
#
# Indices 1 2 3 4 5 6 
#
# 1 12.3267 12.0410 2.4471 0.0000 0.0000 0.0000
# 2 12.0410 170.4706 70.6695 0.0000 0.0000 0.0000
# 3 2.4471 70.6695 91.3606 0.0000 0.0000 0.0000
# 4 0.0000 0.0000 0.0000 16.3533 0.0000 0.0000
# 5 0.0000 0.0000 0.0000 0.0000 22.6456 0.0000
# 6 0.0000 0.0000 0.0000 0.0000 0.0000 13.2838
#
#
#
# Elastic Compliance Matrix: (Units=1/GPa)
#
#
# Indices 1 2 3 4 5 6 
#
# 1 0.087936 -0.007706 0.003605 0.000000 0.000000 0.000000
# 2 -0.007706 0.009310 -0.006995 0.000000 0.000000 0.000000
# 3 0.003605 -0.006995 0.016260 0.000000 0.000000 0.000000
# 4 0.000000 0.000000 0.000000 0.061150 0.000000 0.000000
# 5 0.000000 0.000000 0.000000 0.000000 0.044159 0.000000
# 6 0.000000 0.000000 0.000000 0.000000 0.000000 0.075279
#
#
# Mechanical properties :
#
#
# Convention : Reuss Voigt Hill
#
# Bulk Modulus (GPa) = 10.95114 49.38591 30.16853
# Shear Modulus (GPa) = 14.42067 23.05657 18.73862
#
# Velocity S-wave (km/s) = 2.86634 3.62437 3.26742
# Velocity P-wave (km/s) = 4.14654 6.75659 5.60559
#
# Compressibility (1/GPa) = 0.09131469
#
# Stress axis : x y z
#
# Youngs Moduli (GPa) = 11.37190 107.40695 61.49997
#
# Poissons Ratio (x) = 0.82766 -0.22172
# Poissons Ratio (y) = 0.08763 0.43022
# Poissons Ratio (z) = -0.04100 0.75135
#
# Static dielectric constant tensor:
#      x y z
#    x 1.633490 0.000000 0.000000 
#    y 0.000000 1.607280 0.000000 
#    z 0.000000 0.000000 1.609450 
# 
# From -- ./inp_files/33193.got.cif
#   From: 2010.05.17/outbox.cif.g08.bks.cpg/sg59_17_cif.got.tgz:33193.got - 2010.06.03 14:40:33.
