data_PCOD9447719
_publ_section_title
;
Structure prediction by ZEFSAII (Michael W. Deem and Ramdas Pophale) SiO2 
 PCOD9447719
Probable space group: P M M N
;
_chemical_formula_sum "Si O2"
_cell_formula_units_Z 40
_cell_length_a 7.519597
_cell_length_b 16.291935
_cell_length_c 14.818872
_cell_angle_alpha 90.000000
_cell_angle_beta 90.000000
_cell_angle_gamma 90.000000
_cell_volume 1815.442012
_symmetry_space_group_name_H-M "P M M N"
_symmetry_group_IT_number 59
_space_group.IT_coordinate_system_code '2'
_symmetry_cell_setting 'orthorhombic'
loop_
_space_group_symop_operation_xyz
x,y,z
1/2-x,1/2-y,z
1/2+x,-y,-z
-x,1/2+y,-z
-x,-y,-z
1/2+x,1/2+y,-z
1/2-x,y,z
x,1/2-y,z
loop_
_atom_site_type_symbol
_atom_site_label
_atom_site_fract_x
_atom_site_fract_y
_atom_site_fract_z
Si Si1 0.042806 0.397992 0.101822
Si Si2 0.463373 0.000723 0.605723
Si Si3 0.956111 0.160518 0.295978
Si Si4 0.532728 0.840207 0.286846
Si Si5 0.965758 0.591127 0.096439
O O1 0.250000 0.375917 0.104481
O O2 0.958821 0.356905 0.188982
O O3 0.023971 0.496764 0.109500
O O4 0.972253 0.378174 0.001629
O O5 0.250000 0.001011 0.619453
O O6 0.535033 0.918642 0.653948
O O7 0.500000 0.000000 0.500000
O O8 0.529899 0.083916 0.652714
O O9 0.750000 0.164320 0.324133
O O10 0.036436 0.250000 0.314615
O O11 0.750000 0.840520 0.288581
O O12 0.474326 0.750000 0.316601
O O13 0.480192 0.857305 0.183288
O O14 0.750000 0.589909 0.093474
#
# Coordination Sequence:
#
# PCOD9447719 Si02
#       5
#     8   8   8   8   8
#     4  10  19  30  52  83 113 144 181 226 268 308
#     4  10  21  38  58  79 104 136 177 223 274 328
#     4  10  21  38  58  78 107 149 187 218 264 329
#     4   9  17  32  56  81 104 136 177 216 259 318
#     4   9  17  32  53  78 111 149 183 216 262 322
#
# _framework density 22.033203
#
# number of rings (size 3 to 8) (size 9 to 14) (size 15 to 20)
#    0.000    2.400    2.000    0.600    0.000    3.600 
#    0.000    2.000    0.000    1.800    0.000    0.000 
#    0.000    0.000    0.000    0.000    0.000    0.000 
#
# Total GULP energy -223372.071450 kJ/mol
# GULP energy per Si atom -5584.301786 kJ/mol
# Density = 2.198305 g / cm^3
# Si number density = 22.033203 Si / 1000 Ang^3
#
#
#
# Elastic Constant Matrix: (Units=GPa)
#
#
# Indices 1 2 3 4 5 6 
#
# 1 58.0690 6.4079 -3.5843 0.0000 0.0000 0.0000
# 2 6.4079 196.3620 104.4997 0.0000 0.0000 0.0000
# 3 -3.5843 104.4997 138.6529 0.0000 0.0000 0.0000
# 4 0.0000 0.0000 0.0000 -1.0898 0.0000 0.0000
# 5 0.0000 0.0000 0.0000 0.0000 22.1648 0.0000
# 6 0.0000 0.0000 0.0000 0.0000 0.0000 -3.1438
#
#
#
# Elastic Compliance Matrix: (Units=1/GPa)
#
#
# Indices 1 2 3 4 5 6 
#
# 1 0.017461 -0.001352 0.001471 0.000000 0.000000 0.000000
# 2 -0.001352 0.008608 -0.006523 0.000000 0.000000 0.000000
# 3 0.001471 -0.006523 0.012166 0.000000 0.000000 0.000000
# 4 0.000000 0.000000 0.000000 -0.917607 0.000000 0.000000
# 5 0.000000 0.000000 0.000000 0.000000 0.045117 0.000000
# 6 0.000000 0.000000 0.000000 0.000000 0.000000 -0.318085
#
#
# Mechanical properties :
#
#
# Convention : Reuss Voigt Hill
#
# Bulk Modulus (GPa) = 39.32927 67.52563 53.42745
# Shear Modulus (GPa) = -4.42065 22.63695 9.10815
#
# Velocity S-wave (km/s) = -1.41800 3.20879 2.03539
# Velocity P-wave (km/s) = 3.89972 6.66650 5.46123
#
# Compressibility (1/GPa) = 0.02542636
#
# Stress axis : x y z
#
# Youngs Moduli (GPa) = 57.27075 116.17155 82.19485
#
# Poissons Ratio (x) = 0.15712 -0.12088
# Poissons Ratio (y) = 0.07746 0.53612
# Poissons Ratio (z) = -0.08423 0.75774
#
# Static dielectric constant tensor:
#      x y z
#    x 1.954060 0.000000 0.000000 
#    y 0.000000 1.812520 0.000000 
#    z 0.000000 0.000000 1.767300 
# 
# From -- ./inp_files/19847.got.cif
#   From: 2010.05.17/outbox.cif.g08.bks.cpg/sg59_10_cif.got.tgz:19847.got - 2010.06.03 14:40:33.
