data_PCOD9447983
_publ_section_title
;
Structure prediction by ZEFSAII (Michael W. Deem and Ramdas Pophale) SiO2 
 PCOD9447983
Probable space group: P M M N
;
_chemical_formula_sum "Si O2"
_cell_formula_units_Z 56
_cell_length_a 23.407612
_cell_length_b 8.328395
_cell_length_c 15.149675
_cell_angle_alpha 90.000000
_cell_angle_beta 90.000000
_cell_angle_gamma 90.000000
_cell_volume 2953.396399
_symmetry_space_group_name_H-M "P M M N"
_symmetry_group_IT_number 59
_space_group.IT_coordinate_system_code '2'
_symmetry_cell_setting 'orthorhombic'
loop_
_space_group_symop_operation_xyz
x,y,z
1/2-x,1/2-y,z
1/2+x,-y,-z
-x,1/2+y,-z
-x,-y,-z
1/2+x,1/2+y,-z
1/2-x,y,z
x,1/2-y,z
loop_
_atom_site_type_symbol
_atom_site_label
_atom_site_fract_x
_atom_site_fract_y
_atom_site_fract_z
Si Si1 0.315074 0.944144 0.577939
Si Si2 0.145500 0.945840 0.383341
Si Si3 0.089943 0.441702 0.713642
Si Si4 0.447845 0.558804 0.894661
Si Si5 0.076471 0.059835 0.088201
Si Si6 0.312915 0.943620 0.193883
Si Si7 0.515942 0.056273 0.597713
O O1 0.250000 0.988386 0.597590
O O2 0.319743 0.750000 0.579175
O O3 0.330447 0.997644 0.478206
O O4 0.358306 0.012487 0.649730
O O5 0.147399 0.750000 0.383869
O O6 0.177854 0.998483 0.295291
O O7 0.079484 0.996930 0.377704
O O8 0.087349 0.250000 0.722280
O O9 0.090031 0.516787 0.810367
O O10 0.032345 0.500586 0.664860
O O11 0.449854 0.750000 0.907784
O O12 0.513654 0.500768 0.879210
O O13 0.424532 0.481245 0.984319
O O14 0.077870 0.250000 0.100595
O O15 0.131853 0.991340 0.137119
O O16 0.250000 0.998915 0.162407
O O17 0.311964 0.750000 0.194792
O O18 0.515716 0.250000 0.598080
O O19 0.500000 0.000000 0.500000
#
# Coordination Sequence:
#
# PCOD9447983 Si02
#       7
#     8   8   8   8   8   8   8
#     4  10  20  35  55  76 104 148 196 234 268 319
#     4   9  17  32  54  79 108 145 189 231 270 319
#     4  11  22  35  54  83 115 146 180 228 284 330
#     4  10  21  38  62  87 111 144 183 226 278 340
#     4  10  21  38  60  87 116 144 177 227 285 336
#     4  10  20  35  57  84 115 153 194 232 273 331
#     4  10  19  31  50  77 109 144 181 225 274 322
#
# _framework density 18.961220999999998
#
# number of rings (size 3 to 8) (size 9 to 14) (size 15 to 20)
#    0.000    2.000    1.429    2.571    0.000    5.714 
#    0.000    2.143    0.000    6.000    0.000    0.000 
#    0.000    0.000    0.000    0.000    0.000    0.000 
#
# Total GULP energy -312628.762350 kJ/mol
# GULP energy per Si atom -5582.656471 kJ/mol
# Density = 1.891806 g / cm^3
# Si number density = 18.961221 Si / 1000 Ang^3
#
#
#
# Elastic Constant Matrix: (Units=GPa)
#
#
# Indices 1 2 3 4 5 6 
#
# 1 112.6786 15.5013 53.5318 0.0000 0.0000 0.0000
# 2 15.5013 10.6313 1.8894 0.0000 0.0000 0.0000
# 3 53.5318 1.8894 101.4970 0.0000 0.0000 0.0000
# 4 0.0000 0.0000 0.0000 20.9725 0.0000 0.0000
# 5 0.0000 0.0000 0.0000 0.0000 21.3482 0.0000
# 6 0.0000 0.0000 0.0000 0.0000 0.0000 24.4709
#
#
#
# Elastic Compliance Matrix: (Units=1/GPa)
#
#
# Indices 1 2 3 4 5 6 
#
# 1 0.015482 -0.021194 -0.007771 0.000000 0.000000 0.000000
# 2 -0.021194 0.123386 0.008881 0.000000 0.000000 0.000000
# 3 -0.007771 0.008881 0.013786 0.000000 0.000000 0.000000
# 4 0.000000 0.000000 0.000000 0.047681 0.000000 0.000000
# 5 0.000000 0.000000 0.000000 0.000000 0.046842 0.000000
# 6 0.000000 0.000000 0.000000 0.000000 0.000000 0.040865
#
#
# Mechanical properties :
#
#
# Convention : Reuss Voigt Hill
#
# Bulk Modulus (GPa) = 8.88993 40.73908 24.81451
# Shear Modulus (GPa) = 13.67218 23.61728 18.64473
#
# Velocity S-wave (km/s) = 2.68817 3.53307 3.13918
# Velocity P-wave (km/s) = 3.78598 6.17864 5.12393
#
# Compressibility (1/GPa) = 0.11248688
#
# Stress axis : x y z
#
# Youngs Moduli (GPa) = 64.58937 8.10465 72.53775
#
# Poissons Ratio (x) = 0.17177 0.56371
# Poissons Ratio (y) = 1.36888 -0.64422
# Poissons Ratio (z) = 0.50194 -0.07198
#
# Static dielectric constant tensor:
#      x y z
#    x 1.861390 0.000000 0.000000 
#    y 0.000000 1.662130 0.000000 
#    z 0.000000 0.000000 1.636980 
# 
# From -- ./inp_files/21043.got.cif
#   From: 2010.05.17/outbox.cif.g08.bks.cpg/sg59_11_cif.got.tgz:21043.got - 2010.06.03 14:40:33.
