data_PCOD9447619
_publ_section_title
;
Structure prediction by ZEFSAII (Michael W. Deem and Ramdas Pophale) SiO2 
 PCOD9447619
Probable space group: P M M N
;
_chemical_formula_sum "Si O2"
_cell_formula_units_Z 64
_cell_length_a 9.467395
_cell_length_b 34.026440
_cell_length_c 10.852060
_cell_angle_alpha 90.000000
_cell_angle_beta 90.000000
_cell_angle_gamma 90.000000
_cell_volume 3495.901577
_symmetry_space_group_name_H-M "P M M N"
_symmetry_group_IT_number 59
_space_group.IT_coordinate_system_code '2'
_symmetry_cell_setting 'orthorhombic'
loop_
_space_group_symop_operation_xyz
x,y,z
1/2-x,1/2-y,z
1/2+x,-y,-z
-x,1/2+y,-z
-x,-y,-z
1/2+x,1/2+y,-z
1/2-x,y,z
x,1/2-y,z
loop_
_atom_site_type_symbol
_atom_site_label
_atom_site_fract_x
_atom_site_fract_y
_atom_site_fract_z
Si Si1 0.586036 0.060396 0.940695
Si Si2 0.581351 0.633767 0.681290
Si Si3 0.583599 0.585117 0.440372
Si Si4 0.413787 0.373143 0.820667
Si Si5 0.085084 0.205440 0.949630
Si Si6 0.081748 0.704173 0.797181
Si Si7 0.414150 0.983218 0.323220
Si Si8 0.917702 0.944429 0.820556
O O1 0.750000 0.063693 0.971990
O O2 0.516347 0.101983 0.906885
O O3 0.574444 0.035725 0.814335
O O4 0.501444 0.044359 0.057349
O O5 0.750000 0.641946 0.675237
O O6 0.538406 0.611155 0.556464
O O7 0.494707 0.672855 0.709548
O O8 0.558950 0.601030 0.787356
O O9 0.750000 0.576545 0.456461
O O10 0.565746 0.611995 0.318271
O O11 0.504132 0.544376 0.412286
O O12 0.250000 0.382209 0.853269
O O13 0.437439 0.327366 0.846177
O O14 0.250000 0.202197 0.989465
O O15 0.062674 0.250000 0.905638
O O16 0.986423 0.198571 0.067406
O O17 0.250000 0.697888 0.800192
O O18 0.055914 0.750000 0.763129
O O19 0.250000 0.982247 0.360577
O O20 0.457823 0.028007 0.295565
O O21 0.750000 0.950495 0.839405
#
# Coordination Sequence:
#
# PCOD9447619 Si02
#       8
#     8   8   8   8   8   8   8   8
#     4  10  19  30  47  72  98 125 163 206 248 298
#     4  10  21  36  53  74 100 132 170 208 245 288
#     4   9  19  35  52  71  97 130 169 209 245 285
#     4   9  17  31  50  70  96 129 160 196 246 295
#     4   9  17  30  50  75 100 125 154 190 237 295
#     4  10  21  36  54  77 104 131 159 196 243 292
#     4   9  19  34  50  70  98 132 166 204 252 299
#     4  10  20  33  49  71 101 133 165 204 250 298
#
# _framework density 18.307151999999999
#
# number of rings (size 3 to 8) (size 9 to 14) (size 15 to 20)
#    0.000    2.500    0.000    1.875    0.000    6.750 
#    0.000    0.625    0.000    2.250    0.000    1.750 
#    0.000    0.000    0.000    0.000    0.000    0.000 
#
# Total GULP energy -357059.533856 kJ/mol
# GULP energy per Si atom -5579.055216 kJ/mol
# Density = 1.826548 g / cm^3
# Si number density = 18.307152 Si / 1000 Ang^3
#
#
#
# Elastic Constant Matrix: (Units=GPa)
#
#
# Indices 1 2 3 4 5 6 
#
# 1 49.4381 42.1247 28.1178 0.0000 0.0000 0.0000
# 2 42.1247 95.4611 16.2100 0.0000 0.0000 0.0000
# 3 28.1178 16.2100 46.7709 0.0000 0.0000 0.0000
# 4 0.0000 0.0000 0.0000 27.9292 0.0000 0.0000
# 5 0.0000 0.0000 0.0000 0.0000 14.1246 0.0000
# 6 0.0000 0.0000 0.0000 0.0000 0.0000 26.0951
#
#
#
# Elastic Compliance Matrix: (Units=1/GPa)
#
#
# Indices 1 2 3 4 5 6 
#
# 1 0.047928 -0.017273 -0.022827 0.000000 0.000000 0.000000
# 2 -0.017273 0.017356 0.004369 0.000000 0.000000 0.000000
# 3 -0.022827 0.004369 0.033590 0.000000 0.000000 0.000000
# 4 0.000000 0.000000 0.000000 0.035805 0.000000 0.000000
# 5 0.000000 0.000000 0.000000 0.000000 0.070798 0.000000
# 6 0.000000 0.000000 0.000000 0.000000 0.000000 0.038321
#
#
# Mechanical properties :
#
#
# Convention : Reuss Voigt Hill
#
# Bulk Modulus (GPa) = 36.48100 40.50835 38.49467
# Shear Modulus (GPa) = 15.41318 20.64430 18.02874
#
# Velocity S-wave (km/s) = 2.90474 3.36171 3.14154
# Velocity P-wave (km/s) = 5.58752 6.10272 5.85080
#
# Compressibility (1/GPa) = 0.02741153
#
# Stress axis : x y z
#
# Youngs Moduli (GPa) = 20.86452 57.61729 29.77105
#
# Poissons Ratio (x) = 0.99525 0.67958
# Poissons Ratio (y) = 0.36040 -0.13008
# Poissons Ratio (z) = 0.47627 -0.25174
#
# Static dielectric constant tensor:
#      x y z
#    x 1.611960 0.000000 0.000000 
#    y 0.000000 1.648910 0.000000 
#    z 0.000000 0.000000 1.626600 
# 
# From -- ./inp_files/15062.got.cif
#   From: 2010.05.17/outbox.cif.g08.bks.cpg/sg59_8_cif.got.tgz:15062.got - 2010.06.03 14:40:33.
