data_PCOD9447411
_publ_section_title
;
Structure prediction by ZEFSAII (Michael W. Deem and Ramdas Pophale) SiO2 
 PCOD9447411
Probable space group: P M M N
;
_chemical_formula_sum "Si O2"
_cell_formula_units_Z 48
_cell_length_a 22.926834
_cell_length_b 8.980109
_cell_length_c 9.781613
_cell_angle_alpha 90.000000
_cell_angle_beta 90.000000
_cell_angle_gamma 90.000000
_cell_volume 2013.891974
_symmetry_space_group_name_H-M "P M M N"
_symmetry_group_IT_number 59
_space_group.IT_coordinate_system_code '2'
_symmetry_cell_setting 'orthorhombic'
loop_
_space_group_symop_operation_xyz
x,y,z
1/2-x,1/2-y,z
1/2+x,-y,-z
-x,1/2+y,-z
-x,-y,-z
1/2+x,1/2+y,-z
1/2-x,y,z
x,1/2-y,z
loop_
_atom_site_type_symbol
_atom_site_label
_atom_site_fract_x
_atom_site_fract_y
_atom_site_fract_z
Si Si1 0.064347 0.073012 0.988386
Si Si2 0.818350 0.921238 0.236786
Si Si3 0.316182 0.573899 0.479781
Si Si4 0.530938 0.579371 0.304537
Si Si5 0.920592 0.580447 0.615407
Si Si6 0.317299 0.573905 0.050717
O O1 0.060739 0.250000 0.013629
O O2 0.073947 0.048507 0.822397
O O3 0.119159 0.007186 0.074110
O O4 0.000000 0.000000 0.000000
O O5 0.750000 0.897929 0.262030
O O6 0.839907 0.750000 0.212506
O O7 0.835024 0.996221 0.379604
O O8 0.816262 0.035035 0.110397
O O9 0.250000 0.532006 0.443255
O O10 0.318266 0.750000 0.496767
O O11 0.364097 0.521979 0.372187
O O12 0.510539 0.750000 0.286737
O O13 0.475827 0.471109 0.297906
O O14 0.555956 0.570509 0.457803
O O15 0.904536 0.750000 0.641876
O O16 0.250000 0.529253 0.099109
O O17 0.322606 0.750000 0.078529
#
# Coordination Sequence:
#
# PCOD9447411 Si02
#       6
#     8   8   8   8   8   8
#     4  11  23  39  60  85 116 153 192 234 281 335
#     4   9  16  26  42  67 101 139 178 223 276 331
#     4  10  19  29  43  67 102 142 180 219 267 324
#     4   9  20  37  54  76 107 142 179 220 270 327
#     4  10  19  32  54  80 105 138 179 224 272 323
#     4  10  20  34  54  81 112 145 183 228 280 338
#
# _framework density 23.834447000000001
#
# number of rings (size 3 to 8) (size 9 to 14) (size 15 to 20)
#    0.000    2.167    0.000    3.500    0.000    7.333 
#    0.000    0.000    0.000    1.000    0.000    7.000 
#    0.000    0.000    0.000    0.000    0.000    0.000 
#
# Total GULP energy -267562.858075 kJ/mol
# GULP energy per Si atom -5574.226210 kJ/mol
# Density = 2.378020 g / cm^3
# Si number density = 23.834447 Si / 1000 Ang^3
#
#
#
# Elastic Constant Matrix: (Units=GPa)
#
#
# Indices 1 2 3 4 5 6 
#
# 1 120.2939 53.7030 -7.3054 0.0000 0.0000 0.0000
# 2 53.7030 67.3534 -15.0577 0.0000 0.0000 0.0000
# 3 -7.3054 -15.0577 66.6858 0.0000 0.0000 0.0000
# 4 0.0000 0.0000 0.0000 12.6917 0.0000 0.0000
# 5 0.0000 0.0000 0.0000 0.0000 30.8912 0.0000
# 6 0.0000 0.0000 0.0000 0.0000 0.0000 52.4464
#
#
#
# Elastic Compliance Matrix: (Units=1/GPa)
#
#
# Indices 1 2 3 4 5 6 
#
# 1 0.012966 -0.010553 -0.000963 0.000000 0.000000 0.000000
# 2 -0.010553 0.024226 0.004314 0.000000 0.000000 0.000000
# 3 -0.000963 0.004314 0.015864 0.000000 0.000000 0.000000
# 4 0.000000 0.000000 0.000000 0.078791 0.000000 0.000000
# 5 0.000000 0.000000 0.000000 0.000000 0.032372 0.000000
# 6 0.000000 0.000000 0.000000 0.000000 0.000000 0.019067
#
#
# Mechanical properties :
#
#
# Convention : Reuss Voigt Hill
#
# Bulk Modulus (GPa) = 25.87126 35.22365 30.54745
# Shear Modulus (GPa) = 23.74462 34.07208 28.90835
#
# Velocity S-wave (km/s) = 3.15974 3.78502 3.48642
# Velocity P-wave (km/s) = 4.91834 5.82343 5.38992
#
# Compressibility (1/GPa) = 0.03865293
#
# Stress axis : x y z
#
# Youngs Moduli (GPa) = 77.12581 41.27798 63.03423
#
# Poissons Ratio (x) = 0.43562 0.06067
# Poissons Ratio (y) = 0.81393 -0.27194
# Poissons Ratio (z) = 0.07424 -0.17808
#
# Static dielectric constant tensor:
#      x y z
#    x 2.256170 0.000000 0.000000 
#    y 0.000000 1.823010 0.000000 
#    z 0.000000 0.000000 1.983980 
# 
# From -- ./inp_files/18600.got.cif
#   From: 2010.05.17/outbox.cif.g08.bks.cpg/sg59_10_cif.got.tgz:18600.got - 2010.06.03 14:40:33.
