data_PCOD9447992
_publ_section_title
;
Structure prediction by ZEFSAII (Michael W. Deem and Ramdas Pophale) SiO2 
 PCOD9447992
Probable space group: P M M N
;
_chemical_formula_sum "Si O2"
_cell_formula_units_Z 56
_cell_length_a 20.364776
_cell_length_b 7.514575
_cell_length_c 18.081368
_cell_angle_alpha 90.000000
_cell_angle_beta 90.000000
_cell_angle_gamma 90.000000
_cell_volume 2767.039419
_symmetry_space_group_name_H-M "P M M N"
_symmetry_group_IT_number 59
_space_group.IT_coordinate_system_code '2'
_symmetry_cell_setting 'orthorhombic'
loop_
_space_group_symop_operation_xyz
x,y,z
1/2-x,1/2-y,z
1/2+x,-y,-z
-x,1/2+y,-z
-x,-y,-z
1/2+x,1/2+y,-z
1/2-x,y,z
x,1/2-y,z
loop_
_atom_site_type_symbol
_atom_site_label
_atom_site_fract_x
_atom_site_fract_y
_atom_site_fract_z
Si Si1 0.823823 0.963937 0.316833
Si Si2 0.323872 0.464463 0.118728
Si Si3 0.175119 0.033035 0.950128
Si Si4 0.558583 0.454067 0.607210
Si Si5 0.059022 0.539091 0.229734
Si Si6 0.083534 0.961050 0.552968
Si Si7 0.583505 0.967858 0.182640
O O1 0.750000 0.030851 0.306771
O O2 0.821903 0.750000 0.311134
O O3 0.873384 0.025482 0.253084
O O4 0.853732 0.009119 0.396379
O O5 0.250000 0.524961 0.138358
O O6 0.322615 0.250000 0.117084
O O7 0.379504 0.516904 0.176152
O O8 0.337920 0.523881 0.034486
O O9 0.250000 0.980420 0.930121
O O10 0.174747 0.250000 0.949543
O O11 0.121170 0.973279 0.891281
O O12 0.582215 0.250000 0.610107
O O13 0.570697 0.535751 0.687726
O O14 0.480070 0.456613 0.593013
O O15 0.587639 0.531481 0.531021
O O16 0.048119 0.750000 0.240409
O O17 0.991278 0.471125 0.193694
O O18 0.070267 0.750000 0.548578
O O19 0.583434 0.750000 0.181019
#
# Coordination Sequence:
#
# PCOD9447992 Si02
#       7
#     8   8   8   8   8   8   8
#     4  10  19  32  51  74 104 140 173 208 248 295
#     4   9  19  35  52  71  98 130 165 208 253 299
#     4   8  14  27  48  72  98 131 169 204 242 292
#     4   9  18  34  52  72  99 130 165 204 246 298
#     4  10  19  32  52  76 102 128 161 209 252 293
#     4  10  19  31  51  74  98 131 167 206 251 296
#     4   9  16  28  48  75 102 129 167 208 244 291
#
# _framework density 20.238237000000002
#
# number of rings (size 3 to 8) (size 9 to 14) (size 15 to 20)
#    0.000    2.714    1.429    1.714    0.000    4.000 
#    0.000    0.714    0.000    5.143    0.000    2.000 
#    0.000    0.000    0.000    0.000    0.000    0.000 
#
# Total GULP energy -312404.840131 kJ/mol
# GULP energy per Si atom -5578.657859 kJ/mol
# Density = 2.019217 g / cm^3
# Si number density = 20.238237 Si / 1000 Ang^3
#
#
#
# Elastic Constant Matrix: (Units=GPa)
#
#
# Indices 1 2 3 4 5 6 
#
# 1 138.9597 -4.1315 109.8962 0.0000 0.0000 0.0000
# 2 -4.1315 52.0408 -0.4586 0.0000 0.0000 0.0000
# 3 109.8962 -0.4586 177.4328 0.0000 0.0000 0.0000
# 4 0.0000 0.0000 0.0000 1.9485 0.0000 0.0000
# 5 0.0000 0.0000 0.0000 0.0000 26.6677 0.0000
# 6 0.0000 0.0000 0.0000 0.0000 0.0000 16.0041
#
#
#
# Elastic Compliance Matrix: (Units=1/GPa)
#
#
# Indices 1 2 3 4 5 6 
#
# 1 0.014162 0.001047 -0.008769 0.000000 0.000000 0.000000
# 2 0.001047 0.019294 -0.000599 0.000000 0.000000 0.000000
# 3 -0.008769 -0.000599 0.011066 0.000000 0.000000 0.000000
# 4 0.000000 0.000000 0.000000 0.513223 0.000000 0.000000
# 5 0.000000 0.000000 0.000000 0.000000 0.037499 0.000000
# 6 0.000000 0.000000 0.000000 0.000000 0.000000 0.062484
#
#
# Mechanical properties :
#
#
# Convention : Reuss Voigt Hill
#
# Bulk Modulus (GPa) = 35.86751 64.33836 50.10294
# Shear Modulus (GPa) = 7.31356 26.46586 16.88971
#
# Velocity S-wave (km/s) = 1.90304 3.62016 2.89198
# Velocity P-wave (km/s) = 4.75288 7.02379 5.99681
#
# Compressibility (1/GPa) = 0.02788039
#
# Stress axis : x y z
#
# Youngs Moduli (GPa) = 70.60907 51.83080 90.36949
#
# Poissons Ratio (x) = -0.05427 0.79246
# Poissons Ratio (y) = -0.07393 0.05410
# Poissons Ratio (z) = 0.61918 0.03103
#
# Static dielectric constant tensor:
#      x y z
#    x 1.675150 0.000000 0.000000 
#    y 0.000000 1.818290 0.000000 
#    z 0.000000 0.000000 1.725820 
# 
# From -- ./inp_files/28044.got.cif
#   From: 2010.05.17/outbox.cif.g08.bks.cpg/sg59_15_cif.got.tgz:28044.got - 2010.06.03 14:40:33.
