data_PCOD9447045
_publ_section_title
;
Structure prediction by ZEFSAII (Michael W. Deem and Ramdas Pophale) SiO2 
 PCOD9447045
Probable space group: P M M N
;
_chemical_formula_sum "Si O2"
_cell_formula_units_Z 40
_cell_length_a 7.576635
_cell_length_b 10.510970
_cell_length_c 24.207960
_cell_angle_alpha 90.000000
_cell_angle_beta 90.000000
_cell_angle_gamma 90.000000
_cell_volume 1927.868270
_symmetry_space_group_name_H-M "P M M N"
_symmetry_group_IT_number 59
_space_group.IT_coordinate_system_code '2'
_symmetry_cell_setting 'orthorhombic'
loop_
_space_group_symop_operation_xyz
x,y,z
1/2-x,1/2-y,z
1/2+x,-y,-z
-x,1/2+y,-z
-x,-y,-z
1/2+x,1/2+y,-z
1/2-x,y,z
x,1/2-y,z
loop_
_atom_site_type_symbol
_atom_site_label
_atom_site_fract_x
_atom_site_fract_y
_atom_site_fract_z
Si Si1 0.034084 0.475786 0.622693
Si Si2 0.958267 0.392655 0.170809
Si Si3 0.966017 0.893382 0.254255
Si Si4 0.463834 0.250000 0.542256
Si Si5 0.540351 0.607098 0.955180
Si Si6 0.456799 0.750000 0.586332
O O1 0.250000 0.476366 0.621588
O O2 0.982018 0.429618 0.683462
O O3 0.978688 0.374588 0.576284
O O4 0.969907 0.617718 0.609576
O O5 0.750000 0.384443 0.182989
O O6 0.032979 0.250000 0.178565
O O7 0.029791 0.501182 0.210946
O O8 0.975426 0.425957 0.106256
O O9 0.750000 0.892989 0.253230
O O10 0.022927 0.750000 0.240992
O O11 0.250000 0.250000 0.540894
O O12 0.527895 0.250000 0.479738
O O13 0.750000 0.615127 0.951568
O O14 0.472772 0.750000 0.969107
O O15 0.500000 0.500000 0.000000
O O16 0.250000 0.750000 0.601419
#
# Coordination Sequence:
#
# PCOD9447045 Si02
#       6
#     8   8   8   4   8   4
#     4   9  17  29  46  70  96 123 159 204 249 294
#     4   9  18  31  50  77 105 132 166 211 257 301
#     4   9  16  28  47  72  99 126 162 207 251 296
#     4  10  18  32  50  66  92 128 161 196 245 302
#     4  10  21  37  57  81 111 146 181 218 260 307
#     4  10  20  30  46  72  96 120 157 204 249 294
#
# _framework density 20.748307
#
# number of rings (size 3 to 8) (size 9 to 14) (size 15 to 20)
#    0.000    2.600    1.000    1.200    1.400    2.000 
#    0.000    2.000    0.000    2.400    0.000    0.000 
#    0.000    0.000    0.000    0.000    0.000    0.000 
#
# Total GULP energy -223311.978148 kJ/mol
# GULP energy per Si atom -5582.799454 kJ/mol
# Density = 2.070108 g / cm^3
# Si number density = 20.748307 Si / 1000 Ang^3
#
#
#
# Elastic Constant Matrix: (Units=GPa)
#
#
# Indices 1 2 3 4 5 6 
#
# 1 46.0372 2.2832 -10.8407 0.0000 0.0000 0.0000
# 2 2.2832 178.1868 90.3857 0.0000 0.0000 0.0000
# 3 -10.8407 90.3857 103.1467 0.0000 0.0000 0.0000
# 4 0.0000 0.0000 0.0000 45.8878 0.0000 0.0000
# 5 0.0000 0.0000 0.0000 0.0000 19.0005 0.0000
# 6 0.0000 0.0000 0.0000 0.0000 0.0000 -0.1772
#
#
#
# Elastic Compliance Matrix: (Units=1/GPa)
#
#
# Indices 1 2 3 4 5 6 
#
# 1 0.022991 -0.002737 0.004815 0.000000 0.000000 0.000000
# 2 -0.002737 0.010429 -0.009426 0.000000 0.000000 0.000000
# 3 0.004815 -0.009426 0.018461 0.000000 0.000000 0.000000
# 4 0.000000 0.000000 0.000000 0.021792 0.000000 0.000000
# 5 0.000000 0.000000 0.000000 0.000000 0.052630 0.000000
# 6 0.000000 0.000000 0.000000 0.000000 0.000000 -5.641859
#
#
# Mechanical properties :
#
#
# Convention : Reuss Voigt Hill
#
# Bulk Modulus (GPa) = 26.89338 54.55858 40.72598
# Shear Modulus (GPa) = -0.91100 29.31170 14.20035
#
# Velocity S-wave (km/s) = -0.66334 3.76270 2.61896
# Velocity P-wave (km/s) = 3.52181 6.72531 5.36810
#
# Compressibility (1/GPa) = 0.03718387
#
# Stress axis : x y z
#
# Youngs Moduli (GPa) = 43.49525 95.89103 54.16895
#
# Poissons Ratio (x) = 0.26243 -0.26080
# Poissons Ratio (y) = 0.11904 0.51059
# Poissons Ratio (z) = -0.20941 0.90387
#
# Static dielectric constant tensor:
#      x y z
#    x 1.788350 0.000000 0.000000 
#    y 0.000000 1.750460 0.000000 
#    z 0.000000 0.000000 1.692390 
# 
# From -- ./inp_files/32404.got.cif
#   From: 2010.05.17/outbox.cif.g08.bks.cpg/sg59_17_cif.got.tgz:32404.got - 2010.06.03 14:40:33.
