data_PCOD9447299
_publ_section_title
;
Structure prediction by ZEFSAII (Michael W. Deem and Ramdas Pophale) SiO2 
 PCOD9447299
Probable space group: P M M N
;
_chemical_formula_sum "Si O2"
_cell_formula_units_Z 48
_cell_length_a 12.223573
_cell_length_b 16.649454
_cell_length_c 13.838328
_cell_angle_alpha 90.000000
_cell_angle_beta 90.000000
_cell_angle_gamma 90.000000
_cell_volume 2816.318620
_symmetry_space_group_name_H-M "P M M N"
_symmetry_group_IT_number 59
_space_group.IT_coordinate_system_code '2'
_symmetry_cell_setting 'orthorhombic'
loop_
_space_group_symop_operation_xyz
x,y,z
1/2-x,1/2-y,z
1/2+x,-y,-z
-x,1/2+y,-z
-x,-y,-z
1/2+x,1/2+y,-z
1/2-x,y,z
x,1/2-y,z
loop_
_atom_site_type_symbol
_atom_site_label
_atom_site_fract_x
_atom_site_fract_y
_atom_site_fract_z
Si Si1 0.881651 0.750000 0.734672
Si Si2 0.529120 0.431288 0.781202
Si Si3 0.382764 0.404527 0.141865
Si Si4 0.250000 0.660015 0.220103
Si Si5 0.750000 0.158813 0.545672
Si Si6 0.616393 0.750000 0.508948
Si Si7 0.380872 0.157211 0.928575
Si Si8 0.016011 0.587471 0.449680
O O1 0.750000 0.750000 0.737052
O O2 0.914801 0.671390 0.792895
O O3 0.911517 0.750000 0.622907
O O4 0.551595 0.520480 0.817737
O O5 0.640082 0.384328 0.808374
O O6 0.432481 0.389298 0.839283
O O7 0.513792 0.426351 0.666011
O O8 0.250000 0.416776 0.150655
O O9 0.407667 0.384769 0.030525
O O10 0.250000 0.750000 0.183006
O O11 0.250000 0.661930 0.337180
O O12 0.750000 0.250000 0.509431
O O13 0.862317 0.115466 0.519221
O O14 0.750000 0.750000 0.496097
O O15 0.563473 0.834649 0.470170
O O16 0.250000 0.157672 0.921118
O O17 0.417951 0.250000 0.930318
O O18 0.000000 0.500000 0.500000
#
# Coordination Sequence:
#
# PCOD9447299 Si02
#       8
#     4   8   8   4   4   4   8   8
#     4   9  18  34  60  82 113 146 188 245 291 326
#     4  11  21  35  58  84 114 149 188 238 288 335
#     4  10  18  35  58  87 110 144 190 241 289 336
#     4   9  18  32  54  81 107 138 185 234 284 327
#     4   9  18  38  60  77 109 154 201 240 284 352
#     4  11  24  39  58  90 123 155 201 251 299 352
#     4  10  21  36  56  83 116 151 186 226 287 357
#     4  11  24  39  59  88 120 158 200 247 297 348
#
# _framework density 17.043527000000001
#
# number of rings (size 3 to 8) (size 9 to 14) (size 15 to 20)
#    0.000    1.833    2.500    2.000    3.500    0.667 
#    0.000    0.000    0.000    0.000    0.000    0.000 
#    0.000    0.000    0.000    0.000    0.000    0.000 
#
# Total GULP energy -267522.360840 kJ/mol
# GULP energy per Si atom -5573.382517 kJ/mol
# Density = 1.700473 g / cm^3
# Si number density = 17.043527 Si / 1000 Ang^3
#
#
#
# Elastic Constant Matrix: (Units=GPa)
#
#
# Indices 1 2 3 4 5 6 
#
# 1 66.2861 53.7603 37.7577 0.0000 0.0000 0.0000
# 2 53.7603 163.7649 69.4728 0.0000 0.0000 0.0000
# 3 37.7577 69.4728 109.2354 0.0000 0.0000 0.0000
# 4 0.0000 0.0000 0.0000 54.7954 0.0000 0.0000
# 5 0.0000 0.0000 0.0000 0.0000 24.8440 0.0000
# 6 0.0000 0.0000 0.0000 0.0000 0.0000 30.6086
#
#
#
# Elastic Compliance Matrix: (Units=1/GPa)
#
#
# Indices 1 2 3 4 5 6 
#
# 1 0.021817 -0.005427 -0.004090 0.000000 0.000000 0.000000
# 2 -0.005427 0.009713 -0.004301 0.000000 0.000000 0.000000
# 3 -0.004090 -0.004301 0.013304 0.000000 0.000000 0.000000
# 4 0.000000 0.000000 0.000000 0.018250 0.000000 0.000000
# 5 0.000000 0.000000 0.000000 0.000000 0.040251 0.000000
# 6 0.000000 0.000000 0.000000 0.000000 0.000000 0.032671
#
#
# Mechanical properties :
#
#
# Convention : Reuss Voigt Hill
#
# Bulk Modulus (GPa) = 58.14780 73.47422 65.81101
# Shear Modulus (GPa) = 29.52055 33.93596 31.72825
#
# Velocity S-wave (km/s) = 4.16633 4.46705 4.31931
# Velocity P-wave (km/s) = 7.57203 8.35520 7.97324
#
# Compressibility (1/GPa) = 0.01719755
#
# Stress axis : x y z
#
# Youngs Moduli (GPa) = 45.83525 102.95879 75.16741
#
# Poissons Ratio (x) = 0.55878 0.30740
# Poissons Ratio (y) = 0.24876 0.32331
# Poissons Ratio (z) = 0.18745 0.44285
#
# Static dielectric constant tensor:
#      x y z
#    x 1.569790 0.000000 0.000000 
#    y 0.000000 1.597250 0.000000 
#    z 0.000000 0.000000 1.560490 
# 
# From -- ./inp_files/22472.got.cif
#   From: 2010.05.17/outbox.cif.g08.bks.cpg/sg59_12_cif.got.tgz:22472.got - 2010.06.03 14:40:33.
