data_PCOD9447703
_publ_section_title
;
Structure prediction by ZEFSAII (Michael W. Deem and Ramdas Pophale) SiO2 
 PCOD9447703
Probable space group: P M M N
;
_chemical_formula_sum "Si O2"
_cell_formula_units_Z 64
_cell_length_a 7.675359
_cell_length_b 20.374474
_cell_length_c 19.091815
_cell_angle_alpha 90.000000
_cell_angle_beta 90.000000
_cell_angle_gamma 90.000000
_cell_volume 2985.604804
_symmetry_space_group_name_H-M "P M M N"
_symmetry_group_IT_number 59
_space_group.IT_coordinate_system_code '2'
_symmetry_cell_setting 'orthorhombic'
loop_
_space_group_symop_operation_xyz
x,y,z
1/2-x,1/2-y,z
1/2+x,-y,-z
-x,1/2+y,-z
-x,-y,-z
1/2+x,1/2+y,-z
1/2-x,y,z
x,1/2-y,z
loop_
_atom_site_type_symbol
_atom_site_label
_atom_site_fract_x
_atom_site_fract_y
_atom_site_fract_z
Si Si1 0.047692 0.509490 0.212729
Si Si2 0.045435 0.674605 0.456486
Si Si3 0.045852 0.062844 0.637537
Si Si4 0.037643 0.364924 0.180209
Si Si5 0.458227 0.445875 0.940380
Si Si6 0.460365 0.179957 0.328497
Si Si7 0.036722 0.322768 0.026643
Si Si8 0.951338 0.070364 0.431428
O O1 0.250000 0.500711 0.230527
O O2 0.971720 0.437271 0.198968
O O3 0.972928 0.545572 0.280535
O O4 0.033017 0.542469 0.136636
O O5 0.250000 0.680302 0.474013
O O6 0.976320 0.750000 0.455757
O O7 0.968293 0.620984 0.511654
O O8 0.030798 0.633118 0.384682
O O9 0.250000 0.066227 0.622641
O O10 0.974109 0.000904 0.590763
O O11 0.250000 0.367730 0.175581
O O12 0.996578 0.320821 0.246623
O O13 0.977451 0.340637 0.105022
O O14 0.250000 0.445004 0.932866
O O15 0.500000 0.500000 0.000000
O O16 0.520647 0.377601 0.972695
O O17 0.250000 0.175053 0.335088
O O18 0.515176 0.250000 0.360529
O O19 0.541056 0.116153 0.363035
O O20 0.250000 0.324098 0.027682
O O21 0.981354 0.250000 0.008048
O O22 0.750000 0.058902 0.451375
#
# Coordination Sequence:
#
# PCOD9447703 Si02
#       8
#     8   8   8   8   8   8   8   8
#     4  11  21  37  60  85 113 154 198 240 292 346
#     4  10  22  41  63  86 115 155 197 238 292 354
#     4  11  23  39  61  90 119 151 193 244 294 343
#     4   9  16  29  50  78 110 144 185 230 279 336
#     4  11  21  35  57  86 116 150 193 240 290 345
#     4  10  19  30  49  80 116 153 192 233 278 336
#     4   9  17  31  53  81 111 144 186 234 284 338
#     4  10  21  37  58  85 118 154 190 232 287 349
#
# _framework density 21.436191999999998
#
# number of rings (size 3 to 8) (size 9 to 14) (size 15 to 20)
#    0.000    1.875    2.500    2.250    0.000    3.500 
#    0.000    0.625    0.000    3.750    0.000    0.000 
#    0.000    0.000    0.000    0.000    0.000    0.000 
#
# Total GULP energy -357165.775338 kJ/mol
# GULP energy per Si atom -5580.715240 kJ/mol
# Density = 2.138740 g / cm^3
# Si number density = 21.436192 Si / 1000 Ang^3
#
#
#
# Elastic Constant Matrix: (Units=GPa)
#
#
# Indices 1 2 3 4 5 6 
#
# 1 46.6600 2.2578 -2.4629 0.0000 0.0000 0.0000
# 2 2.2578 164.9491 74.5961 0.0000 0.0000 0.0000
# 3 -2.4629 74.5961 99.9768 0.0000 0.0000 0.0000
# 4 0.0000 0.0000 0.0000 24.3239 0.0000 0.0000
# 5 0.0000 0.0000 0.0000 0.0000 18.4329 0.0000
# 6 0.0000 0.0000 0.0000 0.0000 0.0000 5.3779
#
#
#
# Elastic Compliance Matrix: (Units=1/GPa)
#
#
# Indices 1 2 3 4 5 6 
#
# 1 0.021530 -0.000807 0.001132 0.000000 0.000000 0.000000
# 2 -0.000807 0.009180 -0.006870 0.000000 0.000000 0.000000
# 3 0.001132 -0.006870 0.015156 0.000000 0.000000 0.000000
# 4 0.000000 0.000000 0.000000 0.041112 0.000000 0.000000
# 5 0.000000 0.000000 0.000000 0.000000 0.054251 0.000000
# 6 0.000000 0.000000 0.000000 0.000000 0.000000 0.185946
#
#
# Mechanical properties :
#
#
# Convention : Reuss Voigt Hill
#
# Bulk Modulus (GPa) = 30.50777 51.15200 40.82989
# Shear Modulus (GPa) = 14.23735 25.43993 19.83864
#
# Velocity S-wave (km/s) = 2.57995 3.44870 3.04546
# Velocity P-wave (km/s) = 4.81016 6.30653 5.60847
#
# Compressibility (1/GPa) = 0.03277853
#
# Stress axis : x y z
#
# Youngs Moduli (GPa) = 46.44584 108.93038 65.98134
#
# Poissons Ratio (x) = 0.08789 -0.07472
# Poissons Ratio (y) = 0.03747 0.45326
# Poissons Ratio (z) = -0.05260 0.74830
#
# Static dielectric constant tensor:
#      x y z
#    x 1.815330 0.000000 0.000000 
#    y 0.000000 1.803700 0.000000 
#    z 0.000000 0.000000 1.800610 
# 
# From -- ./inp_files/26263.got.cif
#   From: 2010.05.17/outbox.cif.g08.bks.cpg/sg59_14_cif.got.tgz:26263.got - 2010.06.03 14:40:33.
