data_PCOD9447199
_publ_section_title
;
Structure prediction by ZEFSAII (Michael W. Deem and Ramdas Pophale) SiO2 
 PCOD9447199
Probable space group: P M M N
;
_chemical_formula_sum "Si O2"
_cell_formula_units_Z 56
_cell_length_a 20.167070
_cell_length_b 7.629120
_cell_length_c 18.077830
_cell_angle_alpha 90.000000
_cell_angle_beta 90.000000
_cell_angle_gamma 90.000000
_cell_volume 2781.400637
_symmetry_space_group_name_H-M "P M M N"
_symmetry_group_IT_number 59
_space_group.IT_coordinate_system_code '2'
_symmetry_cell_setting 'orthorhombic'
loop_
_space_group_symop_operation_xyz
x,y,z
1/2-x,1/2-y,z
1/2+x,-y,-z
-x,1/2+y,-z
-x,-y,-z
1/2+x,1/2+y,-z
1/2-x,y,z
x,1/2-y,z
loop_
_atom_site_type_symbol
_atom_site_label
_atom_site_fract_x
_atom_site_fract_y
_atom_site_fract_z
Si Si1 0.433082 0.043241 0.690871
Si Si2 0.048100 0.458861 0.099367
Si Si3 0.921858 0.038938 0.735989
Si Si4 0.675232 0.965621 0.193076
Si Si5 0.326261 0.964860 0.393158
Si Si6 0.075478 0.541599 0.522618
Si Si7 0.902177 0.953315 0.055123
O O1 0.437699 0.250000 0.706526
O O2 0.506816 0.971534 0.706420
O O3 0.377430 0.972518 0.746004
O O4 0.413821 0.022844 0.605682
O O5 0.039933 0.250000 0.090744
O O6 0.081912 0.494216 0.177618
O O7 0.974036 0.536777 0.095135
O O8 0.086888 0.527861 0.026972
O O9 0.922363 0.250000 0.730308
O O10 0.863205 0.978423 0.682172
O O11 0.750000 0.019283 0.209120
O O12 0.674040 0.750000 0.192759
O O13 0.650502 0.027392 0.112608
O O14 0.250000 0.021586 0.397894
O O15 0.326010 0.750000 0.393902
O O16 0.371997 0.023922 0.461895
O O17 0.081719 0.750000 0.523651
O O18 0.000000 0.500000 0.500000
O O19 0.884437 0.750000 0.044682
#
# Coordination Sequence:
#
# PCOD9447199 Si02
#       7
#     8   8   8   8   8   8   8
#     4  10  19  33  53  79 104 131 174 215 254 304
#     4  10  19  29  49  79 105 130 170 220 261 299
#     4  10  18  33  55  76 102 135 170 213 256 304
#     4   9  17  31  52  74 101 139 176 209 252 311
#     4   9  19  36  56  76 100 137 179 211 250 310
#     4  11  21  35  56  81 107 136 172 215 259 307
#     4   9  17  32  50  72 102 136 175 212 254 307
#
# _framework density 20.133741000000001
#
# number of rings (size 3 to 8) (size 9 to 14) (size 15 to 20)
#    0.000    2.286    2.857    0.857    0.000    1.714 
#    0.000    0.714    0.000    5.571    0.000    0.000 
#    0.000    0.000    0.000    0.000    0.000    0.000 
#
# Total GULP energy -312510.549287 kJ/mol
# GULP energy per Si atom -5580.545523 kJ/mol
# Density = 2.008792 g / cm^3
# Si number density = 20.133741 Si / 1000 Ang^3
#
#
#
# Elastic Constant Matrix: (Units=GPa)
#
#
# Indices 1 2 3 4 5 6 
#
# 1 150.2325 2.6928 86.1646 0.0000 0.0000 0.0000
# 2 2.6928 37.6781 -10.1361 0.0000 0.0000 0.0000
# 3 86.1646 -10.1361 152.0472 0.0000 0.0000 0.0000
# 4 0.0000 0.0000 0.0000 22.1744 0.0000 0.0000
# 5 0.0000 0.0000 0.0000 0.0000 28.5629 0.0000
# 6 0.0000 0.0000 0.0000 0.0000 0.0000 7.2417
#
#
#
# Elastic Compliance Matrix: (Units=1/GPa)
#
#
# Indices 1 2 3 4 5 6 
#
# 1 0.010052 -0.002292 -0.005849 0.000000 0.000000 0.000000
# 2 -0.002292 0.027548 0.003135 0.000000 0.000000 0.000000
# 3 -0.005849 0.003135 0.010101 0.000000 0.000000 0.000000
# 4 0.000000 0.000000 0.000000 0.045097 0.000000 0.000000
# 5 0.000000 0.000000 0.000000 0.000000 0.035010 0.000000
# 6 0.000000 0.000000 0.000000 0.000000 0.000000 0.138090
#
#
# Mechanical properties :
#
#
# Convention : Reuss Voigt Hill
#
# Bulk Modulus (GPa) = 26.53312 55.26672 40.89992
# Shear Modulus (GPa) = 17.33262 29.01156 23.17209
#
# Velocity S-wave (km/s) = 2.93725 3.80009 3.39618
# Velocity P-wave (km/s) = 4.97094 6.83840 5.97804
#
# Compressibility (1/GPa) = 0.03768875
#
# Stress axis : x y z
#
# Youngs Moduli (GPa) = 99.47965 36.30045 99.00248
#
# Poissons Ratio (x) = 0.08320 0.57911
# Poissons Ratio (y) = 0.22801 -0.31041
# Poissons Ratio (z) = 0.58190 -0.11381
#
# Static dielectric constant tensor:
#      x y z
#    x 1.686950 0.000000 0.000000 
#    y 0.000000 1.763300 0.000000 
#    z 0.000000 0.000000 1.709510 
# 
# From -- ./inp_files/28111.got.cif
#   From: 2010.05.17/outbox.cif.g08.bks.cpg/sg59_15_cif.got.tgz:28111.got - 2010.06.03 14:40:33.
