data_PCOD9447209
_publ_section_title
;
Structure prediction by ZEFSAII (Michael W. Deem and Ramdas Pophale) SiO2 
 PCOD9447209
Probable space group: P M M N
;
_chemical_formula_sum "Si O2"
_cell_formula_units_Z 48
_cell_length_a 21.192151
_cell_length_b 7.814853
_cell_length_c 14.986765
_cell_angle_alpha 90.000000
_cell_angle_beta 90.000000
_cell_angle_gamma 90.000000
_cell_volume 2482.011277
_symmetry_space_group_name_H-M "P M M N"
_symmetry_group_IT_number 59
_space_group.IT_coordinate_system_code '2'
_symmetry_cell_setting 'orthorhombic'
loop_
_space_group_symop_operation_xyz
x,y,z
1/2-x,1/2-y,z
1/2+x,-y,-z
-x,1/2+y,-z
-x,-y,-z
1/2+x,1/2+y,-z
1/2-x,y,z
x,1/2-y,z
loop_
_atom_site_type_symbol
_atom_site_label
_atom_site_fract_x
_atom_site_fract_y
_atom_site_fract_z
Si Si1 0.820055 0.454992 0.441004
Si Si2 0.374229 0.043096 0.750445
Si Si3 0.061147 0.546590 0.058869
Si Si4 0.179711 0.044609 0.939316
Si Si5 0.937444 0.043641 0.555785
Si Si6 0.479347 0.540387 0.251666
O O1 0.750000 0.523071 0.459593
O O2 0.818292 0.250000 0.453034
O O3 0.838642 0.488333 0.338630
O O4 0.875760 0.522752 0.504395
O O5 0.374104 0.250000 0.752384
O O6 0.342167 0.980878 0.841744
O O7 0.447235 0.987751 0.746863
O O8 0.062101 0.750000 0.064722
O O9 0.051803 0.479977 0.159533
O O10 0.125109 0.492681 0.010156
O O11 0.000000 0.500000 0.000000
O O12 0.250000 0.980792 0.961706
O O13 0.183094 0.250000 0.932628
O O14 0.933430 0.250000 0.558526
O O15 0.946102 0.982943 0.657315
O O16 0.000000 0.000000 0.500000
O O17 0.478826 0.750000 0.251587
#
# Coordination Sequence:
#
# PCOD9447209 Si02
#       6
#     8   8   8   8   8   8
#     4  10  21  34  49  76 111 139 168 212 265 312
#     4  10  18  33  56  79 106 140 175 212 260 317
#     4  11  21  36  57  80 108 141 181 223 265 316
#     4  10  21  37  55  78 110 145 178 217 271 325
#     4  10  19  34  54  75 102 136 173 213 257 304
#     4   9  18  33  54  79 105 132 174 220 258 310
#
# _framework density 19.339154000000001
#
# number of rings (size 3 to 8) (size 9 to 14) (size 15 to 20)
#    0.000    2.000    3.333    1.000    0.000    2.000 
#    0.000    2.500    0.000    3.000    0.000    0.000 
#    0.000    0.000    0.000    0.000    0.000    0.000 
#
# Total GULP energy -268006.804717 kJ/mol
# GULP energy per Si atom -5583.475098 kJ/mol
# Density = 1.929514 g / cm^3
# Si number density = 19.339154 Si / 1000 Ang^3
#
#
#
# Elastic Constant Matrix: (Units=GPa)
#
#
# Indices 1 2 3 4 5 6 
#
# 1 204.6257 8.9618 113.5909 0.0000 0.0000 0.0000
# 2 8.9618 23.7552 4.5484 0.0000 0.0000 0.0000
# 3 113.5909 4.5484 181.9556 0.0000 0.0000 0.0000
# 4 0.0000 0.0000 0.0000 16.4298 0.0000 0.0000
# 5 0.0000 0.0000 0.0000 0.0000 18.0975 0.0000
# 6 0.0000 0.0000 0.0000 0.0000 0.0000 18.6911
#
#
#
# Elastic Compliance Matrix: (Units=1/GPa)
#
#
# Indices 1 2 3 4 5 6 
#
# 1 0.007568 -0.001960 -0.004676 0.000000 0.000000 0.000000
# 2 -0.001960 0.042806 0.000154 0.000000 0.000000 0.000000
# 3 -0.004676 0.000154 0.008411 0.000000 0.000000 0.000000
# 4 0.000000 0.000000 0.000000 0.060865 0.000000 0.000000
# 5 0.000000 0.000000 0.000000 0.000000 0.055256 0.000000
# 6 0.000000 0.000000 0.000000 0.000000 0.000000 0.053501
#
#
# Mechanical properties :
#
#
# Convention : Reuss Voigt Hill
#
# Bulk Modulus (GPa) = 21.82405 73.83766 47.83086
# Shear Modulus (GPa) = 19.48208 29.52605 24.50407
#
# Velocity S-wave (km/s) = 3.17738 3.91160 3.56345
# Velocity P-wave (km/s) = 4.97699 7.65925 6.45889
#
# Compressibility (1/GPa) = 0.04582101
#
# Stress axis : x y z
#
# Youngs Moduli (GPa) = 132.12790 23.36117 118.89174
#
# Poissons Ratio (x) = 0.04579 0.55592
# Poissons Ratio (y) = 0.25897 -0.01825
# Poissons Ratio (z) = 0.61780 -0.00359
#
# Static dielectric constant tensor:
#      x y z
#    x 1.653790 0.000000 0.000000 
#    y 0.000000 1.712670 0.000000 
#    z 0.000000 0.000000 1.664140 
# 
# From -- ./inp_files/20337.got.cif
#   From: 2010.05.17/outbox.cif.g08.bks.cpg/sg59_11_cif.got.tgz:20337.got - 2010.06.03 14:40:33.
