data_PCOD9447993
_publ_section_title
;
Structure prediction by ZEFSAII (Michael W. Deem and Ramdas Pophale) SiO2 
 PCOD9447993
Probable space group: P M M N
;
_chemical_formula_sum "Si O2"
_cell_formula_units_Z 64
_cell_length_a 8.665477
_cell_length_b 18.184032
_cell_length_c 23.041422
_cell_angle_alpha 90.000000
_cell_angle_beta 90.000000
_cell_angle_gamma 90.000000
_cell_volume 3630.713156
_symmetry_space_group_name_H-M "P M M N"
_symmetry_group_IT_number 59
_space_group.IT_coordinate_system_code '2'
_symmetry_cell_setting 'orthorhombic'
loop_
_space_group_symop_operation_xyz
x,y,z
1/2-x,1/2-y,z
1/2+x,-y,-z
-x,1/2+y,-z
-x,-y,-z
1/2+x,1/2+y,-z
1/2-x,y,z
x,1/2-y,z
loop_
_atom_site_type_symbol
_atom_site_label
_atom_site_fract_x
_atom_site_fract_y
_atom_site_fract_z
Si Si1 0.934466 0.012668 0.243016
Si Si2 0.063951 0.831232 0.801505
Si Si3 0.934781 0.063703 0.458222
Si Si4 0.933445 0.333153 0.952627
Si Si5 0.066103 0.969365 0.362680
Si Si6 0.432825 0.471507 0.888612
Si Si7 0.562183 0.167160 0.557266
Si Si8 0.432503 0.377067 0.074781
O O1 0.750000 0.010041 0.252015
O O2 0.981997 0.098592 0.237020
O O3 0.967633 0.977851 0.179972
O O4 0.015201 0.973019 0.296320
O O5 0.250000 0.835459 0.808010
O O6 0.024457 0.750000 0.779024
O O7 0.991371 0.842202 0.865069
O O8 0.750000 0.060160 0.456314
O O9 0.978634 0.137883 0.492637
O O10 0.000000 0.000000 0.500000
O O11 0.999700 0.040960 0.395951
O O12 0.750000 0.344083 0.947520
O O13 0.971011 0.250000 0.934526
O O14 0.020516 0.393996 0.915102
O O15 0.982667 0.343631 0.019402
O O16 0.250000 0.971071 0.367565
O O17 0.011744 0.895280 0.396489
O O18 0.250000 0.485148 0.895888
O O19 0.524334 0.536770 0.920474
O O20 0.750000 0.168350 0.559809
O O21 0.506955 0.250000 0.568233
O O22 0.250000 0.367338 0.068868
#
# Coordination Sequence:
#
# PCOD9447993 Si02
#       8
#     8   8   8   8   8   8   8   8
#     4   9  19  35  54  74  98 132 171 210 250 295
#     4   9  18  34  54  75 100 130 167 212 260 308
#     4   9  16  28  49  73  98 127 158 196 241 289
#     4  11  23  37  53  75 104 135 168 210 260 313
#     4  10  19  31  51  75 100 133 169 206 246 293
#     4  10  21  38  57  75  99 133 173 216 261 308
#     4   8  15  29  49  74 100 127 164 206 244 283
#     4  11  21  33  53  79 105 132 165 206 257 318
#
# _framework density 17.627390999999999
#
# number of rings (size 3 to 8) (size 9 to 14) (size 15 to 20)
#    0.000    2.375    0.000    4.875    0.000    5.250 
#    0.000    1.250    0.000   19.500    0.000    0.000 
#    0.000    0.000    0.000    0.000    0.000    0.000 
#
# Total GULP energy -356884.314687 kJ/mol
# GULP energy per Si atom -5576.317417 kJ/mol
# Density = 1.758727 g / cm^3
# Si number density = 17.627391 Si / 1000 Ang^3
#
#
#
# Elastic Constant Matrix: (Units=GPa)
#
#
# Indices 1 2 3 4 5 6 
#
# 1 20.3713 10.2756 8.7460 0.0000 0.0000 0.0000
# 2 10.2756 96.9784 28.5805 0.0000 0.0000 0.0000
# 3 8.7460 28.5805 44.5326 0.0000 0.0000 0.0000
# 4 0.0000 0.0000 0.0000 16.2909 0.0000 0.0000
# 5 0.0000 0.0000 0.0000 0.0000 30.7220 0.0000
# 6 0.0000 0.0000 0.0000 0.0000 0.0000 21.5244
#
#
#
# Elastic Compliance Matrix: (Units=1/GPa)
#
#
# Indices 1 2 3 4 5 6 
#
# 1 0.054415 -0.003226 -0.008616 0.000000 0.000000 0.000000
# 2 -0.003226 0.012908 -0.007651 0.000000 0.000000 0.000000
# 3 -0.008616 -0.007651 0.029058 0.000000 0.000000 0.000000
# 4 0.000000 0.000000 0.000000 0.061384 0.000000 0.000000
# 5 0.000000 0.000000 0.000000 0.000000 0.032550 0.000000
# 6 0.000000 0.000000 0.000000 0.000000 0.000000 0.046459
#
#
# Mechanical properties :
#
#
# Convention : Reuss Voigt Hill
#
# Bulk Modulus (GPa) = 17.42322 28.56514 22.99418
# Shear Modulus (GPa) = 16.95535 21.32613 19.14074
#
# Velocity S-wave (km/s) = 3.10478 3.48203 3.29880
# Velocity P-wave (km/s) = 4.77058 5.69265 5.25189
#
# Compressibility (1/GPa) = 0.05739466
#
# Stress axis : x y z
#
# Youngs Moduli (GPa) = 18.37719 77.47037 34.41429
#
# Poissons Ratio (x) = 0.24995 0.29652
# Poissons Ratio (y) = 0.05929 0.26329
# Poissons Ratio (z) = 0.15834 0.59270
#
# Static dielectric constant tensor:
#      x y z
#    x 1.594660 0.000000 0.000000 
#    y 0.000000 1.623030 0.000000 
#    z 0.000000 0.000000 1.576930 
# 
# From -- ./inp_files/31754.got.cif
#   From: 2010.05.17/outbox.cif.g08.bks.cpg/sg59_16_cif.got.tgz:31754.got - 2010.06.03 14:40:33.
