data_PCOD9447571
_publ_section_title
;
Structure prediction by ZEFSAII (Michael W. Deem and Ramdas Pophale) SiO2 
 PCOD9447571
Probable space group: P M M N
;
_chemical_formula_sum "Si O2"
_cell_formula_units_Z 56
_cell_length_a 8.862055
_cell_length_b 23.219744
_cell_length_c 15.213458
_cell_angle_alpha 90.000000
_cell_angle_beta 90.000000
_cell_angle_gamma 90.000000
_cell_volume 3130.543971
_symmetry_space_group_name_H-M "P M M N"
_symmetry_group_IT_number 59
_space_group.IT_coordinate_system_code '2'
_symmetry_cell_setting 'orthorhombic'
loop_
_space_group_symop_operation_xyz
x,y,z
1/2-x,1/2-y,z
1/2+x,-y,-z
-x,1/2+y,-z
-x,-y,-z
1/2+x,1/2+y,-z
1/2-x,y,z
x,1/2-y,z
loop_
_atom_site_type_symbol
_atom_site_label
_atom_site_fract_x
_atom_site_fract_y
_atom_site_fract_z
Si Si1 0.578895 0.181856 0.831866
Si Si2 0.069301 0.993537 0.404006
Si Si3 0.924185 0.514404 0.118503
Si Si4 0.422712 0.100381 0.712398
Si Si5 0.069096 0.682703 0.838866
Si Si6 0.570205 0.620512 0.008124
Si Si7 0.569883 0.922579 0.756423
O O1 0.750000 0.160492 0.848747
O O2 0.581112 0.250000 0.830008
O O3 0.516391 0.155462 0.742223
O O4 0.470129 0.160229 0.908763
O O5 0.250000 0.992287 0.408381
O O6 0.027536 0.043465 0.332944
O O7 0.000000 0.000000 0.500000
O O8 0.004887 0.935132 0.362648
O O9 0.750000 0.496925 0.101384
O O10 0.921269 0.558756 0.201588
O O11 0.979841 0.555916 0.038837
O O12 0.017274 0.461538 0.159711
O O13 0.250000 0.113590 0.690280
O O14 0.250000 0.681241 0.838317
O O15 0.022079 0.750000 0.833900
O O16 0.004543 0.640110 0.764411
O O17 0.009361 0.652165 0.927475
O O18 0.750000 0.617811 0.993994
O O19 0.750000 0.917760 0.760115
#
# Coordination Sequence:
#
# PCOD9447571 Si02
#       7
#     8   8   8   8   8   8   8
#     4  10  19  30  46  70 103 142 180 217 258 304
#     4  10  20  35  58  86 110 131 160 202 257 319
#     4   8  16  31  50  74 104 136 170 212 262 310
#     4   9  17  30  49  74 104 136 170 208 252 302
#     4  11  24  39  54  73 101 141 185 225 265 309
#     4  10  20  33  51  75 103 139 183 227 267 305
#     4  10  21  36  56  81 106 136 173 213 262 316
#
# _framework density 17.888266000000002
#
# number of rings (size 3 to 8) (size 9 to 14) (size 15 to 20)
#    0.000    2.286    0.000    3.857    0.000   10.286 
#    0.000    0.000    0.000    0.857    0.000    4.000 
#    0.000    0.000    0.000    0.000    0.000    0.000 
#
# Total GULP energy -312389.634697 kJ/mol
# GULP energy per Si atom -5578.386334 kJ/mol
# Density = 1.784755 g / cm^3
# Si number density = 17.888266 Si / 1000 Ang^3
#
#
#
# Elastic Constant Matrix: (Units=GPa)
#
#
# Indices 1 2 3 4 5 6 
#
# 1 51.3561 37.4287 15.2114 0.0000 0.0000 0.0000
# 2 37.4287 111.3722 33.4017 0.0000 0.0000 0.0000
# 3 15.2114 33.4017 84.8770 0.0000 0.0000 0.0000
# 4 0.0000 0.0000 0.0000 17.3738 0.0000 0.0000
# 5 0.0000 0.0000 0.0000 0.0000 27.0999 0.0000
# 6 0.0000 0.0000 0.0000 0.0000 0.0000 29.5739
#
#
#
# Elastic Compliance Matrix: (Units=1/GPa)
#
#
# Indices 1 2 3 4 5 6 
#
# 1 0.025930 -0.008300 -0.001381 0.000000 0.000000 0.000000
# 2 -0.008300 0.012837 -0.003564 0.000000 0.000000 0.000000
# 3 -0.001381 -0.003564 0.013432 0.000000 0.000000 0.000000
# 4 0.000000 0.000000 0.000000 0.057558 0.000000 0.000000
# 5 0.000000 0.000000 0.000000 0.000000 0.036900 0.000000
# 6 0.000000 0.000000 0.000000 0.000000 0.000000 0.033814
#
#
# Mechanical properties :
#
#
# Convention : Reuss Voigt Hill
#
# Bulk Modulus (GPa) = 38.89723 46.63210 42.76466
# Shear Modulus (GPa) = 23.19845 25.58042 24.38943
#
# Velocity S-wave (km/s) = 3.60509 3.78565 3.69647
# Velocity P-wave (km/s) = 6.25465 6.72557 6.49438
#
# Compressibility (1/GPa) = 0.02570877
#
# Stress axis : x y z
#
# Youngs Moduli (GPa) = 38.56519 77.89786 74.44975
#
# Poissons Ratio (x) = 0.64657 0.10279
# Poissons Ratio (y) = 0.32010 0.26536
# Poissons Ratio (z) = 0.05325 0.27765
#
# Static dielectric constant tensor:
#      x y z
#    x 1.614600 0.000000 0.000000 
#    y 0.000000 1.436750 0.000000 
#    z 0.000000 0.000000 1.936900 
# 
# From -- ./inp_files/21051.got.cif
#   From: 2010.05.17/outbox.cif.g08.bks.cpg/sg59_11_cif.got.tgz:21051.got - 2010.06.03 14:40:33.
