data_PCOD9447985
_publ_section_title
;
Structure prediction by ZEFSAII (Michael W. Deem and Ramdas Pophale) SiO2 
 PCOD9447985
Probable space group: P M M N
;
_chemical_formula_sum "Si O2"
_cell_formula_units_Z 64
_cell_length_a 7.721519
_cell_length_b 20.540904
_cell_length_c 19.070589
_cell_angle_alpha 90.000000
_cell_angle_beta 90.000000
_cell_angle_gamma 90.000000
_cell_volume 3024.728538
_symmetry_space_group_name_H-M "P M M N"
_symmetry_group_IT_number 59
_space_group.IT_coordinate_system_code '2'
_symmetry_cell_setting 'orthorhombic'
loop_
_space_group_symop_operation_xyz
x,y,z
1/2-x,1/2-y,z
1/2+x,-y,-z
-x,1/2+y,-z
-x,-y,-z
1/2+x,1/2+y,-z
1/2-x,y,z
x,1/2-y,z
loop_
_atom_site_type_symbol
_atom_site_label
_atom_site_fract_x
_atom_site_fract_y
_atom_site_fract_z
Si Si1 0.451589 0.494540 0.711309
Si Si2 0.551575 0.923596 0.932335
Si Si3 0.544266 0.445134 0.863217
Si Si4 0.540974 0.180300 0.174024
Si Si5 0.039064 0.637554 0.676388
Si Si6 0.037985 0.821717 0.522555
Si Si7 0.545797 0.175170 0.945183
Si Si8 0.957163 0.053428 0.559836
O O1 0.250000 0.504011 0.727614
O O2 0.523497 0.461473 0.781268
O O3 0.527040 0.565638 0.694302
O O4 0.469020 0.458658 0.636967
O O5 0.750000 0.932416 0.954234
O O6 0.542554 0.882054 0.860979
O O7 0.475933 0.994773 0.912138
O O8 0.470190 0.872351 0.987033
O O9 0.750000 0.444605 0.877039
O O10 0.474377 0.373994 0.885186
O O11 0.750000 0.174421 0.166684
O O12 0.489159 0.250000 0.142257
O O13 0.499446 0.179946 0.256035
O O14 0.250000 0.634761 0.671341
O O15 0.979070 0.662916 0.601644
O O16 0.250000 0.822937 0.523407
O O17 0.982992 0.750000 0.501532
O O18 0.980798 0.878297 0.471246
O O19 0.750000 0.183226 0.932618
O O20 0.476066 0.250000 0.951348
O O21 0.750000 0.054101 0.566761
O O22 0.000000 0.000000 0.500000
#
# Coordination Sequence:
#
# PCOD9447985 Si02
#       8
#     8   8   8   8   8   8   8   8
#     4  11  21  36  59  86 112 148 192 233 283 338
#     4  11  22  35  55  84 117 148 179 225 283 339
#     4  10  22  40  60  85 114 146 186 235 286 332
#     4  10  19  31  50  77 111 151 189 225 267 322
#     4   9  16  29  50  78 108 138 181 229 269 320
#     4   9  17  31  53  81 110 142 185 233 277 325
#     4  10  22  41  63  84 109 146 193 239 281 332
#     4  11  21  35  57  85 115 149 190 235 281 332
#
# _framework density 21.158925
#
# number of rings (size 3 to 8) (size 9 to 14) (size 15 to 20)
#    0.000    1.875    2.500    2.250    0.000    4.500 
#    0.000    0.625    0.000    5.250    0.000    0.000 
#    0.000    0.000    0.000    0.000    0.000    0.000 
#
# Total GULP energy -357042.954668 kJ/mol
# GULP energy per Si atom -5578.796167 kJ/mol
# Density = 2.111077 g / cm^3
# Si number density = 21.158925 Si / 1000 Ang^3
#
#
#
# Elastic Constant Matrix: (Units=GPa)
#
#
# Indices 1 2 3 4 5 6 
#
# 1 35.4626 8.5830 -7.7429 0.0000 0.0000 0.0000
# 2 8.5830 194.8515 74.7426 0.0000 0.0000 0.0000
# 3 -7.7429 74.7426 94.3794 0.0000 0.0000 0.0000
# 4 0.0000 0.0000 0.0000 24.0648 0.0000 0.0000
# 5 0.0000 0.0000 0.0000 0.0000 21.4649 0.0000
# 6 0.0000 0.0000 0.0000 0.0000 0.0000 12.1934
#
#
#
# Elastic Compliance Matrix: (Units=1/GPa)
#
#
# Indices 1 2 3 4 5 6 
#
# 1 0.030092 -0.003264 0.005054 0.000000 0.000000 0.000000
# 2 -0.003264 0.007725 -0.006386 0.000000 0.000000 0.000000
# 3 0.005054 -0.006386 0.016067 0.000000 0.000000 0.000000
# 4 0.000000 0.000000 0.000000 0.041555 0.000000 0.000000
# 5 0.000000 0.000000 0.000000 0.000000 0.046588 0.000000
# 6 0.000000 0.000000 0.000000 0.000000 0.000000 0.082012
#
#
# Mechanical properties :
#
#
# Convention : Reuss Voigt Hill
#
# Bulk Modulus (GPa) = 22.37515 52.87323 37.62419
# Shear Modulus (GPa) = 20.15082 28.15199 24.15141
#
# Velocity S-wave (km/s) = 3.08937 3.65156 3.38217
# Velocity P-wave (km/s) = 4.82943 6.54381 5.75086
#
# Compressibility (1/GPa) = 0.04469244
#
# Stress axis : x y z
#
# Youngs Moduli (GPa) = 33.23128 129.44281 62.23817
#
# Poissons Ratio (x) = 0.42251 -0.31453
# Poissons Ratio (y) = 0.10847 0.39744
# Poissons Ratio (z) = -0.16794 0.82660
#
# Static dielectric constant tensor:
#      x y z
#    x 1.794720 0.000000 0.000000 
#    y 0.000000 1.814570 0.000000 
#    z 0.000000 0.000000 1.773150 
# 
# From -- ./inp_files/26212.got.cif
#   From: 2010.05.17/outbox.cif.g08.bks.cpg/sg59_14_cif.got.tgz:26212.got - 2010.06.03 14:40:33.
