data_PCOD9447084
_publ_section_title
;
Structure prediction by ZEFSAII (Michael W. Deem and Ramdas Pophale) SiO2 
 PCOD9447084
Probable space group: P M M N
;
_chemical_formula_sum "Si O2"
_cell_formula_units_Z 64
_cell_length_a 21.266805
_cell_length_b 8.580391
_cell_length_c 20.293610
_cell_angle_alpha 90.000000
_cell_angle_beta 90.000000
_cell_angle_gamma 90.000000
_cell_volume 3703.127264
_symmetry_space_group_name_H-M "P M M N"
_symmetry_group_IT_number 59
_space_group.IT_coordinate_system_code '2'
_symmetry_cell_setting 'orthorhombic'
loop_
_space_group_symop_operation_xyz
x,y,z
1/2-x,1/2-y,z
1/2+x,-y,-z
-x,1/2+y,-z
-x,-y,-z
1/2+x,1/2+y,-z
1/2-x,y,z
x,1/2-y,z
loop_
_atom_site_type_symbol
_atom_site_label
_atom_site_fract_x
_atom_site_fract_y
_atom_site_fract_z
Si Si1 0.515975 0.562795 0.825207
Si Si2 0.939401 0.560885 0.539209
Si Si3 0.131320 0.936744 0.680695
Si Si4 0.874001 0.936692 0.178909
Si Si5 0.484271 0.061058 0.320878
Si Si6 0.679778 0.938028 0.038375
Si Si7 0.439611 0.935029 0.039431
Si Si8 0.819628 0.561882 0.455312
O O1 0.518030 0.750000 0.828905
O O2 0.443322 0.509544 0.830852
O O3 0.537318 0.511696 0.751913
O O4 0.554132 0.492435 0.885578
O O5 0.940747 0.750000 0.538214
O O6 0.946162 0.508662 0.615144
O O7 0.876087 0.508214 0.502625
O O8 0.000000 0.500000 0.500000
O O9 0.134345 0.750000 0.682049
O O10 0.057720 0.983710 0.671892
O O11 0.151793 0.002170 0.751514
O O12 0.168296 0.000846 0.618274
O O13 0.879903 0.750000 0.181895
O O14 0.833385 0.977795 0.114900
O O15 0.483155 0.250000 0.320752
O O16 0.750000 0.988546 0.019350
O O17 0.676731 0.750000 0.033457
O O18 0.624008 0.006914 0.994773
O O19 0.442538 0.750000 0.037093
O O20 0.500000 0.000000 0.000000
O O21 0.750000 0.514216 0.477664
O O22 0.821757 0.750000 0.453695
#
# Coordination Sequence:
#
# PCOD9447084 Si02
#       8
#     8   8   8   8   8   8   8   8
#     4  10  19  33  54  80 110 142 176 223 272 321
#     4  10  18  32  53  76 101 133 173 218 263 311
#     4  10  19  32  50  73 104 141 180 219 259 311
#     4  10  19  32  52  78 110 145 180 219 264 319
#     4   8  16  30  50  76 104 131 168 216 265 307
#     4  10  22  39  57  79 109 144 180 222 272 325
#     4  12  23  36  57  83 110 143 183 228 274 321
#     4  10  21  34  49  73 105 139 174 216 267 318
#
# _framework density 17.282689000000001
#
# number of rings (size 3 to 8) (size 9 to 14) (size 15 to 20)
#    0.000    2.000    2.500    3.000    0.000    1.500 
#    0.000    1.875    0.000    0.750    0.000    3.500 
#    0.000    0.000    0.000    0.000    0.000    0.000 
#
# Total GULP energy -357151.572711 kJ/mol
# GULP energy per Si atom -5580.493324 kJ/mol
# Density = 1.724335 g / cm^3
# Si number density = 17.282689 Si / 1000 Ang^3
#
#
#
# Elastic Constant Matrix: (Units=GPa)
#
#
# Indices 1 2 3 4 5 6 
#
# 1 121.9750 34.2971 80.2693 0.0000 0.0000 0.0000
# 2 34.2971 36.2191 30.2217 0.0000 0.0000 0.0000
# 3 80.2693 30.2217 140.1920 0.0000 0.0000 0.0000
# 4 0.0000 0.0000 0.0000 22.7073 0.0000 0.0000
# 5 0.0000 0.0000 0.0000 0.0000 21.7095 0.0000
# 6 0.0000 0.0000 0.0000 0.0000 0.0000 19.3919
#
#
#
# Elastic Compliance Matrix: (Units=1/GPa)
#
#
# Indices 1 2 3 4 5 6 
#
# 1 0.015084 -0.008629 -0.006776 0.000000 0.000000 0.000000
# 2 -0.008629 0.038602 -0.003381 0.000000 0.000000 0.000000
# 3 -0.006776 -0.003381 0.011742 0.000000 0.000000 0.000000
# 4 0.000000 0.000000 0.000000 0.044039 0.000000 0.000000
# 5 0.000000 0.000000 0.000000 0.000000 0.046063 0.000000
# 6 0.000000 0.000000 0.000000 0.000000 0.000000 0.051568
#
#
# Mechanical properties :
#
#
# Convention : Reuss Voigt Hill
#
# Bulk Modulus (GPa) = 35.90009 65.32913 50.61461
# Shear Modulus (GPa) = 19.68844 23.00159 21.34502
#
# Velocity S-wave (km/s) = 3.37887 3.65211 3.51814
# Velocity P-wave (km/s) = 6.00331 7.46098 6.77148
#
# Compressibility (1/GPa) = 0.02785509
#
# Stress axis : x y z
#
# Youngs Moduli (GPa) = 66.29404 25.90530 85.16541
#
# Poissons Ratio (x) = 0.22355 0.57712
# Poissons Ratio (y) = 0.57208 0.28792
# Poissons Ratio (z) = 0.44924 0.08758
#
# Static dielectric constant tensor:
#      x y z
#    x 1.576930 0.000000 0.000000 
#    y 0.000000 1.586330 0.000000 
#    z 0.000000 0.000000 1.598480 
# 
# From -- ./inp_files/30961.got.cif
#   From: 2010.05.17/outbox.cif.g08.bks.cpg/sg59_16_cif.got.tgz:30961.got - 2010.06.03 14:40:33.
