data_PCOD9447010
_publ_section_title
;
Structure prediction by ZEFSAII (Michael W. Deem and Ramdas Pophale) SiO2 
 PCOD9447010
Probable space group: P M M N
;
_chemical_formula_sum "Si O2"
_cell_formula_units_Z 48
_cell_length_a 8.334933
_cell_length_b 15.991774
_cell_length_c 17.843281
_cell_angle_alpha 90.000000
_cell_angle_beta 90.000000
_cell_angle_gamma 90.000000
_cell_volume 2378.337434
_symmetry_space_group_name_H-M "P M M N"
_symmetry_group_IT_number 59
_space_group.IT_coordinate_system_code '2'
_symmetry_cell_setting 'orthorhombic'
loop_
_space_group_symop_operation_xyz
x,y,z
1/2-x,1/2-y,z
1/2+x,-y,-z
-x,1/2+y,-z
-x,-y,-z
1/2+x,1/2+y,-z
1/2-x,y,z
x,1/2-y,z
loop_
_atom_site_type_symbol
_atom_site_label
_atom_site_fract_x
_atom_site_fract_y
_atom_site_fract_z
Si Si1 0.558081 0.000082 0.414937
Si Si2 0.555769 0.157811 0.679356
Si Si3 0.945035 0.097080 0.840267
Si Si4 0.442759 0.658558 0.679828
Si Si5 0.557439 0.096709 0.002868
Si Si6 0.441300 0.098993 0.161957
O O1 0.750000 0.003399 0.414454
O O2 0.495323 0.081139 0.369355
O O3 0.500000 0.000000 0.500000
O O4 0.504136 0.916895 0.372036
O O5 0.750000 0.155287 0.679342
O O6 0.505186 0.250000 0.653884
O O7 0.501249 0.142878 0.765225
O O8 0.750000 0.099094 0.840468
O O9 0.991829 0.999141 0.834595
O O10 0.995119 0.131709 0.921708
O O11 0.250000 0.658587 0.673276
O O12 0.502537 0.750000 0.655684
O O13 0.485136 0.644187 0.766642
O O14 0.750000 0.098865 0.006264
O O15 0.491183 0.132749 0.080351
O O16 0.500000 0.000000 0.000000
O O17 0.250000 0.101739 0.167756
#
# Coordination Sequence:
#
# PCOD9447010 Si02
#       6
#     8   8   8   8   8   8
#     4  11  24  42  65  91 119 151 188 236 294 357
#     4  10  20  37  62  89 119 156 196 239 289 346
#     4   8  15  29  50  78 112 152 196 238 281 335
#     4  10  22  40  61  86 115 150 193 240 292 350
#     4   9  16  27  46  76 113 154 201 247 290 336
#     4  10  18  31  53  80 114 154 196 243 295 348
#
# _framework density 20.182165999999999
#
# number of rings (size 3 to 8) (size 9 to 14) (size 15 to 20)
#    0.000    2.333    1.667    2.500    0.000    2.000 
#    0.000    3.333    0.000    3.000    0.000    0.000 
#    0.000    0.000    0.000    0.000    0.000    0.000 
#
# Total GULP energy -267833.909409 kJ/mol
# GULP energy per Si atom -5579.873113 kJ/mol
# Density = 2.013623 g / cm^3
# Si number density = 20.182166 Si / 1000 Ang^3
#
#
#
# Elastic Constant Matrix: (Units=GPa)
#
#
# Indices 1 2 3 4 5 6 
#
# 1 15.6671 22.3568 9.8508 0.0000 0.0000 0.0000
# 2 22.3568 136.9060 86.4579 0.0000 0.0000 0.0000
# 3 9.8508 86.4579 166.1836 0.0000 0.0000 0.0000
# 4 0.0000 0.0000 0.0000 -7.1714 0.0000 0.0000
# 5 0.0000 0.0000 0.0000 0.0000 30.0405 0.0000
# 6 0.0000 0.0000 0.0000 0.0000 0.0000 16.9086
#
#
#
# Elastic Compliance Matrix: (Units=1/GPa)
#
#
# Indices 1 2 3 4 5 6 
#
# 1 0.084366 -0.015815 0.003227 0.000000 0.000000 0.000000
# 2 -0.015815 0.013843 -0.006264 0.000000 0.000000 0.000000
# 3 0.003227 -0.006264 0.009085 0.000000 0.000000 0.000000
# 4 0.000000 0.000000 0.000000 -0.139443 0.000000 0.000000
# 5 0.000000 0.000000 0.000000 0.000000 0.033288 0.000000
# 6 0.000000 0.000000 0.000000 0.000000 0.000000 0.059141
#
#
# Mechanical properties :
#
#
# Convention : Reuss Voigt Hill
#
# Bulk Modulus (GPa) = 14.36994 61.78753 38.07873
# Shear Modulus (GPa) = 41.26012 21.29497 31.27754
#
# Velocity S-wave (km/s) = 4.52639 3.25181 3.94097
# Velocity P-wave (km/s) = 5.86969 6.69182 6.29419
#
# Compressibility (1/GPa) = 0.06958974
#
# Stress axis : x y z
#
# Youngs Moduli (GPa) = 11.85305 72.23926 110.06852
#
# Poissons Ratio (x) = 1.14245 -0.35517
# Poissons Ratio (y) = 0.18745 0.68951
# Poissons Ratio (z) = -0.03825 0.45253
#
# Static dielectric constant tensor:
#      x y z
#    x 1.708710 0.000000 0.000000 
#    y 0.000000 1.739770 0.000000 
#    z 0.000000 0.000000 1.713090 
# 
# From -- ./inp_files/25504.got.cif
#   From: 2010.05.17/outbox.cif.g08.bks.cpg/sg59_13_cif.got.tgz:25504.got - 2010.06.03 14:40:33.
