data_PCOD9447801
_publ_section_title
;
Structure prediction by ZEFSAII (Michael W. Deem and Ramdas Pophale) SiO2 
 PCOD9447801
Probable space group: P M M N
;
_chemical_formula_sum "Si O2"
_cell_formula_units_Z 64
_cell_length_a 8.644951
_cell_length_b 20.540479
_cell_length_c 20.452086
_cell_angle_alpha 90.000000
_cell_angle_beta 90.000000
_cell_angle_gamma 90.000000
_cell_volume 3631.706249
_symmetry_space_group_name_H-M "P M M N"
_symmetry_group_IT_number 59
_space_group.IT_coordinate_system_code '2'
_symmetry_cell_setting 'orthorhombic'
loop_
_space_group_symop_operation_xyz
x,y,z
1/2-x,1/2-y,z
1/2+x,-y,-z
-x,1/2+y,-z
-x,-y,-z
1/2+x,1/2+y,-z
1/2-x,y,z
x,1/2-y,z
loop_
_atom_site_type_symbol
_atom_site_label
_atom_site_fract_x
_atom_site_fract_y
_atom_site_fract_z
Si Si1 0.936677 0.175760 0.113422
Si Si2 0.565674 0.889313 0.390403
Si Si3 0.063746 0.965553 0.658870
Si Si4 0.064919 0.929135 0.519795
Si Si5 0.435058 0.058620 0.197993
Si Si6 0.438459 0.675934 0.037008
Si Si7 0.438835 0.917960 0.152060
Si Si8 0.563991 0.177174 0.732190
O O1 0.750000 0.173218 0.115203
O O2 0.982757 0.250000 0.129998
O O3 0.002403 0.121868 0.161447
O O4 0.984671 0.163474 0.037976
O O5 0.750000 0.888744 0.394427
O O6 0.498323 0.882591 0.463249
O O7 0.505813 0.837642 0.338389
O O8 0.518773 0.960372 0.360984
O O9 0.250000 0.964359 0.665438
O O10 0.021087 0.921203 0.595940
O O11 0.989799 0.945743 0.727056
O O12 0.250000 0.930851 0.516561
O O13 0.000000 0.000000 0.500000
O O14 0.250000 0.059171 0.196753
O O15 0.489120 0.992328 0.161390
O O16 0.250000 0.675908 0.038426
O O17 0.485609 0.750000 0.055050
O O18 0.491239 0.621144 0.087826
O O19 0.250000 0.917825 0.151241
O O20 0.488230 0.876143 0.215199
O O21 0.750000 0.172805 0.727700
O O22 0.524688 0.250000 0.754468
#
# Coordination Sequence:
#
# PCOD9447801 Si02
#       8
#     8   8   8   8   8   8   8   8
#     4   9  19  36  56  75  96 129 172 213 256 312
#     4  10  19  31  48  71 101 136 173 215 258 300
#     4   9  18  32  49  72 101 134 168 205 251 302
#     4   9  17  29  48  73  99 129 167 209 253 300
#     4  11  21  31  50  78 108 137 163 208 265 309
#     4   8  14  28  51  74  98 133 176 216 250 295
#     4   9  17  29  46  75 107 133 170 216 257 300
#     4  10  19  31  49  72 102 143 183 218 257 305
#
# _framework density 17.622571000000001
#
# number of rings (size 3 to 8) (size 9 to 14) (size 15 to 20)
#    0.000    2.625    1.250    3.000    0.000    5.000 
#    0.000    0.000    0.000    2.250    0.000    7.000 
#    0.000    0.000    0.000    0.000    0.000    0.000 
#
# Total GULP energy -356697.295995 kJ/mol
# GULP energy per Si atom -5573.395250 kJ/mol
# Density = 1.758246 g / cm^3
# Si number density = 17.622571 Si / 1000 Ang^3
#
#
#
# Elastic Constant Matrix: (Units=GPa)
#
#
# Indices 1 2 3 4 5 6 
#
# 1 15.0425 27.3072 27.6402 0.0000 0.0000 0.0000
# 2 27.3072 100.4593 78.6747 0.0000 0.0000 0.0000
# 3 27.6402 78.6747 131.5326 0.0000 0.0000 0.0000
# 4 0.0000 0.0000 0.0000 24.0314 0.0000 0.0000
# 5 0.0000 0.0000 0.0000 0.0000 16.8727 0.0000
# 6 0.0000 0.0000 0.0000 0.0000 0.0000 18.0062
#
#
#
# Elastic Compliance Matrix: (Units=1/GPa)
#
#
# Indices 1 2 3 4 5 6 
#
# 1 0.141637 -0.028578 -0.012670 0.000000 0.000000 0.000000
# 2 -0.028578 0.024492 -0.008644 0.000000 0.000000 0.000000
# 3 -0.012670 -0.008644 0.015436 0.000000 0.000000 0.000000
# 4 0.000000 0.000000 0.000000 0.041612 0.000000 0.000000
# 5 0.000000 0.000000 0.000000 0.000000 0.059267 0.000000
# 6 0.000000 0.000000 0.000000 0.000000 0.000000 0.055536
#
#
# Mechanical properties :
#
#
# Convention : Reuss Voigt Hill
#
# Bulk Modulus (GPa) = 12.22785 57.14208 34.68497
# Shear Modulus (GPa) = 10.75209 19.34287 15.04748
#
# Velocity S-wave (km/s) = 2.47276 3.31663 2.92528
# Velocity P-wave (km/s) = 3.88672 6.86750 5.57984
#
# Compressibility (1/GPa) = 0.08178050
#
# Stress axis : x y z
#
# Youngs Moduli (GPa) = 7.06030 40.82920 64.78448
#
# Poissons Ratio (x) = 1.16680 0.82083
# Poissons Ratio (y) = 0.20177 0.56003
# Poissons Ratio (z) = 0.08946 0.35295
#
# Static dielectric constant tensor:
#      x y z
#    x 1.592070 0.000000 0.000000 
#    y 0.000000 1.581250 0.000000 
#    z 0.000000 0.000000 1.609410 
# 
# From -- ./inp_files/29766.got.cif
#   From: 2010.05.17/outbox.cif.g08.bks.cpg/sg59_15_cif.got.tgz:29766.got - 2010.06.03 14:40:33.
