data_PCOD9447420
_publ_section_title
;
Structure prediction by ZEFSAII (Michael W. Deem and Ramdas Pophale) SiO2 
 PCOD9447420
Probable space group: P M M N
;
_chemical_formula_sum "Si O2"
_cell_formula_units_Z 56
_cell_length_a 7.357705
_cell_length_b 14.211617
_cell_length_c 24.685928
_cell_angle_alpha 90.000000
_cell_angle_beta 90.000000
_cell_angle_gamma 90.000000
_cell_volume 2581.281234
_symmetry_space_group_name_H-M "P M M N"
_symmetry_group_IT_number 59
_space_group.IT_coordinate_system_code '2'
_symmetry_cell_setting 'orthorhombic'
loop_
_space_group_symop_operation_xyz
x,y,z
1/2-x,1/2-y,z
1/2+x,-y,-z
-x,1/2+y,-z
-x,-y,-z
1/2+x,1/2+y,-z
1/2-x,y,z
x,1/2-y,z
loop_
_atom_site_type_symbol
_atom_site_label
_atom_site_fract_x
_atom_site_fract_y
_atom_site_fract_z
Si Si1 0.030060 0.360149 0.596686
Si Si2 0.035094 0.364307 0.479523
Si Si3 0.027400 0.858395 0.192839
Si Si4 0.472984 0.141731 0.361278
Si Si5 0.030806 0.549313 0.080471
Si Si6 0.540829 0.026162 0.704588
Si Si7 0.964474 0.645428 0.966965
O O1 0.250000 0.364649 0.596621
O O2 0.980109 0.250000 0.600539
O O3 0.963917 0.397302 0.537841
O O4 0.963061 0.413281 0.649479
O O5 0.250000 0.384138 0.479581
O O6 0.017156 0.250000 0.480155
O O7 0.963181 0.393112 0.420743
O O8 0.250000 0.857190 0.193370
O O9 0.969635 0.750000 0.194826
O O10 0.969695 0.908255 0.137308
O O11 0.963414 0.915741 0.245452
O O12 0.250000 0.139202 0.362585
O O13 0.524883 0.250000 0.354300
O O14 0.538009 0.073461 0.314087
O O15 0.250000 0.545261 0.082024
O O16 0.983768 0.615975 0.029840
O O17 0.962910 0.444069 0.066596
O O18 0.750000 0.007901 0.719463
O O19 0.750000 0.649861 0.955215
O O20 0.039782 0.750000 0.957492
#
# Coordination Sequence:
#
# PCOD9447420 Si02
#       7
#     8   8   8   8   8   8   8
#     4   9  17  29  44  62  85 113 143 175 216 268
#     4   7  11  22  40  59  80 108 139 171 213 266
#     4   9  17  29  44  63  89 119 149 180 213 253
#     4   8  14  26  43  62  84 110 142 180 220 263
#     4   9  17  30  48  67  89 124 161 178 201 262
#     4  10  19  29  44  66  88 112 145 184 221 252
#     4   9  17  29  46  71  99 118 139 185 235 255
#
# _framework density 21.694652000000001
#
# number of rings (size 3 to 8) (size 9 to 14) (size 15 to 20)
#    0.000    3.286    0.000    2.571    0.000    2.286 
#    0.000    1.429    0.000    7.286    0.000    2.000 
#    0.000    2.286    0.000    0.000    0.000    0.000 
#
# Total GULP energy -312499.793838 kJ/mol
# GULP energy per Si atom -5580.353461 kJ/mol
# Density = 2.164527 g / cm^3
# Si number density = 21.694652 Si / 1000 Ang^3
#
#
#
# Elastic Constant Matrix: (Units=GPa)
#
#
# Indices 1 2 3 4 5 6 
#
# 1 79.5895 -0.6006 -3.6635 0.0000 0.0000 0.0000
# 2 -0.6006 149.2815 84.2731 0.0000 0.0000 0.0000
# 3 -3.6635 84.2731 152.6990 0.0000 0.0000 0.0000
# 4 0.0000 0.0000 0.0000 29.5141 0.0000 0.0000
# 5 0.0000 0.0000 0.0000 0.0000 -27.6565 0.0000
# 6 0.0000 0.0000 0.0000 0.0000 0.0000 1.5738
#
#
#
# Elastic Compliance Matrix: (Units=1/GPa)
#
#
# Indices 1 2 3 4 5 6 
#
# 1 0.012581 -0.000174 0.000398 0.000000 0.000000 0.000000
# 2 -0.000174 0.009733 -0.005376 0.000000 0.000000 0.000000
# 3 0.000398 -0.005376 0.009525 0.000000 0.000000 0.000000
# 4 0.000000 0.000000 0.000000 0.033882 0.000000 0.000000
# 5 0.000000 0.000000 0.000000 0.000000 -0.036158 0.000000
# 6 0.000000 0.000000 0.000000 0.000000 0.000000 0.635402
#
#
# Mechanical properties :
#
#
# Convention : Reuss Voigt Hill
#
# Bulk Modulus (GPa) = 46.43404 60.17643 53.30523
# Shear Modulus (GPa) = 7.32657 20.79035 14.05846
#
# Velocity S-wave (km/s) = 1.83969 3.09903 2.54838
# Velocity P-wave (km/s) = 5.09534 6.37208 5.76914
#
# Compressibility (1/GPa) = 0.02153593
#
# Stress axis : x y z
#
# Youngs Moduli (GPa) = 79.48191 102.74651 104.98581
#
# Poissons Ratio (x) = 0.01788 -0.04177
# Poissons Ratio (y) = 0.01383 0.56436
# Poissons Ratio (z) = -0.03162 0.55232
#
# Static dielectric constant tensor:
#      x y z
#    x 1.829850 0.000000 0.000000 
#    y 0.000000 1.812290 0.000000 
#    z 0.000000 0.000000 1.755140 
# 
# From -- ./inp_files/31909.got.cif
#   From: 2010.05.17/outbox.cif.g08.bks.cpg/sg59_16_cif.got.tgz:31909.got - 2010.06.03 14:40:33.
