data_PCOD9447636
_publ_section_title
;
Structure prediction by ZEFSAII (Michael W. Deem and Ramdas Pophale) SiO2 
 PCOD9447636
Probable space group: P M M N
;
_chemical_formula_sum "Si O2"
_cell_formula_units_Z 64
_cell_length_a 30.349448
_cell_length_b 9.029467
_cell_length_c 15.280620
_cell_angle_alpha 90.000000
_cell_angle_beta 90.000000
_cell_angle_gamma 90.000000
_cell_volume 4187.491007
_symmetry_space_group_name_H-M "P M M N"
_symmetry_group_IT_number 59
_space_group.IT_coordinate_system_code '2'
_symmetry_cell_setting 'orthorhombic'
loop_
_space_group_symop_operation_xyz
x,y,z
1/2-x,1/2-y,z
1/2+x,-y,-z
-x,1/2+y,-z
-x,-y,-z
1/2+x,1/2+y,-z
1/2-x,y,z
x,1/2-y,z
loop_
_atom_site_type_symbol
_atom_site_label
_atom_site_fract_x
_atom_site_fract_y
_atom_site_fract_z
Si Si1 0.934567 0.074810 0.448308
Si Si2 0.393724 0.928491 0.043084
Si Si3 0.966057 0.926308 0.619377
Si Si4 0.698899 0.424835 0.217340
Si Si5 0.060262 0.928079 0.857800
Si Si6 0.201044 0.929733 0.988485
Si Si7 0.616676 0.925781 0.297145
Si Si8 0.540260 0.571814 0.821582
O O1 0.926577 0.250000 0.448108
O O2 0.982405 0.048502 0.403123
O O3 0.938654 0.012961 0.546333
O O4 0.899323 0.991408 0.389110
O O5 0.394279 0.750000 0.051129
O O6 0.422281 0.998850 0.119825
O O7 0.416709 0.964300 0.949904
O O8 0.342689 0.979181 0.039026
O O9 0.958371 0.750000 0.610526
O O10 0.957081 0.970164 0.719272
O O11 0.750000 0.443107 0.241537
O O12 0.687660 0.250000 0.224721
O O13 0.694909 0.464623 0.114432
O O14 0.665498 0.520045 0.273373
O O15 0.063458 0.750000 0.844748
O O16 0.008663 0.968392 0.856040
O O17 0.085470 0.006321 0.778599
O O18 0.250000 0.981923 0.015793
O O19 0.201782 0.750000 0.993162
O O20 0.613313 0.750000 0.296997
O O21 0.543720 0.750000 0.826707
#
# Coordination Sequence:
#
# PCOD9447636 Si02
#       8
#     8   8   8   8   8   8   8   8
#     4  10  19  33  52  70  94 125 160 198 239 294
#     4  10  19  30  48  70  95 127 168 208 237 285
#     4   9  18  33  50  70  94 123 159 203 247 283
#     4   9  17  32  53  71  93 129 167 200 241 295
#     4  10  19  34  48  64  95 135 173 203 234 281
#     4   8  14  27  48  70  91 120 159 202 244 282
#     4  12  22  30  47  74 103 131 162 202 244 293
#     4  10  20  33  48  66  98 134 163 201 246 291
#
# _framework density 15.283614999999999
#
# number of rings (size 3 to 8) (size 9 to 14) (size 15 to 20)
#    0.000    2.250    2.500    2.625    0.000    2.250 
#    0.000    0.000    0.000    0.375    0.000    0.875 
#    0.000    3.000    0.000    0.000    0.000    0.000 
#
# Total GULP energy -356946.457554 kJ/mol
# GULP energy per Si atom -5577.288399 kJ/mol
# Density = 1.524883 g / cm^3
# Si number density = 15.283615 Si / 1000 Ang^3
#
#
#
# Elastic Constant Matrix: (Units=GPa)
#
#
# Indices 1 2 3 4 5 6 
#
# 1 108.6453 38.5075 60.4041 0.0000 0.0000 0.0000
# 2 38.5075 29.9449 32.5519 0.0000 0.0000 0.0000
# 3 60.4041 32.5519 85.3347 0.0000 0.0000 0.0000
# 4 0.0000 0.0000 0.0000 23.5509 0.0000 0.0000
# 5 0.0000 0.0000 0.0000 0.0000 20.1011 0.0000
# 6 0.0000 0.0000 0.0000 0.0000 0.0000 21.8471
#
#
#
# Elastic Compliance Matrix: (Units=1/GPa)
#
#
# Indices 1 2 3 4 5 6 
#
# 1 0.019142 -0.016890 -0.007107 0.000000 0.000000 0.000000
# 2 -0.016890 0.071956 -0.015493 0.000000 0.000000 0.000000
# 3 -0.007107 -0.015493 0.022659 0.000000 0.000000 0.000000
# 4 0.000000 0.000000 0.000000 0.042461 0.000000 0.000000
# 5 0.000000 0.000000 0.000000 0.000000 0.049749 0.000000
# 6 0.000000 0.000000 0.000000 0.000000 0.000000 0.045773
#
#
# Mechanical properties :
#
#
# Convention : Reuss Voigt Hill
#
# Bulk Modulus (GPa) = 28.75405 54.09466 41.42435
# Shear Modulus (GPa) = 14.60664 19.26391 16.93527
#
# Velocity S-wave (km/s) = 3.09480 3.55410 3.33238
# Velocity P-wave (km/s) = 5.62360 7.23277 6.47834
#
# Compressibility (1/GPa) = 0.03477771
#
# Stress axis : x y z
#
# Youngs Moduli (GPa) = 52.24201 13.89741 44.13283
#
# Poissons Ratio (x) = 0.23473 0.31363
# Poissons Ratio (y) = 0.88236 0.68374
# Poissons Ratio (z) = 0.37126 0.21531
#
# Static dielectric constant tensor:
#      x y z
#    x 1.514520 0.000000 0.000000 
#    y 0.000000 1.507730 0.000000 
#    z 0.000000 0.000000 1.485320 
# 
# From -- ./inp_files/25047.got.cif
#   From: 2010.05.17/outbox.cif.g08.bks.cpg/sg59_13_cif.got.tgz:25047.got - 2010.06.03 14:40:33.
