data_PCOD9447908
_publ_section_title
;
Structure prediction by ZEFSAII (Michael W. Deem and Ramdas Pophale) SiO2 
 PCOD9447908
Probable space group: P M M N
;
_chemical_formula_sum "Si O2"
_cell_formula_units_Z 56
_cell_length_a 7.639112
_cell_length_b 23.575080
_cell_length_c 15.189624
_cell_angle_alpha 90.000000
_cell_angle_beta 90.000000
_cell_angle_gamma 90.000000
_cell_volume 2735.540042
_symmetry_space_group_name_H-M "P M M N"
_symmetry_group_IT_number 59
_space_group.IT_coordinate_system_code '2'
_symmetry_cell_setting 'orthorhombic'
loop_
_space_group_symop_operation_xyz
x,y,z
1/2-x,1/2-y,z
1/2+x,-y,-z
-x,1/2+y,-z
-x,-y,-z
1/2+x,1/2+y,-z
1/2-x,y,z
x,1/2-y,z
loop_
_atom_site_type_symbol
_atom_site_label
_atom_site_fract_x
_atom_site_fract_y
_atom_site_fract_z
Si Si1 0.537690 0.140026 0.121740
Si Si2 0.542525 0.813026 0.690024
Si Si3 0.038182 0.425589 0.411071
Si Si4 0.458704 0.053671 0.608894
Si Si5 0.960208 0.013179 0.101472
Si Si6 0.460179 0.686682 0.066986
Si Si7 0.460565 0.093610 0.789820
O O1 0.750000 0.140365 0.121110
O O2 0.481264 0.175705 0.206054
O O3 0.475553 0.075072 0.129275
O O4 0.476460 0.162763 0.026947
O O5 0.750000 0.811366 0.671733
O O6 0.471521 0.750000 0.667769
O O7 0.473552 0.869078 0.638923
O O8 0.250000 0.423567 0.411052
O O9 0.972733 0.430117 0.512250
O O10 0.989673 0.486964 0.371054
O O11 0.250000 0.061121 0.603253
O O12 0.525893 0.091223 0.689791
O O13 0.750000 0.014318 0.110173
O O14 0.029385 0.962063 0.160148
O O15 0.000000 0.000000 0.000000
O O16 0.250000 0.688696 0.059811
O O17 0.527166 0.750000 0.080396
O O18 0.500471 0.646673 0.148857
O O19 0.250000 0.089107 0.785700
#
# Coordination Sequence:
#
# PCOD9447908 Si02
#       7
#     8   8   8   8   8   8   8
#     4  10  20  35  54  75 101 136 174 210 253 305
#     4  10  21  35  51  75 106 138 173 213 256 305
#     4   9  18  34  55  79 105 134 167 207 258 311
#     4   9  18  34  56  80 105 132 167 211 259 309
#     4  10  19  31  49  74 102 130 163 205 251 297
#     4  10  21  36  52  70  97 136 177 212 247 295
#     4  10  20  33  51  77 105 132 166 210 254 299
#
# _framework density 20.471278999999999
#
# number of rings (size 3 to 8) (size 9 to 14) (size 15 to 20)
#    0.000    2.286    1.429    1.286    0.000    4.571 
#    0.000    0.714    0.000    2.571    0.000    0.000 
#    0.000    0.000    0.000    0.000    0.000    0.000 
#
# Total GULP energy -312576.626308 kJ/mol
# GULP energy per Si atom -5581.725470 kJ/mol
# Density = 2.042469 g / cm^3
# Si number density = 20.471279 Si / 1000 Ang^3
#
#
#
# Elastic Constant Matrix: (Units=GPa)
#
#
# Indices 1 2 3 4 5 6 
#
# 1 37.1341 -4.1812 -3.0356 0.0000 0.0000 0.0000
# 2 -4.1812 142.9818 61.3916 0.0000 0.0000 0.0000
# 3 -3.0356 61.3916 91.8390 0.0000 0.0000 0.0000
# 4 0.0000 0.0000 0.0000 21.9071 0.0000 0.0000
# 5 0.0000 0.0000 0.0000 0.0000 10.0706 0.0000
# 6 0.0000 0.0000 0.0000 0.0000 0.0000 18.2788
#
#
#
# Elastic Compliance Matrix: (Units=1/GPa)
#
#
# Indices 1 2 3 4 5 6 
#
# 1 0.027036 0.000571 0.000512 0.000000 0.000000 0.000000
# 2 0.000571 0.009821 -0.006546 0.000000 0.000000 0.000000
# 3 0.000512 -0.006546 0.015282 0.000000 0.000000 0.000000
# 4 0.000000 0.000000 0.000000 0.045647 0.000000 0.000000
# 5 0.000000 0.000000 0.000000 0.000000 0.099299 0.000000
# 6 0.000000 0.000000 0.000000 0.000000 0.000000 0.054708
#
#
# Mechanical properties :
#
#
# Convention : Reuss Voigt Hill
#
# Bulk Modulus (GPa) = 24.26515 42.25606 33.26060
# Shear Modulus (GPa) = 18.08594 24.56997 21.32796
#
# Velocity S-wave (km/s) = 2.97556 3.46817 3.23127
# Velocity P-wave (km/s) = 4.86665 6.06004 5.49583
#
# Compressibility (1/GPa) = 0.04121137
#
# Stress axis : x y z
#
# Youngs Moduli (GPa) = 36.98832 101.81829 65.43796
#
# Poissons Ratio (x) = -0.05811 -0.03351
# Poissons Ratio (y) = -0.02111 0.42839
# Poissons Ratio (z) = -0.01894 0.66655
#
# Static dielectric constant tensor:
#      x y z
#    x 1.768070 0.000000 0.000000 
#    y 0.000000 1.726850 0.000000 
#    z 0.000000 0.000000 1.732660 
# 
# From -- ./inp_files/21021.got.cif
#   From: 2010.05.17/outbox.cif.g08.bks.cpg/sg59_11_cif.got.tgz:21021.got - 2010.06.03 14:40:33.
