data_PCOD9447025
_publ_section_title
;
Structure prediction by ZEFSAII (Michael W. Deem and Ramdas Pophale) SiO2 
 PCOD9447025
Probable space group: P M M N
;
_chemical_formula_sum "Si O2"
_cell_formula_units_Z 48
_cell_length_a 8.435653
_cell_length_b 15.919686
_cell_length_c 17.836214
_cell_angle_alpha 90.000000
_cell_angle_beta 90.000000
_cell_angle_gamma 90.000000
_cell_volume 2395.277741
_symmetry_space_group_name_H-M "P M M N"
_symmetry_group_IT_number 59
_space_group.IT_coordinate_system_code '2'
_symmetry_cell_setting 'orthorhombic'
loop_
_space_group_symop_operation_xyz
x,y,z
1/2-x,1/2-y,z
1/2+x,-y,-z
-x,1/2+y,-z
-x,-y,-z
1/2+x,1/2+y,-z
1/2-x,y,z
x,1/2-y,z
loop_
_atom_site_type_symbol
_atom_site_label
_atom_site_fract_x
_atom_site_fract_y
_atom_site_fract_z
Si Si1 0.941073 0.403710 0.001391
Si Si2 0.061201 0.342900 0.322574
Si Si3 0.439930 0.899978 0.835459
Si Si4 0.941520 0.842538 0.317120
Si Si5 0.938974 0.999340 0.415553
Si Si6 0.440721 0.592196 0.161593
O O1 0.750000 0.403339 0.003702
O O2 0.992790 0.367930 0.081954
O O3 0.987586 0.369407 0.919640
O O4 0.000000 0.500000 0.000000
O O5 0.250000 0.347288 0.331058
O O6 0.006598 0.250000 0.345997
O O7 0.018445 0.356426 0.235474
O O8 0.987022 0.417290 0.370834
O O9 0.250000 0.891369 0.829191
O O10 0.484570 0.998908 0.832267
O O11 0.750000 0.846361 0.314934
O O12 0.987981 0.750000 0.344508
O O13 0.003339 0.856484 0.233135
O O14 0.999608 0.918219 0.369490
O O15 0.750000 0.994039 0.417247
O O16 0.000000 0.000000 0.500000
O O17 0.250000 0.583894 0.162945
#
# Coordination Sequence:
#
# PCOD9447025 Si02
#       6
#     8   8   8   8   8   8
#     4   8  16  28  46  77 113 152 198 246 294 345
#     4  11  24  41  62  90 124 160 200 249 301 352
#     4  10  18  32  55  82 116 158 202 247 298 353
#     4  10  22  40  61  87 120 158 197 238 290 352
#     4  11  24  43  68  94 122 156 192 239 298 361
#     4  10  18  31  54  83 117 156 200 248 296 348
#
# _framework density 20.039428999999998
#
# number of rings (size 3 to 8) (size 9 to 14) (size 15 to 20)
#    0.000    2.000    1.667    2.000    0.000    4.333 
#    0.000    2.500    0.000    5.000    0.000    0.000 
#    0.000    0.000    0.000    0.000    0.000    0.000 
#
# Total GULP energy -267904.199048 kJ/mol
# GULP energy per Si atom -5581.337480 kJ/mol
# Density = 1.999382 g / cm^3
# Si number density = 20.039429 Si / 1000 Ang^3
#
#
#
# Elastic Constant Matrix: (Units=GPa)
#
#
# Indices 1 2 3 4 5 6 
#
# 1 20.4060 16.6651 19.8337 0.0000 0.0000 0.0000
# 2 16.6651 111.1775 72.2160 0.0000 0.0000 0.0000
# 3 19.8337 72.2160 166.7203 0.0000 0.0000 0.0000
# 4 0.0000 0.0000 0.0000 -7.5003 0.0000 0.0000
# 5 0.0000 0.0000 0.0000 0.0000 33.6598 0.0000
# 6 0.0000 0.0000 0.0000 0.0000 0.0000 19.7660
#
#
#
# Elastic Compliance Matrix: (Units=1/GPa)
#
#
# Indices 1 2 3 4 5 6 
#
# 1 0.058036 -0.005865 -0.004364 0.000000 0.000000 0.000000
# 2 -0.005865 0.013109 -0.004980 0.000000 0.000000 0.000000
# 3 -0.004364 -0.004980 0.008675 0.000000 0.000000 0.000000
# 4 0.000000 0.000000 0.000000 -0.133328 0.000000 0.000000
# 5 0.000000 0.000000 0.000000 0.000000 0.029709 0.000000
# 6 0.000000 0.000000 0.000000 0.000000 0.000000 0.050592
#
#
# Mechanical properties :
#
#
# Convention : Reuss Voigt Hill
#
# Bulk Modulus (GPa) = 20.24239 57.30371 38.77305
# Shear Modulus (GPa) = 67.86300 21.82436 44.84368
#
# Velocity S-wave (km/s) = 5.82565 3.30369 4.73564
# Velocity P-wave (km/s) = 7.44139 6.57343 7.02083
#
# Compressibility (1/GPa) = 0.04940129
#
# Stress axis : x y z
#
# Youngs Moduli (GPa) = 17.23063 76.28442 115.27998
#
# Poissons Ratio (x) = 0.44740 0.50306
# Poissons Ratio (y) = 0.10105 0.57415
# Poissons Ratio (z) = 0.07519 0.37993
#
# Static dielectric constant tensor:
#      x y z
#    x 1.692360 0.000000 0.000000 
#    y 0.000000 1.724060 0.000000 
#    z 0.000000 0.000000 1.717320 
# 
# From -- ./inp_files/25477.got.cif
#   From: 2010.05.17/outbox.cif.g08.bks.cpg/sg59_13_cif.got.tgz:25477.got - 2010.06.03 14:40:33.
