data_PCOD9447595
_publ_section_title
;
Structure prediction by ZEFSAII (Michael W. Deem and Ramdas Pophale) SiO2 
 PCOD9447595
Probable space group: P M M N
;
_chemical_formula_sum "Si O2"
_cell_formula_units_Z 64
_cell_length_a 23.915280
_cell_length_b 8.836511
_cell_length_c 19.609496
_cell_angle_alpha 90.000000
_cell_angle_beta 90.000000
_cell_angle_gamma 90.000000
_cell_volume 4144.028409
_symmetry_space_group_name_H-M "P M M N"
_symmetry_group_IT_number 59
_space_group.IT_coordinate_system_code '2'
_symmetry_cell_setting 'orthorhombic'
loop_
_space_group_symop_operation_xyz
x,y,z
1/2-x,1/2-y,z
1/2+x,-y,-z
-x,1/2+y,-z
-x,-y,-z
1/2+x,1/2+y,-z
1/2-x,y,z
x,1/2-y,z
loop_
_atom_site_type_symbol
_atom_site_label
_atom_site_fract_x
_atom_site_fract_y
_atom_site_fract_z
Si Si1 0.185469 0.567520 0.107351
Si Si2 0.521524 0.569571 0.391997
Si Si3 0.504311 0.568703 0.747651
Si Si4 0.975867 0.431748 0.101271
Si Si5 0.588672 0.930639 0.980062
Si Si6 0.813889 0.567829 0.615631
Si Si7 0.082293 0.431621 0.472999
Si Si8 0.371220 0.931609 0.251219
O O1 0.250000 0.518993 0.101748
O O2 0.183958 0.750000 0.103236
O O3 0.144995 0.500199 0.050061
O O4 0.160013 0.524932 0.181147
O O5 0.519807 0.750000 0.383646
O O6 0.526992 0.491919 0.318991
O O7 0.568191 0.530538 0.448730
O O8 0.463437 0.513395 0.425715
O O9 0.508592 0.750000 0.744840
O O10 0.475817 0.526232 0.819384
O O11 0.566810 0.500888 0.747284
O O12 0.970594 0.250000 0.095532
O O13 0.036709 0.473445 0.069888
O O14 0.929617 0.508582 0.053881
O O15 0.592522 0.750000 0.980829
O O16 0.750000 0.523424 0.602654
O O17 0.815770 0.750000 0.624512
O O18 0.856519 0.530012 0.554582
O O19 0.837041 0.492013 0.684144
O O20 0.074141 0.250000 0.465528
O O21 0.375031 0.750000 0.254103
#
# Coordination Sequence:
#
# PCOD9447595 Si02
#       8
#     8   8   8   8   8   8   8   8
#     4  10  21  35  49  67  97 135 168 198 236 282
#     4  10  19  30  47  70  94 124 160 198 241 286
#     4  11  20  32  49  71  99 129 160 196 242 293
#     4   9  19  33  49  69  96 126 157 195 246 297
#     4  10  19  32  50  72  95 123 161 203 241 281
#     4  10  20  33  49  68  93 129 166 198 236 281
#     4   9  18  32  47  66  95 126 158 198 240 286
#     4  11  21  32  47  69  98 131 168 202 233 274
#
# _framework density 15.443910000000001
#
# number of rings (size 3 to 8) (size 9 to 14) (size 15 to 20)
#    0.000    2.000    2.500    1.875    0.000    3.500 
#    0.000    0.000    0.000    0.000    0.000    0.875 
#    0.000    3.000    0.000    0.000    0.000    0.000 
#
# Total GULP energy -357100.785372 kJ/mol
# GULP energy per Si atom -5579.699771 kJ/mol
# Density = 1.540876 g / cm^3
# Si number density = 15.443910 Si / 1000 Ang^3
#
#
#
# Elastic Constant Matrix: (Units=GPa)
#
#
# Indices 1 2 3 4 5 6 
#
# 1 97.7261 31.8506 74.0759 0.0000 0.0000 0.0000
# 2 31.8506 26.8574 43.3282 0.0000 0.0000 0.0000
# 3 74.0759 43.3282 147.2703 0.0000 0.0000 0.0000
# 4 0.0000 0.0000 0.0000 24.4688 0.0000 0.0000
# 5 0.0000 0.0000 0.0000 0.0000 18.7952 0.0000
# 6 0.0000 0.0000 0.0000 0.0000 0.0000 16.9383
#
#
#
# Elastic Compliance Matrix: (Units=1/GPa)
#
#
# Indices 1 2 3 4 5 6 
#
# 1 0.018762 -0.013373 -0.005503 0.000000 0.000000 0.000000
# 2 -0.013373 0.080404 -0.016929 0.000000 0.000000 0.000000
# 3 -0.005503 -0.016929 0.014539 0.000000 0.000000 0.000000
# 4 0.000000 0.000000 0.000000 0.040868 0.000000 0.000000
# 5 0.000000 0.000000 0.000000 0.000000 0.053205 0.000000
# 6 0.000000 0.000000 0.000000 0.000000 0.000000 0.059038
#
#
# Mechanical properties :
#
#
# Convention : Reuss Voigt Hill
#
# Bulk Modulus (GPa) = 23.75559 63.37369 43.56464
# Shear Modulus (GPa) = 14.18610 20.21373 17.19991
#
# Velocity S-wave (km/s) = 3.03406 3.62173 3.34084
# Velocity P-wave (km/s) = 5.26206 7.65591 6.56895
#
# Compressibility (1/GPa) = 0.04209536
#
# Stress axis : x y z
#
# Youngs Moduli (GPa) = 53.29842 12.43721 68.78142
#
# Poissons Ratio (x) = 0.16632 0.37849
# Poissons Ratio (y) = 0.71275 1.16441
# Poissons Ratio (z) = 0.29329 0.21055
#
# Static dielectric constant tensor:
#      x y z
#    x 1.491880 0.000000 0.000000 
#    y 0.000000 1.517440 0.000000 
#    z 0.000000 0.000000 1.515020 
# 
# From -- ./inp_files/26514.got.cif
#   From: 2010.05.17/outbox.cif.g08.bks.cpg/sg59_14_cif.got.tgz:26514.got - 2010.06.03 14:40:33.
