data_PCOD9447997
_publ_section_title
;
Structure prediction by ZEFSAII (Michael W. Deem and Ramdas Pophale) SiO2 
 PCOD9447997
Probable space group: P M M N
;
_chemical_formula_sum "Si O2"
_cell_formula_units_Z 64
_cell_length_a 9.212704
_cell_length_b 28.136280
_cell_length_c 14.388074
_cell_angle_alpha 90.000000
_cell_angle_beta 90.000000
_cell_angle_gamma 90.000000
_cell_volume 3729.550205
_symmetry_space_group_name_H-M "P M M N"
_symmetry_group_IT_number 59
_space_group.IT_coordinate_system_code '2'
_symmetry_cell_setting 'orthorhombic'
loop_
_space_group_symop_operation_xyz
x,y,z
1/2-x,1/2-y,z
1/2+x,-y,-z
-x,1/2+y,-z
-x,-y,-z
1/2+x,1/2+y,-z
1/2-x,y,z
x,1/2-y,z
loop_
_atom_site_type_symbol
_atom_site_label
_atom_site_fract_x
_atom_site_fract_y
_atom_site_fract_z
Si Si1 0.426145 0.025535 0.709076
Si Si2 0.084126 0.692239 0.127010
Si Si3 0.923963 0.074179 0.380516
Si Si4 0.924478 0.893211 0.431940
Si Si5 0.577057 0.806027 0.938218
Si Si6 0.924432 0.486161 0.095761
Si Si7 0.576547 0.694813 0.315110
Si Si8 0.077364 0.617296 0.817479
O O1 0.250000 0.025104 0.712534
O O2 0.470394 0.071923 0.652375
O O3 0.469259 0.978985 0.650034
O O4 0.473169 0.018278 0.815784
O O5 0.250000 0.675516 0.122901
O O6 0.085706 0.750000 0.127404
O O7 0.004978 0.678424 0.222002
O O8 0.995576 0.678431 0.035529
O O9 0.750000 0.073733 0.394080
O O10 0.954536 0.106674 0.290466
O O11 0.001464 0.091361 0.473003
O O12 0.750000 0.897253 0.441652
O O13 0.959618 0.839884 0.399630
O O14 0.750000 0.810799 0.944104
O O15 0.543665 0.750000 0.923647
O O16 0.511471 0.839260 0.859041
O O17 0.750000 0.490832 0.086351
O O18 0.953868 0.431671 0.126704
O O19 0.000000 0.500000 0.000000
O O20 0.750000 0.691717 0.298579
O O21 0.540988 0.750000 0.332947
O O22 0.250000 0.626177 0.826369
#
# Coordination Sequence:
#
# PCOD9447997 Si02
#       8
#     8   8   8   8   8   8   8   8
#     4   8  16  32  51  71  97 127 158 196 244 294
#     4   9  17  30  49  71  96 128 163 200 242 286
#     4   9  18  34  53  71  95 125 157 202 255 296
#     4  10  19  31  51  75  96 125 165 204 245 293
#     4  10  20  33  51  76 102 129 166 210 251 294
#     4   9  18  33  51  73 103 135 166 201 245 298
#     4   9  18  32  47  67 100 136 165 196 237 286
#     4   9  19  35  52  70  98 136 170 203 249 301
#
# _framework density 17.160246000000001
#
# number of rings (size 3 to 8) (size 9 to 14) (size 15 to 20)
#    0.000    2.875    0.000    2.625    0.000    4.750 
#    0.000    4.375    0.000    2.250    0.000    0.000 
#    0.000    0.000    0.000    0.000    0.000    0.000 
#
# Total GULP energy -356750.253738 kJ/mol
# GULP energy per Si atom -5574.222715 kJ/mol
# Density = 1.712119 g / cm^3
# Si number density = 17.160246 Si / 1000 Ang^3
#
#
#
# Elastic Constant Matrix: (Units=GPa)
#
#
# Indices 1 2 3 4 5 6 
#
# 1 33.6912 40.2037 50.1007 0.0000 0.0000 0.0000
# 2 40.2037 73.2927 75.1533 0.0000 0.0000 0.0000
# 3 50.1007 75.1533 136.1092 0.0000 0.0000 0.0000
# 4 0.0000 0.0000 0.0000 22.9405 0.0000 0.0000
# 5 0.0000 0.0000 0.0000 0.0000 36.8670 0.0000
# 6 0.0000 0.0000 0.0000 0.0000 0.0000 19.4065
#
#
#
# Elastic Compliance Matrix: (Units=1/GPa)
#
#
# Indices 1 2 3 4 5 6 
#
# 1 0.097053 -0.038277 -0.014590 0.000000 0.000000 0.000000
# 2 -0.038277 0.046546 -0.011611 0.000000 0.000000 0.000000
# 3 -0.014590 -0.011611 0.019129 0.000000 0.000000 0.000000
# 4 0.000000 0.000000 0.000000 0.043591 0.000000 0.000000
# 5 0.000000 0.000000 0.000000 0.000000 0.027125 0.000000
# 6 0.000000 0.000000 0.000000 0.000000 0.000000 0.051529
#
#
# Mechanical properties :
#
#
# Convention : Reuss Voigt Hill
#
# Bulk Modulus (GPa) = 29.61029 63.77872 46.69451
# Shear Modulus (GPa) = 11.75954 21.01848 16.38901
#
# Velocity S-wave (km/s) = 2.62062 3.50356 3.09375
# Velocity P-wave (km/s) = 5.14291 7.32215 6.32706
#
# Compressibility (1/GPa) = 0.03377204
#
# Stress axis : x y z
#
# Youngs Moduli (GPa) = 10.30360 21.48394 52.27789
#
# Poissons Ratio (x) = 0.82235 0.76271
# Poissons Ratio (y) = 0.39439 0.60701
# Poissons Ratio (z) = 0.15033 0.24945
#
# Static dielectric constant tensor:
#      x y z
#    x 1.572730 0.000000 0.000000 
#    y 0.000000 1.589290 0.000000 
#    z 0.000000 0.000000 1.559040 
# 
# From -- ./inp_files/15080.got.cif
#   From: 2010.05.17/outbox.cif.g08.bks.cpg/sg59_8_cif.got.tgz:15080.got - 2010.06.03 14:40:33.
