data_PCOD9447706
_publ_section_title
;
Structure prediction by ZEFSAII (Michael W. Deem and Ramdas Pophale) SiO2 
 PCOD9447706
Probable space group: P M M N
;
_chemical_formula_sum "Si O2"
_cell_formula_units_Z 64
_cell_length_a 7.615413
_cell_length_b 28.097590
_cell_length_c 15.116269
_cell_angle_alpha 90.000000
_cell_angle_beta 90.000000
_cell_angle_gamma 90.000000
_cell_volume 3234.499913
_symmetry_space_group_name_H-M "P M M N"
_symmetry_group_IT_number 59
_space_group.IT_coordinate_system_code '2'
_symmetry_cell_setting 'orthorhombic'
loop_
_space_group_symop_operation_xyz
x,y,z
1/2-x,1/2-y,z
1/2+x,-y,-z
-x,1/2+y,-z
-x,-y,-z
1/2+x,1/2+y,-z
1/2-x,y,z
x,1/2-y,z
loop_
_atom_site_type_symbol
_atom_site_label
_atom_site_fract_x
_atom_site_fract_y
_atom_site_fract_z
Si Si1 0.453876 0.114690 0.860166
Si Si2 0.960171 0.805483 0.473189
Si Si3 0.464031 0.963320 0.281370
Si Si4 0.964786 0.805995 0.276594
Si Si5 0.960215 0.446697 0.527095
Si Si6 0.537766 0.944601 0.976608
Si Si7 0.956672 0.933927 0.778465
Si Si8 0.954059 0.376753 0.381279
O O1 0.250000 0.126964 0.876567
O O2 0.466109 0.068744 0.797117
O O3 0.526738 0.158824 0.801755
O O4 0.530221 0.093904 0.951770
O O5 0.750000 0.811178 0.474433
O O6 0.001744 0.750000 0.473554
O O7 0.022449 0.822838 0.375595
O O8 0.028806 0.828583 0.563303
O O9 0.250000 0.961991 0.279972
O O10 0.526466 0.941265 0.373638
O O11 0.522135 0.018178 0.270726
O O12 0.750000 0.807316 0.277473
O O13 0.012924 0.750000 0.265010
O O14 0.750000 0.439180 0.529520
O O15 0.037247 0.413208 0.452022
O O16 0.000000 0.500000 0.500000
O O17 0.750000 0.940819 0.978554
O O18 0.471586 0.932863 0.877884
O O19 0.500000 0.000000 0.000000
O O20 0.750000 0.941784 0.789027
O O21 0.975580 0.888077 0.715845
O O22 0.750000 0.387573 0.371684
#
# Coordination Sequence:
#
# PCOD9447706 Si02
#       8
#     8   8   8   8   8   8   8   8
#     4  10  19  30  50  76  98 125 163 210 254 296
#     4   9  18  34  56  78 101 133 168 198 240 307
#     4  10  19  31  46  66  96 134 166 196 245 299
#     4   8  15  30  52  78 104 128 158 198 248 303
#     4  10  20  31  43  64  95 129 164 197 238 293
#     4  10  20  33  49  71  99 132 171 212 254 299
#     4  10  20  34  49  65  95 139 174 205 248 302
#     4  11  22  33  49  74 101 130 167 214 257 291
#
# _framework density 19.786676
#
# number of rings (size 3 to 8) (size 9 to 14) (size 15 to 20)
#    0.000    2.250    2.500    1.875    0.000    2.250 
#    0.000    0.000    0.000    1.875    0.000    3.500 
#    0.000    0.000    0.000    0.000    0.000    0.000 
#
# Total GULP energy -356729.651361 kJ/mol
# GULP energy per Si atom -5573.900803 kJ/mol
# Density = 1.974164 g / cm^3
# Si number density = 19.786676 Si / 1000 Ang^3
#
#
#
# Elastic Constant Matrix: (Units=GPa)
#
#
# Indices 1 2 3 4 5 6 
#
# 1 32.2883 4.4955 9.2545 0.0000 0.0000 0.0000
# 2 4.4955 60.5612 45.8094 0.0000 0.0000 0.0000
# 3 9.2545 45.8094 169.1642 0.0000 0.0000 0.0000
# 4 0.0000 0.0000 0.0000 33.6512 0.0000 0.0000
# 5 0.0000 0.0000 0.0000 0.0000 5.8242 0.0000
# 6 0.0000 0.0000 0.0000 0.0000 0.0000 15.0103
#
#
#
# Elastic Compliance Matrix: (Units=1/GPa)
#
#
# Indices 1 2 3 4 5 6 
#
# 1 0.031546 -0.001303 -0.001373 0.000000 0.000000 0.000000
# 2 -0.001303 0.020820 -0.005567 0.000000 0.000000 0.000000
# 3 -0.001373 -0.005567 0.007494 0.000000 0.000000 0.000000
# 4 0.000000 0.000000 0.000000 0.029717 0.000000 0.000000
# 5 0.000000 0.000000 0.000000 0.000000 0.171698 0.000000
# 6 0.000000 0.000000 0.000000 0.000000 0.000000 0.066621
#
#
# Mechanical properties :
#
#
# Convention : Reuss Voigt Hill
#
# Bulk Modulus (GPa) = 23.05524 42.34805 32.70164
# Shear Modulus (GPa) = 13.93383 24.39408 19.16395
#
# Velocity S-wave (km/s) = 2.65656 3.51501 3.11549
# Velocity P-wave (km/s) = 4.59205 6.15812 5.43183
#
# Compressibility (1/GPa) = 0.04337409
#
# Stress axis : x y z
#
# Youngs Moduli (GPa) = 31.69986 48.03153 133.44074
#
# Poissons Ratio (x) = 0.06259 0.18320
# Poissons Ratio (y) = 0.04131 0.74282
# Poissons Ratio (z) = 0.04352 0.26737
#
# Static dielectric constant tensor:
#      x y z
#    x 1.766260 0.000000 0.000000 
#    y 0.000000 1.719020 0.000000 
#    z 0.000000 0.000000 1.759230 
# 
# From -- ./inp_files/21870.got.cif
#   From: 2010.05.17/outbox.cif.g08.bks.cpg/sg59_11_cif.got.tgz:21870.got - 2010.06.03 14:40:33.
