data_PCOD9447239
_publ_section_title
;
Structure prediction by ZEFSAII (Michael W. Deem and Ramdas Pophale) SiO2 
 PCOD9447239
Probable space group: P M M N
;
_chemical_formula_sum "Si O2"
_cell_formula_units_Z 48
_cell_length_a 10.488027
_cell_length_b 15.567837
_cell_length_c 13.977619
_cell_angle_alpha 90.000000
_cell_angle_beta 90.000000
_cell_angle_gamma 90.000000
_cell_volume 2282.208249
_symmetry_space_group_name_H-M "P M M N"
_symmetry_group_IT_number 59
_space_group.IT_coordinate_system_code '2'
_symmetry_cell_setting 'orthorhombic'
loop_
_space_group_symop_operation_xyz
x,y,z
1/2-x,1/2-y,z
1/2+x,-y,-z
-x,1/2+y,-z
-x,-y,-z
1/2+x,1/2+y,-z
1/2-x,y,z
x,1/2-y,z
loop_
_atom_site_type_symbol
_atom_site_label
_atom_site_fract_x
_atom_site_fract_y
_atom_site_fract_z
Si Si1 0.750000 0.145210 0.707572
Si Si2 0.250000 0.145185 0.772936
Si Si3 0.476551 0.354631 0.629826
Si Si4 0.250000 0.902970 0.072407
Si Si5 0.605786 0.644845 0.581941
Si Si6 0.250000 0.407625 0.990321
Si Si7 0.023804 0.849183 0.940135
Si Si8 0.105456 0.644299 0.733996
O O1 0.750000 0.250000 0.713592
O O2 0.879911 0.118594 0.654748
O O3 0.750000 0.109517 0.814929
O O4 0.250000 0.250000 0.785969
O O5 0.374613 0.121412 0.711132
O O6 0.250000 0.101922 0.876232
O O7 0.475915 0.250000 0.627821
O O8 0.430769 0.382960 0.525190
O O9 0.122698 0.864684 0.025267
O O10 0.250000 0.998449 0.033521
O O11 0.750000 0.618107 0.606163
O O12 0.605116 0.750000 0.582321
O O13 0.500326 0.616081 0.657977
O O14 0.380965 0.368511 0.029185
O O15 0.030037 0.750000 0.918576
O O16 0.068981 0.890055 0.839815
O O17 0.250000 0.618005 0.710788
O O18 0.105463 0.750000 0.731950
#
# Coordination Sequence:
#
# PCOD9447239 Si02
#       8
#     4   4   8   4   8   4   8   8
#     4  10  20  32  53  80 107 150 195 230 277 346
#     4  10  18  34  53  76 111 148 187 232 287 346
#     4   9  17  29  48  77 112 145 182 229 284 341
#     4  12  24  42  59  84 120 158 199 246 301 352
#     4   9  16  27  46  77 117 146 172 228 295 339
#     4  12  26  38  59  90 118 152 201 252 299 348
#     4  11  22  40  62  86 118 156 199 245 292 349
#     4   9  18  31  51  80 112 149 188 230 284 342
#
# _framework density 21.032260999999998
#
# number of rings (size 3 to 8) (size 9 to 14) (size 15 to 20)
#    0.000    2.000    1.667    3.000    2.333    1.333 
#    0.000    0.000    0.000    0.000    0.000    7.000 
#    0.000    0.000    0.000    0.000    0.000    0.000 
#
# Total GULP energy -268126.075828 kJ/mol
# GULP energy per Si atom -5585.959913 kJ/mol
# Density = 2.098439 g / cm^3
# Si number density = 21.032261 Si / 1000 Ang^3
#
#
#
# Elastic Constant Matrix: (Units=GPa)
#
#
# Indices 1 2 3 4 5 6 
#
# 1 215.7159 -8.2553 63.0468 0.0000 0.0000 0.0000
# 2 -8.2553 -13.7387 -33.3251 0.0000 0.0000 0.0000
# 3 63.0468 -33.3251 73.3681 0.0000 0.0000 0.0000
# 4 0.0000 0.0000 0.0000 -861.3232 0.0000 0.0000
# 5 0.0000 0.0000 0.0000 0.0000 47.1575 0.0000
# 6 0.0000 0.0000 0.0000 0.0000 0.0000 8.5001
#
#
#
# Elastic Compliance Matrix: (Units=1/GPa)
#
#
# Indices 1 2 3 4 5 6 
#
# 1 0.005684 0.004012 -0.003062 0.000000 0.000000 0.000000
# 2 0.004012 -0.031799 -0.017892 0.000000 0.000000 0.000000
# 3 -0.003062 -0.017892 0.008135 0.000000 0.000000 0.000000
# 4 0.000000 0.000000 0.000000 -0.001161 0.000000 0.000000
# 5 0.000000 0.000000 0.000000 0.000000 0.021206 0.000000
# 6 0.000000 0.000000 0.000000 0.000000 0.000000 0.117646
#
#
# Mechanical properties :
#
#
# Convention : Reuss Voigt Hill
#
# Bulk Modulus (GPa) = -19.28128 35.36423 8.04148
# Shear Modulus (GPa) = 36.68245 -144.20787 -53.76271
#
# Velocity S-wave (km/s) = 4.18078 -8.28939 -5.06137
# Velocity P-wave (km/s) = 3.75737 8.64684 5.50681
#
# Compressibility (1/GPa) = -0.05186377
#
# Stress axis : x y z
#
# Youngs Moduli (GPa) = 175.92481 -31.44714 122.93183
#
# Poissons Ratio (x) = 0.12617 0.37644
# Poissons Ratio (y) = -0.70585 2.19945
# Poissons Ratio (z) = 0.53871 -0.56264
#
# Static dielectric constant tensor:
#      x y z
#    x 1.462520 0.000000 0.000000 
#    y 0.000000 1.745800 0.000000 
#    z 0.000000 0.000000 1.754200 
# 
# From -- ./inp_files/20642.got.cif
#   From: 2010.05.17/outbox.cif.g08.bks.cpg/sg59_11_cif.got.tgz:20642.got - 2010.06.03 14:40:33.
