data_PCOD9447498
_publ_section_title
;
Structure prediction by ZEFSAII (Michael W. Deem and Ramdas Pophale) SiO2 
 PCOD9447498
Probable space group: P M M N
;
_chemical_formula_sum "Si O2"
_cell_formula_units_Z 64
_cell_length_a 7.472757
_cell_length_b 20.561745
_cell_length_c 18.945541
_cell_angle_alpha 90.000000
_cell_angle_beta 90.000000
_cell_angle_gamma 90.000000
_cell_volume 2911.037769
_symmetry_space_group_name_H-M "P M M N"
_symmetry_group_IT_number 59
_space_group.IT_coordinate_system_code '2'
_symmetry_cell_setting 'orthorhombic'
loop_
_space_group_symop_operation_xyz
x,y,z
1/2-x,1/2-y,z
1/2+x,-y,-z
-x,1/2+y,-z
-x,-y,-z
1/2+x,1/2+y,-z
1/2-x,y,z
x,1/2-y,z
loop_
_atom_site_type_symbol
_atom_site_label
_atom_site_fract_x
_atom_site_fract_y
_atom_site_fract_z
Si Si1 0.035157 0.324140 0.414172
Si Si2 0.531766 0.176939 0.993038
Si Si3 0.030629 0.176650 0.723917
Si Si4 0.956926 0.543269 0.222877
Si Si5 0.035084 0.586074 0.719095
Si Si6 0.467692 0.676289 0.845093
Si Si7 0.462291 0.956321 0.068334
Si Si8 0.953255 0.671291 0.433359
O O1 0.250000 0.319930 0.421569
O O2 0.971602 0.250000 0.398496
O O3 0.964965 0.346846 0.491076
O O4 0.998957 0.374255 0.351923
O O5 0.750000 0.176962 0.992022
O O6 0.474285 0.250000 0.973177
O O7 0.469433 0.116806 0.946413
O O8 0.477302 0.163793 0.074268
O O9 0.250000 0.180412 0.723433
O O10 0.970192 0.250000 0.742026
O O11 0.969380 0.116432 0.771661
O O12 0.970316 0.158787 0.644029
O O13 0.750000 0.550342 0.243272
O O14 0.034853 0.487377 0.272983
O O15 0.963535 0.518737 0.142352
O O16 0.250000 0.582565 0.726390
O O17 0.966885 0.627379 0.785893
O O18 0.250000 0.674423 0.845297
O O19 0.520151 0.750000 0.826904
O O20 0.250000 0.953711 0.076728
O O21 0.500000 0.000000 0.000000
O O22 0.750000 0.645275 0.431439
O O23 0.944384 0.750000 0.436917
#
# Coordination Sequence:
#
# PCOD9447498 Si02
#       8
#     8   8   8   8   8   8   8   8
#     4   9  17  29  47  72  99 127 164 209 248 285
#     4   8  15  29  49  72  95 120 155 198 242 289
#     4   8  14  28  52  77  99 128 168 211 251 292
#     4  10  21  35  51  74 101 128 165 209 249 294
#     4  10  19  30  44  65  98 135 167 202 243 291
#     4   8  13  23  41  62  83 113 153 189 221 267
#     4  11  22  36  55  76 101 134 168 203 245 295
#     4   7  11  23  45  71  96 125 164 205 244 289
#
# _framework density 21.985285999999999
#
# number of rings (size 3 to 8) (size 9 to 14) (size 15 to 20)
#    0.000    3.125    0.000    3.750    0.000    3.750 
#    0.000    0.625    0.000    1.875    0.000    3.500 
#    0.000    0.000    0.000    0.000    0.000    0.000 
#
# Total GULP energy -356849.144559 kJ/mol
# GULP energy per Si atom -5575.767884 kJ/mol
# Density = 2.193525 g / cm^3
# Si number density = 21.985286 Si / 1000 Ang^3
#
#
#
# Elastic Constant Matrix: (Units=GPa)
#
#
# Indices 1 2 3 4 5 6 
#
# 1 64.3733 2.7596 -10.6434 0.0000 0.0000 0.0000
# 2 2.7596 91.4568 45.3470 0.0000 0.0000 0.0000
# 3 -10.6434 45.3470 70.5560 0.0000 0.0000 0.0000
# 4 0.0000 0.0000 0.0000 29.8104 0.0000 0.0000
# 5 0.0000 0.0000 0.0000 0.0000 515.6331 0.0000
# 6 0.0000 0.0000 0.0000 0.0000 0.0000 2.6344
#
#
#
# Elastic Compliance Matrix: (Units=1/GPa)
#
#
# Indices 1 2 3 4 5 6 
#
# 1 0.016316 -0.002514 0.004077 0.000000 0.000000 0.000000
# 2 -0.002514 0.016436 -0.010943 0.000000 0.000000 0.000000
# 3 0.004077 -0.010943 0.021821 0.000000 0.000000 0.000000
# 4 0.000000 0.000000 0.000000 0.033545 0.000000 0.000000
# 5 0.000000 0.000000 0.000000 0.000000 0.001939 0.000000
# 6 0.000000 0.000000 0.000000 0.000000 0.000000 0.379597
#
#
# Mechanical properties :
#
#
# Convention : Reuss Voigt Hill
#
# Bulk Modulus (GPa) = 27.92192 33.47914 30.70053
# Shear Modulus (GPa) = 9.99297 122.21042 66.10170
#
# Velocity S-wave (km/s) = 2.13428 7.46378 5.48923
# Velocity P-wave (km/s) = 4.33606 9.46247 7.36002
#
# Compressibility (1/GPa) = 0.03581415
#
# Stress axis : x y z
#
# Youngs Moduli (GPa) = 61.28862 60.84357 45.82740
#
# Poissons Ratio (x) = 0.15295 -0.18684
# Poissons Ratio (y) = 0.15407 0.50147
# Poissons Ratio (z) = -0.24987 0.66578
#
# Static dielectric constant tensor:
#      x y z
#    x 1.846620 0.000000 0.000000 
#    y 0.000000 1.810410 0.000000 
#    z 0.000000 0.000000 1.817400 
# 
# From -- ./inp_files/26242.got.cif
#   From: 2010.05.17/outbox.cif.g08.bks.cpg/sg59_14_cif.got.tgz:26242.got - 2010.06.03 14:40:33.
