data_PCOD9447151
_publ_section_title
;
Structure prediction by ZEFSAII (Michael W. Deem and Ramdas Pophale) SiO2 
 PCOD9447151
Probable space group: P M M N
;
_chemical_formula_sum "Si O2"
_cell_formula_units_Z 56
_cell_length_a 22.062286
_cell_length_b 7.682649
_cell_length_c 14.515522
_cell_angle_alpha 90.000000
_cell_angle_beta 90.000000
_cell_angle_gamma 90.000000
_cell_volume 2460.334522
_symmetry_space_group_name_H-M "P M M N"
_symmetry_group_IT_number 59
_space_group.IT_coordinate_system_code '2'
_symmetry_cell_setting 'orthorhombic'
loop_
_space_group_symop_operation_xyz
x,y,z
1/2-x,1/2-y,z
1/2+x,-y,-z
-x,1/2+y,-z
-x,-y,-z
1/2+x,1/2+y,-z
1/2-x,y,z
x,1/2-y,z
loop_
_atom_site_type_symbol
_atom_site_label
_atom_site_fract_x
_atom_site_fract_y
_atom_site_fract_z
Si Si1 0.317681 0.548985 0.794021
Si Si2 0.250000 0.036549 0.286944
Si Si3 0.250000 0.461475 0.072581
Si Si4 0.382378 0.038185 0.058615
Si Si5 0.820197 0.956815 0.415911
Si Si6 0.951640 0.046664 0.761136
Si Si7 0.440871 0.049760 0.882065
Si Si8 0.867566 0.544128 0.602607
O O1 0.250000 0.478320 0.814011
O O2 0.319772 0.750000 0.822922
O O3 0.325949 0.542051 0.683526
O O4 0.373881 0.452603 0.838944
O O5 0.250000 0.250000 0.287454
O O6 0.250000 0.987929 0.180171
O O7 0.189630 0.975405 0.338868
O O8 0.250000 0.250000 0.067689
O O9 0.185612 0.520088 0.033325
O O10 0.383225 0.250000 0.057758
O O11 0.400559 0.981304 0.160625
O O12 0.430456 0.972158 0.983489
O O13 0.750000 0.978122 0.447021
O O14 0.829943 0.750000 0.400748
O O15 0.863002 0.023030 0.498144
O O16 0.962032 0.250000 0.745557
O O17 0.011418 0.969135 0.810618
O O18 0.927064 0.977566 0.664389
O O19 0.460069 0.250000 0.894762
O O20 0.857109 0.750000 0.593141
#
# Coordination Sequence:
#
# PCOD9447151 Si02
#       8
#     8   4   4   8   8   8   8   8
#     4  10  22  39  59  85 116 143 174 226 288 339
#     4   9  14  26  50  79 110 137 177 230 264 312
#     4   9  16  28  52  83 108 131 175 234 272 314
#     4  10  20  36  59  82 106 144 191 234 275 324
#     4   9  17  32  58  87 112 141 182 229 274 327
#     4  11  23  37  52  80 118 151 184 229 278 329
#     4  10  23  40  59  80 106 147 198 236 267 320
#     4  10  18  32  56  83 111 147 187 225 270 328
#
# _framework density 22.761133000000001
#
# number of rings (size 3 to 8) (size 9 to 14) (size 15 to 20)
#    0.000    2.143    2.143    1.286    1.000    3.143 
#    0.000    2.143    0.000    0.000    0.000    0.000 
#    0.000    0.000    0.000    0.000    0.000    0.000 
#
# Total GULP energy -312715.850289 kJ/mol
# GULP energy per Si atom -5584.211612 kJ/mol
# Density = 2.270933 g / cm^3
# Si number density = 22.761133 Si / 1000 Ang^3
#
#
#
# Elastic Constant Matrix: (Units=GPa)
#
#
# Indices 1 2 3 4 5 6 
#
# 1 80.0102 -5.3680 3.4740 0.0000 0.0000 0.0000
# 2 -5.3680 45.5509 -2.3945 0.0000 0.0000 0.0000
# 3 3.4740 -2.3945 52.1182 0.0000 0.0000 0.0000
# 4 0.0000 0.0000 0.0000 15.7699 0.0000 0.0000
# 5 0.0000 0.0000 0.0000 0.0000 26.8260 0.0000
# 6 0.0000 0.0000 0.0000 0.0000 0.0000 5.3771
#
#
#
# Elastic Compliance Matrix: (Units=1/GPa)
#
#
# Indices 1 2 3 4 5 6 
#
# 1 0.012629 0.001448 -0.000775 0.000000 0.000000 0.000000
# 2 0.001448 0.022173 0.000922 0.000000 0.000000 0.000000
# 3 -0.000775 0.000922 0.019281 0.000000 0.000000 0.000000
# 4 0.000000 0.000000 0.000000 0.063412 0.000000 0.000000
# 5 0.000000 0.000000 0.000000 0.000000 0.037277 0.000000
# 6 0.000000 0.000000 0.000000 0.000000 0.000000 0.185973
#
#
# Mechanical properties :
#
#
# Convention : Reuss Voigt Hill
#
# Bulk Modulus (GPa) = 17.46061 18.78915 18.12488
# Shear Modulus (GPa) = 14.01946 21.72579 17.87262
#
# Velocity S-wave (km/s) = 2.48450 3.09287 2.80523
# Velocity P-wave (km/s) = 3.98977 4.58555 4.29800
#
# Compressibility (1/GPa) = 0.05727177
#
# Stress axis : x y z
#
# Youngs Moduli (GPa) = 79.18171 45.10090 51.86394
#
# Poissons Ratio (x) = -0.06529 0.04021
# Poissons Ratio (y) = -0.11462 -0.04783
# Poissons Ratio (z) = 0.06139 -0.04159
#
# Static dielectric constant tensor:
#      x y z
#    x 1.873170 0.000000 0.000000 
#    y 0.000000 1.609810 0.000000 
#    z 0.000000 0.000000 1.859610 
# 
# From -- ./inp_files/24375.got.cif
#   From: 2010.05.17/outbox.cif.g08.bks.cpg/sg59_13_cif.got.tgz:24375.got - 2010.06.03 14:40:33.
