data_PCOD9447959
_publ_section_title
;
Structure prediction by ZEFSAII (Michael W. Deem and Ramdas Pophale) SiO2 
 PCOD9447959
Probable space group: P M M N
;
_chemical_formula_sum "Si O2"
_cell_formula_units_Z 48
_cell_length_a 15.828325
_cell_length_b 9.439033
_cell_length_c 16.499366
_cell_angle_alpha 90.000000
_cell_angle_beta 90.000000
_cell_angle_gamma 90.000000
_cell_volume 2465.072631
_symmetry_space_group_name_H-M "P M M N"
_symmetry_group_IT_number 59
_space_group.IT_coordinate_system_code '2'
_symmetry_cell_setting 'orthorhombic'
loop_
_space_group_symop_operation_xyz
x,y,z
1/2-x,1/2-y,z
1/2+x,-y,-z
-x,1/2+y,-z
-x,-y,-z
1/2+x,1/2+y,-z
1/2-x,y,z
x,1/2-y,z
loop_
_atom_site_type_symbol
_atom_site_label
_atom_site_fract_x
_atom_site_fract_y
_atom_site_fract_z
Si Si1 0.391576 0.408218 0.290215
Si Si2 0.250000 0.402999 0.156408
Si Si3 0.390257 0.911009 0.438660
Si Si4 0.250000 0.580848 0.007861
Si Si5 0.595449 0.590093 0.409564
Si Si6 0.921193 0.579459 0.045626
Si Si7 0.050175 0.085593 0.762765
O O1 0.409843 0.250000 0.320055
O O2 0.329040 0.403019 0.215377
O O3 0.355769 0.497530 0.364644
O O4 0.474690 0.480602 0.255947
O O5 0.250000 0.250000 0.110554
O O6 0.250000 0.541841 0.102538
O O7 0.362646 0.750000 0.435142
O O8 0.492836 0.913414 0.423277
O O9 0.370705 0.980409 0.525042
O O10 0.250000 0.750000 0.992291
O O11 0.334764 0.501462 0.977569
O O12 0.623321 0.750000 0.428334
O O13 0.612398 0.561830 0.314213
O O14 0.921268 0.750000 0.025977
O O15 0.925188 0.568628 0.143733
O O16 0.000000 0.500000 0.000000
O O17 0.022747 0.250000 0.753085
#
# Coordination Sequence:
#
# PCOD9447959 Si02
#       7
#     8   4   8   4   8   8   8
#     4  10  19  31  50  75 105 140 179 224 273 327
#     4  10  22  38  54  75 104 141 184 229 278 333
#     4   9  16  26  42  68 101 134 170 213 264 322
#     4  12  26  42  62  89 120 157 198 241 296 357
#     4   8  14  26  44  68  98 131 170 215 263 319
#     4  11  23  41  64  90 121 156 197 247 302 358
#     4   9  19  34  53  78 106 138 179 226 277 333
#
# _framework density 19.472041000000001
#
# number of rings (size 3 to 8) (size 9 to 14) (size 15 to 20)
#    0.000    2.333    0.000    4.250    0.000    9.333 
#    0.000    0.000    0.000    1.000    0.000    3.500 
#    0.000    0.000    0.000    0.000    0.000    0.000 
#
# Total GULP energy -267463.309507 kJ/mol
# GULP energy per Si atom -5572.152281 kJ/mol
# Density = 1.942772 g / cm^3
# Si number density = 19.472041 Si / 1000 Ang^3
#
#
#
# Elastic Constant Matrix: (Units=GPa)
#
#
# Indices 1 2 3 4 5 6 
#
# 1 59.9614 54.8216 24.2164 0.0000 0.0000 0.0000
# 2 54.8216 157.8640 84.9398 0.0000 0.0000 0.0000
# 3 24.2164 84.9398 129.8993 0.0000 0.0000 0.0000
# 4 0.0000 0.0000 0.0000 39.2606 0.0000 0.0000
# 5 0.0000 0.0000 0.0000 0.0000 21.5115 0.0000
# 6 0.0000 0.0000 0.0000 0.0000 0.0000 8.1159
#
#
#
# Elastic Compliance Matrix: (Units=1/GPa)
#
#
# Indices 1 2 3 4 5 6 
#
# 1 0.024635 -0.009386 0.001545 0.000000 0.000000 0.000000
# 2 -0.009386 0.013349 -0.006979 0.000000 0.000000 0.000000
# 3 0.001545 -0.006979 0.011974 0.000000 0.000000 0.000000
# 4 0.000000 0.000000 0.000000 0.025471 0.000000 0.000000
# 5 0.000000 0.000000 0.000000 0.000000 0.046487 0.000000
# 6 0.000000 0.000000 0.000000 0.000000 0.000000 0.123214
#
#
# Mechanical properties :
#
#
# Convention : Reuss Voigt Hill
#
# Bulk Modulus (GPa) = 49.21886 75.07557 62.14722
# Shear Modulus (GPa) = 17.75921 26.02739 21.89330
#
# Velocity S-wave (km/s) = 3.02327 3.65999 3.35676
# Velocity P-wave (km/s) = 6.12523 7.51665 6.85633
#
# Compressibility (1/GPa) = 0.02031742
#
# Stress axis : x y z
#
# Youngs Moduli (GPa) = 40.59226 74.90978 83.51546
#
# Poissons Ratio (x) = 0.70314 -0.12904
# Poissons Ratio (y) = 0.38102 0.58287
# Poissons Ratio (z) = -0.06272 0.52281
#
# Static dielectric constant tensor:
#      x y z
#    x 2.120770 0.000000 0.000000 
#    y 0.000000 1.708750 0.000000 
#    z 0.000000 0.000000 1.717060 
# 
# From -- ./inp_files/27417.got.cif
#   From: 2010.05.17/outbox.cif.g08.bks.cpg/sg59_14_cif.got.tgz:27417.got - 2010.06.03 14:40:33.
