data_PCOD9447106
_publ_section_title
;
Structure prediction by ZEFSAII (Michael W. Deem and Ramdas Pophale) SiO2 
 PCOD9447106
Probable space group: P M M N
;
_chemical_formula_sum "Si O2"
_cell_formula_units_Z 64
_cell_length_a 7.570520
_cell_length_b 14.603894
_cell_length_c 27.680300
_cell_angle_alpha 90.000000
_cell_angle_beta 90.000000
_cell_angle_gamma 90.000000
_cell_volume 3060.308270
_symmetry_space_group_name_H-M "P M M N"
_symmetry_group_IT_number 59
_space_group.IT_coordinate_system_code '2'
_symmetry_cell_setting 'orthorhombic'
loop_
_space_group_symop_operation_xyz
x,y,z
1/2-x,1/2-y,z
1/2+x,-y,-z
-x,1/2+y,-z
-x,-y,-z
1/2+x,1/2+y,-z
1/2-x,y,z
x,1/2-y,z
loop_
_atom_site_type_symbol
_atom_site_label
_atom_site_fract_x
_atom_site_fract_y
_atom_site_fract_z
Si Si1 0.038318 0.514749 0.944048
Si Si2 0.966719 0.354526 0.333893
Si Si3 0.037613 0.534069 0.574062
Si Si4 0.047067 0.850255 0.233744
Si Si5 0.033876 0.645272 0.862157
Si Si6 0.462764 0.149774 0.878173
Si Si7 0.956168 0.055314 0.236689
Si Si8 0.461813 0.146133 0.522473
O O1 0.250000 0.515178 0.940610
O O2 0.975971 0.602680 0.913459
O O3 0.972435 0.428550 0.913164
O O4 0.000000 0.500000 0.000000
O O5 0.750000 0.356682 0.333648
O O6 0.018402 0.250000 0.343791
O O7 0.026654 0.423021 0.375952
O O8 0.030154 0.387495 0.281427
O O9 0.250000 0.527512 0.577076
O O10 0.971029 0.433119 0.558885
O O11 0.997165 0.604353 0.530553
O O12 0.250000 0.850630 0.249334
O O13 0.969668 0.750000 0.247496
O O14 0.038823 0.853838 0.175450
O O15 0.967618 0.947425 0.248487
O O16 0.250000 0.644298 0.862555
O O17 0.978312 0.750000 0.855723
O O18 0.974269 0.583619 0.816332
O O19 0.250000 0.140303 0.872120
O O20 0.498816 0.250000 0.898854
O O21 0.750000 0.078934 0.234125
O O22 0.250000 0.150488 0.528267
O O23 0.530102 0.250000 0.527790
#
# Coordination Sequence:
#
# PCOD9447106 Si02
#       8
#     8   8   8   8   8   8   8   8
#     4  10  20  33  48  71  98 128 160 195 241 291
#     4   9  17  29  49  78 105 129 163 209 255 294
#     4   9  17  30  48  72 102 134 170 213 256 299
#     4  10  20  33  51  75 100 125 155 196 245 290
#     4   9  17  31  51  73  97 126 160 197 237 286
#     4   9  17  32  53  73  93 120 158 199 237 283
#     4  10  18  32  54  77  99 128 166 203 241 291
#     4   9  17  29  46  69  99 137 176 212 254 301
#
# _framework density 20.912927
#
# number of rings (size 3 to 8) (size 9 to 14) (size 15 to 20)
#    0.000    2.625    1.250    1.125    0.000    4.000 
#    0.000    1.250    0.000    5.250    0.000    0.000 
#    0.000    0.000    0.000    0.000    0.000    0.000 
#
# Total GULP energy -356852.583980 kJ/mol
# GULP energy per Si atom -5575.821625 kJ/mol
# Density = 2.086533 g / cm^3
# Si number density = 20.912927 Si / 1000 Ang^3
#
#
#
# Elastic Constant Matrix: (Units=GPa)
#
#
# Indices 1 2 3 4 5 6 
#
# 1 42.3296 5.2282 3.4002 0.0000 0.0000 0.0000
# 2 5.2282 147.1739 53.4892 0.0000 0.0000 0.0000
# 3 3.4002 53.4892 99.1077 0.0000 0.0000 0.0000
# 4 0.0000 0.0000 0.0000 24.0176 0.0000 0.0000
# 5 0.0000 0.0000 0.0000 0.0000 8.6071 0.0000
# 6 0.0000 0.0000 0.0000 0.0000 0.0000 0.9943
#
#
#
# Elastic Compliance Matrix: (Units=1/GPa)
#
#
# Indices 1 2 3 4 5 6 
#
# 1 0.023744 -0.000681 -0.000447 0.000000 0.000000 0.000000
# 2 -0.000681 0.008472 -0.004549 0.000000 0.000000 0.000000
# 3 -0.000447 -0.004549 0.012561 0.000000 0.000000 0.000000
# 4 0.000000 0.000000 0.000000 0.041636 0.000000 0.000000
# 5 0.000000 0.000000 0.000000 0.000000 0.116183 0.000000
# 6 0.000000 0.000000 0.000000 0.000000 0.000000 1.005713
#
#
# Mechanical properties :
#
#
# Convention : Reuss Voigt Hill
#
# Bulk Modulus (GPa) = 29.91995 45.87182 37.89588
# Shear Modulus (GPa) = 4.06238 21.82337 12.94288
#
# Velocity S-wave (km/s) = 1.39526 3.23388 2.49046
# Velocity P-wave (km/s) = 4.11505 5.99385 5.14101
#
# Compressibility (1/GPa) = 0.03342252
#
# Stress axis : x y z
#
# Youngs Moduli (GPa) = 42.11559 118.03256 79.61407
#
# Poissons Ratio (x) = 0.08038 0.03559
# Poissons Ratio (y) = 0.02868 0.36218
# Poissons Ratio (z) = 0.01883 0.53695
#
# Static dielectric constant tensor:
#      x y z
#    x 1.804090 0.000000 0.000000 
#    y 0.000000 1.774310 0.000000 
#    z 0.000000 0.000000 1.721770 
# 
# From -- ./inp_files/31602.got.cif
#   From: 2010.05.17/outbox.cif.g08.bks.cpg/sg59_16_cif.got.tgz:31602.got - 2010.06.03 14:40:33.
