data_PCOD9447882
_publ_section_title
;
Structure prediction by ZEFSAII (Michael W. Deem and Ramdas Pophale) SiO2 
 PCOD9447882
Probable space group: P M M N
;
_chemical_formula_sum "Si O2"
_cell_formula_units_Z 64
_cell_length_a 23.602693
_cell_length_b 8.997482
_cell_length_c 16.077537
_cell_angle_alpha 90.000000
_cell_angle_beta 90.000000
_cell_angle_gamma 90.000000
_cell_volume 3414.303017
_symmetry_space_group_name_H-M "P M M N"
_symmetry_group_IT_number 59
_space_group.IT_coordinate_system_code '2'
_symmetry_cell_setting 'orthorhombic'
loop_
_space_group_symop_operation_xyz
x,y,z
1/2-x,1/2-y,z
1/2+x,-y,-z
-x,1/2+y,-z
-x,-y,-z
1/2+x,1/2+y,-z
1/2-x,y,z
x,1/2-y,z
loop_
_atom_site_type_symbol
_atom_site_label
_atom_site_fract_x
_atom_site_fract_y
_atom_site_fract_z
Si Si1 0.133342 0.927486 0.759302
Si Si2 0.480648 0.081386 0.581262
Si Si3 0.345176 0.418462 0.587325
Si Si4 0.502488 0.074502 0.250514
Si Si5 0.684520 0.071697 0.587860
Si Si6 0.317822 0.923487 0.086292
Si Si7 0.681890 0.918422 0.080917
Si Si8 0.614473 0.428810 0.750865
O O1 0.134227 0.750000 0.749511
O O2 0.066852 0.972660 0.772058
O O3 0.161185 0.998186 0.676027
O O4 0.164573 0.980654 0.841726
O O5 0.503107 0.250000 0.591280
O O6 0.413089 0.089965 0.579863
O O7 0.500000 0.000000 0.500000
O O8 0.499526 0.972371 0.653601
O O9 0.322596 0.250000 0.591869
O O10 0.324529 0.498414 0.502985
O O11 0.497725 0.250000 0.236884
O O12 0.446170 0.992547 0.219930
O O13 0.750000 0.043919 0.613989
O O14 0.677812 0.250000 0.578598
O O15 0.640797 0.022278 0.661080
O O16 0.250000 0.934704 0.089838
O O17 0.332212 0.750000 0.072363
O O18 0.342602 0.968708 0.175093
O O19 0.338517 0.017292 0.007330
O O20 0.750000 0.916118 0.077191
O O21 0.661621 0.750000 0.094142
O O22 0.610428 0.250000 0.746040
#
# Coordination Sequence:
#
# PCOD9447882 Si02
#       8
#     8   8   8   8   8   8   8   8
#     4  10  21  38  59  81 108 145 185 224 269 323
#     4  10  19  31  49  72  99 133 174 219 264 311
#     4  10  21  35  51  74 104 138 176 218 265 315
#     4  10  21  35  52  77 108 141 181 226 270 321
#     4  10  21  36  53  76 108 145 185 227 270 321
#     4   9  18  35  59  85 112 143 182 226 271 325
#     4  10  21  37  59  87 114 139 172 219 274 328
#     4  10  20  35  57  82 109 145 186 227 273 322
#
# _framework density 18.744675000000001
#
# number of rings (size 3 to 8) (size 9 to 14) (size 15 to 20)
#    0.000    2.125    0.000    3.000    0.000    9.000 
#    0.000    0.625    0.000    2.250    0.000    0.000 
#    0.000    0.000    0.000    0.000    0.000    0.000 
#
# Total GULP energy -356683.600017 kJ/mol
# GULP energy per Si atom -5573.181250 kJ/mol
# Density = 1.870201 g / cm^3
# Si number density = 18.744675 Si / 1000 Ang^3
#
#
#
# Elastic Constant Matrix: (Units=GPa)
#
#
# Indices 1 2 3 4 5 6 
#
# 1 31.6934 24.9802 22.7360 0.0000 0.0000 0.0000
# 2 24.9802 32.9752 30.8115 0.0000 0.0000 0.0000
# 3 22.7360 30.8115 96.2429 0.0000 0.0000 0.0000
# 4 0.0000 0.0000 0.0000 22.3805 0.0000 0.0000
# 5 0.0000 0.0000 0.0000 0.0000 3.2242 0.0000
# 6 0.0000 0.0000 0.0000 0.0000 0.0000 25.0127
#
#
#
# Elastic Compliance Matrix: (Units=1/GPa)
#
#
# Indices 1 2 3 4 5 6 
#
# 1 0.078342 -0.060004 0.000703 0.000000 0.000000 0.000000
# 2 -0.060004 0.089228 -0.014390 0.000000 0.000000 0.000000
# 3 0.000703 -0.014390 0.014831 0.000000 0.000000 0.000000
# 4 0.000000 0.000000 0.000000 0.044682 0.000000 0.000000
# 5 0.000000 0.000000 0.000000 0.000000 0.310152 0.000000
# 6 0.000000 0.000000 0.000000 0.000000 0.000000 0.039980
#
#
# Mechanical properties :
#
#
# Convention : Reuss Voigt Hill
#
# Bulk Modulus (GPa) = 28.55723 35.32966 31.94344
# Shear Modulus (GPa) = 6.79097 15.61573 11.20335
#
# Velocity S-wave (km/s) = 1.90545 2.88944 2.44741
# Velocity P-wave (km/s) = 4.48430 5.47910 5.00647
#
# Compressibility (1/GPa) = 0.03501740
#
# Stress axis : x y z
#
# Youngs Moduli (GPa) = 12.76448 11.20727 67.42452
#
# Poissons Ratio (x) = 0.67248 -0.04738
# Poissons Ratio (y) = 0.76592 0.97027
# Poissons Ratio (z) = -0.00897 0.16128
#
# Static dielectric constant tensor:
#      x y z
#    x 1.688550 0.000000 0.000000 
#    y 0.000000 1.679560 0.000000 
#    z 0.000000 0.000000 1.566430 
# 
# From -- ./inp_files/21566.got.cif
#   From: 2010.05.17/outbox.cif.g08.bks.cpg/sg59_11_cif.got.tgz:21566.got - 2010.06.03 14:40:33.
