data_PCOD9447692
_publ_section_title
;
Structure prediction by ZEFSAII (Michael W. Deem and Ramdas Pophale) SiO2 
 PCOD9447692
Probable space group: P M M N
;
_chemical_formula_sum "Si O2"
_cell_formula_units_Z 64
_cell_length_a 31.839256
_cell_length_b 11.030998
_cell_length_c 10.166435
_cell_angle_alpha 90.000000
_cell_angle_beta 90.000000
_cell_angle_gamma 90.000000
_cell_volume 3570.642788
_symmetry_space_group_name_H-M "P M M N"
_symmetry_group_IT_number 59
_space_group.IT_coordinate_system_code '2'
_symmetry_cell_setting 'orthorhombic'
loop_
_space_group_symop_operation_xyz
x,y,z
1/2-x,1/2-y,z
1/2+x,-y,-z
-x,1/2+y,-z
-x,-y,-z
1/2+x,1/2+y,-z
1/2-x,y,z
x,1/2-y,z
loop_
_atom_site_type_symbol
_atom_site_label
_atom_site_fract_x
_atom_site_fract_y
_atom_site_fract_z
Si Si1 0.104850 0.886994 0.663413
Si Si2 0.962162 0.386980 0.107458
Si Si3 0.204920 0.393585 0.409187
Si Si4 0.953634 0.486395 0.816155
Si Si5 0.202853 0.104419 0.982834
Si Si6 0.831064 0.892107 0.308968
Si Si7 0.529274 0.385728 0.540375
Si Si8 0.637114 0.896404 0.795456
O O1 0.124060 0.750000 0.657732
O O2 0.077018 0.893353 0.795437
O O3 0.071903 0.896138 0.543790
O O4 0.134851 0.003046 0.667784
O O5 0.973606 0.250000 0.079743
O O6 0.002532 0.441223 0.180331
O O7 0.951516 0.442068 0.966446
O O8 0.250000 0.446226 0.368396
O O9 0.206338 0.250000 0.377957
O O10 0.199076 0.402146 0.565078
O O11 0.164498 0.438727 0.330203
O O12 0.959822 0.395295 0.694793
O O13 0.910140 0.556000 0.792128
O O14 0.250000 0.057726 0.012309
O O15 0.204671 0.250000 0.000998
O O16 0.191149 0.084605 0.830559
O O17 0.165346 0.063151 0.079000
O O18 0.846410 0.750000 0.306952
O O19 0.500000 0.500000 0.500000
O O20 0.511336 0.250000 0.512357
O O21 0.634590 0.750000 0.797402
#
# Coordination Sequence:
#
# PCOD9447692 Si02
#       8
#     8   8   8   8   8   8   8   8
#     4  10  21  38  55  77 111 151 183 220 277 329
#     4  10  21  37  54  74 107 147 183 224 277 328
#     4   9  17  30  49  75 107 139 172 216 276 336
#     4  11  21  35  55  80 106 139 188 233 270 324
#     4   9  17  30  49  76 111 145 178 222 279 335
#     4  10  19  32  53  82 108 139 182 228 271 317
#     4  11  23  39  58  81 109 145 188 229 276 329
#     4  10  19  30  49  77 108 142 181 226 276 326
#
# _framework density 17.923943999999999
#
# number of rings (size 3 to 8) (size 9 to 14) (size 15 to 20)
#    0.000    2.000    1.250    3.000    0.000    4.000 
#    0.000    0.625    0.000    1.500    0.000    0.000 
#    0.000   10.000    0.000    0.000    0.000    0.000 
#
# Total GULP energy -356398.124491 kJ/mol
# GULP energy per Si atom -5568.720695 kJ/mol
# Density = 1.788315 g / cm^3
# Si number density = 17.923944 Si / 1000 Ang^3
#
#
#
# Elastic Constant Matrix: (Units=GPa)
#
#
# Indices 1 2 3 4 5 6 
#
# 1 113.1523 36.9451 -7.1912 0.0000 0.0000 0.0000
# 2 36.9451 80.2669 18.0405 0.0000 0.0000 0.0000
# 3 -7.1912 18.0405 96.6048 0.0000 0.0000 0.0000
# 4 0.0000 0.0000 0.0000 16.5055 0.0000 0.0000
# 5 0.0000 0.0000 0.0000 0.0000 7.6568 0.0000
# 6 0.0000 0.0000 0.0000 0.0000 0.0000 25.1717
#
#
#
# Elastic Compliance Matrix: (Units=1/GPa)
#
#
# Indices 1 2 3 4 5 6 
#
# 1 0.010689 -0.005322 0.001790 0.000000 0.000000 0.000000
# 2 -0.005322 0.015654 -0.003320 0.000000 0.000000 0.000000
# 3 0.001790 -0.003320 0.011105 0.000000 0.000000 0.000000
# 4 0.000000 0.000000 0.000000 0.060586 0.000000 0.000000
# 5 0.000000 0.000000 0.000000 0.000000 0.130604 0.000000
# 6 0.000000 0.000000 0.000000 0.000000 0.000000 0.039727
#
#
# Mechanical properties :
#
#
# Convention : Reuss Voigt Hill
#
# Bulk Modulus (GPa) = 42.11654 42.84585 42.48119
# Shear Modulus (GPa) = 17.24238 26.01545 21.62891
#
# Velocity S-wave (km/s) = 3.10494 3.81390 3.47753
# Velocity P-wave (km/s) = 6.03345 6.58412 6.31479
#
# Compressibility (1/GPa) = 0.02374364
#
# Stress axis : x y z
#
# Youngs Moduli (GPa) = 93.55311 63.88062 90.05294
#
# Poissons Ratio (x) = 0.33998 -0.16116
# Poissons Ratio (y) = 0.49791 0.29893
# Poissons Ratio (z) = -0.16742 0.21205
#
# Static dielectric constant tensor:
#      x y z
#    x 1.546550 0.000000 0.000000 
#    y 0.000000 28.453110 0.000000 
#    z 0.000000 0.000000 4.335830 
# 
# From -- ./inp_files/13220.got.cif
#   From: 2010.05.17/outbox.cif.g08.bks.cpg/sg59_7_cif.got.tgz:13220.got - 2010.06.03 14:40:33.
