data_PCOD9447340
_publ_section_title
;
Structure prediction by ZEFSAII (Michael W. Deem and Ramdas Pophale) SiO2 
 PCOD9447340
Probable space group: P M M N
;
_chemical_formula_sum "Si O2"
_cell_formula_units_Z 64
_cell_length_a 18.130621
_cell_length_b 9.342480
_cell_length_c 22.266548
_cell_angle_alpha 90.000000
_cell_angle_beta 90.000000
_cell_angle_gamma 90.000000
_cell_volume 3771.618433
_symmetry_space_group_name_H-M "P M M N"
_symmetry_group_IT_number 59
_space_group.IT_coordinate_system_code '2'
_symmetry_cell_setting 'orthorhombic'
loop_
_space_group_symop_operation_xyz
x,y,z
1/2-x,1/2-y,z
1/2+x,-y,-z
-x,1/2+y,-z
-x,-y,-z
1/2+x,1/2+y,-z
1/2-x,y,z
x,1/2-y,z
loop_
_atom_site_type_symbol
_atom_site_label
_atom_site_fract_x
_atom_site_fract_y
_atom_site_fract_z
Si Si1 0.482918 0.920796 0.938189
Si Si2 0.339715 0.416589 0.523681
Si Si3 0.839555 0.917196 0.609504
Si Si4 0.339161 0.581811 0.642789
Si Si5 0.890519 0.917393 0.240393
Si Si6 0.546226 0.418400 0.825765
Si Si7 0.163683 0.578590 0.271757
Si Si8 0.831767 0.081734 0.127627
O O1 0.493313 0.750000 0.943146
O O2 0.398208 0.948562 0.917914
O O3 0.531582 0.987014 0.884332
O O4 0.500000 0.000000 0.000000
O O5 0.250000 0.419912 0.522910
O O6 0.360584 0.250000 0.532166
O O7 0.364487 0.464252 0.457059
O O8 0.363111 0.512949 0.579456
O O9 0.750000 0.926888 0.609150
O O10 0.858342 0.750000 0.616389
O O11 0.864648 0.006117 0.666993
O O12 0.250000 0.565254 0.647719
O O13 0.355666 0.750000 0.644711
O O14 0.375669 0.499713 0.698135
O O15 0.872816 0.750000 0.247226
O O16 0.974534 0.930351 0.217137
O O17 0.843175 0.988599 0.187178
O O18 0.553117 0.250000 0.842476
O O19 0.616044 0.462887 0.786014
O O20 0.250000 0.542250 0.264009
O O21 0.157896 0.750000 0.278169
O O22 0.750000 0.057548 0.102536
O O23 0.837828 0.250000 0.144212
#
# Coordination Sequence:
#
# PCOD9447340 Si02
#       8
#     8   8   8   8   8   8   8   8
#     4  10  20  35  56  78 101 132 164 193 230 276
#     4   8  14  25  40  59  86 120 156 193 236 286
#     4   8  14  25  42  65  92 120 151 192 241 288
#     4  10  19  28  40  62  92 123 156 197 240 280
#     4  10  19  30  46  67  93 126 159 193 235 281
#     4   9  19  35  52  72  98 126 157 192 230 276
#     4   9  17  30  50  74  97 122 154 194 239 284
#     4   9  18  33  52  74  99 126 160 200 236 272
#
# _framework density 16.968843
#
# number of rings (size 3 to 8) (size 9 to 14) (size 15 to 20)
#    0.000    2.875    0.000    2.250    0.000    4.500 
#    0.000    3.125    0.000    4.500    0.000    0.000 
#    0.000    0.000    0.000    0.000    0.000    0.000 
#
# Total GULP energy -356645.534603 kJ/mol
# GULP energy per Si atom -5572.586478 kJ/mol
# Density = 1.693022 g / cm^3
# Si number density = 16.968843 Si / 1000 Ang^3
#
#
#
# Elastic Constant Matrix: (Units=GPa)
#
#
# Indices 1 2 3 4 5 6 
#
# 1 42.4013 39.6773 56.3535 0.0000 0.0000 0.0000
# 2 39.6773 81.8186 93.4286 0.0000 0.0000 0.0000
# 3 56.3535 93.4286 173.3106 0.0000 0.0000 0.0000
# 4 0.0000 0.0000 0.0000 36.4454 0.0000 0.0000
# 5 0.0000 0.0000 0.0000 0.0000 14.1191 0.0000
# 6 0.0000 0.0000 0.0000 0.0000 0.0000 16.9887
#
#
#
# Elastic Compliance Matrix: (Units=1/GPa)
#
#
# Indices 1 2 3 4 5 6 
#
# 1 0.046885 -0.013860 -0.007773 0.000000 0.000000 0.000000
# 2 -0.013860 0.035891 -0.014841 0.000000 0.000000 0.000000
# 3 -0.007773 -0.014841 0.016298 0.000000 0.000000 0.000000
# 4 0.000000 0.000000 0.000000 0.027438 0.000000 0.000000
# 5 0.000000 0.000000 0.000000 0.000000 0.070826 0.000000
# 6 0.000000 0.000000 0.000000 0.000000 0.000000 0.058863
#
#
# Mechanical properties :
#
#
# Convention : Reuss Voigt Hill
#
# Bulk Modulus (GPa) = 38.27826 75.16103 56.71965
# Shear Modulus (GPa) = 14.79903 20.71537 17.75720
#
# Velocity S-wave (km/s) = 2.95639 3.49777 3.23841
# Velocity P-wave (km/s) = 5.85325 7.79116 6.89068
#
# Compressibility (1/GPa) = 0.02612449
#
# Stress axis : x y z
#
# Youngs Moduli (GPa) = 21.32867 27.86211 61.35623
#
# Poissons Ratio (x) = 0.38618 0.47694
# Poissons Ratio (y) = 0.29562 0.91061
# Poissons Ratio (z) = 0.16579 0.41351
#
# Static dielectric constant tensor:
#      x y z
#    x 1.584920 0.000000 0.000000 
#    y 0.000000 1.565810 0.000000 
#    z 0.000000 0.000000 1.554720 
# 
# From -- ./inp_files/30706.got.cif
#   From: 2010.05.17/outbox.cif.g08.bks.cpg/sg59_16_cif.got.tgz:30706.got - 2010.06.03 14:40:33.
