data_PCOD9447311
_publ_section_title
;
Structure prediction by ZEFSAII (Michael W. Deem and Ramdas Pophale) SiO2 
 PCOD9447311
Probable space group: P M M N
;
_chemical_formula_sum "Si O2"
_cell_formula_units_Z 56
_cell_length_a 8.539885
_cell_length_b 24.063019
_cell_length_c 16.028697
_cell_angle_alpha 90.000000
_cell_angle_beta 90.000000
_cell_angle_gamma 90.000000
_cell_volume 3293.823742
_symmetry_space_group_name_H-M "P M M N"
_symmetry_group_IT_number 59
_space_group.IT_coordinate_system_code '2'
_symmetry_cell_setting 'orthorhombic'
loop_
_space_group_symop_operation_xyz
x,y,z
1/2-x,1/2-y,z
1/2+x,-y,-z
-x,1/2+y,-z
-x,-y,-z
1/2+x,1/2+y,-z
1/2-x,y,z
x,1/2-y,z
loop_
_atom_site_type_symbol
_atom_site_label
_atom_site_fract_x
_atom_site_fract_y
_atom_site_fract_z
Si Si1 0.440989 0.368772 0.159617
Si Si2 0.560907 0.433114 0.681509
Si Si3 0.062279 0.134157 0.838281
Si Si4 0.438890 0.063285 0.320908
Si Si5 0.061178 0.062142 0.997559
Si Si6 0.939869 0.750000 0.906168
Si Si7 0.062657 0.937043 0.503065
Si Si8 0.936243 0.250000 0.903522
O O1 0.250000 0.368853 0.161425
O O2 0.493397 0.398564 0.244393
O O3 0.490434 0.305680 0.141895
O O4 0.490281 0.404924 0.079888
O O5 0.750000 0.432135 0.687940
O O6 0.490681 0.394720 0.752925
O O7 0.512093 0.498346 0.690392
O O8 0.517672 0.413345 0.587701
O O9 0.250000 0.137836 0.840442
O O10 0.009801 0.094689 0.914872
O O11 0.994090 0.194912 0.856095
O O12 0.250000 0.062709 0.322032
O O13 0.496283 0.085700 0.410308
O O14 0.250000 0.061288 0.997593
O O15 0.000000 0.000000 0.000000
O O16 0.750000 0.750000 0.909947
O O17 0.997379 0.750000 0.001778
O O18 0.250000 0.937579 0.507296
O O19 0.000000 0.000000 0.500000
O O20 0.750000 0.250000 0.907899
#
# Coordination Sequence:
#
# PCOD9447311 Si02
#       8
#     8   8   8   8   8   4   8   4
#     4   9  17  31  52  73  99 135 171 212 257 300
#     4   9  18  32  50  74 106 137 169 212 263 315
#     4  11  22  36  55  76 101 135 176 218 257 305
#     4   9  17  30  50  77 107 139 173 209 257 314
#     4  10  20  33  49  72 103 136 166 204 255 308
#     4  10  18  36  58  73  98 135 180 219 252 302
#     4   9  17  30  49  73 104 139 171 209 257 310
#     4  12  24  38  56  75 100 135 176 221 264 306
#
# _framework density 17.001517
#
# number of rings (size 3 to 8) (size 9 to 14) (size 15 to 20)
#    0.000    2.286    1.429    3.214    0.000    5.143 
#    0.000    1.429    0.000    0.857    0.000    3.000 
#    0.000    0.000    0.000    0.000    0.000    0.000 
#
# Total GULP energy -312263.171244 kJ/mol
# GULP energy per Si atom -5576.128058 kJ/mol
# Density = 1.696282 g / cm^3
# Si number density = 17.001517 Si / 1000 Ang^3
#
#
#
# Elastic Constant Matrix: (Units=GPa)
#
#
# Indices 1 2 3 4 5 6 
#
# 1 19.1802 23.3795 27.7949 0.0000 0.0000 0.0000
# 2 23.3795 132.7906 84.1705 0.0000 0.0000 0.0000
# 3 27.7949 84.1705 178.4766 0.0000 0.0000 0.0000
# 4 0.0000 0.0000 0.0000 3.6856 0.0000 0.0000
# 5 0.0000 0.0000 0.0000 0.0000 27.8781 0.0000
# 6 0.0000 0.0000 0.0000 0.0000 0.0000 21.1616
#
#
#
# Elastic Compliance Matrix: (Units=1/GPa)
#
#
# Indices 1 2 3 4 5 6 
#
# 1 0.072895 -0.008043 -0.007559 0.000000 0.000000 0.000000
# 2 -0.008043 0.011629 -0.004232 0.000000 0.000000 0.000000
# 3 -0.007559 -0.004232 0.008776 0.000000 0.000000 0.000000
# 4 0.000000 0.000000 0.000000 0.271324 0.000000 0.000000
# 5 0.000000 0.000000 0.000000 0.000000 0.035870 0.000000
# 6 0.000000 0.000000 0.000000 0.000000 0.000000 0.047255
#
#
# Mechanical properties :
#
#
# Convention : Reuss Voigt Hill
#
# Bulk Modulus (GPa) = 18.64540 66.79303 42.71922
# Shear Modulus (GPa) = 9.89523 23.55190 16.72356
#
# Velocity S-wave (km/s) = 2.41513 3.72598 3.13972
# Velocity P-wave (km/s) = 4.33219 7.60804 6.19073
#
# Compressibility (1/GPa) = 0.05363252
#
# Stress axis : x y z
#
# Youngs Moduli (GPa) = 13.71839 85.99183 113.94755
#
# Poissons Ratio (x) = 0.69159 0.86137
# Poissons Ratio (y) = 0.11033 0.48220
# Poissons Ratio (z) = 0.10370 0.36390
#
# Static dielectric constant tensor:
#      x y z
#    x 1.585740 0.000000 0.000000 
#    y 0.000000 1.543950 0.000000 
#    z 0.000000 0.000000 1.588650 
# 
# From -- ./inp_files/21196.got.cif
#   From: 2010.05.17/outbox.cif.g08.bks.cpg/sg59_11_cif.got.tgz:21196.got - 2010.06.03 14:40:33.
