data_PCOD9447280
_publ_section_title
;
Structure prediction by ZEFSAII (Michael W. Deem and Ramdas Pophale) SiO2 
 PCOD9447280
Probable space group: P M M N
;
_chemical_formula_sum "Si O2"
_cell_formula_units_Z 64
_cell_length_a 25.708692
_cell_length_b 8.097730
_cell_length_c 14.793783
_cell_angle_alpha 90.000000
_cell_angle_beta 90.000000
_cell_angle_gamma 90.000000
_cell_volume 3079.800020
_symmetry_space_group_name_H-M "P M M N"
_symmetry_group_IT_number 59
_space_group.IT_coordinate_system_code '2'
_symmetry_cell_setting 'orthorhombic'
loop_
_space_group_symop_operation_xyz
x,y,z
1/2-x,1/2-y,z
1/2+x,-y,-z
-x,1/2+y,-z
-x,-y,-z
1/2+x,1/2+y,-z
1/2-x,y,z
x,1/2-y,z
loop_
_atom_site_type_symbol
_atom_site_label
_atom_site_fract_x
_atom_site_fract_y
_atom_site_fract_z
Si Si1 0.555922 0.058664 0.037817
Si Si2 0.976482 0.938849 0.710908
Si Si3 0.693491 0.952307 0.318221
Si Si4 0.809598 0.548701 0.715972
Si Si5 0.944308 0.064296 0.530752
Si Si6 0.834185 0.559217 0.514454
Si Si7 0.085353 0.443336 0.766394
Si Si8 0.604644 0.553373 0.861416
O O1 0.551030 0.250000 0.062494
O O2 0.574618 0.964935 0.127237
O O3 0.500000 0.000000 0.000000
O O4 0.597067 0.033588 0.956831
O O5 0.964915 0.750000 0.683876
O O6 0.949412 0.967081 0.806820
O O7 0.037733 0.966981 0.716462
O O8 0.948952 0.054618 0.638804
O O9 0.750000 0.001293 0.281030
O O10 0.692192 0.750000 0.319412
O O11 0.689531 0.010706 0.422470
O O12 0.642117 0.004656 0.264020
O O13 0.750000 0.508856 0.738323
O O14 0.814758 0.750000 0.712965
O O15 0.821354 0.487746 0.613584
O O16 0.850134 0.494749 0.793071
O O17 0.935420 0.250000 0.499439
O O18 0.896150 0.953497 0.501698
O O19 0.000000 0.000000 0.500000
O O20 0.817499 0.750000 0.518429
O O21 0.081434 0.250000 0.743101
O O22 0.611739 0.750000 0.876982
#
# Coordination Sequence:
#
# PCOD9447280 Si02
#       8
#     8   8   8   8   8   8   8   8
#     4  12  24  39  61  87 116 152 196 244 299 355
#     4  11  21  36  58  85 120 155 188 236 294 353
#     4   9  19  36  60  89 118 151 196 247 291 337
#     4   9  17  32  58  89 119 153 195 239 284 340
#     4  12  24  36  52  78 117 160 202 244 295 352
#     4  10  18  34  59  88 118 151 196 244 292 345
#     4  11  22  37  60  90 121 155 196 242 294 353
#     4  10  20  36  58  87 120 152 189 236 290 349
#
# _framework density 20.780571999999999
#
# number of rings (size 3 to 8) (size 9 to 14) (size 15 to 20)
#    0.000    1.500    2.500    4.125    0.000    3.000 
#    0.000    1.250    0.000    9.375    0.000    0.000 
#    0.000    0.000    0.000    0.000    0.000    0.000 
#
# Total GULP energy -357508.377625 kJ/mol
# GULP energy per Si atom -5586.068400 kJ/mol
# Density = 2.073327 g / cm^3
# Si number density = 20.780572 Si / 1000 Ang^3
#
#
#
# Elastic Constant Matrix: (Units=GPa)
#
#
# Indices 1 2 3 4 5 6 
#
# 1 144.1870 -2.5468 34.3549 0.0000 0.0000 0.0000
# 2 -2.5468 30.5903 -1.6921 0.0000 0.0000 0.0000
# 3 34.3549 -1.6921 70.2233 0.0000 0.0000 0.0000
# 4 0.0000 0.0000 0.0000 19.4554 0.0000 0.0000
# 5 0.0000 0.0000 0.0000 0.0000 20.0442 0.0000
# 6 0.0000 0.0000 0.0000 0.0000 0.0000 15.8956
#
#
#
# Elastic Compliance Matrix: (Units=1/GPa)
#
#
# Indices 1 2 3 4 5 6 
#
# 1 0.007857 0.000442 -0.003833 0.000000 0.000000 0.000000
# 2 0.000442 0.032759 0.000573 0.000000 0.000000 0.000000
# 3 -0.003833 0.000573 0.016129 0.000000 0.000000 0.000000
# 4 0.000000 0.000000 0.000000 0.051400 0.000000 0.000000
# 5 0.000000 0.000000 0.000000 0.000000 0.049890 0.000000
# 6 0.000000 0.000000 0.000000 0.000000 0.000000 0.062910
#
#
# Mechanical properties :
#
#
# Convention : Reuss Voigt Hill
#
# Bulk Modulus (GPa) = 19.56609 33.91475 26.74042
# Shear Modulus (GPa) = 20.52411 25.40469 22.96440
#
# Velocity S-wave (km/s) = 3.14611 3.50025 3.32790
# Velocity P-wave (km/s) = 4.75745 5.71765 5.25951
#
# Compressibility (1/GPa) = 0.05110882
#
# Stress axis : x y z
#
# Youngs Moduli (GPa) = 127.28303 30.52628 61.99915
#
# Poissons Ratio (x) = -0.01350 0.23764
# Poissons Ratio (y) = -0.05627 -0.03553
# Poissons Ratio (z) = 0.48787 -0.01749
#
# Static dielectric constant tensor:
#      x y z
#    x 1.739580 0.000000 0.000000 
#    y 0.000000 1.748700 0.000000 
#    z 0.000000 0.000000 1.774210 
# 
# From -- ./inp_files/24750.got.cif
#   From: 2010.05.17/outbox.cif.g08.bks.cpg/sg59_13_cif.got.tgz:24750.got - 2010.06.03 14:40:33.
