data_PCOD9447774
_publ_section_title
;
Structure prediction by ZEFSAII (Michael W. Deem and Ramdas Pophale) SiO2 
 PCOD9447774
Probable space group: P M M N
;
_chemical_formula_sum "Si O2"
_cell_formula_units_Z 64
_cell_length_a 7.388004
_cell_length_b 22.168439
_cell_length_c 17.315819
_cell_angle_alpha 90.000000
_cell_angle_beta 90.000000
_cell_angle_gamma 90.000000
_cell_volume 2835.993771
_symmetry_space_group_name_H-M "P M M N"
_symmetry_group_IT_number 59
_space_group.IT_coordinate_system_code '2'
_symmetry_cell_setting 'orthorhombic'
loop_
_space_group_symop_operation_xyz
x,y,z
1/2-x,1/2-y,z
1/2+x,-y,-z
-x,1/2+y,-z
-x,-y,-z
1/2+x,1/2+y,-z
1/2-x,y,z
x,1/2-y,z
loop_
_atom_site_type_symbol
_atom_site_label
_atom_site_fract_x
_atom_site_fract_y
_atom_site_fract_z
Si Si1 0.534080 0.435341 0.091961
Si Si2 0.971565 0.317138 0.183182
Si Si3 0.971201 0.680269 0.195671
Si Si4 0.542097 0.138622 0.347172
Si Si5 0.533030 0.487087 0.409127
Si Si6 0.529228 0.889714 0.349077
Si Si7 0.466848 0.185045 0.508418
Si Si8 0.033891 0.430983 0.909250
O O1 0.750000 0.436906 0.104473
O O2 0.466844 0.375434 0.134819
O O3 0.465590 0.502252 0.116246
O O4 0.500625 0.428174 0.000675
O O5 0.750000 0.315911 0.179841
O O6 0.030238 0.250000 0.158132
O O7 0.031465 0.329622 0.271302
O O8 0.750000 0.681855 0.194249
O O9 0.029822 0.750000 0.184718
O O10 0.026978 0.652064 0.278247
O O11 0.031308 0.629450 0.133765
O O12 0.750000 0.125133 0.326519
O O13 0.459259 0.076136 0.377939
O O14 0.539561 0.179463 0.422814
O O15 0.500000 0.500000 0.500000
O O16 0.750000 0.484800 0.404137
O O17 0.472335 0.540964 0.352887
O O18 0.750000 0.888373 0.348061
O O19 0.468244 0.863990 0.431450
O O20 0.250000 0.179872 0.502416
O O21 0.509878 0.250000 0.542460
O O22 0.250000 0.431945 0.896699
#
# Coordination Sequence:
#
# PCOD9447774 Si02
#       8
#     8   8   8   8   8   8   8   8
#     4   9  18  33  53  74  98 129 162 193 235 292
#     4   9  18  32  50  73  99 127 163 204 241 283
#     4   9  17  29  48  75 102 127 159 200 244 286
#     4  10  20  32  49  72  98 126 162 206 250 289
#     4  10  19  31  49  72  95 125 164 205 249 294
#     4   9  17  29  46  69  98 126 159 202 242 283
#     4  10  19  31  48  68  94 131 168 200 240 289
#     4   9  18  32  52  77 102 125 155 198 242 285
#
# _framework density 22.567046000000001
#
# number of rings (size 3 to 8) (size 9 to 14) (size 15 to 20)
#    0.000    2.625    1.250    0.750    1.750    2.750 
#    0.000    0.625    0.000    2.250    0.000    0.000 
#    0.000    0.000    0.000    0.000    0.000    0.000 
#
# Total GULP energy -357029.556858 kJ/mol
# GULP energy per Si atom -5578.586826 kJ/mol
# Density = 2.251568 g / cm^3
# Si number density = 22.567046 Si / 1000 Ang^3
#
#
#
# Elastic Constant Matrix: (Units=GPa)
#
#
# Indices 1 2 3 4 5 6 
#
# 1 75.0889 10.7519 -5.9481 0.0000 0.0000 0.0000
# 2 10.7519 224.0404 80.1171 0.0000 0.0000 0.0000
# 3 -5.9481 80.1171 90.8532 0.0000 0.0000 0.0000
# 4 0.0000 0.0000 0.0000 35.2098 0.0000 0.0000
# 5 0.0000 0.0000 0.0000 0.0000 12.3804 0.0000
# 6 0.0000 0.0000 0.0000 0.0000 0.0000 5.6782
#
#
#
# Elastic Compliance Matrix: (Units=1/GPa)
#
#
# Indices 1 2 3 4 5 6 
#
# 1 0.013693 -0.001428 0.002156 0.000000 0.000000 0.000000
# 2 -0.001428 0.006668 -0.005974 0.000000 0.000000 0.000000
# 3 0.002156 -0.005974 0.016416 0.000000 0.000000 0.000000
# 4 0.000000 0.000000 0.000000 0.028401 0.000000 0.000000
# 5 0.000000 0.000000 0.000000 0.000000 0.080773 0.000000
# 6 0.000000 0.000000 0.000000 0.000000 0.000000 0.176113
#
#
# Mechanical properties :
#
#
# Convention : Reuss Voigt Hill
#
# Bulk Modulus (GPa) = 38.04496 62.20271 50.12384
# Shear Modulus (GPa) = 14.64910 30.99111 22.82011
#
# Velocity S-wave (km/s) = 2.55058 3.70981 3.18341
# Velocity P-wave (km/s) = 5.05660 6.78039 5.98092
#
# Compressibility (1/GPa) = 0.02628469
#
# Stress axis : x y z
#
# Youngs Moduli (GPa) = 73.03116 149.96494 60.91723
#
# Poissons Ratio (x) = 0.21415 -0.13132
# Poissons Ratio (y) = 0.10429 0.36390
# Poissons Ratio (z) = -0.15744 0.89585
#
# Static dielectric constant tensor:
#      x y z
#    x 1.892920 0.000000 0.000000 
#    y 0.000000 1.849550 0.000000 
#    z 0.000000 0.000000 1.785880 
# 
# From -- ./inp_files/26277.got.cif
#   From: 2010.05.17/outbox.cif.g08.bks.cpg/sg59_14_cif.got.tgz:26277.got - 2010.06.03 14:40:33.
