data_PCOD9447773
_publ_section_title
;
Structure prediction by ZEFSAII (Michael W. Deem and Ramdas Pophale) SiO2 
 PCOD9447773
Probable space group: P M M N
;
_chemical_formula_sum "Si O2"
_cell_formula_units_Z 64
_cell_length_a 7.679076
_cell_length_b 17.519849
_cell_length_c 23.869016
_cell_angle_alpha 90.000000
_cell_angle_beta 90.000000
_cell_angle_gamma 90.000000
_cell_volume 3211.247951
_symmetry_space_group_name_H-M "P M M N"
_symmetry_group_IT_number 59
_space_group.IT_coordinate_system_code '2'
_symmetry_cell_setting 'orthorhombic'
loop_
_space_group_symop_operation_xyz
x,y,z
1/2-x,1/2-y,z
1/2+x,-y,-z
-x,1/2+y,-z
-x,-y,-z
1/2+x,1/2+y,-z
1/2-x,y,z
x,1/2-y,z
loop_
_atom_site_type_symbol
_atom_site_label
_atom_site_fract_x
_atom_site_fract_y
_atom_site_fract_z
Si Si1 0.460815 0.582989 0.426592
Si Si2 0.963347 0.163372 0.461552
Si Si3 0.962042 0.333958 0.685234
Si Si4 0.549584 0.068261 0.361992
Si Si5 0.548207 0.016336 0.747224
Si Si6 0.043047 0.917876 0.972376
Si Si7 0.953419 0.665352 0.080191
Si Si8 0.546156 0.506094 0.128582
O O1 0.250000 0.574519 0.426993
O O2 0.520089 0.609114 0.487593
O O3 0.503272 0.645954 0.379228
O O4 0.538520 0.504971 0.403181
O O5 0.750000 0.160329 0.461001
O O6 0.013863 0.250000 0.473088
O O7 0.024188 0.135157 0.400798
O O8 0.750000 0.334459 0.688479
O O9 0.023647 0.250000 0.701090
O O10 0.026340 0.403784 0.723255
O O11 0.750000 0.084946 0.349076
O O12 0.464878 0.043139 0.303868
O O13 0.750000 0.029121 0.759481
O O14 0.466678 0.992902 0.805667
O O15 0.250000 0.903512 0.973028
O O16 0.978692 0.935666 0.909281
O O17 0.964172 0.855488 0.014095
O O18 0.000000 0.000000 0.000000
O O19 0.750000 0.669351 0.095911
O O20 0.028927 0.750000 0.091036
O O21 0.028815 0.590042 0.111729
O O22 0.750000 0.510953 0.113127
#
# Coordination Sequence:
#
# PCOD9447773 Si02
#       8
#     8   8   8   8   8   8   8   8
#     4   9  16  28  48  70  92 119 152 190 230 280
#     4   9  17  29  48  73  94 116 151 193 238 287
#     4   8  14  25  41  62  88 117 149 186 226 267
#     4  10  19  31  48  68  94 125 155 193 238 285
#     4  10  20  32  48  68  90 122 164 203 235 274
#     4   9  17  30  49  72  98 129 164 199 234 275
#     4   9  18  32  50  75 108 138 158 186 236 290
#     4   9  18  32  49  70  97 128 162 199 237 277
#
# _framework density 19.929946000000001
#
# number of rings (size 3 to 8) (size 9 to 14) (size 15 to 20)
#    0.000    2.875    0.000    3.375    0.000    4.750 
#    0.000    0.625    0.000   16.125    0.000    1.750 
#    0.000    0.000    0.000    0.000    0.000    0.000 
#
# Total GULP energy -356559.535635 kJ/mol
# GULP energy per Si atom -5571.242744 kJ/mol
# Density = 1.988458 g / cm^3
# Si number density = 19.929946 Si / 1000 Ang^3
#
#
#
# Elastic Constant Matrix: (Units=GPa)
#
#
# Indices 1 2 3 4 5 6 
#
# 1 34.1933 -5.9794 -8.1594 0.0000 0.0000 0.0000
# 2 -5.9794 16.1450 8.3461 0.0000 0.0000 0.0000
# 3 -8.1594 8.3461 102.9151 0.0000 0.0000 0.0000
# 4 0.0000 0.0000 0.0000 12.7266 0.0000 0.0000
# 5 0.0000 0.0000 0.0000 0.0000 16.2597 0.0000
# 6 0.0000 0.0000 0.0000 0.0000 0.0000 10.6523
#
#
#
# Elastic Compliance Matrix: (Units=1/GPa)
#
#
# Indices 1 2 3 4 5 6 
#
# 1 0.031528 0.010839 0.001621 0.000000 0.000000 0.000000
# 2 0.010839 0.068375 -0.004686 0.000000 0.000000 0.000000
# 3 0.001621 -0.004686 0.010225 0.000000 0.000000 0.000000
# 4 0.000000 0.000000 0.000000 0.078576 0.000000 0.000000
# 5 0.000000 0.000000 0.000000 0.000000 0.061502 0.000000
# 6 0.000000 0.000000 0.000000 0.000000 0.000000 0.093876
#
#
# Mechanical properties :
#
#
# Convention : Reuss Voigt Hill
#
# Bulk Modulus (GPa) = 7.95705 15.74090 11.84897
# Shear Modulus (GPa) = 13.49797 18.53078 16.01438
#
# Velocity S-wave (km/s) = 2.60527 3.05256 2.83774
# Velocity P-wave (km/s) = 3.61262 4.50993 4.08598
#
# Compressibility (1/GPa) = 0.12567470
#
# Stress axis : x y z
#
# Youngs Moduli (GPa) = 31.71826 14.62526 97.79731
#
# Poissons Ratio (x) = -0.15852 -0.15849
# Poissons Ratio (y) = -0.34378 0.45825
# Poissons Ratio (z) = -0.05140 0.06853
#
# Static dielectric constant tensor:
#      x y z
#    x 1.752890 0.000000 0.000000 
#    y 0.000000 1.714890 0.000000 
#    z 0.000000 0.000000 1.720500 
# 
# From -- ./inp_files/31773.got.cif
#   From: 2010.05.17/outbox.cif.g08.bks.cpg/sg59_16_cif.got.tgz:31773.got - 2010.06.03 14:40:33.
