data_PCOD9447802
_publ_section_title
;
Structure prediction by ZEFSAII (Michael W. Deem and Ramdas Pophale) SiO2 
 PCOD9447802
Probable space group: P M M N
;
_chemical_formula_sum "Si O2"
_cell_formula_units_Z 64
_cell_length_a 30.717609
_cell_length_b 8.651928
_cell_length_c 13.449450
_cell_angle_alpha 90.000000
_cell_angle_beta 90.000000
_cell_angle_gamma 90.000000
_cell_volume 3574.413810
_symmetry_space_group_name_H-M "P M M N"
_symmetry_group_IT_number 59
_space_group.IT_coordinate_system_code '2'
_symmetry_cell_setting 'orthorhombic'
loop_
_space_group_symop_operation_xyz
x,y,z
1/2-x,1/2-y,z
1/2+x,-y,-z
-x,1/2+y,-z
-x,-y,-z
1/2+x,1/2+y,-z
1/2-x,y,z
x,1/2-y,z
loop_
_atom_site_type_symbol
_atom_site_label
_atom_site_fract_x
_atom_site_fract_y
_atom_site_fract_z
Si Si1 0.199292 0.565038 0.205542
Si Si2 0.300543 0.063304 0.419587
Si Si3 0.363447 0.436414 0.036151
Si Si4 0.527762 0.070360 0.235176
Si Si5 0.038025 0.430290 0.067246
Si Si6 0.460527 0.071898 0.558615
Si Si7 0.617305 0.563392 0.181628
Si Si8 0.864869 0.938527 0.407104
O O1 0.250000 0.516026 0.193129
O O2 0.198030 0.750000 0.208750
O O3 0.184070 0.500747 0.312945
O O4 0.170167 0.506505 0.114295
O O5 0.250000 0.018363 0.430922
O O6 0.302861 0.250000 0.415325
O O7 0.327881 0.011542 0.515914
O O8 0.361989 0.250000 0.047129
O O9 0.412979 0.491168 0.059460
O O10 0.356134 0.471867 0.918877
O O11 0.532880 0.250000 0.265979
O O12 0.482893 0.057262 0.176164
O O13 0.528491 0.954617 0.326558
O O14 0.570498 0.020499 0.173211
O O15 0.040862 0.250000 0.039789
O O16 0.000000 0.500000 0.000000
O O17 0.458059 0.250000 0.531365
O O18 0.411586 0.006831 0.550351
O O19 0.500000 0.000000 0.500000
O O20 0.610506 0.750000 0.183382
O O21 0.637070 0.518316 0.289722
O O22 0.865059 0.750000 0.406876
#
# Coordination Sequence:
#
# PCOD9447802 Si02
#       8
#     8   8   8   8   8   8   8   8
#     4  10  22  39  56  76 104 136 172 217 268 318
#     4   9  17  33  58  81 101 128 165 209 260 317
#     4  10  20  34  54  79 107 141 180 218 262 316
#     4  10  19  31  48  71 101 137 175 212 253 303
#     4  10  20  32  49  75 106 138 175 218 256 301
#     4  10  20  34  50  68  98 137 173 213 259 308
#     4   9  17  32  52  74 105 141 173 207 254 308
#     4   8  16  31  52  77 102 130 163 207 258 303
#
# _framework density 17.905035000000002
#
# number of rings (size 3 to 8) (size 9 to 14) (size 15 to 20)
#    0.000    2.500    1.250    1.875    0.000    3.250 
#    0.000    8.750    0.000    2.250    0.000    1.750 
#    0.000    0.000    0.000    0.000    0.000    0.000 
#
# Total GULP energy -356412.182388 kJ/mol
# GULP energy per Si atom -5568.940350 kJ/mol
# Density = 1.786428 g / cm^3
# Si number density = 17.905035 Si / 1000 Ang^3
#
#
#
# Elastic Constant Matrix: (Units=GPa)
#
#
# Indices 1 2 3 4 5 6 
#
# 1 91.0002 19.2325 77.9717 0.0000 0.0000 0.0000
# 2 19.2325 6.0980 16.2666 0.0000 0.0000 0.0000
# 3 77.9717 16.2666 119.9148 0.0000 0.0000 0.0000
# 4 0.0000 0.0000 0.0000 20.4684 0.0000 0.0000
# 5 0.0000 0.0000 0.0000 0.0000 35.8385 0.0000
# 6 0.0000 0.0000 0.0000 0.0000 0.0000 23.6036
#
#
#
# Elastic Compliance Matrix: (Units=1/GPa)
#
#
# Indices 1 2 3 4 5 6 
#
# 1 0.047509 -0.105675 -0.016557 0.000000 0.000000 0.000000
# 2 -0.105675 0.492031 0.001968 0.000000 0.000000 0.000000
# 3 -0.016557 0.001968 0.018838 0.000000 0.000000 0.000000
# 4 0.000000 0.000000 0.000000 0.048856 0.000000 0.000000
# 5 0.000000 0.000000 0.000000 0.000000 0.027903 0.000000
# 6 0.000000 0.000000 0.000000 0.000000 0.000000 0.042366
#
#
# Mechanical properties :
#
#
# Convention : Reuss Voigt Hill
#
# Bulk Modulus (GPa) = 3.14613 49.32830 26.23722
# Shear Modulus (GPa) = 4.88290 22.88490 13.88390
#
# Velocity S-wave (km/s) = 1.65319 3.57897 2.78766
# Velocity P-wave (km/s) = 2.32486 6.68494 5.00467
#
# Compressibility (1/GPa) = 0.31785052
#
# Stress axis : x y z
#
# Youngs Moduli (GPa) = 21.04846 2.03239 53.08416
#
# Poissons Ratio (x) = 0.21477 0.87891
# Poissons Ratio (y) = 2.22430 -0.10446
# Poissons Ratio (z) = 0.34850 -0.00400
#
# Static dielectric constant tensor:
#      x y z
#    x 1.624830 0.000000 0.000000 
#    y 0.000000 1.614190 0.000000 
#    z 0.000000 0.000000 1.675000 
# 
# From -- ./inp_files/19323.got.cif
#   From: 2010.05.17/outbox.cif.g08.bks.cpg/sg59_10_cif.got.tgz:19323.got - 2010.06.03 14:40:33.
