data_PCOD9447281
_publ_section_title
;
Structure prediction by ZEFSAII (Michael W. Deem and Ramdas Pophale) SiO2 
 PCOD9447281
Probable space group: P M M N
;
_chemical_formula_sum "Si O2"
_cell_formula_units_Z 48
_cell_length_a 8.865556
_cell_length_b 18.280501
_cell_length_c 16.368675
_cell_angle_alpha 90.000000
_cell_angle_beta 90.000000
_cell_angle_gamma 90.000000
_cell_volume 2652.818865
_symmetry_space_group_name_H-M "P M M N"
_symmetry_group_IT_number 59
_space_group.IT_coordinate_system_code '2'
_symmetry_cell_setting 'orthorhombic'
loop_
_space_group_symop_operation_xyz
x,y,z
1/2-x,1/2-y,z
1/2+x,-y,-z
-x,1/2+y,-z
-x,-y,-z
1/2+x,1/2+y,-z
1/2-x,y,z
x,1/2-y,z
loop_
_atom_site_type_symbol
_atom_site_label
_atom_site_fract_x
_atom_site_fract_y
_atom_site_fract_z
Si Si1 0.432305 0.957779 0.185875
Si Si2 0.566373 0.889091 0.893408
Si Si3 0.432098 0.250000 0.213753
Si Si4 0.432384 0.164547 0.926968
Si Si5 0.425747 0.385959 0.475832
Si Si6 0.573771 0.250000 0.391797
Si Si7 0.428137 0.535530 0.376137
O O1 0.250000 0.955084 0.181124
O O2 0.500072 0.886554 0.143024
O O3 0.472821 0.962681 0.281512
O O4 0.483179 0.031734 0.139045
O O5 0.750000 0.889494 0.892452
O O6 0.518189 0.823035 0.834046
O O7 0.520084 0.869105 0.985403
O O8 0.250000 0.250000 0.213398
O O9 0.487827 0.250000 0.305789
O O10 0.250000 0.162104 0.923638
O O11 0.476725 0.250000 0.921864
O O12 0.250000 0.365461 0.475578
O O13 0.525167 0.320474 0.442867
O O14 0.445153 0.454814 0.414744
O O15 0.477465 0.411772 0.565212
O O16 0.750000 0.250000 0.375816
O O17 0.250000 0.554064 0.381884
#
# Coordination Sequence:
#
# PCOD9447281 Si02
#       7
#     8   8   4   8   8   4   8
#     4  10  20  34  55  83 111 144 184 225 276 336
#     4   9  17  33  58  83 108 143 187 230 275 329
#     4  10  18  34  60  83 108 145 186 229 276 335
#     4  10  20  36  55  78 109 148 191 234 275 317
#     4  10  20  37  61  83 108 146 188 227 274 337
#     4  12  24  36  52  83 120 147 176 225 282 331
#     4   9  19  37  58  83 112 143 182 232 284 332
#
# _framework density 18.093961
#
# number of rings (size 3 to 8) (size 9 to 14) (size 15 to 20)
#    0.000    2.167    0.833    2.750    0.000    4.333 
#    1.500    3.333    0.000    0.000    0.000    0.000 
#    0.000    0.000    0.000    0.000    0.000    0.000 
#
# Total GULP energy -267955.226959 kJ/mol
# GULP energy per Si atom -5582.400562 kJ/mol
# Density = 1.805278 g / cm^3
# Si number density = 18.093961 Si / 1000 Ang^3
#
#
#
# Elastic Constant Matrix: (Units=GPa)
#
#
# Indices 1 2 3 4 5 6 
#
# 1 14.0831 19.0045 26.4301 0.0000 0.0000 0.0000
# 2 19.0045 85.7044 78.8927 0.0000 0.0000 0.0000
# 3 26.4301 78.8927 131.0060 0.0000 0.0000 0.0000
# 4 0.0000 0.0000 0.0000 19.2483 0.0000 0.0000
# 5 0.0000 0.0000 0.0000 0.0000 20.9202 0.0000
# 6 0.0000 0.0000 0.0000 0.0000 0.0000 24.1464
#
#
#
# Elastic Compliance Matrix: (Units=1/GPa)
#
#
# Indices 1 2 3 4 5 6 
#
# 1 0.117630 -0.009511 -0.018004 0.000000 0.000000 0.000000
# 2 -0.009511 0.026951 -0.014311 0.000000 0.000000 0.000000
# 3 -0.018004 -0.014311 0.019884 0.000000 0.000000 0.000000
# 4 0.000000 0.000000 0.000000 0.051953 0.000000 0.000000
# 5 0.000000 0.000000 0.000000 0.000000 0.047801 0.000000
# 6 0.000000 0.000000 0.000000 0.000000 0.000000 0.041414
#
#
# Mechanical properties :
#
#
# Convention : Reuss Voigt Hill
#
# Bulk Modulus (GPa) = 12.37430 53.27201 32.82315
# Shear Modulus (GPa) = 12.01284 19.96072 15.98678
#
# Velocity S-wave (km/s) = 2.57945 3.32500 2.97567
# Velocity P-wave (km/s) = 3.96550 6.65182 5.47594
#
# Compressibility (1/GPa) = 0.08081265
#
# Stress axis : x y z
#
# Youngs Moduli (GPa) = 8.50122 37.10490 50.29228
#
# Poissons Ratio (x) = 0.35289 0.90547
# Poissons Ratio (y) = 0.08085 0.71974
# Poissons Ratio (z) = 0.15306 0.53101
#
# Static dielectric constant tensor:
#      x y z
#    x 1.611660 0.000000 0.000000 
#    y 0.000000 1.604790 0.000000 
#    z 0.000000 0.000000 1.595670 
# 
# From -- ./inp_files/20539.got.cif
#   From: 2010.05.17/outbox.cif.g08.bks.cpg/sg59_11_cif.got.tgz:20539.got - 2010.06.03 14:40:33.
