data_PCOD9447603
_publ_section_title
;
Structure prediction by ZEFSAII (Michael W. Deem and Ramdas Pophale) SiO2 
 PCOD9447603
Probable space group: P M M N
;
_chemical_formula_sum "Si O2"
_cell_formula_units_Z 64
_cell_length_a 7.326415
_cell_length_b 18.920721
_cell_length_c 20.727048
_cell_angle_alpha 90.000000
_cell_angle_beta 90.000000
_cell_angle_gamma 90.000000
_cell_volume 2873.205243
_symmetry_space_group_name_H-M "P M M N"
_symmetry_group_IT_number 59
_space_group.IT_coordinate_system_code '2'
_symmetry_cell_setting 'orthorhombic'
loop_
_space_group_symop_operation_xyz
x,y,z
1/2-x,1/2-y,z
1/2+x,-y,-z
-x,1/2+y,-z
-x,-y,-z
1/2+x,1/2+y,-z
1/2-x,y,z
x,1/2-y,z
loop_
_atom_site_type_symbol
_atom_site_label
_atom_site_fract_x
_atom_site_fract_y
_atom_site_fract_z
Si Si1 0.527248 0.088862 0.174581
Si Si2 0.529315 0.591570 0.446266
Si Si3 0.527107 0.829043 0.321013
Si Si4 0.960571 0.435765 0.410669
Si Si5 0.527256 0.170124 0.302015
Si Si6 0.027927 0.831266 0.951274
Si Si7 0.040897 0.435053 0.786883
Si Si8 0.029390 0.668887 0.097459
O O1 0.750000 0.086689 0.171877
O O2 0.477274 0.143159 0.231032
O O3 0.466042 0.116682 0.104975
O O4 0.462107 0.011013 0.194708
O O5 0.750000 0.589662 0.448465
O O6 0.475553 0.648917 0.393384
O O7 0.467673 0.601509 0.519551
O O8 0.462775 0.514286 0.422232
O O9 0.750000 0.828891 0.318156
O O10 0.467245 0.750000 0.304071
O O11 0.461475 0.888529 0.271140
O O12 0.750000 0.447749 0.392502
O O13 0.037994 0.385989 0.355273
O O14 0.750000 0.170727 0.304610
O O15 0.466773 0.250000 0.314232
O O16 0.250000 0.831890 0.951324
O O17 0.974229 0.750000 0.937895
O O18 0.971820 0.848999 0.024335
O O19 0.250000 0.449727 0.767274
O O20 0.038980 0.385261 0.849518
O O21 0.250000 0.667200 0.099313
O O22 0.973858 0.750000 0.111144
#
# Coordination Sequence:
#
# PCOD9447603 Si02
#       8
#     8   8   8   8   8   8   8   8
#     4   9  16  26  43  68  94 119 151 189 226 268
#     4   9  17  30  47  64  85 117 151 179 214 265
#     4   9  17  29  45  64  86 114 149 185 217 254
#     4   9  17  29  45  67  93 115 139 179 227 267
#     4   9  16  26  43  67  93 120 150 187 230 271
#     4   8  14  26  44  65  91 123 155 186 221 264
#     4  10  19  30  47  71  95 118 148 190 234 270
#     4   9  18  32  48  66  91 123 155 186 223 269
#
# _framework density 22.274777
#
# number of rings (size 3 to 8) (size 9 to 14) (size 15 to 20)
#    0.000    3.000    0.000    2.250    0.000    6.250 
#    0.000    0.625    0.000    3.000    0.000    0.000 
#    0.000    3.000    0.000    0.000    0.000    0.000 
#
# Total GULP energy -357426.358112 kJ/mol
# GULP energy per Si atom -5584.786846 kJ/mol
# Density = 2.222408 g / cm^3
# Si number density = 22.274777 Si / 1000 Ang^3
#
#
#
# Elastic Constant Matrix: (Units=GPa)
#
#
# Indices 1 2 3 4 5 6 
#
# 1 86.2744 -5.8846 -12.0359 0.0000 0.0000 0.0000
# 2 -5.8846 39.3887 7.4181 0.0000 0.0000 0.0000
# 3 -12.0359 7.4181 62.7529 0.0000 0.0000 0.0000
# 4 0.0000 0.0000 0.0000 45.0595 0.0000 0.0000
# 5 0.0000 0.0000 0.0000 0.0000 -0.4695 0.0000
# 6 0.0000 0.0000 0.0000 0.0000 0.0000 219.5779
#
#
#
# Elastic Compliance Matrix: (Units=1/GPa)
#
#
# Indices 1 2 3 4 5 6 
#
# 1 0.011983 0.001388 0.002134 0.000000 0.000000 0.000000
# 2 0.001388 0.026127 -0.002822 0.000000 0.000000 0.000000
# 3 0.002134 -0.002822 0.016678 0.000000 0.000000 0.000000
# 4 0.000000 0.000000 0.000000 0.022193 0.000000 0.000000
# 5 0.000000 0.000000 0.000000 0.000000 -2.129750 0.000000
# 6 0.000000 0.000000 0.000000 0.000000 0.000000 0.004554
#
#
# Mechanical properties :
#
#
# Convention : Reuss Voigt Hill
#
# Bulk Modulus (GPa) = 17.79691 18.60125 18.19908
# Shear Modulus (GPa) = -2.46198 66.09479 31.81641
#
# Velocity S-wave (km/s) = -1.05246 5.45315 3.78347
# Velocity P-wave (km/s) = 2.55542 6.92951 5.22247
#
# Compressibility (1/GPa) = 0.05618953
#
# Stress axis : x y z
#
# Youngs Moduli (GPa) = 83.44901 38.27474 59.95745
#
# Poissons Ratio (x) = -0.05314 -0.12797
# Poissons Ratio (y) = -0.11586 0.16921
# Poissons Ratio (z) = -0.17810 0.10802
#
# Static dielectric constant tensor:
#      x y z
#    x 1.879270 0.000000 0.000000 
#    y 0.000000 1.780950 0.000000 
#    z 0.000000 0.000000 1.777040 
# 
# From -- ./inp_files/30173.got.cif
#   From: 2010.05.17/outbox.cif.g08.bks.cpg/sg59_16_cif.got.tgz:30173.got - 2010.06.03 14:40:33.
