data_PCOD9447371
_publ_section_title
;
Structure prediction by ZEFSAII (Michael W. Deem and Ramdas Pophale) SiO2 
 PCOD9447371
Probable space group: P M M N
;
_chemical_formula_sum "Si O2"
_cell_formula_units_Z 56
_cell_length_a 9.002576
_cell_length_b 14.087663
_cell_length_c 30.047399
_cell_angle_alpha 90.000000
_cell_angle_beta 90.000000
_cell_angle_gamma 90.000000
_cell_volume 3810.769095
_symmetry_space_group_name_H-M "P M M N"
_symmetry_group_IT_number 59
_space_group.IT_coordinate_system_code '2'
_symmetry_cell_setting 'orthorhombic'
loop_
_space_group_symop_operation_xyz
x,y,z
1/2-x,1/2-y,z
1/2+x,-y,-z
-x,1/2+y,-z
-x,-y,-z
1/2+x,1/2+y,-z
1/2-x,y,z
x,1/2-y,z
loop_
_atom_site_type_symbol
_atom_site_label
_atom_site_fract_x
_atom_site_fract_y
_atom_site_fract_z
Si Si1 0.921338 0.365228 0.745000
Si Si2 0.926959 0.637965 0.346588
Si Si3 0.428882 0.531451 0.068836
Si Si4 0.571254 0.358699 0.021352
Si Si5 0.928111 0.641995 0.516880
Si Si6 0.568690 0.140221 0.843157
Si Si7 0.572511 0.046018 0.568169
O O1 0.750000 0.395624 0.739209
O O2 0.920699 0.250000 0.746739
O O3 0.977085 0.394458 0.793980
O O4 0.015866 0.392463 0.702104
O O5 0.750000 0.630114 0.349155
O O6 0.966061 0.750000 0.352314
O O7 0.002000 0.578420 0.385668
O O8 0.250000 0.522971 0.069780
O O9 0.499371 0.430927 0.056221
O O10 0.478636 0.575895 0.115579
O O11 0.466718 0.602243 0.027991
O O12 0.750000 0.362608 0.025192
O O13 0.523663 0.250000 0.026617
O O14 0.750000 0.637210 0.509413
O O15 0.965841 0.750000 0.529179
O O16 0.964634 0.561966 0.553472
O O17 0.008677 0.611505 0.471454
O O18 0.750000 0.141130 0.842554
O O19 0.522163 0.250000 0.849591
O O20 0.750000 0.055201 0.570136
#
# Coordination Sequence:
#
# PCOD9447371 Si02
#       7
#     8   8   8   8   8   8   8
#     4   8  14  25  41  60  81 105 134 167 202 243
#     4  10  19  29  41  59  86 116 140 165 201 243
#     4   9  16  26  42  62  81 105 139 173 203 239
#     4   9  17  28  40  56  82 113 140 167 202 244
#     4   9  18  32  46  61  85 113 138 168 206 243
#     4   8  13  23  41  63  84 106 133 166 204 244
#     4  10  19  29  44  65  85 109 142 173 201 238
#
# _framework density 14.695195999999999
#
# number of rings (size 3 to 8) (size 9 to 14) (size 15 to 20)
#    0.000    3.000    0.000    2.571    0.000    5.429 
#    0.000    0.714    0.000    2.143    0.000    1.000 
#    0.000    3.429    0.000    0.000    0.000    0.000 
#
# Total GULP energy -311879.354849 kJ/mol
# GULP energy per Si atom -5569.274194 kJ/mol
# Density = 1.466175 g / cm^3
# Si number density = 14.695196 Si / 1000 Ang^3
#
#
#
# Elastic Constant Matrix: (Units=GPa)
#
#
# Indices 1 2 3 4 5 6 
#
# 1 20.0435 31.0691 39.2091 0.0000 0.0000 0.0000
# 2 31.0691 102.8939 69.1999 0.0000 0.0000 0.0000
# 3 39.2091 69.1999 146.5416 0.0000 0.0000 0.0000
# 4 0.0000 0.0000 0.0000 22.8476 0.0000 0.0000
# 5 0.0000 0.0000 0.0000 0.0000 21.4868 0.0000
# 6 0.0000 0.0000 0.0000 0.0000 0.0000 19.0556
#
#
#
# Elastic Compliance Matrix: (Units=1/GPa)
#
#
# Indices 1 2 3 4 5 6 
#
# 1 0.136833 -0.024464 -0.025059 0.000000 0.000000 0.000000
# 2 -0.024464 0.018616 -0.002245 0.000000 0.000000 0.000000
# 3 -0.025059 -0.002245 0.014589 0.000000 0.000000 0.000000
# 4 0.000000 0.000000 0.000000 0.043768 0.000000 0.000000
# 5 0.000000 0.000000 0.000000 0.000000 0.046540 0.000000
# 6 0.000000 0.000000 0.000000 0.000000 0.000000 0.052478
#
#
# Mechanical properties :
#
#
# Convention : Reuss Voigt Hill
#
# Bulk Modulus (GPa) = 15.03727 60.93725 37.98726
# Shear Modulus (GPa) = 11.40181 21.34474 16.37327
#
# Velocity S-wave (km/s) = 2.78850 3.81530 3.34157
# Velocity P-wave (km/s) = 4.54121 7.80808 6.38705
#
# Compressibility (1/GPa) = 0.06650145
#
# Stress axis : x y z
#
# Youngs Moduli (GPa) = 7.30819 53.71852 68.54494
#
# Poissons Ratio (x) = 1.31417 1.71766
# Poissons Ratio (y) = 0.17879 0.15388
# Poissons Ratio (z) = 0.18314 0.12060
#
# Static dielectric constant tensor:
#      x y z
#    x 1.493870 0.000000 0.000000 
#    y 0.000000 1.473430 0.000000 
#    z 0.000000 0.000000 1.485100 
# 
# From -- ./inp_files/33172.got.cif
#   From: 2010.05.17/outbox.cif.g08.bks.cpg/sg59_17_cif.got.tgz:33172.got - 2010.06.03 14:40:33.
