data_PCOD9447645
_publ_section_title
;
Structure prediction by ZEFSAII (Michael W. Deem and Ramdas Pophale) SiO2 
 PCOD9447645
Probable space group: P M M N
;
_chemical_formula_sum "Si O2"
_cell_formula_units_Z 64
_cell_length_a 30.786286
_cell_length_b 8.237915
_cell_length_c 15.427838
_cell_angle_alpha 90.000000
_cell_angle_beta 90.000000
_cell_angle_gamma 90.000000
_cell_volume 3912.728160
_symmetry_space_group_name_H-M "P M M N"
_symmetry_group_IT_number 59
_space_group.IT_coordinate_system_code '2'
_symmetry_cell_setting 'orthorhombic'
loop_
_space_group_symop_operation_xyz
x,y,z
1/2-x,1/2-y,z
1/2+x,-y,-z
-x,1/2+y,-z
-x,-y,-z
1/2+x,1/2+y,-z
1/2-x,y,z
x,1/2-y,z
loop_
_atom_site_type_symbol
_atom_site_label
_atom_site_fract_x
_atom_site_fract_y
_atom_site_fract_z
Si Si1 0.607911 0.445953 0.961745
Si Si2 0.443029 0.947946 0.865741
Si Si3 0.701389 0.940299 0.198054
Si Si4 0.701620 0.441954 0.005361
Si Si5 0.118883 0.942205 0.708529
Si Si6 0.435650 0.443281 0.554925
Si Si7 0.039821 0.053705 0.178607
Si Si8 0.029017 0.053253 0.375396
O O1 0.609786 0.250000 0.967100
O O2 0.579246 0.493447 0.879647
O O3 0.582514 0.502806 0.048510
O O4 0.657720 0.507470 0.961269
O O5 0.443491 0.750000 0.866341
O O6 0.416671 0.998956 0.779924
O O7 0.493109 0.001110 0.859781
O O8 0.750000 0.978860 0.229353
O O9 0.699715 0.750000 0.176277
O O10 0.694231 0.035783 0.108407
O O11 0.664430 0.980024 0.266298
O O12 0.750000 0.510697 0.985863
O O13 0.703607 0.250000 0.986802
O O14 0.122857 0.750000 0.718922
O O15 0.101757 0.981370 0.613341
O O16 0.431050 0.250000 0.556183
O O17 0.439899 0.497180 0.454813
O O18 0.481291 0.490114 0.599948
O O19 0.039911 0.250000 0.177341
O O20 0.042022 0.001340 0.279089
O O21 0.026663 0.250000 0.375608
#
# Coordination Sequence:
#
# PCOD9447645 Si02
#       8
#     8   8   8   8   8   8   8   8
#     4  10  19  31  45  67  94 123 161 201 235 277
#     4   9  17  30  45  63  92 127 160 191 224 269
#     4  10  20  32  47  71 100 124 154 200 242 278
#     4   9  17  31  50  68  90 124 160 194 239 289
#     4  11  19  32  51  69  95 131 164 193 233 290
#     4  10  19  30  48  73  95 119 156 200 242 283
#     4  10  19  32  47  64  92 131 165 194 234 279
#     4   9  18  33  49  66  94 127 158 195 238 284
#
# _framework density 16.356874000000001
#
# number of rings (size 3 to 8) (size 9 to 14) (size 15 to 20)
#    0.000    2.250    2.500    1.500    0.000    2.250 
#    0.000    0.000    0.000    0.000    0.000    0.875 
#    0.000    5.000    0.000    0.000    0.000    0.000 
#
# Total GULP energy -356848.587052 kJ/mol
# GULP energy per Si atom -5575.759173 kJ/mol
# Density = 1.631964 g / cm^3
# Si number density = 16.356874 Si / 1000 Ang^3
#
#
#
# Elastic Constant Matrix: (Units=GPa)
#
#
# Indices 1 2 3 4 5 6 
#
# 1 127.1768 9.7926 50.8589 0.0000 0.0000 0.0000
# 2 9.7926 5.7990 6.7519 0.0000 0.0000 0.0000
# 3 50.8589 6.7519 78.3966 0.0000 0.0000 0.0000
# 4 0.0000 0.0000 0.0000 19.7861 0.0000 0.0000
# 5 0.0000 0.0000 0.0000 0.0000 14.9954 0.0000
# 6 0.0000 0.0000 0.0000 0.0000 0.0000 19.2410
#
#
#
# Elastic Compliance Matrix: (Units=1/GPa)
#
#
# Indices 1 2 3 4 5 6 
#
# 1 0.011291 -0.011713 -0.006316 0.000000 0.000000 0.000000
# 2 -0.011713 0.203815 -0.009955 0.000000 0.000000 0.000000
# 3 -0.006316 -0.009955 0.017710 0.000000 0.000000 0.000000
# 4 0.000000 0.000000 0.000000 0.050541 0.000000 0.000000
# 5 0.000000 0.000000 0.000000 0.000000 0.066687 0.000000
# 6 0.000000 0.000000 0.000000 0.000000 0.000000 0.051972
#
#
# Mechanical properties :
#
#
# Convention : Reuss Voigt Hill
#
# Bulk Modulus (GPa) = 5.65456 38.46433 22.05944
# Shear Modulus (GPa) = 9.67244 20.40244 15.03744
#
# Velocity S-wave (km/s) = 2.43438 3.53559 3.03534
# Velocity P-wave (km/s) = 3.37137 6.34302 5.07937
#
# Compressibility (1/GPa) = 0.17684857
#
# Stress axis : x y z
#
# Youngs Moduli (GPa) = 88.56822 4.90642 56.46381
#
# Poissons Ratio (x) = 0.05747 0.35662
# Poissons Ratio (y) = 1.03736 0.56211
# Poissons Ratio (z) = 0.55940 0.04884
#
# Static dielectric constant tensor:
#      x y z
#    x 1.558780 0.000000 0.000000 
#    y 0.000000 1.582090 0.000000 
#    z 0.000000 0.000000 1.537700 
# 
# From -- ./inp_files/25010.got.cif
#   From: 2010.05.17/outbox.cif.g08.bks.cpg/sg59_13_cif.got.tgz:25010.got - 2010.06.03 14:40:33.
