data_PCOD9447966
_publ_section_title
;
Structure prediction by ZEFSAII (Michael W. Deem and Ramdas Pophale) SiO2 
 PCOD9447966
Probable space group: P M M N
;
_chemical_formula_sum "Si O2"
_cell_formula_units_Z 48
_cell_length_a 13.087209
_cell_length_b 26.639301
_cell_length_c 6.833996
_cell_angle_alpha 90.000000
_cell_angle_beta 90.000000
_cell_angle_gamma 90.000000
_cell_volume 2382.564044
_symmetry_space_group_name_H-M "P M M N"
_symmetry_group_IT_number 59
_space_group.IT_coordinate_system_code '2'
_symmetry_cell_setting 'orthorhombic'
loop_
_space_group_symop_operation_xyz
x,y,z
1/2-x,1/2-y,z
1/2+x,-y,-z
-x,1/2+y,-z
-x,-y,-z
1/2+x,1/2+y,-z
1/2-x,y,z
x,1/2-y,z
loop_
_atom_site_type_symbol
_atom_site_label
_atom_site_fract_x
_atom_site_fract_y
_atom_site_fract_z
Si Si1 0.556013 0.937553 0.928265
Si Si2 0.539130 0.306800 0.383671
Si Si3 0.137622 0.171831 0.093431
Si Si4 0.449827 0.529249 0.316000
Si Si5 0.140282 0.191427 0.640064
Si Si6 0.136387 0.908369 0.654947
O O1 0.623679 0.888231 0.903132
O O2 0.449962 0.927038 0.808565
O O3 0.602094 0.986492 0.820577
O O4 0.528340 0.947060 0.156424
O O5 0.573409 0.250000 0.426999
O O6 0.458795 0.305960 0.205162
O O7 0.462803 0.329420 0.548863
O O8 0.624497 0.348103 0.349255
O O9 0.250000 0.186291 0.169665
O O10 0.133664 0.188938 0.871130
O O11 0.500000 0.500000 0.500000
O O12 0.384609 0.569942 0.436186
O O13 0.250000 0.167834 0.586367
O O14 0.141720 0.250000 0.579846
O O15 0.250000 0.923559 0.715814
#
# Coordination Sequence:
#
# PCOD9447966 Si02
#       6
#     8   8   8   8   8   8
#     4   9  19  35  54  79 109 137 171 217 265 313
#     4  10  20  34  52  73 101 137 177 222 266 310
#     4  10  19  31  50  76 104 134 169 211 264 324
#     4   9  18  36  58  77 103 137 173 215 263 316
#     4   9  17  29  47  72 100 130 166 211 266 325
#     4  10  21  35  53  77 105 142 182 218 260 308
#
# _framework density 20.146363000000001
#
# number of rings (size 3 to 8) (size 9 to 14) (size 15 to 20)
#    0.000    2.500    0.000    2.000    0.000    3.333 
#    0.000    6.667    0.000    1.000    0.000    4.667 
#    0.000    0.000    0.000    0.000    0.000    0.000 
#
# Total GULP energy -267270.481040 kJ/mol
# GULP energy per Si atom -5568.135022 kJ/mol
# Density = 2.010051 g / cm^3
# Si number density = 20.146363 Si / 1000 Ang^3
#
#
#
# Elastic Constant Matrix: (Units=GPa)
#
#
# Indices 1 2 3 4 5 6 
#
# 1 58.4018 3.8350 16.1774 0.0000 0.0000 0.0000
# 2 3.8350 83.9588 1.2904 0.0000 0.0000 0.0000
# 3 16.1774 1.2904 111.6561 0.0000 0.0000 0.0000
# 4 0.0000 0.0000 0.0000 31.3238 0.0000 0.0000
# 5 0.0000 0.0000 0.0000 0.0000 5.3288 0.0000
# 6 0.0000 0.0000 0.0000 0.0000 0.0000 24.5828
#
#
#
# Elastic Compliance Matrix: (Units=1/GPa)
#
#
# Indices 1 2 3 4 5 6 
#
# 1 0.017889 -0.000777 -0.002583 0.000000 0.000000 0.000000
# 2 -0.000777 0.011946 -0.000025 0.000000 0.000000 0.000000
# 3 -0.002583 -0.000025 0.009331 0.000000 0.000000 0.000000
# 4 0.000000 0.000000 0.000000 0.031925 0.000000 0.000000
# 5 0.000000 0.000000 0.000000 0.000000 0.187661 0.000000
# 6 0.000000 0.000000 0.000000 0.000000 0.000000 0.040679
#
#
# Mechanical properties :
#
#
# Convention : Reuss Voigt Hill
#
# Bulk Modulus (GPa) = 30.86912 32.95803 31.91357
# Shear Modulus (GPa) = 15.77286 27.76135 21.76710
#
# Velocity S-wave (km/s) = 2.80109 3.71615 3.29058
# Velocity P-wave (km/s) = 5.08106 5.89981 5.50568
#
# Compressibility (1/GPa) = 0.03239483
#
# Stress axis : x y z
#
# Youngs Moduli (GPa) = 55.89939 83.70654 107.17436
#
# Poissons Ratio (x) = 0.06508 0.27682
# Poissons Ratio (y) = 0.04346 0.00273
# Poissons Ratio (z) = 0.14438 0.00213
#
# Static dielectric constant tensor:
#      x y z
#    x 1.714220 0.000000 0.000000 
#    y 0.000000 2.266660 0.000000 
#    z 0.000000 0.000000 1.734490 
# 
# From -- ./inp_files/2255.got.cif
#   From: 2010.05.17/outbox.cif.g08.bks.cpg/sg59_2_cif.got.tgz:2255.got - 2010.06.03 14:40:33.
