data_PCOD9447319
_publ_section_title
;
Structure prediction by ZEFSAII (Michael W. Deem and Ramdas Pophale) SiO2 
 PCOD9447319
Probable space group: P M M N
;
_chemical_formula_sum "Si O2"
_cell_formula_units_Z 40
_cell_length_a 14.349027
_cell_length_b 14.669488
_cell_length_c 9.362514
_cell_angle_alpha 90.000000
_cell_angle_beta 90.000000
_cell_angle_gamma 90.000000
_cell_volume 1970.742530
_symmetry_space_group_name_H-M "P M M N"
_symmetry_group_IT_number 59
_space_group.IT_coordinate_system_code '2'
_symmetry_cell_setting 'orthorhombic'
loop_
_space_group_symop_operation_xyz
x,y,z
1/2-x,1/2-y,z
1/2+x,-y,-z
-x,1/2+y,-z
-x,-y,-z
1/2+x,1/2+y,-z
1/2-x,y,z
x,1/2-y,z
loop_
_atom_site_type_symbol
_atom_site_label
_atom_site_fract_x
_atom_site_fract_y
_atom_site_fract_z
Si Si1 0.374912 0.250000 0.138276
Si Si2 0.415966 0.750000 0.940019
Si Si3 0.485378 0.608106 0.475238
Si Si4 0.147244 0.438773 0.986477
Si Si5 0.355529 0.750000 0.633845
Si Si6 0.950729 0.086232 0.845791
Si Si7 0.145520 0.250000 0.472957
O O1 0.485718 0.250000 0.140220
O O2 0.345722 0.250000 0.301559
O O3 0.347127 0.162108 0.049107
O O4 0.348867 0.750000 0.805762
O O5 0.417464 0.837349 0.042383
O O6 0.500000 0.500000 0.500000
O O7 0.414354 0.661447 0.580354
O O8 0.446410 0.619072 0.315272
O O9 0.583366 0.662296 0.485525
O O10 0.250000 0.465838 0.931990
O O11 0.059007 0.440366 0.879123
O O12 0.114281 0.500906 0.118769
O O13 0.250000 0.750000 0.575489
O O14 0.250000 0.250000 0.535044
#
# Coordination Sequence:
#
# PCOD9447319 Si02
#       7
#     4   4   8   8   4   8   4
#     4  10  18  36  61  87 121 160 200 254 315 378
#     4  10  20  42  64  87 123 170 218 266 318 376
#     4  11  24  43  66  96 137 177 212 275 341 400
#     4  10  21  36  61  94 125 159 209 261 311 378
#     4  11  26  45  68  97 129 175 227 276 333 406
#     4  10  23  39  63  91 126 170 212 262 324 384
#     4  11  22  37  61  93 127 169 217 258 318 396
#
# _framework density 20.296918999999999
#
# number of rings (size 3 to 8) (size 9 to 14) (size 15 to 20)
#    0.000    1.600    2.000    3.300    5.600    3.200 
#    0.000    1.000    0.000    0.000    0.000    0.000 
#    0.000    0.000    0.000    0.000    0.000    0.000 
#
# Total GULP energy -223208.341026 kJ/mol
# GULP energy per Si atom -5580.208526 kJ/mol
# Density = 2.025072 g / cm^3
# Si number density = 20.296919 Si / 1000 Ang^3
#
#
#
# Elastic Constant Matrix: (Units=GPa)
#
#
# Indices 1 2 3 4 5 6 
#
# 1 127.6041 68.5601 13.1326 0.0000 0.0000 0.0000
# 2 68.5601 129.6154 21.6208 0.0000 0.0000 0.0000
# 3 13.1326 21.6208 102.3790 0.0000 0.0000 0.0000
# 4 0.0000 0.0000 0.0000 19.4064 0.0000 0.0000
# 5 0.0000 0.0000 0.0000 0.0000 -95.7728 0.0000
# 6 0.0000 0.0000 0.0000 0.0000 0.0000 71.2563
#
#
#
# Elastic Compliance Matrix: (Units=1/GPa)
#
#
# Indices 1 2 3 4 5 6 
#
# 1 0.010952 -0.005762 -0.000188 0.000000 0.000000 0.000000
# 2 -0.005762 0.011028 -0.001590 0.000000 0.000000 0.000000
# 3 -0.000188 -0.001590 0.010128 0.000000 0.000000 0.000000
# 4 0.000000 0.000000 0.000000 0.051529 0.000000 0.000000
# 5 0.000000 0.000000 0.000000 0.000000 -0.010441 0.000000
# 6 0.000000 0.000000 0.000000 0.000000 0.000000 0.014034
#
#
# Mechanical properties :
#
#
# Convention : Reuss Voigt Hill
#
# Bulk Modulus (GPa) = 58.72624 62.91395 60.82010
# Shear Modulus (GPa) = 46.30314 16.06364 31.18339
#
# Velocity S-wave (km/s) = 4.78147 2.81629 3.92390
# Velocity P-wave (km/s) = 7.71230 6.45286 7.11052
#
# Compressibility (1/GPa) = 0.01702816
#
# Stress axis : x y z
#
# Youngs Moduli (GPa) = 91.31008 90.67917 98.74096
#
# Poissons Ratio (x) = 0.52245 0.01857
# Poissons Ratio (y) = 0.52609 0.15698
# Poissons Ratio (z) = 0.01717 0.14417
#
# Static dielectric constant tensor:
#      x y z
#    x 1.766370 0.000000 0.000000 
#    y 0.000000 1.703200 0.000000 
#    z 0.000000 0.000000 1.706080 
# 
# From -- ./inp_files/8676.got.cif
#   From: 2010.05.17/outbox.cif.g08.bks.cpg/sg59_5_cif.got.tgz:8676.got - 2010.06.03 14:40:33.
