data_PCOD9447343
_publ_section_title
;
Structure prediction by ZEFSAII (Michael W. Deem and Ramdas Pophale) SiO2 
 PCOD9447343
Probable space group: P M M N
;
_chemical_formula_sum "Si O2"
_cell_formula_units_Z 56
_cell_length_a 7.595118
_cell_length_b 14.279515
_cell_length_c 30.413944
_cell_angle_alpha 90.000000
_cell_angle_beta 90.000000
_cell_angle_gamma 90.000000
_cell_volume 3298.532174
_symmetry_space_group_name_H-M "P M M N"
_symmetry_group_IT_number 59
_space_group.IT_coordinate_system_code '2'
_symmetry_cell_setting 'orthorhombic'
loop_
_space_group_symop_operation_xyz
x,y,z
1/2-x,1/2-y,z
1/2+x,-y,-z
-x,1/2+y,-z
-x,-y,-z
1/2+x,1/2+y,-z
1/2-x,y,z
x,1/2-y,z
loop_
_atom_site_type_symbol
_atom_site_label
_atom_site_fract_x
_atom_site_fract_y
_atom_site_fract_z
Si Si1 0.462749 0.642550 0.152972
Si Si2 0.966051 0.358818 0.655463
Si Si3 0.954672 0.136169 0.751539
Si Si4 0.038374 0.961484 0.431499
Si Si5 0.961459 0.645228 0.520452
Si Si6 0.458569 0.453913 0.937576
Si Si7 0.455954 0.853034 0.975419
O O1 0.250000 0.645589 0.155788
O O2 0.522776 0.750000 0.145599
O O3 0.529629 0.608974 0.200895
O O4 0.509951 0.579173 0.111750
O O5 0.750000 0.359888 0.656382
O O6 0.016048 0.250000 0.648658
O O7 0.028789 0.390583 0.703900
O O8 0.026106 0.421897 0.614883
O O9 0.750000 0.106538 0.751294
O O10 0.956589 0.250000 0.751770
O O11 0.250000 0.967875 0.428338
O O12 0.998724 0.889603 0.470991
O O13 0.971399 0.062981 0.447436
O O14 0.750000 0.647991 0.525290
O O15 0.029686 0.750000 0.527915
O O16 0.250000 0.455379 0.945678
O O17 0.530234 0.557407 0.949245
O O18 0.533404 0.381330 0.973254
O O19 0.250000 0.847603 0.963652
O O20 0.533889 0.750000 0.968161
#
# Coordination Sequence:
#
# PCOD9447343 Si02
#       7
#     8   8   8   8   8   8   8
#     4   9  16  26  40  57  79 107 132 151 180 228
#     4   8  12  19  34  56  76  91 117 160 194 213
#     4   7  11  20  34  53  75  97 122 152 185 221
#     4   9  16  25  39  57  73  95 130 162 186 218
#     4   9  17  27  36  50  77 106 126 150 188 230
#     4  10  19  28  41  62  82 100 127 161 192 219
#     4   9  18  32  45  56  76 106 134 157 184 223
#
# _framework density 16.977246999999998
#
# number of rings (size 3 to 8) (size 9 to 14) (size 15 to 20)
#    0.000    3.286    0.000    3.000    0.000    3.714 
#    0.000    0.000    0.000    0.857    0.000    3.000 
#    0.000    3.429    0.000    0.286    0.000    0.286 
#
# Total GULP energy -311803.824970 kJ/mol
# GULP energy per Si atom -5567.925446 kJ/mol
# Density = 1.693861 g / cm^3
# Si number density = 16.977247 Si / 1000 Ang^3
#
#
#
# Elastic Constant Matrix: (Units=GPa)
#
#
# Indices 1 2 3 4 5 6 
#
# 1 36.8968 3.0678 -3.6893 0.0000 0.0000 0.0000
# 2 3.0678 105.2429 66.6449 0.0000 0.0000 0.0000
# 3 -3.6893 66.6449 155.6826 0.0000 0.0000 0.0000
# 4 0.0000 0.0000 0.0000 23.5964 0.0000 0.0000
# 5 0.0000 0.0000 0.0000 0.0000 11.3434 0.0000
# 6 0.0000 0.0000 0.0000 0.0000 0.0000 4.1708
#
#
#
# Elastic Compliance Matrix: (Units=1/GPa)
#
#
# Indices 1 2 3 4 5 6 
#
# 1 0.027376 -0.001658 0.001359 0.000000 0.000000 0.000000
# 2 -0.001658 0.013136 -0.005663 0.000000 0.000000 0.000000
# 3 0.001359 -0.005663 0.008880 0.000000 0.000000 0.000000
# 4 0.000000 0.000000 0.000000 0.042379 0.000000 0.000000
# 5 0.000000 0.000000 0.000000 0.000000 0.088157 0.000000
# 6 0.000000 0.000000 0.000000 0.000000 0.000000 0.239765
#
#
# Mechanical properties :
#
#
# Convention : Reuss Voigt Hill
#
# Bulk Modulus (GPa) = 26.68993 47.76324 37.22658
# Shear Modulus (GPa) = 11.25856 23.27538 17.26697
#
# Velocity S-wave (km/s) = 2.57797 3.70669 3.19261
# Velocity P-wave (km/s) = 4.96149 6.82013 5.96366
#
# Compressibility (1/GPa) = 0.03746732
#
# Stress axis : x y z
#
# Youngs Moduli (GPa) = 36.52789 76.12671 112.61806
#
# Poissons Ratio (x) = 0.12625 -0.15301
# Poissons Ratio (y) = 0.06058 0.63771
# Poissons Ratio (z) = -0.04963 0.43107
#
# Static dielectric constant tensor:
#      x y z
#    x 1.652160 0.000000 0.000000 
#    y 0.000000 1.578210 0.000000 
#    z 0.000000 0.000000 1.589550 
# 
# From -- ./inp_files/33169.got.cif
#   From: 2010.05.17/outbox.cif.g08.bks.cpg/sg59_17_cif.got.tgz:33169.got - 2010.06.03 14:40:33.
