data_PCOD9447864
_publ_section_title
;
Structure prediction by ZEFSAII (Michael W. Deem and Ramdas Pophale) SiO2 
 PCOD9447864
Probable space group: P M M N
;
_chemical_formula_sum "Si O2"
_cell_formula_units_Z 64
_cell_length_a 14.995152
_cell_length_b 9.413246
_cell_length_c 21.919579
_cell_angle_alpha 90.000000
_cell_angle_beta 90.000000
_cell_angle_gamma 90.000000
_cell_volume 3094.015531
_symmetry_space_group_name_H-M "P M M N"
_symmetry_group_IT_number 59
_space_group.IT_coordinate_system_code '2'
_symmetry_cell_setting 'orthorhombic'
loop_
_space_group_symop_operation_xyz
x,y,z
1/2-x,1/2-y,z
1/2+x,-y,-z
-x,1/2+y,-z
-x,-y,-z
1/2+x,1/2+y,-z
1/2-x,y,z
x,1/2-y,z
loop_
_atom_site_type_symbol
_atom_site_label
_atom_site_fract_x
_atom_site_fract_y
_atom_site_fract_z
Si Si1 0.393456 0.919513 0.870490
Si Si2 0.905635 0.080989 0.997850
Si Si3 0.859502 0.087277 0.362639
Si Si4 0.920107 0.079296 0.866273
Si Si5 0.146741 0.091860 0.751400
Si Si6 0.356986 0.589440 0.268541
Si Si7 0.141300 0.084926 0.384282
Si Si8 0.858869 0.915268 0.481323
O O1 0.386917 0.750000 0.860655
O O2 0.494440 0.977975 0.870859
O O3 0.354170 0.005302 0.814112
O O4 0.357043 0.954265 0.938517
O O5 0.922536 0.250000 0.001998
O O6 0.866937 0.055687 0.930035
O O7 0.000000 0.000000 0.000000
O O8 0.750000 0.088847 0.362157
O O9 0.888687 0.250000 0.360062
O O10 0.892134 0.999804 0.303832
O O11 0.888042 0.010572 0.424811
O O12 0.941702 0.250000 0.865968
O O13 0.877758 0.046068 0.800894
O O14 0.250000 0.109499 0.734951
O O15 0.107254 0.250000 0.758262
O O16 0.250000 0.590949 0.273160
O O17 0.389694 0.750000 0.276660
O O18 0.391195 0.495263 0.324318
O O19 0.250000 0.077740 0.383912
O O20 0.117439 0.250000 0.380630
O O21 0.113144 0.031999 0.451422
O O22 0.750000 0.916182 0.480769
O O23 0.885187 0.750000 0.473923
#
# Coordination Sequence:
#
# PCOD9447864 Si02
#       8
#     8   8   8   8   8   8   8   8
#     4  10  19  31  49  72  93 115 150 194 234 271
#     4   8  15  28  46  67  89 115 148 187 229 269
#     4   9  16  25  39  61  88 116 147 186 227 263
#     4   9  17  31  49  68  92 122 155 189 228 276
#     4  10  20  33  48  66  92 126 156 183 224 277
#     4   9  17  28  43  65  93 123 154 189 227 267
#     4   8  14  24  38  57  84 118 152 186 225 267
#     4   8  13  22  36  55  81 114 150 184 220 265
#
# _framework density 20.685092999999998
#
# number of rings (size 3 to 8) (size 9 to 14) (size 15 to 20)
#    0.000    3.125    0.000    1.875    0.000    3.750 
#    0.000    3.125    0.000    2.250    0.000    2.625 
#    0.000    0.000    0.000    0.000    0.000    0.000 
#
# Total GULP energy -356443.797438 kJ/mol
# GULP energy per Si atom -5569.434335 kJ/mol
# Density = 2.063801 g / cm^3
# Si number density = 20.685093 Si / 1000 Ang^3
#
#
#
# Elastic Constant Matrix: (Units=GPa)
#
#
# Indices 1 2 3 4 5 6 
#
# 1 33.4886 10.0932 8.7813 0.0000 0.0000 0.0000
# 2 10.0932 96.6962 103.4711 0.0000 0.0000 0.0000
# 3 8.7813 103.4711 244.0479 0.0000 0.0000 0.0000
# 4 0.0000 0.0000 0.0000 33.3761 0.0000 0.0000
# 5 0.0000 0.0000 0.0000 0.0000 23.3775 0.0000
# 6 0.0000 0.0000 0.0000 0.0000 0.0000 5.8482
#
#
#
# Elastic Compliance Matrix: (Units=1/GPa)
#
#
# Indices 1 2 3 4 5 6 
#
# 1 0.030860 -0.003721 0.000467 0.000000 0.000000 0.000000
# 2 -0.003721 0.019379 -0.008082 0.000000 0.000000 0.000000
# 3 0.000467 -0.008082 0.007507 0.000000 0.000000 0.000000
# 4 0.000000 0.000000 0.000000 0.029962 0.000000 0.000000
# 5 0.000000 0.000000 0.000000 0.000000 0.042776 0.000000
# 6 0.000000 0.000000 0.000000 0.000000 0.000000 0.170992
#
#
# Mechanical properties :
#
#
# Convention : Reuss Voigt Hill
#
# Bulk Modulus (GPa) = 28.51145 68.76934 48.64040
# Shear Modulus (GPa) = 14.88809 29.31284 22.10046
#
# Velocity S-wave (km/s) = 2.68573 3.76852 3.27222
# Velocity P-wave (km/s) = 4.84056 7.22867 6.15161
#
# Compressibility (1/GPa) = 0.03507363
#
# Stress axis : x y z
#
# Youngs Moduli (GPa) = 32.40453 51.60343 133.20161
#
# Poissons Ratio (x) = 0.19203 -0.06225
# Poissons Ratio (y) = 0.12059 1.07656
# Poissons Ratio (z) = -0.01514 0.41707
#
# Static dielectric constant tensor:
#      x y z
#    x 1.814500 0.000000 0.000000 
#    y 0.000000 1.710680 0.000000 
#    z 0.000000 0.000000 1.781180 
# 
# From -- ./inp_files/30943.got.cif
#   From: 2010.05.17/outbox.cif.g08.bks.cpg/sg59_16_cif.got.tgz:30943.got - 2010.06.03 14:40:33.
