data_PCOD9447561
_publ_section_title
;
Structure prediction by ZEFSAII (Michael W. Deem and Ramdas Pophale) SiO2 
 PCOD9447561
Probable space group: P M M N
;
_chemical_formula_sum "Si O2"
_cell_formula_units_Z 64
_cell_length_a 15.389948
_cell_length_b 14.633284
_cell_length_c 16.854388
_cell_angle_alpha 90.000000
_cell_angle_beta 90.000000
_cell_angle_gamma 90.000000
_cell_volume 3795.700537
_symmetry_space_group_name_H-M "P M M N"
_symmetry_group_IT_number 59
_space_group.IT_coordinate_system_code '2'
_symmetry_cell_setting 'orthorhombic'
loop_
_space_group_symop_operation_xyz
x,y,z
1/2-x,1/2-y,z
1/2+x,-y,-z
-x,1/2+y,-z
-x,-y,-z
1/2+x,1/2+y,-z
1/2-x,y,z
x,1/2-y,z
loop_
_atom_site_type_symbol
_atom_site_label
_atom_site_fract_x
_atom_site_fract_y
_atom_site_fract_z
Si Si1 0.465152 0.003623 0.844183
Si Si2 0.349824 0.143973 0.291285
Si Si3 0.153689 0.143749 0.934084
Si Si4 0.150487 0.550294 0.605204
Si Si5 0.149728 0.849113 0.764891
Si Si6 0.850906 0.357898 0.566253
Si Si7 0.096377 0.146317 0.109554
Si Si8 0.474402 0.977194 0.327345
O O1 0.418221 0.079230 0.896106
O O2 0.510145 0.044698 0.765411
O O3 0.396780 0.931418 0.808205
O O4 0.530121 0.937912 0.891414
O O5 0.250000 0.121658 0.314040
O O6 0.367267 0.250000 0.313222
O O7 0.356972 0.139373 0.195081
O O8 0.420455 0.073509 0.326165
O O9 0.250000 0.117187 0.905755
O O10 0.138898 0.250000 0.913284
O O11 0.151453 0.138383 0.029628
O O12 0.250000 0.511539 0.610970
O O13 0.146870 0.630101 0.671262
O O14 0.139005 0.591151 0.518014
O O15 0.068202 0.488082 0.629768
O O16 0.250000 0.847579 0.788686
O O17 0.109762 0.750000 0.780911
O O18 0.750000 0.369506 0.590917
O O19 0.866997 0.250000 0.556870
O O20 0.915591 0.403830 0.628364
O O21 0.058584 0.250000 0.107101
#
# Coordination Sequence:
#
# PCOD9447561 Si02
#       8
#     8   8   8   8   8   8   8   8
#     4  10  19  30  46  69  95 121 150 190 236 281
#     4   9  17  30  49  74 102 128 155 192 240 290
#     4  10  20  33  48  65  88 122 161 195 226 268
#     4   9  18  32  50  72  97 126 160 198 239 281
#     4   9  16  27  45  69  96 123 150 185 232 282
#     4  10  20  34  52  72  95 126 164 202 236 276
#     4   9  17  30  49  71  93 118 151 191 235 281
#     4  10  20  32  50  73  99 128 158 196 241 288
#
# _framework density 16.861183
#
# number of rings (size 3 to 8) (size 9 to 14) (size 15 to 20)
#    0.000    2.500    0.000    2.625    0.000    7.500 
#    0.000    0.000    0.000    0.375    0.000    0.000 
#    0.000    4.000    0.000    0.000    0.000    0.000 
#
# Total GULP energy -356463.150186 kJ/mol
# GULP energy per Si atom -5569.736722 kJ/mol
# Density = 1.682281 g / cm^3
# Si number density = 16.861183 Si / 1000 Ang^3
#
#
#
# Elastic Constant Matrix: (Units=GPa)
#
#
# Indices 1 2 3 4 5 6 
#
# 1 88.4120 36.4024 31.6970 0.0000 0.0000 0.0000
# 2 36.4024 46.9917 23.7439 0.0000 0.0000 0.0000
# 3 31.6970 23.7439 49.1177 0.0000 0.0000 0.0000
# 4 0.0000 0.0000 0.0000 10.8734 0.0000 0.0000
# 5 0.0000 0.0000 0.0000 0.0000 22.3519 0.0000
# 6 0.0000 0.0000 0.0000 0.0000 0.0000 14.3719
#
#
#
# Elastic Compliance Matrix: (Units=1/GPa)
#
#
# Indices 1 2 3 4 5 6 
#
# 1 0.018036 -0.010706 -0.006464 0.000000 0.000000 0.000000
# 2 -0.010706 0.034513 -0.009775 0.000000 0.000000 0.000000
# 3 -0.006464 -0.009775 0.029256 0.000000 0.000000 0.000000
# 4 0.000000 0.000000 0.000000 0.091968 0.000000 0.000000
# 5 0.000000 0.000000 0.000000 0.000000 0.044739 0.000000
# 6 0.000000 0.000000 0.000000 0.000000 0.000000 0.069580
#
#
# Mechanical properties :
#
#
# Convention : Reuss Voigt Hill
#
# Bulk Modulus (GPa) = 35.82258 40.91200 38.36729
# Shear Modulus (GPa) = 14.23344 15.69799 14.96571
#
# Velocity S-wave (km/s) = 2.90859 3.05456 2.98247
# Velocity P-wave (km/s) = 5.70715 6.06277 5.88764
#
# Compressibility (1/GPa) = 0.02791536
#
# Stress axis : x y z
#
# Youngs Moduli (GPa) = 55.44483 28.97487 34.18104
#
# Poissons Ratio (x) = 0.31019 0.22094
# Poissons Ratio (y) = 0.59357 0.33412
# Poissons Ratio (z) = 0.35839 0.28323
#
# Static dielectric constant tensor:
#      x y z
#    x 1.602480 0.000000 0.000000 
#    y 0.000000 1.549470 0.000000 
#    z 0.000000 0.000000 1.558530 
# 
# From -- ./inp_files/27675.got.cif
#   From: 2010.05.17/outbox.cif.g08.bks.cpg/sg59_14_cif.got.tgz:27675.got - 2010.06.03 14:40:33.
