data_PCOD9447405
_publ_section_title
;
Structure prediction by ZEFSAII (Michael W. Deem and Ramdas Pophale) SiO2 
 PCOD9447405
Probable space group: P M M N
;
_chemical_formula_sum "Si O2"
_cell_formula_units_Z 56
_cell_length_a 22.691624
_cell_length_b 8.951564
_cell_length_c 17.332897
_cell_angle_alpha 90.000000
_cell_angle_beta 90.000000
_cell_angle_gamma 90.000000
_cell_volume 3520.753794
_symmetry_space_group_name_H-M "P M M N"
_symmetry_group_IT_number 59
_space_group.IT_coordinate_system_code '2'
_symmetry_cell_setting 'orthorhombic'
loop_
_space_group_symop_operation_xyz
x,y,z
1/2-x,1/2-y,z
1/2+x,-y,-z
-x,1/2+y,-z
-x,-y,-z
1/2+x,1/2+y,-z
1/2-x,y,z
x,1/2-y,z
loop_
_atom_site_type_symbol
_atom_site_label
_atom_site_fract_x
_atom_site_fract_y
_atom_site_fract_z
Si Si1 0.513715 0.926818 0.129395
Si Si2 0.162519 0.078161 0.250013
Si Si3 0.048588 0.571082 0.442941
Si Si4 0.316445 0.570049 0.414915
Si Si5 0.316668 0.917986 0.092071
Si Si6 0.581623 0.924554 0.981922
Si Si7 0.975295 0.578752 0.720221
O O1 0.509031 0.750000 0.142782
O O2 0.459348 0.982467 0.076561
O O3 0.513689 0.010044 0.210884
O O4 0.567430 0.958235 0.070961
O O5 0.182077 0.250000 0.242487
O O6 0.091588 0.079519 0.248244
O O7 0.181218 0.009284 0.331639
O O8 0.182501 0.976575 0.179602
O O9 0.045633 0.750000 0.448765
O O10 0.119139 0.529120 0.453066
O O11 0.029119 0.516856 0.357696
O O12 0.000000 0.500000 0.500000
O O13 0.250000 0.535827 0.448295
O O14 0.318505 0.750000 0.405677
O O15 0.250000 0.912893 0.065395
O O16 0.341782 0.750000 0.088828
O O17 0.353341 0.031893 0.041288
O O18 0.568942 0.750000 0.969239
O O19 0.992088 0.750000 0.702831
#
# Coordination Sequence:
#
# PCOD9447405 Si02
#       7
#     8   8   8   8   8   8   8
#     4  10  19  31  49  70  94 122 156 199 243 285
#     4  10  19  29  43  66  95 126 162 199 234 279
#     4  10  20  34  52  74 103 134 165 205 251 298
#     4   9  18  32  49  69  95 130 167 199 237 289
#     4  11  22  32  43  61  89 127 166 202 242 289
#     4  10  20  32  46  67  92 122 160 201 243 283
#     4  10  19  31  49  72  98 128 164 199 239 290
#
# _framework density 15.905685
#
# number of rings (size 3 to 8) (size 9 to 14) (size 15 to 20)
#    0.000    2.000    1.429    3.000    0.000    6.571 
#    0.000    0.000    0.000    0.000    0.000    1.000 
#    0.000    5.714    0.000    0.000    0.000    0.000 
#
# Total GULP energy -311935.909369 kJ/mol
# GULP energy per Si atom -5570.284096 kJ/mol
# Density = 1.586948 g / cm^3
# Si number density = 15.905685 Si / 1000 Ang^3
#
#
#
# Elastic Constant Matrix: (Units=GPa)
#
#
# Indices 1 2 3 4 5 6 
#
# 1 79.4387 20.5126 38.5097 0.0000 0.0000 0.0000
# 2 20.5126 41.6882 18.0046 0.0000 0.0000 0.0000
# 3 38.5097 18.0046 57.2481 0.0000 0.0000 0.0000
# 4 0.0000 0.0000 0.0000 26.3695 0.0000 0.0000
# 5 0.0000 0.0000 0.0000 0.0000 12.3756 0.0000
# 6 0.0000 0.0000 0.0000 0.0000 0.0000 18.6373
#
#
#
# Elastic Compliance Matrix: (Units=1/GPa)
#
#
# Indices 1 2 3 4 5 6 
#
# 1 0.019389 -0.004522 -0.011621 0.000000 0.000000 0.000000
# 2 -0.004522 0.028812 -0.006020 0.000000 0.000000 0.000000
# 3 -0.011621 -0.006020 0.027178 0.000000 0.000000 0.000000
# 4 0.000000 0.000000 0.000000 0.037923 0.000000 0.000000
# 5 0.000000 0.000000 0.000000 0.000000 0.080804 0.000000
# 6 0.000000 0.000000 0.000000 0.000000 0.000000 0.053656
#
#
# Mechanical properties :
#
#
# Convention : Reuss Voigt Hill
#
# Bulk Modulus (GPa) = 32.20067 36.93654 34.56860
# Shear Modulus (GPa) = 16.53228 18.23303 17.38266
#
# Velocity S-wave (km/s) = 3.22746 3.38941 3.30943
# Velocity P-wave (km/s) = 5.84614 6.21209 6.03189
#
# Compressibility (1/GPa) = 0.03105525
#
# Stress axis : x y z
#
# Youngs Moduli (GPa) = 51.57485 34.70729 36.79430
#
# Poissons Ratio (x) = 0.15693 0.42758
# Poissons Ratio (y) = 0.23320 0.22150
# Poissons Ratio (z) = 0.59934 0.20893
#
# Static dielectric constant tensor:
#      x y z
#    x 1.568380 0.000000 0.000000 
#    y 0.000000 1.543140 0.000000 
#    z 0.000000 0.000000 1.509340 
# 
# From -- ./inp_files/26373.got.cif
#   From: 2010.05.17/outbox.cif.g08.bks.cpg/sg59_14_cif.got.tgz:26373.got - 2010.06.03 14:40:33.
