data_PCOD9447062
_publ_section_title
;
Structure prediction by ZEFSAII (Michael W. Deem and Ramdas Pophale) SiO2 
 PCOD9447062
Probable space group: P M M N
;
_chemical_formula_sum "Si O2"
_cell_formula_units_Z 56
_cell_length_a 20.190606
_cell_length_b 17.574231
_cell_length_c 9.202370
_cell_angle_alpha 90.000000
_cell_angle_beta 90.000000
_cell_angle_gamma 90.000000
_cell_volume 3265.317197
_symmetry_space_group_name_H-M "P M M N"
_symmetry_group_IT_number 59
_space_group.IT_coordinate_system_code '2'
_symmetry_cell_setting 'orthorhombic'
loop_
_space_group_symop_operation_xyz
x,y,z
1/2-x,1/2-y,z
1/2+x,-y,-z
-x,1/2+y,-z
-x,-y,-z
1/2+x,1/2+y,-z
1/2-x,y,z
x,1/2-y,z
loop_
_atom_site_type_symbol
_atom_site_label
_atom_site_fract_x
_atom_site_fract_y
_atom_site_fract_z
Si Si1 0.326043 0.978443 0.451901
Si Si2 0.965442 0.983077 0.653489
Si Si3 0.322966 0.989481 0.798371
Si Si4 0.671194 0.334551 0.729394
Si Si5 0.009218 0.335861 0.150472
Si Si6 0.039230 0.059901 0.899627
Si Si7 0.642197 0.163682 0.053778
O O1 0.250000 0.998700 0.409709
O O2 0.331587 0.988090 0.624344
O O3 0.337649 0.891488 0.402876
O O4 0.386366 0.018737 0.369952
O O5 0.982220 0.902150 0.729182
O O6 0.000000 0.000000 0.500000
O O7 0.994886 0.051083 0.754731
O O8 0.250000 0.022732 0.831388
O O9 0.323123 0.903350 0.858672
O O10 0.386582 0.031521 0.865435
O O11 0.750000 0.332270 0.757723
O O12 0.647493 0.250000 0.694495
O O13 0.640510 0.358514 0.883400
O O14 0.030888 0.250000 0.190234
O O15 0.931449 0.333299 0.115692
O O16 0.040858 0.364684 0.997774
O O17 0.000000 0.000000 0.000000
O O18 0.670036 0.250000 0.061539
#
# Coordination Sequence:
#
# PCOD9447062 Si02
#       7
#     8   8   8   8   8   8   8
#     4  10  21  34  52  78 108 141 184 229 273 329
#     4  11  19  36  60  81 111 146 185 225 279 328
#     4  11  21  34  52  82 111 142 184 225 272 333
#     4   9  18  31  47  72 109 148 181 214 256 315
#     4  10  21  36  57  82 112 143 184 234 282 332
#     4  10  19  36  57  79 107 146 181 226 273 320
#     4  10  18  32  51  77 110 146 180 219 269 326
#
# _framework density 17.149941999999999
#
# number of rings (size 3 to 8) (size 9 to 14) (size 15 to 20)
#    0.000    1.857    4.286    1.286    2.000    1.429 
#    0.000    2.857    0.000    1.714    0.000    2.000 
#    0.000    0.000    0.000    0.000    0.000    0.000 
#
# Total GULP energy -311753.233045 kJ/mol
# GULP energy per Si atom -5567.022019 kJ/mol
# Density = 1.711091 g / cm^3
# Si number density = 17.149942 Si / 1000 Ang^3
#
#
#
# Elastic Constant Matrix: (Units=GPa)
#
#
# Indices 1 2 3 4 5 6 
#
# 1 116.6393 27.8621 33.4896 0.0000 0.0000 0.0000
# 2 27.8621 71.2867 29.4507 0.0000 0.0000 0.0000
# 3 33.4896 29.4507 72.8771 0.0000 0.0000 0.0000
# 4 0.0000 0.0000 0.0000 20.1318 0.0000 0.0000
# 5 0.0000 0.0000 0.0000 0.0000 28.0490 0.0000
# 6 0.0000 0.0000 0.0000 0.0000 0.0000 19.3747
#
#
#
# Elastic Compliance Matrix: (Units=1/GPa)
#
#
# Indices 1 2 3 4 5 6 
#
# 1 0.010226 -0.002467 -0.003702 0.000000 0.000000 0.000000
# 2 -0.002467 0.017434 -0.005912 0.000000 0.000000 0.000000
# 3 -0.003702 -0.005912 0.017812 0.000000 0.000000 0.000000
# 4 0.000000 0.000000 0.000000 0.049673 0.000000 0.000000
# 5 0.000000 0.000000 0.000000 0.000000 0.035652 0.000000
# 6 0.000000 0.000000 0.000000 0.000000 0.000000 0.051614
#
#
# Mechanical properties :
#
#
# Convention : Reuss Voigt Hill
#
# Bulk Modulus (GPa) = 46.92602 49.15642 48.04122
# Shear Modulus (GPa) = 23.39992 24.84447 24.12220
#
# Velocity S-wave (km/s) = 3.69783 3.81026 3.75446
# Velocity P-wave (km/s) = 6.75674 6.93415 6.84602
#
# Compressibility (1/GPa) = 0.02131014
#
# Stress axis : x y z
#
# Youngs Moduli (GPa) = 97.79242 57.35755 56.14206
#
# Poissons Ratio (x) = 0.14152 0.20784
# Poissons Ratio (y) = 0.24128 0.33190
# Poissons Ratio (z) = 0.36203 0.33908
#
# Static dielectric constant tensor:
#      x y z
#    x 1.616090 0.000000 0.000000 
#    y 0.000000 1.627240 0.000000 
#    z 0.000000 0.000000 1.601910 
# 
# From -- ./inp_files/11539.got.cif
#   From: 2010.05.17/outbox.cif.g08.bks.cpg/sg59_6_cif.got.tgz:11539.got - 2010.06.03 14:40:33.
