data_PCOD9447791
_publ_section_title
;
Structure prediction by ZEFSAII (Michael W. Deem and Ramdas Pophale) SiO2 
 PCOD9447791
Probable space group: P M M N
;
_chemical_formula_sum "Si O2"
_cell_formula_units_Z 48
_cell_length_a 7.321099
_cell_length_b 24.190206
_cell_length_c 10.412252
_cell_angle_alpha 90.000000
_cell_angle_beta 90.000000
_cell_angle_gamma 90.000000
_cell_volume 1843.998302
_symmetry_space_group_name_H-M "P M M N"
_symmetry_group_IT_number 59
_space_group.IT_coordinate_system_code '2'
_symmetry_cell_setting 'orthorhombic'
loop_
_space_group_symop_operation_xyz
x,y,z
1/2-x,1/2-y,z
1/2+x,-y,-z
-x,1/2+y,-z
-x,-y,-z
1/2+x,1/2+y,-z
1/2-x,y,z
x,1/2-y,z
loop_
_atom_site_type_symbol
_atom_site_label
_atom_site_fract_x
_atom_site_fract_y
_atom_site_fract_z
Si Si1 0.541153 0.160532 0.090877
Si Si2 0.526412 0.432645 0.728371
Si Si3 0.027587 0.809462 0.627474
Si Si4 0.470676 0.927368 0.552289
Si Si5 0.026446 0.689209 0.189094
Si Si6 0.544289 0.539711 0.841667
O O1 0.750000 0.179515 0.092345
O O2 0.462623 0.180571 0.226206
O O3 0.542562 0.093487 0.093853
O O4 0.464962 0.183609 0.959265
O O5 0.750000 0.433773 0.730728
O O6 0.469083 0.450993 0.584518
O O7 0.470188 0.369505 0.750975
O O8 0.465493 0.477649 0.834453
O O9 0.250000 0.809521 0.630425
O O10 0.967769 0.750000 0.580147
O O11 0.978871 0.862445 0.545808
O O12 0.250000 0.931463 0.560972
O O13 0.546646 0.945994 0.688924
O O14 0.250000 0.688398 0.193674
O O15 0.971968 0.750000 0.239220
O O16 0.750000 0.536559 0.889708
#
# Coordination Sequence:
#
# PCOD9447791 Si02
#       6
#     8   8   8   8   8   8
#     4   9  17  30  49  72  96 122 157 199 239 282
#     4   9  18  30  45  70 101 128 156 195 241 287
#     4   8  13  22  40  66  90 113 147 192 236 273
#     4   9  17  30  48  70  97 127 160 199 240 284
#     4   9  17  30  50  75 100 125 155 195 242 287
#     4  10  19  31  48  70  98 129 160 197 240 283
#
# _framework density 26.030393
#
# number of rings (size 3 to 8) (size 9 to 14) (size 15 to 20)
#    0.000    3.000    0.000    2.500    0.000    3.333 
#    0.000    4.167    0.000   14.500    0.000    0.000 
#    0.000    0.000    0.000    0.000    0.000    0.000 
#
# Total GULP energy -268094.279241 kJ/mol
# GULP energy per Si atom -5585.297484 kJ/mol
# Density = 2.597115 g / cm^3
# Si number density = 26.030393 Si / 1000 Ang^3
#
#
#
# Elastic Constant Matrix: (Units=GPa)
#
#
# Indices 1 2 3 4 5 6 
#
# 1 106.0479 -0.4139 4.6207 0.0000 0.0000 0.0000
# 2 -0.4139 167.5753 12.9785 0.0000 0.0000 0.0000
# 3 4.6207 12.9785 50.0571 0.0000 0.0000 0.0000
# 4 0.0000 0.0000 0.0000 28.2680 0.0000 0.0000
# 5 0.0000 0.0000 0.0000 0.0000 3.8180 0.0000
# 6 0.0000 0.0000 0.0000 0.0000 0.0000 4.5611
#
#
#
# Elastic Compliance Matrix: (Units=1/GPa)
#
#
# Indices 1 2 3 4 5 6 
#
# 1 0.009469 0.000093 -0.000898 0.000000 0.000000 0.000000
# 2 0.000093 0.006091 -0.001588 0.000000 0.000000 0.000000
# 3 -0.000898 -0.001588 0.020472 0.000000 0.000000 0.000000
# 4 0.000000 0.000000 0.000000 0.035376 0.000000 0.000000
# 5 0.000000 0.000000 0.000000 0.000000 0.261918 0.000000
# 6 0.000000 0.000000 0.000000 0.000000 0.000000 0.219244
#
#
# Mechanical properties :
#
#
# Convention : Reuss Voigt Hill
#
# Bulk Modulus (GPa) = 32.00442 39.78343 35.89392
# Shear Modulus (GPa) = 8.80637 27.76244 18.28440
#
# Velocity S-wave (km/s) = 1.84132 3.26933 2.65321
# Velocity P-wave (km/s) = 4.10394 5.43765 4.81717
#
# Compressibility (1/GPa) = 0.03124569
#
# Stress axis : x y z
#
# Youngs Moduli (GPa) = 105.60557 164.18575 48.84781
#
# Poissons Ratio (x) = -0.01526 0.04387
# Poissons Ratio (y) = -0.00982 0.07756
# Poissons Ratio (z) = 0.09485 0.26068
#
# Static dielectric constant tensor:
#      x y z
#    x 2.002170 0.000000 0.000000 
#    y 0.000000 2.081850 0.000000 
#    z 0.000000 0.000000 1.992570 
# 
# From -- ./inp_files/14359.got.cif
#   From: 2010.05.17/outbox.cif.g08.bks.cpg/sg59_8_cif.got.tgz:14359.got - 2010.06.03 14:40:33.
