data_PCOD9447152
_publ_section_title
;
Structure prediction by ZEFSAII (Michael W. Deem and Ramdas Pophale) SiO2 
 PCOD9447152
Probable space group: P M M N
;
_chemical_formula_sum "Si O2"
_cell_formula_units_Z 48
_cell_length_a 8.170304
_cell_length_b 18.590373
_cell_length_c 16.367990
_cell_angle_alpha 90.000000
_cell_angle_beta 90.000000
_cell_angle_gamma 90.000000
_cell_volume 2486.117615
_symmetry_space_group_name_H-M "P M M N"
_symmetry_group_IT_number 59
_space_group.IT_coordinate_system_code '2'
_symmetry_cell_setting 'orthorhombic'
loop_
_space_group_symop_operation_xyz
x,y,z
1/2-x,1/2-y,z
1/2+x,-y,-z
-x,1/2+y,-z
-x,-y,-z
1/2+x,1/2+y,-z
1/2-x,y,z
x,1/2-y,z
loop_
_atom_site_type_symbol
_atom_site_label
_atom_site_fract_x
_atom_site_fract_y
_atom_site_fract_z
Si Si1 0.552236 0.250000 0.106559
Si Si2 0.549524 0.888903 0.604389
Si Si3 0.551880 0.394597 0.019245
Si Si4 0.555849 0.526781 0.133279
Si Si5 0.943460 0.460951 0.681883
Si Si6 0.053643 0.332404 0.572097
Si Si7 0.053557 0.250000 0.293205
O O1 0.750000 0.250000 0.108595
O O2 0.498342 0.320169 0.058019
O O3 0.492602 0.250000 0.198990
O O4 0.750000 0.890230 0.605447
O O5 0.495955 0.868406 0.512934
O O6 0.495819 0.823014 0.662509
O O7 0.492482 0.966679 0.636577
O O8 0.750000 0.397180 0.015010
O O9 0.497573 0.457131 0.081952
O O10 0.484501 0.409037 0.929133
O O11 0.750000 0.520930 0.144440
O O12 0.477826 0.532914 0.221887
O O13 0.750000 0.459139 0.668622
O O14 0.013119 0.387678 0.644068
O O15 0.250000 0.327681 0.566221
O O16 0.992395 0.250000 0.581142
O O17 0.250000 0.250000 0.300831
#
# Coordination Sequence:
#
# PCOD9447152 Si02
#       7
#     4   8   8   8   8   8   4
#     4  10  20  34  52  81 114 141 170 215 278 331
#     4   9  18  34  57  83 110 145 185 226 272 325
#     4   9  19  36  57  79 109 144 178 223 278 329
#     4  10  20  36  57  80 107 143 186 225 268 324
#     4  11  22  35  55  84 114 144 184 228 275 330
#     4  10  20  38  60  79 107 147 189 231 275 322
#     4  10  18  32  56  83 112 145 184 225 268 323
#
# _framework density 19.307213000000001
#
# number of rings (size 3 to 8) (size 9 to 14) (size 15 to 20)
#    0.000    2.167    0.833    2.500    0.000    1.667 
#    1.500    2.500    0.000    0.000    0.000    0.000 
#    0.000    0.000    0.000    0.000    0.000    0.000 
#
# Total GULP energy -267943.358261 kJ/mol
# GULP energy per Si atom -5582.153297 kJ/mol
# Density = 1.926327 g / cm^3
# Si number density = 19.307213 Si / 1000 Ang^3
#
#
#
# Elastic Constant Matrix: (Units=GPa)
#
#
# Indices 1 2 3 4 5 6 
#
# 1 7.2601 6.8708 1.4018 0.0000 0.0000 0.0000
# 2 6.8708 121.8295 84.2739 0.0000 0.0000 0.0000
# 3 1.4018 84.2739 106.7599 0.0000 0.0000 0.0000
# 4 0.0000 0.0000 0.0000 28.5936 0.0000 0.0000
# 5 0.0000 0.0000 0.0000 0.0000 19.7998 0.0000
# 6 0.0000 0.0000 0.0000 0.0000 0.0000 14.2710
#
#
#
# Elastic Compliance Matrix: (Units=1/GPa)
#
#
# Indices 1 2 3 4 5 6 
#
# 1 0.150582 -0.015694 0.010412 0.000000 0.000000 0.000000
# 2 -0.015694 0.019717 -0.015358 0.000000 0.000000 0.000000
# 3 0.010412 -0.015358 0.021353 0.000000 0.000000 0.000000
# 4 0.000000 0.000000 0.000000 0.034973 0.000000 0.000000
# 5 0.000000 0.000000 0.000000 0.000000 0.050505 0.000000
# 6 0.000000 0.000000 0.000000 0.000000 0.000000 0.070072
#
#
# Mechanical properties :
#
#
# Convention : Reuss Voigt Hill
#
# Bulk Modulus (GPa) = 6.65022 46.77136 26.71079
# Shear Modulus (GPa) = 11.39967 22.08643 16.74305
#
# Velocity S-wave (km/s) = 2.43253 3.38590 2.94801
# Velocity P-wave (km/s) = 3.36771 6.28992 5.04503
#
# Compressibility (1/GPa) = 0.15037102
#
# Stress axis : x y z
#
# Youngs Moduli (GPa) = 6.64089 50.71741 46.83078
#
# Poissons Ratio (x) = 0.79598 -0.48759
# Poissons Ratio (y) = 0.10422 0.71923
# Poissons Ratio (z) = -0.06914 0.77893
#
# Static dielectric constant tensor:
#      x y z
#    x 1.682260 0.000000 0.000000 
#    y 0.000000 1.681540 0.000000 
#    z 0.000000 0.000000 1.631740 
# 
# From -- ./inp_files/20550.got.cif
#   From: 2010.05.17/outbox.cif.g08.bks.cpg/sg59_11_cif.got.tgz:20550.got - 2010.06.03 14:40:33.
