data_PCOD9447770
_publ_section_title
;
Structure prediction by ZEFSAII (Michael W. Deem and Ramdas Pophale) SiO2 
 PCOD9447770
Probable space group: P M M N
;
_chemical_formula_sum "Si O2"
_cell_formula_units_Z 64
_cell_length_a 18.219779
_cell_length_b 8.569102
_cell_length_c 23.329612
_cell_angle_alpha 90.000000
_cell_angle_beta 90.000000
_cell_angle_gamma 90.000000
_cell_volume 3642.385708
_symmetry_space_group_name_H-M "P M M N"
_symmetry_group_IT_number 59
_space_group.IT_coordinate_system_code '2'
_symmetry_cell_setting 'orthorhombic'
loop_
_space_group_symop_operation_xyz
x,y,z
1/2-x,1/2-y,z
1/2+x,-y,-z
-x,1/2+y,-z
-x,-y,-z
1/2+x,1/2+y,-z
1/2-x,y,z
x,1/2-y,z
loop_
_atom_site_type_symbol
_atom_site_label
_atom_site_fract_x
_atom_site_fract_y
_atom_site_fract_z
Si Si1 0.668993 0.436694 0.294878
Si Si2 0.567503 0.436961 0.037902
Si Si3 0.465088 0.560865 0.382248
Si Si4 0.467392 0.438100 0.137994
Si Si5 0.626906 0.936691 0.418041
Si Si6 0.485263 0.436761 0.742009
Si Si7 0.668889 0.061607 0.541205
Si Si8 0.833487 0.561737 0.944426
O O1 0.750000 0.485422 0.273958
O O2 0.664319 0.250000 0.291841
O O3 0.661627 0.488767 0.361233
O O4 0.599116 0.507112 0.262239
O O5 0.570409 0.250000 0.034819
O O6 0.540706 0.481275 0.101584
O O7 0.500000 0.500000 0.000000
O O8 0.638742 0.505248 0.006800
O O9 0.460514 0.750000 0.380317
O O10 0.540395 0.522764 0.415069
O O11 0.475513 0.507324 0.316759
O O12 0.394857 0.502998 0.416764
O O13 0.464751 0.250000 0.140189
O O14 0.474955 0.503580 0.201339
O O15 0.394767 0.490047 0.102408
O O16 0.634660 0.750000 0.413942
O O17 0.658857 0.996700 0.477379
O O18 0.485285 0.250000 0.741525
O O19 0.750000 0.020857 0.562563
O O20 0.663794 0.250000 0.537980
O O21 0.750000 0.510629 0.932531
O O22 0.834874 0.750000 0.944362
#
# Coordination Sequence:
#
# PCOD9447770 Si02
#       8
#     8   8   8   8   8   8   8   8
#     4  10  20  34  52  73  97 125 158 198 247 303
#     4   9  17  30  50  75 102 132 165 201 244 294
#     4   8  17  33  48  66  92 123 160 199 242 289
#     4   9  18  33  52  74 102 137 172 204 244 296
#     4  10  19  31  49  71  96 123 153 196 245 296
#     4  10  20  34  53  74  97 129 170 211 246 287
#     4  10  19  31  48  68  92 123 157 195 242 296
#     4   9  18  33  53  78 108 139 171 210 254 295
#
# _framework density 17.570902
#
# number of rings (size 3 to 8) (size 9 to 14) (size 15 to 20)
#    0.000    2.625    0.000    3.750    0.000    5.500 
#    0.000    4.375    0.000    1.500    0.000    0.000 
#    0.000    0.000    0.000    0.000    0.000    0.000 
#
# Total GULP energy -356663.470484 kJ/mol
# GULP energy per Si atom -5572.866726 kJ/mol
# Density = 1.753091 g / cm^3
# Si number density = 17.570902 Si / 1000 Ang^3
#
#
#
# Elastic Constant Matrix: (Units=GPa)
#
#
# Indices 1 2 3 4 5 6 
#
# 1 110.1654 21.0016 47.3564 0.0000 0.0000 0.0000
# 2 21.0016 13.7909 12.6290 0.0000 0.0000 0.0000
# 3 47.3564 12.6290 67.2315 0.0000 0.0000 0.0000
# 4 0.0000 0.0000 0.0000 26.8406 0.0000 0.0000
# 5 0.0000 0.0000 0.0000 0.0000 17.0594 0.0000
# 6 0.0000 0.0000 0.0000 0.0000 0.0000 20.0599
#
#
#
# Elastic Compliance Matrix: (Units=1/GPa)
#
#
# Indices 1 2 3 4 5 6 
#
# 1 0.015631 -0.016572 -0.007897 0.000000 0.000000 0.000000
# 2 -0.016572 0.105146 -0.008078 0.000000 0.000000 0.000000
# 3 -0.007897 -0.008078 0.021954 0.000000 0.000000 0.000000
# 4 0.000000 0.000000 0.000000 0.037257 0.000000 0.000000
# 5 0.000000 0.000000 0.000000 0.000000 0.058619 0.000000
# 6 0.000000 0.000000 0.000000 0.000000 0.000000 0.049851
#
#
# Mechanical properties :
#
#
# Convention : Reuss Voigt Hill
#
# Bulk Modulus (GPa) = 12.88055 39.24020 26.06038
# Shear Modulus (GPa) = 13.17760 20.13872 16.65816
#
# Velocity S-wave (km/s) = 2.74152 3.38914 3.08239
# Velocity P-wave (km/s) = 4.16747 6.13971 5.24709
#
# Compressibility (1/GPa) = 0.07763642
#
# Stress axis : x y z
#
# Youngs Moduli (GPa) = 63.97400 9.51058 45.54960
#
# Poissons Ratio (x) = 0.15761 0.35972
# Poissons Ratio (y) = 1.06019 0.36795
# Poissons Ratio (z) = 0.50523 0.07683
#
# Static dielectric constant tensor:
#      x y z
#    x 1.617890 0.000000 0.000000 
#    y 0.000000 1.595830 0.000000 
#    z 0.000000 0.000000 1.584370 
# 
# From -- ./inp_files/30712.got.cif
#   From: 2010.05.17/outbox.cif.g08.bks.cpg/sg59_16_cif.got.tgz:30712.got - 2010.06.03 14:40:33.
