data_PCOD9447521
_publ_section_title
;
Structure prediction by ZEFSAII (Michael W. Deem and Ramdas Pophale) SiO2 
 PCOD9447521
Probable space group: P M M N
;
_chemical_formula_sum "Si O2"
_cell_formula_units_Z 56
_cell_length_a 18.572497
_cell_length_b 8.840006
_cell_length_c 19.695327
_cell_angle_alpha 90.000000
_cell_angle_beta 90.000000
_cell_angle_gamma 90.000000
_cell_volume 3233.598185
_symmetry_space_group_name_H-M "P M M N"
_symmetry_group_IT_number 59
_space_group.IT_coordinate_system_code '2'
_symmetry_cell_setting 'orthorhombic'
loop_
_space_group_symop_operation_xyz
x,y,z
1/2-x,1/2-y,z
1/2+x,-y,-z
-x,1/2+y,-z
-x,-y,-z
1/2+x,1/2+y,-z
1/2-x,y,z
x,1/2-y,z
loop_
_atom_site_type_symbol
_atom_site_label
_atom_site_fract_x
_atom_site_fract_y
_atom_site_fract_z
Si Si1 0.390469 0.069388 0.272010
Si Si2 0.831782 0.068964 0.863630
Si Si3 0.972377 0.932364 0.929803
Si Si4 0.666746 0.067090 0.306219
Si Si5 0.956851 0.067390 0.208807
Si Si6 0.836932 0.426814 0.589957
Si Si7 0.837618 0.575561 0.448809
O O1 0.381334 0.250000 0.265812
O O2 0.473277 0.031717 0.254288
O O3 0.344212 0.988708 0.213312
O O4 0.369062 0.014804 0.346266
O O5 0.750000 0.032836 0.884583
O O6 0.841012 0.250000 0.865724
O O7 0.893111 0.990895 0.909072
O O8 0.971687 0.750000 0.932337
O O9 0.024400 0.982272 0.867436
O O10 0.000000 0.000000 0.000000
O O11 0.750000 0.021885 0.295979
O O12 0.664724 0.250000 0.309054
O O13 0.614885 0.012927 0.245948
O O14 0.640887 0.004533 0.378843
O O15 0.952028 0.250000 0.205919
O O16 0.750000 0.441446 0.592964
O O17 0.854644 0.250000 0.594602
O O18 0.861319 0.492730 0.517482
O O19 0.750000 0.571235 0.449398
O O20 0.860062 0.750000 0.449368
#
# Coordination Sequence:
#
# PCOD9447521 Si02
#       7
#     8   8   8   8   8   8   8
#     4  10  19  31  48  70 100 135 167 204 251 301
#     4  10  20  34  53  78 106 136 173 214 253 299
#     4  10  20  36  57  79 107 141 173 207 251 304
#     4   9  16  30  53  74  92 120 160 204 247 291
#     4   8  17  33  51  73  99 127 161 199 241 295
#     4  10  19  30  45  67  95 127 166 209 248 291
#     4   9  17  29  45  67  95 125 159 201 249 297
#
# _framework density 17.318169000000001
#
# number of rings (size 3 to 8) (size 9 to 14) (size 15 to 20)
#    0.000    2.571    0.000    3.429    0.000    5.429 
#    0.000    5.714    0.000    2.571    0.000    0.000 
#    0.000    0.000    0.000    0.000    0.000    0.000 
#
# Total GULP energy -312246.719375 kJ/mol
# GULP energy per Si atom -5575.834275 kJ/mol
# Density = 1.727875 g / cm^3
# Si number density = 17.318169 Si / 1000 Ang^3
#
#
#
# Elastic Constant Matrix: (Units=GPa)
#
#
# Indices 1 2 3 4 5 6 
#
# 1 70.4366 36.7095 74.2662 0.0000 0.0000 0.0000
# 2 36.7095 57.0686 46.8651 0.0000 0.0000 0.0000
# 3 74.2662 46.8651 150.2413 0.0000 0.0000 0.0000
# 4 0.0000 0.0000 0.0000 28.8818 0.0000 0.0000
# 5 0.0000 0.0000 0.0000 0.0000 19.7573 0.0000
# 6 0.0000 0.0000 0.0000 0.0000 0.0000 18.5195
#
#
#
# Elastic Compliance Matrix: (Units=1/GPa)
#
#
# Indices 1 2 3 4 5 6 
#
# 1 0.034008 -0.010850 -0.013426 0.000000 0.000000 0.000000
# 2 -0.010850 0.027019 -0.003065 0.000000 0.000000 0.000000
# 3 -0.013426 -0.003065 0.014249 0.000000 0.000000 0.000000
# 4 0.000000 0.000000 0.000000 0.034624 0.000000 0.000000
# 5 0.000000 0.000000 0.000000 0.000000 0.050614 0.000000
# 6 0.000000 0.000000 0.000000 0.000000 0.000000 0.053997
#
#
# Mechanical properties :
#
#
# Convention : Reuss Voigt Hill
#
# Bulk Modulus (GPa) = 48.55861 65.93646 57.24753
# Shear Modulus (GPa) = 18.11219 21.42545 19.76882
#
# Velocity S-wave (km/s) = 3.23747 3.52115 3.38229
# Velocity P-wave (km/s) = 6.48652 7.39511 6.95566
#
# Compressibility (1/GPa) = 0.02059367
#
# Stress axis : x y z
#
# Youngs Moduli (GPa) = 29.40482 37.01107 70.18223
#
# Poissons Ratio (x) = 0.40158 0.94227
# Poissons Ratio (y) = 0.31905 0.21509
# Poissons Ratio (z) = 0.39479 0.11343
#
# Static dielectric constant tensor:
#      x y z
#    x 1.592960 0.000000 0.000000 
#    y 0.000000 1.582080 0.000000 
#    z 0.000000 0.000000 1.566730 
# 
# From -- ./inp_files/30624.got.cif
#   From: 2010.05.17/outbox.cif.g08.bks.cpg/sg59_16_cif.got.tgz:30624.got - 2010.06.03 14:40:33.
