data_PCOD9447374
_publ_section_title
;
Structure prediction by ZEFSAII (Michael W. Deem and Ramdas Pophale) SiO2 
 PCOD9447374
Probable space group: P M M N
;
_chemical_formula_sum "Si O2"
_cell_formula_units_Z 56
_cell_length_a 29.325020
_cell_length_b 7.267785
_cell_length_c 11.697048
_cell_angle_alpha 90.000000
_cell_angle_beta 90.000000
_cell_angle_gamma 90.000000
_cell_volume 2492.967750
_symmetry_space_group_name_H-M "P M M N"
_symmetry_group_IT_number 59
_space_group.IT_coordinate_system_code '2'
_symmetry_cell_setting 'orthorhombic'
loop_
_space_group_symop_operation_xyz
x,y,z
1/2-x,1/2-y,z
1/2+x,-y,-z
-x,1/2+y,-z
-x,-y,-z
1/2+x,1/2+y,-z
1/2-x,y,z
x,1/2-y,z
loop_
_atom_site_type_symbol
_atom_site_label
_atom_site_fract_x
_atom_site_fract_y
_atom_site_fract_z
Si Si1 0.430092 0.026604 0.568476
Si Si2 0.581504 0.963429 0.681066
Si Si3 0.591758 0.972875 0.066751
Si Si4 0.250000 0.025999 0.056284
Si Si5 0.652583 0.972489 0.286389
Si Si6 0.010814 0.471607 0.786280
Si Si7 0.651756 0.524718 0.853193
Si Si8 0.750000 0.974779 0.210873
O O1 0.433728 0.250000 0.571276
O O2 0.436731 0.959955 0.439300
O O3 0.379188 0.973152 0.608331
O O4 0.464144 0.964827 0.668867
O O5 0.590594 0.750000 0.657211
O O6 0.627895 0.037325 0.736033
O O7 0.541335 0.972187 0.774616
O O8 0.590207 0.750000 0.060823
O O9 0.624702 0.021731 0.172434
O O10 0.541439 0.034507 0.106417
O O11 0.617274 0.035282 0.953640
O O12 0.250000 0.250000 0.056081
O O13 0.296847 0.967705 0.117390
O O14 0.250000 0.970847 0.922725
O O15 0.653922 0.750000 0.288688
O O16 0.704061 0.036192 0.273251
O O17 0.011700 0.250000 0.787373
O O18 0.652047 0.750000 0.853452
O O19 0.750000 0.750000 0.210228
#
# Coordination Sequence:
#
# PCOD9447374 Si02
#       8
#     8   8   8   4   8   8   8   4
#     4   8  15  27  40  55  79 110 141 171 205 244
#     4  10  19  29  41  60  88 117 137 161 206 256
#     4   8  13  23  38  57  79 104 136 174 208 235
#     4   9  14  22  37  57  82 111 141 166 194 246
#     4   8  12  19  33  54  77 102 135 173 206 236
#     4   9  17  29  46  62  78 107 147 181 203 231
#     4   9  16  25  38  58  85 114 139 164 203 253
#     4   9  12  16  33  57  77 101 137 174 204 238
#
# _framework density 22.463187999999999
#
# number of rings (size 3 to 8) (size 9 to 14) (size 15 to 20)
#    0.000    3.286    1.429    2.143    0.000    0.571 
#    0.000    0.714    0.000    4.286    0.000    0.500 
#    0.000    0.000    0.000   16.000    0.000   17.143 
#
# Total GULP energy -312459.095589 kJ/mol
# GULP energy per Si atom -5579.626707 kJ/mol
# Density = 2.241206 g / cm^3
# Si number density = 22.463188 Si / 1000 Ang^3
#
#
#
# Elastic Constant Matrix: (Units=GPa)
#
#
# Indices 1 2 3 4 5 6 
#
# 1 143.5362 -8.8654 36.7015 0.0000 0.0000 0.0000
# 2 -8.8654 97.7024 1.4938 0.0000 0.0000 0.0000
# 3 36.7015 1.4938 44.1055 0.0000 0.0000 0.0000
# 4 0.0000 0.0000 0.0000 -14.2402 0.0000 0.0000
# 5 0.0000 0.0000 0.0000 0.0000 29.4466 0.0000
# 6 0.0000 0.0000 0.0000 0.0000 0.0000 -0.9335
#
#
#
# Elastic Compliance Matrix: (Units=1/GPa)
#
#
# Indices 1 2 3 4 5 6 
#
# 1 0.008933 0.000925 -0.007464 0.000000 0.000000 0.000000
# 2 0.000925 0.010336 -0.001120 0.000000 0.000000 0.000000
# 3 -0.007464 -0.001120 0.028922 0.000000 0.000000 0.000000
# 4 0.000000 0.000000 0.000000 -0.070224 0.000000 0.000000
# 5 0.000000 0.000000 0.000000 0.000000 0.033960 0.000000
# 6 0.000000 0.000000 0.000000 0.000000 0.000000 -1.071201
#
#
# Mechanical properties :
#
#
# Convention : Reuss Voigt Hill
#
# Bulk Modulus (GPa) = 30.42059 38.22265 34.32162
# Shear Modulus (GPa) = -4.84028 19.92218 7.54095
#
# Velocity S-wave (km/s) = -1.46950 2.98129 1.83421
# Velocity P-wave (km/s) = 3.26995 5.37619 4.44949
#
# Compressibility (1/GPa) = 0.03287247
#
# Stress axis : x y z
#
# Youngs Moduli (GPa) = 111.94945 96.74753 34.57555
#
# Poissons Ratio (x) = -0.08946 0.25809
# Poissons Ratio (y) = -0.10351 0.03871
# Poissons Ratio (z) = 0.83564 0.10831
#
# Static dielectric constant tensor:
#      x y z
#    x 1.810190 0.000000 0.000000 
#    y 0.000000 1.944480 0.000000 
#    z 0.000000 0.000000 1.814170 
# 
# From -- ./inp_files/18724.got.cif
#   From: 2010.05.17/outbox.cif.g08.bks.cpg/sg59_10_cif.got.tgz:18724.got - 2010.06.03 14:40:33.
