data_PCOD9447147
_publ_section_title
;
Structure prediction by ZEFSAII (Michael W. Deem and Ramdas Pophale) SiO2 
 PCOD9447147
Probable space group: P M M N
;
_chemical_formula_sum "Si O2"
_cell_formula_units_Z 64
_cell_length_a 7.581699
_cell_length_b 24.221165
_cell_length_c 15.947928
_cell_angle_alpha 90.000000
_cell_angle_beta 90.000000
_cell_angle_gamma 90.000000
_cell_volume 2928.638943
_symmetry_space_group_name_H-M "P M M N"
_symmetry_group_IT_number 59
_space_group.IT_coordinate_system_code '2'
_symmetry_cell_setting 'orthorhombic'
loop_
_space_group_symop_operation_xyz
x,y,z
1/2-x,1/2-y,z
1/2+x,-y,-z
-x,1/2+y,-z
-x,-y,-z
1/2+x,1/2+y,-z
1/2-x,y,z
x,1/2-y,z
loop_
_atom_site_type_symbol
_atom_site_label
_atom_site_fract_x
_atom_site_fract_y
_atom_site_fract_z
Si Si1 0.463208 0.508814 0.348994
Si Si2 0.039769 0.608309 0.084292
Si Si3 0.953807 0.869746 0.407136
Si Si4 0.533162 0.609307 0.588829
Si Si5 0.463331 0.187325 0.760016
Si Si6 0.547122 0.370583 0.095384
Si Si7 0.543650 0.811479 0.735925
Si Si8 0.036050 0.492479 0.153682
O O1 0.250000 0.513057 0.353287
O O2 0.539141 0.565758 0.382759
O O3 0.520338 0.454348 0.399071
O O4 0.510233 0.500303 0.251394
O O5 0.250000 0.602495 0.072301
O O6 0.973509 0.546614 0.103872
O O7 0.012157 0.646873 0.164376
O O8 0.968452 0.633671 0.997893
O O9 0.750000 0.852035 0.413695
O O10 0.029029 0.865922 0.500584
O O11 0.031117 0.836290 0.328821
O O12 0.750000 0.608295 0.588287
O O13 0.471653 0.645353 0.667881
O O14 0.250000 0.187319 0.756570
O O15 0.522844 0.250000 0.774071
O O16 0.750000 0.352708 0.092680
O O17 0.465489 0.336430 0.171154
O O18 0.535972 0.435254 0.118918
O O19 0.750000 0.807004 0.714972
O O20 0.466589 0.750000 0.731995
O O21 0.250000 0.489411 0.149455
#
# Coordination Sequence:
#
# PCOD9447147 Si02
#       8
#     8   8   8   8   8   8   8   8
#     4  10  18  32  56  81 112 145 178 222 271 326
#     4  10  22  39  58  82 110 146 184 223 275 331
#     4  10  20  34  55  82 113 143 179 225 274 326
#     4   9  18  34  55  82 111 142 180 223 270 324
#     4  10  22  38  55  79 110 144 185 232 275 318
#     4  11  23  37  57  85 115 143 178 226 281 332
#     4  10  21  39  61  81 106 147 194 231 270 324
#     4  10  19  35  59  83 112 145 182 224 269 329
#
# _framework density 21.853154
#
# number of rings (size 3 to 8) (size 9 to 14) (size 15 to 20)
#    0.000    2.000    2.500    1.125    0.000    3.500 
#    0.000    5.625    0.000    0.000    0.000    1.750 
#    0.000    0.000    0.000    0.000    0.000    0.000 
#
# Total GULP energy -357587.448127 kJ/mol
# GULP energy per Si atom -5587.303877 kJ/mol
# Density = 2.180342 g / cm^3
# Si number density = 21.853154 Si / 1000 Ang^3
#
#
#
# Elastic Constant Matrix: (Units=GPa)
#
#
# Indices 1 2 3 4 5 6 
#
# 1 44.5705 -14.5024 -8.4427 0.0000 0.0000 0.0000
# 2 -14.5024 73.9960 -8.1377 0.0000 0.0000 0.0000
# 3 -8.4427 -8.1377 92.3015 0.0000 0.0000 0.0000
# 4 0.0000 0.0000 0.0000 3.0868 0.0000 0.0000
# 5 0.0000 0.0000 0.0000 0.0000 -33.2924 0.0000
# 6 0.0000 0.0000 0.0000 0.0000 0.0000 30.7048
#
#
#
# Elastic Compliance Matrix: (Units=1/GPa)
#
#
# Indices 1 2 3 4 5 6 
#
# 1 0.024615 0.005121 0.002703 0.000000 0.000000 0.000000
# 2 0.005121 0.014712 0.001766 0.000000 0.000000 0.000000
# 3 0.002703 0.001766 0.011237 0.000000 0.000000 0.000000
# 4 0.000000 0.000000 0.000000 0.323964 0.000000 0.000000
# 5 0.000000 0.000000 0.000000 0.000000 -0.030037 0.000000
# 6 0.000000 0.000000 0.000000 0.000000 0.000000 0.032568
#
#
# Mechanical properties :
#
#
# Convention : Reuss Voigt Hill
#
# Bulk Modulus (GPa) = 14.33814 16.52248 15.43031
# Shear Modulus (GPa) = 13.11898 16.22989 14.67443
#
# Velocity S-wave (km/s) = 2.45281 2.72817 2.59415
# Velocity P-wave (km/s) = 3.82061 4.18342 4.00612
#
# Compressibility (1/GPa) = 0.06974407
#
# Stress axis : x y z
#
# Youngs Moduli (GPa) = 40.62596 67.97098 88.99201
#
# Poissons Ratio (x) = -0.34811 -0.24055
# Poissons Ratio (y) = -0.20807 -0.15712
# Poissons Ratio (z) = -0.10981 -0.12001
#
# Static dielectric constant tensor:
#      x y z
#    x 1.809890 0.000000 0.000000 
#    y 0.000000 1.752550 0.000000 
#    z 0.000000 0.000000 1.798950 
# 
# From -- ./inp_files/21547.got.cif
#   From: 2010.05.17/outbox.cif.g08.bks.cpg/sg59_11_cif.got.tgz:21547.got - 2010.06.03 14:40:33.
