data_PCOD9447650
_publ_section_title
;
Structure prediction by ZEFSAII (Michael W. Deem and Ramdas Pophale) SiO2 
 PCOD9447650
Probable space group: P M M N
;
_chemical_formula_sum "Si O2"
_cell_formula_units_Z 64
_cell_length_a 8.236525
_cell_length_b 18.324976
_cell_length_c 23.410942
_cell_angle_alpha 90.000000
_cell_angle_beta 90.000000
_cell_angle_gamma 90.000000
_cell_volume 3533.509998
_symmetry_space_group_name_H-M "P M M N"
_symmetry_group_IT_number 59
_space_group.IT_coordinate_system_code '2'
_symmetry_cell_setting 'orthorhombic'
loop_
_space_group_symop_operation_xyz
x,y,z
1/2-x,1/2-y,z
1/2+x,-y,-z
-x,1/2+y,-z
-x,-y,-z
1/2+x,1/2+y,-z
1/2-x,y,z
x,1/2-y,z
loop_
_atom_site_type_symbol
_atom_site_label
_atom_site_fract_x
_atom_site_fract_y
_atom_site_fract_z
Si Si1 0.446012 0.669773 0.956900
Si Si2 0.056082 0.987363 0.240793
Si Si3 0.945825 0.035248 0.118164
Si Si4 0.944588 0.624764 0.081693
Si Si5 0.944817 0.329175 0.794745
Si Si6 0.445594 0.066776 0.540071
Si Si7 0.555948 0.466084 0.362990
Si Si8 0.946320 0.667519 0.557788
O O1 0.250000 0.668397 0.954845
O O2 0.501617 0.750000 0.938498
O O3 0.507102 0.605107 0.916344
O O4 0.496390 0.656685 0.022167
O O5 0.250000 0.984482 0.241965
O O6 0.992948 0.903409 0.234950
O O7 0.003580 0.028356 0.183141
O O8 0.996789 0.026062 0.297939
O O9 0.750000 0.037207 0.118803
O O10 0.994144 0.960289 0.086611
O O11 0.750000 0.629775 0.084515
O O12 0.015401 0.662556 0.138104
O O13 0.750000 0.329028 0.788438
O O14 0.006896 0.250000 0.774595
O O15 0.250000 0.070756 0.542039
O O16 0.501482 0.137738 0.504815
O O17 0.500000 0.000000 0.500000
O O18 0.502325 0.038556 0.601952
O O19 0.750000 0.464615 0.365814
O O20 0.495920 0.393330 0.395621
O O21 0.250000 0.331030 0.442555
O O22 0.004267 0.750000 0.568860
#
# Coordination Sequence:
#
# PCOD9447650 Si02
#       8
#     8   8   8   8   8   8   8   8
#     4  10  20  33  49  69  94 124 156 192 239 294
#     4  10  20  34  53  73  94 127 170 208 243 287
#     4   9  19  35  51  68  93 125 161 201 244 291
#     4  10  19  30  48  73  97 121 152 193 242 296
#     4   9  18  33  51  70  94 124 158 199 247 297
#     4   8  15  28  47  71  97 126 157 190 232 280
#     4  10  19  32  51  74 102 135 170 204 240 289
#     4   9  17  31  52  77 104 132 165 207 249 286
#
# _framework density 18.112300000000001
#
# number of rings (size 3 to 8) (size 9 to 14) (size 15 to 20)
#    0.000    2.625    0.000    1.875    0.000    4.250 
#    0.000    1.250    0.000    3.000    0.000    0.000 
#    0.000    0.000    0.000    0.000    0.000    0.000 
#
# Total GULP energy -356600.442192 kJ/mol
# GULP energy per Si atom -5571.881909 kJ/mol
# Density = 1.807108 g / cm^3
# Si number density = 18.112300 Si / 1000 Ang^3
#
#
#
# Elastic Constant Matrix: (Units=GPa)
#
#
# Indices 1 2 3 4 5 6 
#
# 1 3.7495 11.7116 -1.4497 0.0000 0.0000 0.0000
# 2 11.7116 117.2079 45.1273 0.0000 0.0000 0.0000
# 3 -1.4497 45.1273 62.8518 0.0000 0.0000 0.0000
# 4 0.0000 0.0000 0.0000 13.9733 0.0000 0.0000
# 5 0.0000 0.0000 0.0000 0.0000 12.1300 0.0000
# 6 0.0000 0.0000 0.0000 0.0000 0.0000 17.2771
#
#
#
# Elastic Compliance Matrix: (Units=1/GPa)
#
#
# Indices 1 2 3 4 5 6 
#
# 1 0.556034 -0.083611 0.072858 0.000000 0.000000 0.000000
# 2 -0.083611 0.024364 -0.019422 0.000000 0.000000 0.000000
# 3 0.072858 -0.019422 0.031536 0.000000 0.000000 0.000000
# 4 0.000000 0.000000 0.000000 0.071565 0.000000 0.000000
# 5 0.000000 0.000000 0.000000 0.000000 0.082440 0.000000
# 6 0.000000 0.000000 0.000000 0.000000 0.000000 0.057880
#
#
# Mechanical properties :
#
#
# Convention : Reuss Voigt Hill
#
# Bulk Modulus (GPa) = 1.81297 32.73194 17.27245
# Shear Modulus (GPa) = 4.68151 17.23741 10.95946
#
# Velocity S-wave (km/s) = 1.60945 3.08830 2.46251
# Velocity P-wave (km/s) = 2.11114 5.55227 4.20028
#
# Compressibility (1/GPa) = 0.55158257
#
# Stress axis : x y z
#
# Youngs Moduli (GPa) = 1.79845 41.04382 31.71004
#
# Poissons Ratio (x) = 3.43172 -2.31032
# Poissons Ratio (y) = 0.15037 0.61587
# Poissons Ratio (z) = -0.13103 0.79715
#
# Static dielectric constant tensor:
#      x y z
#    x 1.625210 0.000000 0.000000 
#    y 0.000000 1.657160 0.000000 
#    z 0.000000 0.000000 1.599070 
# 
# From -- ./inp_files/29429.got.cif
#   From: 2010.05.17/outbox.cif.g08.bks.cpg/sg59_15_cif.got.tgz:29429.got - 2010.06.03 14:40:33.
