data_PCOD9447695
_publ_section_title
;
Structure prediction by ZEFSAII (Michael W. Deem and Ramdas Pophale) SiO2 
 PCOD9447695
Probable space group: P M M N
;
_chemical_formula_sum "Si O2"
_cell_formula_units_Z 48
_cell_length_a 7.416020
_cell_length_b 15.593229
_cell_length_c 19.557003
_cell_angle_alpha 90.000000
_cell_angle_beta 90.000000
_cell_angle_gamma 90.000000
_cell_volume 2261.565923
_symmetry_space_group_name_H-M "P M M N"
_symmetry_group_IT_number 59
_space_group.IT_coordinate_system_code '2'
_symmetry_cell_setting 'orthorhombic'
loop_
_space_group_symop_operation_xyz
x,y,z
1/2-x,1/2-y,z
1/2+x,-y,-z
-x,1/2+y,-z
-x,-y,-z
1/2+x,1/2+y,-z
1/2-x,y,z
x,1/2-y,z
loop_
_atom_site_type_symbol
_atom_site_label
_atom_site_fract_x
_atom_site_fract_y
_atom_site_fract_z
Si Si1 0.029897 0.110993 0.156108
Si Si2 0.465546 0.902649 0.479566
Si Si3 0.040035 0.750000 0.112299
Si Si4 0.965893 0.250000 0.424677
Si Si5 0.535135 0.750000 0.736065
Si Si6 0.469612 0.848819 0.329776
Si Si7 0.470553 0.920985 0.186484
Si Si8 0.532410 0.750000 0.953120
O O1 0.250000 0.109712 0.156035
O O2 0.971411 0.166010 0.222536
O O3 0.974538 0.166528 0.090201
O O4 0.968639 0.013125 0.159196
O O5 0.250000 0.891657 0.476654
O O6 0.533714 0.834296 0.535360
O O7 0.533121 0.881194 0.403492
O O8 0.500000 0.000000 0.500000
O O9 0.250000 0.750000 0.132903
O O10 0.966343 0.661600 0.143571
O O11 0.028196 0.750000 0.030836
O O12 0.750000 0.250000 0.431161
O O13 0.000907 0.250000 0.344176
O O14 0.750000 0.750000 0.744244
O O15 0.250000 0.849705 0.330553
O O16 0.523497 0.750000 0.319308
O O17 0.524399 0.905428 0.265124
O O18 0.250000 0.922361 0.184344
O O19 0.750000 0.750000 0.953478
#
# Coordination Sequence:
#
# PCOD9447695 Si02
#       8
#     8   8   4   4   4   8   8   4
#     4   8  16  31  49  71  97 126 160 201 245 284
#     4  10  21  35  52  75 103 136 173 210 254 306
#     4  10  19  30  49  78 101 120 158 204 240 284
#     4  10  21  36  49  70 109 142 162 202 268 320
#     4   9  18  32  53  77  94 120 174 219 238 282
#     4   9  15  28  49  71  96 129 166 204 247 292
#     4   9  16  27  47  75 100 120 155 208 248 274
#     4   9  18  34  51  67  98 134 156 185 240 298
#
# _framework density 21.224232000000001
#
# number of rings (size 3 to 8) (size 9 to 14) (size 15 to 20)
#    0.000    2.833    1.667    1.000    2.333    1.333 
#    0.000    1.667    0.000    2.000    0.000    0.000 
#    0.000    0.000    0.000    0.000    0.000    0.000 
#
# Total GULP energy -267962.086608 kJ/mol
# GULP energy per Si atom -5582.543471 kJ/mol
# Density = 2.117592 g / cm^3
# Si number density = 21.224232 Si / 1000 Ang^3
#
#
#
# Elastic Constant Matrix: (Units=GPa)
#
#
# Indices 1 2 3 4 5 6 
#
# 1 66.1285 3.9775 -4.5661 0.0000 0.0000 0.0000
# 2 3.9775 199.2145 87.6706 0.0000 0.0000 0.0000
# 3 -4.5661 87.6706 150.7930 0.0000 0.0000 0.0000
# 4 0.0000 0.0000 0.0000 16.2364 0.0000 0.0000
# 5 0.0000 0.0000 0.0000 0.0000 -9.4876 0.0000
# 6 0.0000 0.0000 0.0000 0.0000 0.0000 2.7674
#
#
#
# Elastic Compliance Matrix: (Units=1/GPa)
#
#
# Indices 1 2 3 4 5 6 
#
# 1 0.015222 -0.000681 0.000857 0.000000 0.000000 0.000000
# 2 -0.000681 0.006776 -0.003960 0.000000 0.000000 0.000000
# 3 0.000857 -0.003960 0.008960 0.000000 0.000000 0.000000
# 4 0.000000 0.000000 0.000000 0.061590 0.000000 0.000000
# 5 0.000000 0.000000 0.000000 0.000000 -0.105401 0.000000
# 6 0.000000 0.000000 0.000000 0.000000 0.000000 0.361346
#
#
# Mechanical properties :
#
#
# Convention : Reuss Voigt Hill
#
# Bulk Modulus (GPa) = 42.75408 65.58889 54.17148
# Shear Modulus (GPa) = 13.74159 23.84018 18.79089
#
# Velocity S-wave (km/s) = 2.54726 3.35513 2.97871
# Velocity P-wave (km/s) = 5.37021 6.78079 6.11630
#
# Compressibility (1/GPa) = 0.02338958
#
# Stress axis : x y z
#
# Youngs Moduli (GPa) = 65.69357 147.57652 111.60678
#
# Poissons Ratio (x) = 0.10050 -0.09563
# Poissons Ratio (y) = 0.04474 0.44199
# Poissons Ratio (z) = -0.05629 0.58444
#
# Static dielectric constant tensor:
#      x y z
#    x 1.831970 0.000000 0.000000 
#    y 0.000000 1.740040 0.000000 
#    z 0.000000 0.000000 1.727570 
# 
# From -- ./inp_files/22473.got.cif
#   From: 2010.05.17/outbox.cif.g08.bks.cpg/sg59_12_cif.got.tgz:22473.got - 2010.06.03 14:40:33.
