data_PCOD9447634
_publ_section_title
;
Structure prediction by ZEFSAII (Michael W. Deem and Ramdas Pophale) SiO2 
 PCOD9447634
Probable space group: P M M N
;
_chemical_formula_sum "Si O2"
_cell_formula_units_Z 56
_cell_length_a 21.282829
_cell_length_b 7.645759
_cell_length_c 14.565074
_cell_angle_alpha 90.000000
_cell_angle_beta 90.000000
_cell_angle_gamma 90.000000
_cell_volume 2370.078091
_symmetry_space_group_name_H-M "P M M N"
_symmetry_group_IT_number 59
_space_group.IT_coordinate_system_code '2'
_symmetry_cell_setting 'orthorhombic'
loop_
_space_group_symop_operation_xyz
x,y,z
1/2-x,1/2-y,z
1/2+x,-y,-z
-x,1/2+y,-z
-x,-y,-z
1/2+x,1/2+y,-z
1/2-x,y,z
x,1/2-y,z
loop_
_atom_site_type_symbol
_atom_site_label
_atom_site_fract_x
_atom_site_fract_y
_atom_site_fract_z
Si Si1 0.403381 0.546831 0.879470
Si Si2 0.319982 0.964359 0.038564
Si Si3 0.322128 0.040345 0.714644
Si Si4 0.076220 0.942305 0.568538
Si Si5 0.649539 0.454782 0.756557
Si Si6 0.817478 0.947127 0.558824
Si Si7 0.995345 0.964249 0.731147
O O1 0.419178 0.750000 0.895307
O O2 0.343244 0.529777 0.813052
O O3 0.459522 0.475184 0.815313
O O4 0.377687 0.472096 0.975153
O O5 0.250000 0.016986 0.006794
O O6 0.321856 0.750000 0.036194
O O7 0.328603 0.017916 0.144022
O O8 0.250000 0.005577 0.696440
O O9 0.332585 0.250000 0.711266
O O10 0.366417 0.948256 0.641194
O O11 0.051393 0.750000 0.549337
O O12 0.022461 0.028981 0.632196
O O13 0.114534 0.995259 0.478471
O O14 0.665876 0.250000 0.748999
O O15 0.678614 0.546449 0.668335
O O16 0.574746 0.477207 0.749425
O O17 0.750000 0.033010 0.532302
O O18 0.813591 0.750000 0.523938
O O19 0.998217 0.750000 0.729143
#
# Coordination Sequence:
#
# PCOD9447634 Si02
#       7
#     8   8   8   8   8   8   8
#     4   9  18  34  57  81 108 147 191 233 280 336
#     4   9  18  34  57  85 114 145 189 243 289 331
#     4  10  19  30  47  77 116 150 181 225 281 337
#     4  10  21  37  59  84 111 147 189 232 279 337
#     4  11  23  38  59  84 112 153 199 239 281 334
#     4  11  24  41  61  86 116 149 185 232 290 341
#     4   9  20  38  57  83 117 149 186 232 284 339
#
# _framework density 23.627914000000001
#
# number of rings (size 3 to 8) (size 9 to 14) (size 15 to 20)
#    0.000    2.143    0.000    3.857    0.000    9.143 
#    0.000    1.429    0.000    3.429    0.000    0.000 
#    0.000    0.000    0.000    0.000    0.000    0.000 
#
# Total GULP energy -312449.063471 kJ/mol
# GULP energy per Si atom -5579.447562 kJ/mol
# Density = 2.357414 g / cm^3
# Si number density = 23.627914 Si / 1000 Ang^3
#
#
#
# Elastic Constant Matrix: (Units=GPa)
#
#
# Indices 1 2 3 4 5 6 
#
# 1 115.3420 -9.7229 11.0139 0.0000 0.0000 0.0000
# 2 -9.7229 33.3357 -20.0307 0.0000 0.0000 0.0000
# 3 11.0139 -20.0307 77.0147 0.0000 0.0000 0.0000
# 4 0.0000 0.0000 0.0000 151.4687 0.0000 0.0000
# 5 0.0000 0.0000 0.0000 0.0000 28.0081 0.0000
# 6 0.0000 0.0000 0.0000 0.0000 0.0000 20.8381
#
#
#
# Elastic Compliance Matrix: (Units=1/GPa)
#
#
# Indices 1 2 3 4 5 6 
#
# 1 0.008921 0.002175 -0.000710 0.000000 0.000000 0.000000
# 2 0.002175 0.036085 0.009074 0.000000 0.000000 0.000000
# 3 -0.000710 0.009074 0.015446 0.000000 0.000000 0.000000
# 4 0.000000 0.000000 0.000000 0.006602 0.000000 0.000000
# 5 0.000000 0.000000 0.000000 0.000000 0.035704 0.000000
# 6 0.000000 0.000000 0.000000 0.000000 0.000000 0.047989
#
#
# Mechanical properties :
#
#
# Convention : Reuss Voigt Hill
#
# Bulk Modulus (GPa) = 12.26528 20.91255 16.58892
# Shear Modulus (GPa) = 31.87860 56.35846 44.11853
#
# Velocity S-wave (km/s) = 3.67712 4.88920 4.32582
# Velocity P-wave (km/s) = 4.81981 6.38297 5.65566
#
# Compressibility (1/GPa) = 0.08153095
#
# Stress axis : x y z
#
# Youngs Moduli (GPa) = 112.09457 27.71252 64.74093
#
# Poissons Ratio (x) = -0.06028 0.04597
# Poissons Ratio (y) = -0.24384 -0.58747
# Poissons Ratio (z) = 0.07959 -0.25147
#
# Static dielectric constant tensor:
#      x y z
#    x 1.898780 0.000000 0.000000 
#    y 0.000000 1.872690 0.000000 
#    z 0.000000 0.000000 1.925930 
# 
# From -- ./inp_files/24231.got.cif
#   From: 2010.05.17/outbox.cif.g08.bks.cpg/sg59_13_cif.got.tgz:24231.got - 2010.06.03 14:40:33.
