data_PCOD9447716
_publ_section_title
;
Structure prediction by ZEFSAII (Michael W. Deem and Ramdas Pophale) SiO2 
 PCOD9447716
Probable space group: P M M N
;
_chemical_formula_sum "Si O2"
_cell_formula_units_Z 64
_cell_length_a 16.463040
_cell_length_b 7.564998
_cell_length_c 24.134905
_cell_angle_alpha 90.000000
_cell_angle_beta 90.000000
_cell_angle_gamma 90.000000
_cell_volume 3005.830207
_symmetry_space_group_name_H-M "P M M N"
_symmetry_group_IT_number 59
_space_group.IT_coordinate_system_code '2'
_symmetry_cell_setting 'orthorhombic'
loop_
_space_group_symop_operation_xyz
x,y,z
1/2-x,1/2-y,z
1/2+x,-y,-z
-x,1/2+y,-z
-x,-y,-z
1/2+x,1/2+y,-z
1/2-x,y,z
x,1/2-y,z
loop_
_atom_site_type_symbol
_atom_site_label
_atom_site_fract_x
_atom_site_fract_y
_atom_site_fract_z
Si Si1 0.102451 0.956196 0.439305
Si Si2 0.838780 0.035408 0.078187
Si Si3 0.160412 0.966023 0.678046
Si Si4 0.915519 0.038747 0.968718
Si Si5 0.006174 0.542837 0.139722
Si Si6 0.412035 0.964212 0.561538
Si Si7 0.161833 0.045307 0.321860
Si Si8 0.997894 0.954076 0.734482
O O1 0.124171 0.750000 0.437843
O O2 0.118736 0.025256 0.501357
O O3 0.146545 0.042946 0.387662
O O4 0.005100 0.974965 0.431280
O O5 0.750000 0.980167 0.098656
O O6 0.841570 0.250000 0.078609
O O7 0.850641 0.976425 0.014023
O O8 0.915840 0.975018 0.113743
O O9 0.250000 0.027491 0.694759
O O10 0.162346 0.750000 0.680589
O O11 0.140437 0.015332 0.614560
O O12 0.084342 0.028972 0.714669
O O13 0.905494 0.250000 0.963737
O O14 0.930754 0.970663 0.906620
O O15 0.000000 0.000000 0.000000
O O16 0.022724 0.750000 0.147333
O O17 0.009339 0.457707 0.199637
O O18 0.414450 0.750000 0.559767
O O19 0.250000 0.965378 0.309421
O O20 0.165089 0.250000 0.303627
O O21 0.082163 0.963842 0.293310
O O22 0.999623 0.750000 0.714883
#
# Coordination Sequence:
#
# PCOD9447716 Si02
#       8
#     8   8   8   8   8   8   8   8
#     4  10  19  30  52  81 107 133 166 215 271 326
#     4   9  17  31  53  79 105 135 173 211 246 299
#     4   9  17  31  53  76  97 129 175 220 259 306
#     4   8  15  29  48  71  98 128 161 198 242 293
#     4  10  20  33  51  75 105 138 171 211 264 312
#     4   9  17  32  52  76 106 138 171 209 262 324
#     4  10  21  38  58  76  99 136 180 224 271 322
#     4  10  20  36  55  74 100 138 184 226 261 307
#
# _framework density 21.291954
#
# number of rings (size 3 to 8) (size 9 to 14) (size 15 to 20)
#    0.000    2.625    1.250    0.750    0.000    3.000 
#    0.000    3.125    0.000    1.875    0.000    0.000 
#    0.000    0.000    0.000    0.000    0.000    0.000 
#
# Total GULP energy -356869.945175 kJ/mol
# GULP energy per Si atom -5576.092893 kJ/mol
# Density = 2.124349 g / cm^3
# Si number density = 21.291954 Si / 1000 Ang^3
#
#
#
# Elastic Constant Matrix: (Units=GPa)
#
#
# Indices 1 2 3 4 5 6 
#
# 1 106.9093 3.4853 49.2943 0.0000 0.0000 0.0000
# 2 3.4853 50.8094 -5.1979 0.0000 0.0000 0.0000
# 3 49.2943 -5.1979 103.9822 0.0000 0.0000 0.0000
# 4 0.0000 0.0000 0.0000 130.2769 0.0000 0.0000
# 5 0.0000 0.0000 0.0000 0.0000 6.8138 0.0000
# 6 0.0000 0.0000 0.0000 0.0000 0.0000 0.3976
#
#
#
# Elastic Compliance Matrix: (Units=1/GPa)
#
#
# Indices 1 2 3 4 5 6 
#
# 1 0.012071 -0.001421 -0.005794 0.000000 0.000000 0.000000
# 2 -0.001421 0.019950 0.001671 0.000000 0.000000 0.000000
# 3 -0.005794 0.001671 0.012447 0.000000 0.000000 0.000000
# 4 0.000000 0.000000 0.000000 0.007676 0.000000 0.000000
# 5 0.000000 0.000000 0.000000 0.000000 0.146761 0.000000
# 6 0.000000 0.000000 0.000000 0.000000 0.000000 2.515307
#
#
# Mechanical properties :
#
#
# Convention : Reuss Voigt Hill
#
# Bulk Modulus (GPa) = 29.95711 39.65159 34.80435
# Shear Modulus (GPa) = 1.82720 41.77227 21.79974
#
# Velocity S-wave (km/s) = 0.92738 4.43412 3.20323
# Velocity P-wave (km/s) = 3.90473 6.69914 5.48294
#
# Compressibility (1/GPa) = 0.03338106
#
# Stress axis : x y z
#
# Youngs Moduli (GPa) = 82.84043 50.12590 80.33997
#
# Poissons Ratio (x) = 0.07122 0.46546
# Poissons Ratio (y) = 0.11769 -0.13423
# Poissons Ratio (z) = 0.47995 -0.08375
#
# Static dielectric constant tensor:
#      x y z
#    x 1.780090 0.000000 0.000000 
#    y 0.000000 1.812220 0.000000 
#    z 0.000000 0.000000 1.759130 
# 
# From -- ./inp_files/32213.got.cif
#   From: 2010.05.17/outbox.cif.g08.bks.cpg/sg59_17_cif.got.tgz:32213.got - 2010.06.03 14:40:33.
