data_PCOD9447001
_publ_section_title
;
Structure prediction by ZEFSAII (Michael W. Deem and Ramdas Pophale) SiO2 
 PCOD9447001
Probable space group: P M M N
;
_chemical_formula_sum "Si O2"
_cell_formula_units_Z 64
_cell_length_a 13.594311
_cell_length_b 14.154808
_cell_length_c 17.971165
_cell_angle_alpha 90.000000
_cell_angle_beta 90.000000
_cell_angle_gamma 90.000000
_cell_volume 3458.098947
_symmetry_space_group_name_H-M "P M M N"
_symmetry_group_IT_number 59
_space_group.IT_coordinate_system_code '2'
_symmetry_cell_setting 'orthorhombic'
loop_
_space_group_symop_operation_xyz
x,y,z
1/2-x,1/2-y,z
1/2+x,-y,-z
-x,1/2+y,-z
-x,-y,-z
1/2+x,1/2+y,-z
1/2-x,y,z
x,1/2-y,z
loop_
_atom_site_type_symbol
_atom_site_label
_atom_site_fract_x
_atom_site_fract_y
_atom_site_fract_z
Si Si1 0.636323 0.635461 0.124274
Si Si2 0.638650 0.005440 0.398145
Si Si3 0.867183 0.855008 0.515832
Si Si4 0.025663 0.360017 0.332207
Si Si5 0.357506 0.857390 0.263135
Si Si6 0.136033 0.051673 0.191841
Si Si7 0.429344 0.140190 0.714143
Si Si8 0.369806 0.359721 0.037270
O O1 0.750000 0.605024 0.133852
O O2 0.637430 0.750000 0.119379
O O3 0.578396 0.612077 0.199100
O O4 0.597231 0.603378 0.043818
O O5 0.750000 0.038391 0.412923
O O6 0.598525 0.944808 0.468133
O O7 0.638226 0.926003 0.334002
O O8 0.567969 0.086455 0.367027
O O9 0.750000 0.853243 0.506044
O O10 0.905133 0.750000 0.492019
O O11 0.893777 0.865939 0.602060
O O12 0.004634 0.250000 0.318064
O O13 0.068789 0.407142 0.257744
O O14 0.250000 0.866087 0.301006
O O15 0.364408 0.750000 0.233585
O O16 0.456582 0.870627 0.310490
O O17 0.360242 0.938972 0.201984
O O18 0.250000 0.085815 0.201552
O O19 0.101535 0.083366 0.110572
O O20 0.401298 0.250000 0.707908
O O21 0.250000 0.360986 0.033357
O O22 0.399235 0.250000 0.046340
#
# Coordination Sequence:
#
# PCOD9447001 Si02
#       8
#     8   8   8   8   8   8   8   8
#     4   8  14  25  43  71 104 131 160 208 264 307
#     4  11  22  36  54  77 106 139 176 211 251 301
#     4   9  19  36  58  84 109 129 158 210 264 302
#     4  11  22  36  54  77 106 139 176 211 251 301
#     4   9  18  32  49  71 103 136 165 207 261 314
#     4  10  18  31  53  78 102 131 172 216 262 311
#     4  10  18  31  53  78 102 131 172 216 262 311
#     4   8  14  25  43  71 104 131 160 208 264 307
#
# _framework density 18.507279
#
# number of rings (size 3 to 8) (size 9 to 14) (size 15 to 20)
#    0.000    2.500    1.250    2.625    0.000    2.750 
#    0.000    0.625    0.000    0.000    0.000    0.000 
#    0.000    0.000    0.000    0.000    0.000    0.000 
#
# Total GULP energy -356377.739379 kJ/mol
# GULP energy per Si atom -5568.402178 kJ/mol
# Density = 1.846516 g / cm^3
# Si number density = 18.507279 Si / 1000 Ang^3
#
#
#
# Elastic Constant Matrix: (Units=GPa)
#
#
# Indices 1 2 3 4 5 6 
#
# 1 55.8513 15.5247 8.9538 0.0000 0.0000 0.0000
# 2 15.5247 57.7551 14.7201 0.0000 0.0000 0.0000
# 3 8.9538 14.7201 70.3743 0.0000 0.0000 0.0000
# 4 0.0000 0.0000 0.0000 14.9198 0.0000 0.0000
# 5 0.0000 0.0000 0.0000 0.0000 15.0563 0.0000
# 6 0.0000 0.0000 0.0000 0.0000 0.0000 12.3853
#
#
#
# Elastic Compliance Matrix: (Units=1/GPa)
#
#
# Indices 1 2 3 4 5 6 
#
# 1 0.019492 -0.004867 -0.001462 0.000000 0.000000 0.000000
# 2 -0.004867 0.019505 -0.003461 0.000000 0.000000 0.000000
# 3 -0.001462 -0.003461 0.015120 0.000000 0.000000 0.000000
# 4 0.000000 0.000000 0.000000 0.067025 0.000000 0.000000
# 5 0.000000 0.000000 0.000000 0.000000 0.066418 0.000000
# 6 0.000000 0.000000 0.000000 0.000000 0.000000 0.080741
#
#
# Mechanical properties :
#
#
# Convention : Reuss Voigt Hill
#
# Bulk Modulus (GPa) = 28.95412 29.15310 29.05361
# Shear Modulus (GPa) = 16.70058 18.12442 17.41250
#
# Velocity S-wave (km/s) = 3.00722 3.13279 3.07065
# Velocity P-wave (km/s) = 5.26655 5.37329 5.32019
#
# Compressibility (1/GPa) = 0.03453740
#
# Stress axis : x y z
#
# Youngs Moduli (GPa) = 51.30341 51.26968 66.13945
#
# Poissons Ratio (x) = 0.24952 0.09669
# Poissons Ratio (y) = 0.24969 0.22888
# Poissons Ratio (z) = 0.07500 0.17742
#
# Static dielectric constant tensor:
#      x y z
#    x 1.688450 0.000000 0.000000 
#    y 0.000000 1.651440 0.000000 
#    z 0.000000 0.000000 1.645250 
# 
# From -- ./inp_files/27756.got.cif
#   From: 2010.05.17/outbox.cif.g08.bks.cpg/sg59_14_cif.got.tgz:27756.got - 2010.06.03 14:40:33.
