data_PCOD9447155
_publ_section_title
;
Structure prediction by ZEFSAII (Michael W. Deem and Ramdas Pophale) SiO2 
 PCOD9447155
Probable space group: P M M N
;
_chemical_formula_sum "Si O2"
_cell_formula_units_Z 56
_cell_length_a 7.787783
_cell_length_b 16.243815
_cell_length_c 20.751089
_cell_angle_alpha 90.000000
_cell_angle_beta 90.000000
_cell_angle_gamma 90.000000
_cell_volume 2625.081368
_symmetry_space_group_name_H-M "P M M N"
_symmetry_group_IT_number 59
_space_group.IT_coordinate_system_code '2'
_symmetry_cell_setting 'orthorhombic'
loop_
_space_group_symop_operation_xyz
x,y,z
1/2-x,1/2-y,z
1/2+x,-y,-z
-x,1/2+y,-z
-x,-y,-z
1/2+x,1/2+y,-z
1/2-x,y,z
x,1/2-y,z
loop_
_atom_site_type_symbol
_atom_site_label
_atom_site_fract_x
_atom_site_fract_y
_atom_site_fract_z
Si Si1 0.543643 0.343415 0.329222
Si Si2 0.542442 0.929496 0.946761
Si Si3 0.542664 0.938770 0.797377
Si Si4 0.957702 0.162804 0.628460
Si Si5 0.449215 0.513770 0.574034
Si Si6 0.946238 0.750000 0.984159
Si Si7 0.458645 0.881120 0.231322
Si Si8 0.958922 0.250000 0.871934
O O1 0.750000 0.341204 0.335484
O O2 0.479654 0.250000 0.341284
O O3 0.508162 0.370540 0.255125
O O4 0.474936 0.413499 0.379714
O O5 0.750000 0.927992 0.946546
O O6 0.485854 0.939958 0.872226
O O7 0.476471 0.838123 0.964997
O O8 0.500000 0.000000 0.000000
O O9 0.750000 0.937732 0.799220
O O10 0.481022 0.025701 0.769042
O O11 0.750000 0.160664 0.624208
O O12 0.014523 0.250000 0.598350
O O13 0.008689 0.162467 0.703192
O O14 0.021920 0.076401 0.603078
O O15 0.500000 0.500000 0.500000
O O16 0.250000 0.533247 0.572408
O O17 0.750000 0.750000 0.958951
O O18 0.950684 0.750000 0.060617
O O19 0.250000 0.882201 0.230607
O O20 0.509173 0.829692 0.169202
O O21 0.750000 0.250000 0.880099
#
# Coordination Sequence:
#
# PCOD9447155 Si02
#       8
#     8   8   8   8   8   4   8   4
#     4  10  23  42  62  88 121 156 196 245 302 357
#     4  10  22  39  58  83 117 157 200 248 301 356
#     4  10  20  35  60  87 113 151 201 250 297 351
#     4  10  19  35  60  89 121 155 189 233 291 349
#     4  11  24  42  64  90 123 160 198 241 291 350
#     4  10  22  38  52  76 118 155 190 241 302 353
#     4   9  16  29  53  85 114 141 184 239 286 338
#     4  10  18  32  56  84 112 149 198 239 282 353
#
# _framework density 21.332671999999999
#
# number of rings (size 3 to 8) (size 9 to 14) (size 15 to 20)
#    0.000    2.000    2.143    1.286    1.000    4.000 
#    0.000    2.857    0.000    0.000    0.000    0.000 
#    0.000    0.000    0.000    0.000    0.000    0.000 
#
# Total GULP energy -312135.987500 kJ/mol
# GULP energy per Si atom -5573.856920 kJ/mol
# Density = 2.128412 g / cm^3
# Si number density = 21.332672 Si / 1000 Ang^3
#
#
#
# Elastic Constant Matrix: (Units=GPa)
#
#
# Indices 1 2 3 4 5 6 
#
# 1 30.4222 7.5802 8.1811 0.0000 0.0000 0.0000
# 2 7.5802 176.0059 84.8996 0.0000 0.0000 0.0000
# 3 8.1811 84.8996 136.7542 0.0000 0.0000 0.0000
# 4 0.0000 0.0000 0.0000 23.1070 0.0000 0.0000
# 5 0.0000 0.0000 0.0000 0.0000 24.8211 0.0000
# 6 0.0000 0.0000 0.0000 0.0000 0.0000 19.4839
#
#
#
# Elastic Compliance Matrix: (Units=1/GPa)
#
#
# Indices 1 2 3 4 5 6 
#
# 1 0.033465 -0.000679 -0.001581 0.000000 0.000000 0.000000
# 2 -0.000679 0.008124 -0.005003 0.000000 0.000000 0.000000
# 3 -0.001581 -0.005003 0.010513 0.000000 0.000000 0.000000
# 4 0.000000 0.000000 0.000000 0.043277 0.000000 0.000000
# 5 0.000000 0.000000 0.000000 0.000000 0.040288 0.000000
# 6 0.000000 0.000000 0.000000 0.000000 0.000000 0.051324
#
#
# Mechanical properties :
#
#
# Convention : Reuss Voigt Hill
#
# Bulk Modulus (GPa) = 26.61189 60.50045 43.55617
# Shear Modulus (GPa) = 23.35987 29.65049 26.50518
#
# Velocity S-wave (km/s) = 3.31271 3.73219 3.52869
# Velocity P-wave (km/s) = 5.20902 6.85525 6.08803
#
# Compressibility (1/GPa) = 0.03757719
#
# Stress axis : x y z
#
# Youngs Moduli (GPa) = 29.88200 123.08964 95.12111
#
# Poissons Ratio (x) = 0.08356 0.15034
# Poissons Ratio (y) = 0.02029 0.47589
# Poissons Ratio (z) = 0.04723 0.61582
#
# Static dielectric constant tensor:
#      x y z
#    x 1.804740 0.000000 0.000000 
#    y 0.000000 1.824930 0.000000 
#    z 0.000000 0.000000 1.774890 
# 
# From -- ./inp_files/29253.got.cif
#   From: 2010.05.17/outbox.cif.g08.bks.cpg/sg59_15_cif.got.tgz:29253.got - 2010.06.03 14:40:33.
