data_PCOD9447254
_publ_section_title
;
Structure prediction by ZEFSAII (Michael W. Deem and Ramdas Pophale) SiO2 
 PCOD9447254
Probable space group: P M M N
;
_chemical_formula_sum "Si O2"
_cell_formula_units_Z 32
_cell_length_a 20.198704
_cell_length_b 13.426651
_cell_length_c 5.052760
_cell_angle_alpha 90.000000
_cell_angle_beta 90.000000
_cell_angle_gamma 90.000000
_cell_volume 1370.313308
_symmetry_space_group_name_H-M "P M M N"
_symmetry_group_IT_number 59
_space_group.IT_coordinate_system_code '2'
_symmetry_cell_setting 'orthorhombic'
loop_
_space_group_symop_operation_xyz
x,y,z
1/2-x,1/2-y,z
1/2+x,-y,-z
-x,1/2+y,-z
-x,-y,-z
1/2+x,1/2+y,-z
1/2-x,y,z
x,1/2-y,z
loop_
_atom_site_type_symbol
_atom_site_label
_atom_site_fract_x
_atom_site_fract_y
_atom_site_fract_z
Si Si1 0.378806 0.142639 0.764375
Si Si2 0.250000 0.934478 0.548920
Si Si3 0.020385 0.888482 0.057762
Si Si4 0.250000 0.431308 0.047091
Si Si5 0.394136 0.585985 0.570338
O O1 0.367923 0.250000 0.620823
O O2 0.316568 0.125302 0.959604
O O3 0.388138 0.036525 0.606782
O O4 0.447427 0.155038 0.920646
O O5 0.250000 0.972904 0.851643
O O6 0.180435 0.880856 0.509869
O O7 0.250000 0.029204 0.346148
O O8 0.073282 0.866386 0.830237
O O9 0.057498 0.885333 0.334934
O O10 0.000000 0.000000 0.000000
#
# Coordination Sequence:
#
# PCOD9447254 Si02
#       5
#     8   4   8   4   8
#     4  10  20  35  53  77 109 145 176 212 260 316
#     4  10  18  34  55  76 101 136 173 212 257 308
#     4  10  19  34  52  74 103 138 176 220 258 300
#     4  10  21  34  48  76 110 140 170 204 250 312
#     4  10  20  35  54  77 104 135 177 220 259 308
#
# _framework density 23.352326000000001
#
# number of rings (size 3 to 8) (size 9 to 14) (size 15 to 20)
#    0.000    2.000    0.000    7.875    0.000    2.000 
#    0.000   36.250    0.000    0.000    0.000    5.250 
#    0.000    0.000    0.000    0.000    0.000    0.000 
#
# Total GULP energy -178386.128364 kJ/mol
# GULP energy per Si atom -5574.566511 kJ/mol
# Density = 2.329917 g / cm^3
# Si number density = 23.352326 Si / 1000 Ang^3
#
#
#
# Elastic Constant Matrix: (Units=GPa)
#
#
# Indices 1 2 3 4 5 6 
#
# 1 245.2261 23.1847 39.7799 0.0000 0.0000 0.0000
# 2 23.1847 84.4039 13.2975 0.0000 0.0000 0.0000
# 3 39.7799 13.2975 95.3580 0.0000 0.0000 0.0000
# 4 0.0000 0.0000 0.0000 164.6189 0.0000 0.0000
# 5 0.0000 0.0000 0.0000 0.0000 23.3455 0.0000
# 6 0.0000 0.0000 0.0000 0.0000 0.0000 -74.0067
#
#
#
# Elastic Compliance Matrix: (Units=1/GPa)
#
#
# Indices 1 2 3 4 5 6 
#
# 1 0.004447 -0.000950 -0.001723 0.000000 0.000000 0.000000
# 2 -0.000950 0.012317 -0.001321 0.000000 0.000000 0.000000
# 3 -0.001723 -0.001321 0.011390 0.000000 0.000000 0.000000
# 4 0.000000 0.000000 0.000000 0.006075 0.000000 0.000000
# 5 0.000000 0.000000 0.000000 0.000000 0.042835 0.000000
# 6 0.000000 0.000000 0.000000 0.000000 0.000000 -0.013512
#
#
# Mechanical properties :
#
#
# Convention : Reuss Voigt Hill
#
# Bulk Modulus (GPa) = 49.58927 64.16802 56.87865
# Shear Modulus (GPa) = 63.88885 46.03993 54.96439
#
# Velocity S-wave (km/s) = 5.23623 4.44501 4.85676
# Velocity P-wave (km/s) = 7.60518 7.34044 7.47398
#
# Compressibility (1/GPa) = 0.02016565
#
# Stress axis : x y z
#
# Youngs Moduli (GPa) = 224.86300 81.18893 87.79877
#
# Poissons Ratio (x) = 0.07714 0.15125
# Poissons Ratio (y) = 0.21366 0.11600
# Poissons Ratio (z) = 0.38737 0.10727
#
# Static dielectric constant tensor:
#      x y z
#    x 1.879370 0.000000 0.000000 
#    y 0.000000 1.895220 0.000000 
#    z 0.000000 0.000000 1.807560 
# 
# From -- ./inp_files/3243.got.cif
#   From: 2010.05.17/outbox.cif.g08.bks.cpg/sg59_2_cif.got.tgz:3243.got - 2010.06.03 14:40:33.
