data_PCOD9447772
_publ_section_title
;
Structure prediction by ZEFSAII (Michael W. Deem and Ramdas Pophale) SiO2 
 PCOD9447772
Probable space group: P M M N
;
_chemical_formula_sum "Si O2"
_cell_formula_units_Z 40
_cell_length_a 9.500911
_cell_length_b 21.250107
_cell_length_c 11.898784
_cell_angle_alpha 90.000000
_cell_angle_beta 90.000000
_cell_angle_gamma 90.000000
_cell_volume 2402.309462
_symmetry_space_group_name_H-M "P M M N"
_symmetry_group_IT_number 59
_space_group.IT_coordinate_system_code '2'
_symmetry_cell_setting 'orthorhombic'
loop_
_space_group_symop_operation_xyz
x,y,z
1/2-x,1/2-y,z
1/2+x,-y,-z
-x,1/2+y,-z
-x,-y,-z
1/2+x,1/2+y,-z
1/2-x,y,z
x,1/2-y,z
loop_
_atom_site_type_symbol
_atom_site_label
_atom_site_fract_x
_atom_site_fract_y
_atom_site_fract_z
Si Si1 0.413257 0.405221 0.536363
Si Si2 0.086528 0.540105 0.659862
Si Si3 0.410966 0.825242 0.293688
Si Si4 0.919989 0.450051 0.078236
Si Si5 0.920893 0.321530 0.960978
O O1 0.250000 0.390091 0.520857
O O2 0.489774 0.416535 0.417972
O O3 0.422995 0.470507 0.606583
O O4 0.492779 0.354562 0.611579
O O5 0.250000 0.560307 0.651844
O O6 0.046952 0.539433 0.790629
O O7 0.250000 0.848992 0.304670
O O8 0.407361 0.750000 0.302698
O O9 0.462798 0.838719 0.166863
O O10 0.750000 0.456658 0.064129
O O11 0.960136 0.378869 0.041730
O O12 0.000000 0.500000 0.000000
O O13 0.750000 0.318784 0.959641
O O14 0.969337 0.250000 0.987605
#
# Coordination Sequence:
#
# PCOD9447772 Si02
#       5
#     8   8   8   8   8
#     4  10  19  31  48  68  93 125 158 196 238 280
#     4   9  19  33  47  68  97 126 157 194 240 289
#     4   9  17  30  49  71  94 121 154 192 233 280
#     4  10  19  31  50  74  99 126 159 202 244 287
#     4   8  15  29  49  72  96 124 158 193 233 284
#
# _framework density 16.650644
#
# number of rings (size 3 to 8) (size 9 to 14) (size 15 to 20)
#    0.000    2.800    0.000    3.000    0.000    2.000 
#    0.000    1.000    0.000    5.400    0.000    0.000 
#    0.000    0.000    0.000    0.000    0.000    0.000 
#
# Total GULP energy -222882.536726 kJ/mol
# GULP energy per Si atom -5572.063418 kJ/mol
# Density = 1.661275 g / cm^3
# Si number density = 16.650644 Si / 1000 Ang^3
#
#
#
# Elastic Constant Matrix: (Units=GPa)
#
#
# Indices 1 2 3 4 5 6 
#
# 1 53.2460 23.2263 60.1129 0.0000 0.0000 0.0000
# 2 23.2263 44.1171 48.2605 0.0000 0.0000 0.0000
# 3 60.1129 48.2605 143.0296 0.0000 0.0000 0.0000
# 4 0.0000 0.0000 0.0000 27.1173 0.0000 0.0000
# 5 0.0000 0.0000 0.0000 0.0000 20.6197 0.0000
# 6 0.0000 0.0000 0.0000 0.0000 0.0000 23.0090
#
#
#
# Elastic Compliance Matrix: (Units=1/GPa)
#
#
# Indices 1 2 3 4 5 6 
#
# 1 0.036140 -0.003822 -0.013899 0.000000 0.000000 0.000000
# 2 -0.003822 0.036332 -0.010653 0.000000 0.000000 0.000000
# 3 -0.013899 -0.010653 0.016428 0.000000 0.000000 0.000000
# 4 0.000000 0.000000 0.000000 0.036877 0.000000 0.000000
# 5 0.000000 0.000000 0.000000 0.000000 0.048497 0.000000
# 6 0.000000 0.000000 0.000000 0.000000 0.000000 0.043461
#
#
# Mechanical properties :
#
#
# Convention : Reuss Voigt Hill
#
# Bulk Modulus (GPa) = 31.10241 55.95467 43.52854
# Shear Modulus (GPa) = 17.53152 21.40209 19.46681
#
# Velocity S-wave (km/s) = 3.24837 3.58908 3.42297
# Velocity P-wave (km/s) = 5.72618 7.13116 6.46694
#
# Compressibility (1/GPa) = 0.03215184
#
# Stress axis : x y z
#
# Youngs Moduli (GPa) = 27.67033 27.52365 60.87256
#
# Poissons Ratio (x) = 0.10518 0.84610
# Poissons Ratio (y) = 0.10574 0.64848
# Poissons Ratio (z) = 0.38460 0.29321
#
# Static dielectric constant tensor:
#      x y z
#    x 1.557080 0.000000 0.000000 
#    y 0.000000 1.559370 0.000000 
#    z 0.000000 0.000000 1.547590 
# 
# From -- ./inp_files/13864.got.cif
#   From: 2010.05.17/outbox.cif.g08.bks.cpg/sg59_7_cif.got.tgz:13864.got - 2010.06.03 14:40:33.
