data_PCOD9447792
_publ_section_title
;
Structure prediction by ZEFSAII (Michael W. Deem and Ramdas Pophale) SiO2 
 PCOD9447792
Probable space group: P M M N
;
_chemical_formula_sum "Si O2"
_cell_formula_units_Z 40
_cell_length_a 8.309212
_cell_length_b 13.800686
_cell_length_c 15.915425
_cell_angle_alpha 90.000000
_cell_angle_beta 90.000000
_cell_angle_gamma 90.000000
_cell_volume 1825.066757
_symmetry_space_group_name_H-M "P M M N"
_symmetry_group_IT_number 59
_space_group.IT_coordinate_system_code '2'
_symmetry_cell_setting 'orthorhombic'
loop_
_space_group_symop_operation_xyz
x,y,z
1/2-x,1/2-y,z
1/2+x,-y,-z
-x,1/2+y,-z
-x,-y,-z
1/2+x,1/2+y,-z
1/2-x,y,z
x,1/2-y,z
loop_
_atom_site_type_symbol
_atom_site_label
_atom_site_fract_x
_atom_site_fract_y
_atom_site_fract_z
Si Si1 0.058520 0.429629 0.201293
Si Si2 0.445072 0.353001 0.835168
Si Si3 0.944656 0.141957 0.557941
Si Si4 0.943453 0.892495 0.979307
Si Si5 0.558756 0.439332 0.378921
O O1 0.250000 0.422060 0.201695
O O2 0.997994 0.375895 0.116216
O O3 0.013484 0.544169 0.194499
O O4 0.995231 0.395142 0.290767
O O5 0.250000 0.359779 0.829741
O O6 0.494399 0.250000 0.794150
O O7 0.492321 0.344234 0.933582
O O8 0.750000 0.141826 0.559771
O O9 0.000380 0.250000 0.581267
O O10 0.998339 0.116744 0.462364
O O11 0.002083 0.051029 0.612597
O O12 0.750000 0.883491 0.976132
O O13 0.000000 0.000000 0.000000
O O14 0.750000 0.439451 0.381167
#
# Coordination Sequence:
#
# PCOD9447792 Si02
#       5
#     8   8   8   8   8
#     4  10  19  31  48  70  98 130 163 200 243 292
#     4   9  17  30  48  69  94 125 163 207 251 292
#     4   9  19  37  58  77 100 131 165 204 252 303
#     4   8  15  28  45  64  87 119 156 191 230 276
#     4  10  20  34  54  79 104 131 166 206 249 300
#
# _framework density 21.917003999999999
#
# number of rings (size 3 to 8) (size 9 to 14) (size 15 to 20)
#    0.000    2.800    0.000    1.200    0.000    3.200 
#    0.000    1.000    0.000    1.200    0.000    0.000 
#    0.000    0.000    0.000    0.000    0.000    0.000 
#
# Total GULP energy -222807.679723 kJ/mol
# GULP energy per Si atom -5570.191993 kJ/mol
# Density = 2.186712 g / cm^3
# Si number density = 21.917004 Si / 1000 Ang^3
#
#
#
# Elastic Constant Matrix: (Units=GPa)
#
#
# Indices 1 2 3 4 5 6 
#
# 1 10.2451 -0.3132 4.9642 0.0000 0.0000 0.0000
# 2 -0.3132 45.6256 -16.3603 0.0000 0.0000 0.0000
# 3 4.9642 -16.3603 129.6704 0.0000 0.0000 0.0000
# 4 0.0000 0.0000 0.0000 -0.6257 0.0000 0.0000
# 5 0.0000 0.0000 0.0000 0.0000 31.0509 0.0000
# 6 0.0000 0.0000 0.0000 0.0000 0.0000 3.1493
#
#
#
# Elastic Compliance Matrix: (Units=1/GPa)
#
#
# Indices 1 2 3 4 5 6 
#
# 1 0.099474 -0.000715 -0.003898 0.000000 0.000000 0.000000
# 2 -0.000715 0.022961 0.002924 0.000000 0.000000 0.000000
# 3 -0.003898 0.002924 0.008230 0.000000 0.000000 0.000000
# 4 0.000000 0.000000 0.000000 -1.598213 0.000000 0.000000
# 5 0.000000 0.000000 0.000000 0.000000 0.032205 0.000000
# 6 0.000000 0.000000 0.000000 0.000000 0.000000 0.317529
#
#
# Mechanical properties :
#
#
# Convention : Reuss Voigt Hill
#
# Bulk Modulus (GPa) = 7.85623 18.01360 12.93492
# Shear Modulus (GPa) = -4.66415 19.86494 7.60039
#
# Velocity S-wave (km/s) = -1.46038 3.01387 1.86422
# Velocity P-wave (km/s) = 0.86527 4.51088 3.24782
#
# Compressibility (1/GPa) = 0.12728755
#
# Stress axis : x y z
#
# Youngs Moduli (GPa) = 10.05284 43.55165 121.50563
#
# Poissons Ratio (x) = 0.03114 0.47368
# Poissons Ratio (y) = 0.00719 -0.35533
# Poissons Ratio (z) = 0.03919 -0.12736
#
# Static dielectric constant tensor:
#      x y z
#    x 1.753180 0.000000 0.000000 
#    y 0.000000 1.838480 0.000000 
#    z 0.000000 0.000000 1.854150 
# 
# From -- ./inp_files/19882.got.cif
#   From: 2010.05.17/outbox.cif.g08.bks.cpg/sg59_10_cif.got.tgz:19882.got - 2010.06.03 14:40:33.
