data_PCOD9447863
_publ_section_title
;
Structure prediction by ZEFSAII (Michael W. Deem and Ramdas Pophale) SiO2 
 PCOD9447863
Probable space group: P M M N
;
_chemical_formula_sum "Si O2"
_cell_formula_units_Z 64
_cell_length_a 9.078265
_cell_length_b 27.586054
_cell_length_c 15.079960
_cell_angle_alpha 90.000000
_cell_angle_beta 90.000000
_cell_angle_gamma 90.000000
_cell_volume 3776.527291
_symmetry_space_group_name_H-M "P M M N"
_symmetry_group_IT_number 59
_space_group.IT_coordinate_system_code '2'
_symmetry_cell_setting 'orthorhombic'
loop_
_space_group_symop_operation_xyz
x,y,z
1/2-x,1/2-y,z
1/2+x,-y,-z
-x,1/2+y,-z
-x,-y,-z
1/2+x,1/2+y,-z
1/2-x,y,z
x,1/2-y,z
loop_
_atom_site_type_symbol
_atom_site_label
_atom_site_fract_x
_atom_site_fract_y
_atom_site_fract_z
Si Si1 0.425305 0.081357 0.846244
Si Si2 0.426270 0.307094 0.350730
Si Si3 0.926455 0.112231 0.468722
Si Si4 0.574764 0.419317 0.661309
Si Si5 0.075269 0.033982 0.345585
Si Si6 0.074511 0.307427 0.146685
Si Si7 0.925680 0.467628 0.160260
Si Si8 0.074326 0.884538 0.978911
O O1 0.250000 0.087112 0.848683
O O2 0.487949 0.094640 0.749690
O O3 0.459614 0.023914 0.858953
O O4 0.500242 0.110431 0.925551
O O5 0.250000 0.314178 0.359122
O O6 0.456138 0.250000 0.363913
O O7 0.510346 0.341020 0.418950
O O8 0.466228 0.319410 0.248704
O O9 0.750000 0.110582 0.462109
O O10 0.966036 0.109423 0.572554
O O11 0.994045 0.065856 0.418641
O O12 0.750000 0.414169 0.677152
O O13 0.547526 0.476556 0.643193
O O14 0.250000 0.042550 0.349570
O O15 0.013322 0.047137 0.248440
O O16 0.250000 0.315991 0.137475
O O17 0.049335 0.250000 0.134440
O O18 0.986946 0.339677 0.077387
O O19 0.750000 0.464028 0.177718
O O20 0.961877 0.432556 0.079000
O O21 0.250000 0.881697 0.987661
#
# Coordination Sequence:
#
# PCOD9447863 Si02
#       8
#     8   8   8   8   8   8   8   8
#     4  10  20  34  52  72  98 134 173 211 249 291
#     4   9  19  36  56  78 104 132 163 202 248 298
#     4  11  21  32  50  75 103 134 168 207 250 298
#     4   9  20  36  50  69 100 136 172 211 253 294
#     4  10  19  31  49  72 101 137 172 207 248 294
#     4   9  19  36  55  75 101 131 163 201 245 294
#     4   9  19  33  48  72 104 135 168 206 248 296
#     4  11  21  32  50  75 103 133 165 203 248 299
#
# _framework density 16.946785999999999
#
# number of rings (size 3 to 8) (size 9 to 14) (size 15 to 20)
#    0.000    2.250    0.000    3.750    0.000    6.000 
#    0.000    1.250    0.000    0.750    0.000    3.500 
#    0.000    0.000    0.000    0.000    0.000    0.000 
#
# Total GULP energy -357327.801473 kJ/mol
# GULP energy per Si atom -5583.246898 kJ/mol
# Density = 1.690821 g / cm^3
# Si number density = 16.946786 Si / 1000 Ang^3
#
#
#
# Elastic Constant Matrix: (Units=GPa)
#
#
# Indices 1 2 3 4 5 6 
#
# 1 53.3643 42.2041 74.8673 0.0000 0.0000 0.0000
# 2 42.2041 55.9727 70.5023 0.0000 0.0000 0.0000
# 3 74.8673 70.5023 164.8980 0.0000 0.0000 0.0000
# 4 0.0000 0.0000 0.0000 25.7458 0.0000 0.0000
# 5 0.0000 0.0000 0.0000 0.0000 31.0819 0.0000
# 6 0.0000 0.0000 0.0000 0.0000 0.0000 26.7515
#
#
#
# Elastic Compliance Matrix: (Units=1/GPa)
#
#
# Indices 1 2 3 4 5 6 
#
# 1 0.065150 -0.025714 -0.018585 0.000000 0.000000 0.000000
# 2 -0.025714 0.048865 -0.009217 0.000000 0.000000 0.000000
# 3 -0.018585 -0.009217 0.018443 0.000000 0.000000 0.000000
# 4 0.000000 0.000000 0.000000 0.038841 0.000000 0.000000
# 5 0.000000 0.000000 0.000000 0.000000 0.032173 0.000000
# 6 0.000000 0.000000 0.000000 0.000000 0.000000 0.037381
#
#
# Mechanical properties :
#
#
# Convention : Reuss Voigt Hill
#
# Bulk Modulus (GPa) = 39.33240 72.15361 55.74300
# Shear Modulus (GPa) = 14.03070 22.49329 18.26199
#
# Velocity S-wave (km/s) = 2.88049 3.64715 3.28626
# Velocity P-wave (km/s) = 5.85856 7.77204 6.88213
#
# Compressibility (1/GPa) = 0.02542433
#
# Stress axis : x y z
#
# Youngs Moduli (GPa) = 15.34925 20.46471 54.21978
#
# Poissons Ratio (x) = 0.52623 1.00770
# Poissons Ratio (y) = 0.39469 0.49977
# Poissons Ratio (z) = 0.28527 0.18863
#
# Static dielectric constant tensor:
#      x y z
#    x 1.560320 0.000000 0.000000 
#    y 0.000000 1.562590 0.000000 
#    z 0.000000 0.000000 1.554430 
# 
# From -- ./inp_files/15082.got.cif
#   From: 2010.05.17/outbox.cif.g08.bks.cpg/sg59_8_cif.got.tgz:15082.got - 2010.06.03 14:40:33.
