data_PCOD9447463
_publ_section_title
;
Structure prediction by ZEFSAII (Michael W. Deem and Ramdas Pophale) SiO2 
 PCOD9447463
Probable space group: P M M N
;
_chemical_formula_sum "Si O2"
_cell_formula_units_Z 56
_cell_length_a 18.744418
_cell_length_b 8.435367
_cell_length_c 19.772727
_cell_angle_alpha 90.000000
_cell_angle_beta 90.000000
_cell_angle_gamma 90.000000
_cell_volume 3126.385393
_symmetry_space_group_name_H-M "P M M N"
_symmetry_group_IT_number 59
_space_group.IT_coordinate_system_code '2'
_symmetry_cell_setting 'orthorhombic'
loop_
_space_group_symop_operation_xyz
x,y,z
1/2-x,1/2-y,z
1/2+x,-y,-z
-x,1/2+y,-z
-x,-y,-z
1/2+x,1/2+y,-z
1/2-x,y,z
x,1/2-y,z
loop_
_atom_site_type_symbol
_atom_site_label
_atom_site_fract_x
_atom_site_fract_y
_atom_site_fract_z
Si Si1 0.609406 0.440549 0.273630
Si Si2 0.473900 0.939532 0.928000
Si Si3 0.074083 0.941883 0.581352
Si Si4 0.912140 0.439721 0.569506
Si Si5 0.669594 0.941376 0.698429
Si Si6 0.170701 0.438930 0.863232
Si Si7 0.957184 0.941920 0.791469
O O1 0.618848 0.250000 0.269141
O O2 0.617060 0.490875 0.351587
O O3 0.656745 0.517592 0.215344
O O4 0.527423 0.476783 0.252905
O O5 0.476301 0.750000 0.928002
O O6 0.525214 0.998469 0.867013
O O7 0.394001 0.989667 0.906709
O O8 0.500000 0.000000 0.000000
O O9 0.069489 0.750000 0.583165
O O10 0.104287 0.988340 0.508033
O O11 0.993285 0.006146 0.584101
O O12 0.908739 0.250000 0.573432
O O13 0.860588 0.512200 0.625284
O O14 0.750000 0.999248 0.708423
O O15 0.670224 0.750000 0.702335
O O16 0.613404 0.001455 0.754445
O O17 0.250000 0.494718 0.882791
O O18 0.167894 0.250000 0.870409
O O19 0.952294 0.750000 0.794152
#
# Coordination Sequence:
#
# PCOD9447463 Si02
#       7
#     8   8   8   8   8   8   8
#     4   9  16  30  53  74  98 133 173 219 260 308
#     4  10  20  36  59  84 111 143 176 214 258 311
#     4   9  17  31  49  70  98 132 172 216 264 320
#     4  10  19  29  46  72 100 131 170 222 273 312
#     4  10  19  33  52  70  96 138 180 218 262 313
#     4  10  21  36  54  80 113 143 173 216 267 317
#     4   8  15  30  51  74  98 128 170 212 248 298
#
# _framework density 17.912057000000001
#
# number of rings (size 3 to 8) (size 9 to 14) (size 15 to 20)
#    0.000    2.571    1.429    2.143    0.000    2.571 
#    0.000    2.143    0.000    6.857    0.000    0.000 
#    0.000    0.000    0.000    0.000    0.000    0.000 
#
# Total GULP energy -312158.600982 kJ/mol
# GULP energy per Si atom -5574.260732 kJ/mol
# Density = 1.787129 g / cm^3
# Si number density = 17.912057 Si / 1000 Ang^3
#
#
#
# Elastic Constant Matrix: (Units=GPa)
#
#
# Indices 1 2 3 4 5 6 
#
# 1 108.9666 18.0426 62.3287 0.0000 0.0000 0.0000
# 2 18.0426 16.7613 21.5092 0.0000 0.0000 0.0000
# 3 62.3287 21.5092 147.3038 0.0000 0.0000 0.0000
# 4 0.0000 0.0000 0.0000 27.7850 0.0000 0.0000
# 5 0.0000 0.0000 0.0000 0.0000 17.5579 0.0000
# 6 0.0000 0.0000 0.0000 0.0000 0.0000 18.8929
#
#
#
# Elastic Compliance Matrix: (Units=1/GPa)
#
#
# Indices 1 2 3 4 5 6 
#
# 1 0.013034 -0.008556 -0.004266 0.000000 0.000000 0.000000
# 2 -0.008556 0.079035 -0.007920 0.000000 0.000000 0.000000
# 3 -0.004266 -0.007920 0.009750 0.000000 0.000000 0.000000
# 4 0.000000 0.000000 0.000000 0.035991 0.000000 0.000000
# 5 0.000000 0.000000 0.000000 0.000000 0.056954 0.000000
# 6 0.000000 0.000000 0.000000 0.000000 0.000000 0.052930
#
#
# Mechanical properties :
#
#
# Convention : Reuss Voigt Hill
#
# Bulk Modulus (GPa) = 16.57417 52.97698 34.77557
# Shear Modulus (GPa) = 16.16607 24.25724 20.21166
#
# Velocity S-wave (km/s) = 3.00746 3.68399 3.36278
# Velocity P-wave (km/s) = 4.61876 6.90913 5.87661
#
# Compressibility (1/GPa) = 0.06033485
#
# Stress axis : x y z
#
# Youngs Moduli (GPa) = 76.72380 12.65261 102.56287
#
# Poissons Ratio (x) = 0.10826 0.43749
# Poissons Ratio (y) = 0.65646 0.81233
# Poissons Ratio (z) = 0.32727 0.10021
#
# Static dielectric constant tensor:
#      x y z
#    x 1.602730 0.000000 0.000000 
#    y 0.000000 1.622960 0.000000 
#    z 0.000000 0.000000 1.631230 
# 
# From -- ./inp_files/30598.got.cif
#   From: 2010.05.17/outbox.cif.g08.bks.cpg/sg59_16_cif.got.tgz:30598.got - 2010.06.03 14:40:33.
