data_PCOD9447860
_publ_section_title
;
Structure prediction by ZEFSAII (Michael W. Deem and Ramdas Pophale) SiO2 
 PCOD9447860
Probable space group: P M M N
;
_chemical_formula_sum "Si O2"
_cell_formula_units_Z 64
_cell_length_a 8.920754
_cell_length_b 20.737007
_cell_length_c 20.985507
_cell_angle_alpha 90.000000
_cell_angle_beta 90.000000
_cell_angle_gamma 90.000000
_cell_volume 3882.103445
_symmetry_space_group_name_H-M "P M M N"
_symmetry_group_IT_number 59
_space_group.IT_coordinate_system_code '2'
_symmetry_cell_setting 'orthorhombic'
loop_
_space_group_symop_operation_xyz
x,y,z
1/2-x,1/2-y,z
1/2+x,-y,-z
-x,1/2+y,-z
-x,-y,-z
1/2+x,1/2+y,-z
1/2-x,y,z
x,1/2-y,z
loop_
_atom_site_type_symbol
_atom_site_label
_atom_site_fract_x
_atom_site_fract_y
_atom_site_fract_z
Si Si1 0.070849 0.821311 0.416210
Si Si2 0.424311 0.852430 0.153051
Si Si3 0.577061 0.992360 0.826983
Si Si4 0.071659 0.176388 0.981910
Si Si5 0.431303 0.040744 0.557432
Si Si6 0.428101 0.554110 0.953763
Si Si7 0.579458 0.506021 0.301794
Si Si8 0.921468 0.840255 0.282382
O O1 0.250000 0.829231 0.420442
O O2 0.031888 0.750000 0.443458
O O3 0.991550 0.885476 0.443436
O O4 0.019375 0.819786 0.342533
O O5 0.250000 0.834008 0.149291
O O6 0.510691 0.832439 0.089732
O O7 0.502647 0.824204 0.215643
O O8 0.430107 0.930373 0.160432
O O9 0.750000 0.972912 0.834223
O O10 0.477245 0.960535 0.881663
O O11 0.519695 0.978110 0.755424
O O12 0.250000 0.164973 0.982649
O O13 0.043053 0.250000 0.002254
O O14 0.989880 0.123080 0.024179
O O15 0.250000 0.042166 0.555750
O O16 0.474844 0.006716 0.624961
O O17 0.500000 0.000000 0.500000
O O18 0.250000 0.551322 0.960766
O O19 0.500000 0.500000 0.000000
O O20 0.750000 0.480639 0.299103
O O21 0.585353 0.582203 0.286497
O O22 0.750000 0.818284 0.287347
#
# Coordination Sequence:
#
# PCOD9447860 Si02
#       8
#     8   8   8   8   8   8   8   8
#     4  10  20  33  49  71 101 137 178 220 259 304
#     4  10  19  31  49  71  98 134 173 213 255 304
#     4  10  19  31  51  78 103 131 169 216 262 305
#     4  11  24  39  53  71  99 133 170 216 268 321
#     4  10  20  34  54  79 109 143 178 216 261 311
#     4  12  23  36  56  78 102 133 172 219 265 315
#     4   8  16  30  47  72 103 134 168 209 255 304
#     4   9  17  29  46  67  96 133 173 214 253 298
#
# _framework density 16.485907999999998
#
# number of rings (size 3 to 8) (size 9 to 14) (size 15 to 20)
#    0.000    2.000    1.250    4.125    0.000    7.000 
#    0.000    0.000    0.000    0.000    0.000    0.875 
#    0.000    1.000    0.000    0.000    0.000    0.000 
#
# Total GULP energy -357038.079506 kJ/mol
# GULP energy per Si atom -5578.719992 kJ/mol
# Density = 1.644839 g / cm^3
# Si number density = 16.485908 Si / 1000 Ang^3
#
#
#
# Elastic Constant Matrix: (Units=GPa)
#
#
# Indices 1 2 3 4 5 6 
#
# 1 106.4784 49.6362 51.4138 0.0000 0.0000 0.0000
# 2 49.6362 76.6023 53.9378 0.0000 0.0000 0.0000
# 3 51.4138 53.9378 106.3168 0.0000 0.0000 0.0000
# 4 0.0000 0.0000 0.0000 -487.1483 0.0000 0.0000
# 5 0.0000 0.0000 0.0000 0.0000 28.2976 0.0000
# 6 0.0000 0.0000 0.0000 0.0000 0.0000 12.7030
#
#
#
# Elastic Compliance Matrix: (Units=1/GPa)
#
#
# Indices 1 2 3 4 5 6 
#
# 1 0.014215 -0.006799 -0.003425 0.000000 0.000000 0.000000
# 2 -0.006799 0.023562 -0.008666 0.000000 0.000000 0.000000
# 3 -0.003425 -0.008666 0.015458 0.000000 0.000000 0.000000
# 4 0.000000 0.000000 0.000000 -0.002053 0.000000 0.000000
# 5 0.000000 0.000000 0.000000 0.000000 0.035339 0.000000
# 6 0.000000 0.000000 0.000000 0.000000 0.000000 0.078722
#
#
# Mechanical properties :
#
#
# Convention : Reuss Voigt Hill
#
# Bulk Modulus (GPa) = 64.70048 66.59700 65.64874
# Shear Modulus (GPa) = 24.01844 -80.26887 -28.12521
#
# Velocity S-wave (km/s) = 3.82109 -6.98535 -4.13487
# Velocity P-wave (km/s) = 7.66803 4.95743 4.13658
#
# Compressibility (1/GPa) = 0.01545583
#
# Stress axis : x y z
#
# Youngs Moduli (GPa) = 70.34923 42.44137 64.69050
#
# Poissons Ratio (x) = 0.28858 0.22154
# Poissons Ratio (y) = 0.47834 0.56058
# Poissons Ratio (z) = 0.24092 0.36778
#
# Static dielectric constant tensor:
#      x y z
#    x 1.555270 0.000000 0.000000 
#    y 0.000000 1.566670 0.000000 
#    z 0.000000 0.000000 1.543800 
# 
# From -- ./inp_files/29662.got.cif
#   From: 2010.05.17/outbox.cif.g08.bks.cpg/sg59_15_cif.got.tgz:29662.got - 2010.06.03 14:40:33.
