data_PCOD9447981
_publ_section_title
;
Structure prediction by ZEFSAII (Michael W. Deem and Ramdas Pophale) SiO2 
 PCOD9447981
Probable space group: P M M N
;
_chemical_formula_sum "Si O2"
_cell_formula_units_Z 48
_cell_length_a 32.316693
_cell_length_b 7.743093
_cell_length_c 9.298194
_cell_angle_alpha 90.000000
_cell_angle_beta 90.000000
_cell_angle_gamma 90.000000
_cell_volume 2326.697864
_symmetry_space_group_name_H-M "P M M N"
_symmetry_group_IT_number 59
_space_group.IT_coordinate_system_code '2'
_symmetry_cell_setting 'orthorhombic'
loop_
_space_group_symop_operation_xyz
x,y,z
1/2-x,1/2-y,z
1/2+x,-y,-z
-x,1/2+y,-z
-x,-y,-z
1/2+x,1/2+y,-z
1/2-x,y,z
x,1/2-y,z
loop_
_atom_site_type_symbol
_atom_site_label
_atom_site_fract_x
_atom_site_fract_y
_atom_site_fract_z
Si Si1 0.090844 0.455054 0.828405
Si Si2 0.326126 0.951678 0.672070
Si Si3 0.910571 0.040006 0.833568
Si Si4 0.999258 0.542858 0.169611
Si Si5 0.333786 0.546163 0.352552
Si Si6 0.250000 0.048869 0.196809
Si Si7 0.750000 0.460672 0.136675
O O1 0.092422 0.250000 0.803996
O O2 0.129485 0.535498 0.747238
O O3 0.045494 0.521932 0.778322
O O4 0.094172 0.486051 0.999969
O O5 0.315080 0.750000 0.654236
O O6 0.328207 0.028756 0.512265
O O7 0.290484 0.021527 0.776402
O O8 0.910472 0.250000 0.834248
O O9 0.955871 0.981650 0.776856
O O10 0.872541 0.975429 0.737843
O O11 0.998441 0.750000 0.185871
O O12 0.000000 0.500000 0.000000
O O13 0.342707 0.750000 0.370041
O O14 0.291480 0.528809 0.264710
O O15 0.250000 0.250000 0.231888
O O16 0.250000 0.023995 0.026059
O O17 0.750000 0.250000 0.128193
#
# Coordination Sequence:
#
# PCOD9447981 Si02
#       7
#     8   8   8   8   8   4   4
#     4  10  19  31  50  77 109 140 171 213 263 312
#     4  10  21  37  56  77 102 135 175 214 253 302
#     4   9  17  32  55  78 101 135 180 223 258 299
#     4   8  15  28  47  73 103 135 172 214 259 303
#     4  10  21  38  58  78 103 137 176 215 254 301
#     4  12  25  38  56  82 108 132 163 208 260 312
#     4  10  21  38  58  76  98 132 171 210 250 298
#
# _framework density 20.630096999999999
#
# number of rings (size 3 to 8) (size 9 to 14) (size 15 to 20)
#    0.000    2.333    0.000    2.750    0.000    8.000 
#    0.000    1.667    0.000    0.000    0.000    0.000 
#    0.000    0.000    0.000    0.000    0.000    0.000 
#
# Total GULP energy -267771.490678 kJ/mol
# GULP energy per Si atom -5578.572722 kJ/mol
# Density = 2.058314 g / cm^3
# Si number density = 20.630097 Si / 1000 Ang^3
#
#
#
# Elastic Constant Matrix: (Units=GPa)
#
#
# Indices 1 2 3 4 5 6 
#
# 1 173.3849 -25.9753 66.0323 0.0000 0.0000 0.0000
# 2 -25.9753 27.2952 -15.5518 0.0000 0.0000 0.0000
# 3 66.0323 -15.5518 104.1224 0.0000 0.0000 0.0000
# 4 0.0000 0.0000 0.0000 -70.7411 0.0000 0.0000
# 5 0.0000 0.0000 0.0000 0.0000 -15.4419 0.0000
# 6 0.0000 0.0000 0.0000 0.0000 0.0000 -347.1196
#
#
#
# Elastic Compliance Matrix: (Units=1/GPa)
#
#
# Indices 1 2 3 4 5 6 
#
# 1 0.008257 0.005327 -0.004441 0.000000 0.000000 0.000000
# 2 0.005327 0.043482 0.003116 0.000000 0.000000 0.000000
# 3 -0.004441 0.003116 0.012886 0.000000 0.000000 0.000000
# 4 0.000000 0.000000 0.000000 -0.014136 0.000000 0.000000
# 5 0.000000 0.000000 0.000000 0.000000 -0.064759 0.000000
# 6 0.000000 0.000000 0.000000 0.000000 0.000000 -0.002881
#
#
# Mechanical properties :
#
#
# Convention : Reuss Voigt Hill
#
# Bulk Modulus (GPa) = 13.76852 39.31256 26.54054
# Shear Modulus (GPa) = -5276.89131 -67.97404 -2672.43268
#
# Velocity S-wave (km/s) = -50.63016 -5.74635 -36.03078
# Velocity P-wave (km/s) = 58.40545 4.99300 41.44953
#
# Compressibility (1/GPa) = 0.07262947
#
# Stress axis : x y z
#
# Youngs Moduli (GPa) = 121.11247 22.99823 77.60605
#
# Poissons Ratio (x) = -0.12252 0.34462
# Poissons Ratio (y) = -0.64522 -0.24181
# Poissons Ratio (z) = 0.53781 -0.07166
#
# Static dielectric constant tensor:
#      x y z
#    x 1.777260 0.000000 0.000000 
#    y 0.000000 1.753360 0.000000 
#    z 0.000000 0.000000 1.695540 
# 
# From -- ./inp_files/6350.got.cif
#   From: 2010.05.17/outbox.cif.g08.bks.cpg/sg59_4_cif.got.tgz:6350.got - 2010.06.03 14:40:33.
