data_PCOD9447113
_publ_section_title
;
Structure prediction by ZEFSAII (Michael W. Deem and Ramdas Pophale) SiO2 
 PCOD9447113
Probable space group: P M M N
;
_chemical_formula_sum "Si O2"
_cell_formula_units_Z 64
_cell_length_a 17.934453
_cell_length_b 20.677021
_cell_length_c 9.734054
_cell_angle_alpha 90.000000
_cell_angle_beta 90.000000
_cell_angle_gamma 90.000000
_cell_volume 3609.689576
_symmetry_space_group_name_H-M "P M M N"
_symmetry_group_IT_number 59
_space_group.IT_coordinate_system_code '2'
_symmetry_cell_setting 'orthorhombic'
loop_
_space_group_symop_operation_xyz
x,y,z
1/2-x,1/2-y,z
1/2+x,-y,-z
-x,1/2+y,-z
-x,-y,-z
1/2+x,1/2+y,-z
1/2-x,y,z
x,1/2-y,z
loop_
_atom_site_type_symbol
_atom_site_label
_atom_site_fract_x
_atom_site_fract_y
_atom_site_fract_z
Si Si1 0.449453 0.935485 0.978148
Si Si2 0.487793 0.680361 0.506967
Si Si3 0.663082 0.027977 0.262888
Si Si4 0.831560 0.371739 0.513798
Si Si5 0.040529 0.325274 0.177649
Si Si6 0.333009 0.941438 0.196348
Si Si7 0.664315 0.914569 0.725105
Si Si8 0.935787 0.947589 0.460276
O O1 0.404097 0.916334 0.114516
O O2 0.497291 0.875900 0.919015
O O3 0.500000 0.000000 0.000000
O O4 0.384056 0.951723 0.869151
O O5 0.518400 0.750000 0.465590
O O6 0.400048 0.676116 0.483350
O O7 0.503050 0.672291 0.670222
O O8 0.523872 0.619843 0.430978
O O9 0.750000 0.012268 0.235298
O O10 0.615548 0.972211 0.337422
O O11 0.662535 0.085163 0.376547
O O12 0.750000 0.340986 0.517578
O O13 0.836757 0.419356 0.645155
O O14 0.040658 0.250000 0.134325
O O15 0.122424 0.355776 0.201176
O O16 0.250000 0.921265 0.146246
O O17 0.336961 0.019280 0.187575
O O18 0.750000 0.900108 0.691470
O O19 0.617204 0.933339 0.590145
O O20 0.000000 0.000000 0.500000
#
# Coordination Sequence:
#
# PCOD9447113 Si02
#       8
#     8   8   8   8   8   8   8   8
#     4  12  23  36  58  86 114 151 192 239 289 340
#     4  10  20  34  55  83 116 148 188 239 284 334
#     4  11  21  35  58  87 116 147 189 238 288 343
#     4  10  19  34  58  84 113 149 185 227 285 342
#     4  10  21  38  55  80 113 151 193 236 282 345
#     4  10  20  34  55  85 117 144 181 233 285 336
#     4  10  18  32  54  84 113 143 182 238 293 337
#     4  11  18  31  57  85 114 146 190 236 286 340
#
# _framework density 17.730055
#
# number of rings (size 3 to 8) (size 9 to 14) (size 15 to 20)
#    0.000    1.500    5.000    1.500    1.750    0.500 
#    0.000    0.625    0.000    3.375    0.000    0.000 
#    0.000    0.000    0.000    0.000    0.000    0.000 
#
# Total GULP energy -356896.397257 kJ/mol
# GULP energy per Si atom -5576.506207 kJ/mol
# Density = 1.768970 g / cm^3
# Si number density = 17.730055 Si / 1000 Ang^3
#
#
#
# Elastic Constant Matrix: (Units=GPa)
#
#
# Indices 1 2 3 4 5 6 
#
# 1 142.4270 48.4529 30.5592 0.0000 0.0000 0.0000
# 2 48.4529 106.3596 9.7876 0.0000 0.0000 0.0000
# 3 30.5592 9.7876 42.0792 0.0000 0.0000 0.0000
# 4 0.0000 0.0000 0.0000 19.5010 0.0000 0.0000
# 5 0.0000 0.0000 0.0000 0.0000 29.4713 0.0000
# 6 0.0000 0.0000 0.0000 0.0000 0.0000 15.6113
#
#
#
# Elastic Compliance Matrix: (Units=1/GPa)
#
#
# Indices 1 2 3 4 5 6 
#
# 1 0.009633 -0.003826 -0.006106 0.000000 0.000000 0.000000
# 2 -0.003826 0.011128 0.000191 0.000000 0.000000 0.000000
# 3 -0.006106 0.000191 0.028155 0.000000 0.000000 0.000000
# 4 0.000000 0.000000 0.000000 0.051279 0.000000 0.000000
# 5 0.000000 0.000000 0.000000 0.000000 0.033931 0.000000
# 6 0.000000 0.000000 0.000000 0.000000 0.000000 0.064056
#
#
# Mechanical properties :
#
#
# Convention : Reuss Voigt Hill
#
# Bulk Modulus (GPa) = 33.97659 52.05170 43.01414
# Shear Modulus (GPa) = 21.98035 26.38779 24.18407
#
# Velocity S-wave (km/s) = 3.52479 3.86204 3.69726
# Velocity P-wave (km/s) = 5.98084 7.02202 6.52224
#
# Compressibility (1/GPa) = 0.02943203
#
# Stress axis : x y z
#
# Youngs Moduli (GPa) = 103.81053 89.86575 35.51824
#
# Poissons Ratio (x) = 0.34387 0.21686
# Poissons Ratio (y) = 0.39723 -0.00677
# Poissons Ratio (z) = 0.63384 -0.01713
#
# Static dielectric constant tensor:
#      x y z
#    x 1.627380 0.000000 0.000000 
#    y 0.000000 1.615450 0.000000 
#    z 0.000000 0.000000 1.624260 
# 
# From -- ./inp_files/10685.got.cif
#   From: 2010.05.17/outbox.cif.g08.bks.cpg/sg59_6_cif.got.tgz:10685.got - 2010.06.03 14:40:33.
