data_PCOD9447368
_publ_section_title
;
Structure prediction by ZEFSAII (Michael W. Deem and Ramdas Pophale) SiO2 
 PCOD9447368
Probable space group: P M M N
;
_chemical_formula_sum "Si O2"
_cell_formula_units_Z 64
_cell_length_a 26.841099
_cell_length_b 9.002320
_cell_length_c 17.164636
_cell_angle_alpha 90.000000
_cell_angle_beta 90.000000
_cell_angle_gamma 90.000000
_cell_volume 4147.528113
_symmetry_space_group_name_H-M "P M M N"
_symmetry_group_IT_number 59
_space_group.IT_coordinate_system_code '2'
_symmetry_cell_setting 'orthorhombic'
loop_
_space_group_symop_operation_xyz
x,y,z
1/2-x,1/2-y,z
1/2+x,-y,-z
-x,1/2+y,-z
-x,-y,-z
1/2+x,1/2+y,-z
1/2-x,y,z
x,1/2-y,z
loop_
_atom_site_type_symbol
_atom_site_label
_atom_site_fract_x
_atom_site_fract_y
_atom_site_fract_z
Si Si1 0.946030 0.920065 0.088792
Si Si2 0.613812 0.583243 0.375679
Si Si3 0.040882 0.927883 0.748433
Si Si4 0.308124 0.571354 0.518121
Si Si5 0.126373 0.573731 0.369329
Si Si6 0.434042 0.920155 0.067351
Si Si7 0.547798 0.916703 0.529793
Si Si8 0.075733 0.427902 0.230873
O O1 0.929274 0.750000 0.098944
O O2 0.005609 0.915523 0.073132
O O3 0.940786 0.014034 0.167476
O O4 0.922119 0.996789 0.013205
O O5 0.625292 0.750000 0.346824
O O6 0.577513 0.498774 0.315686
O O7 0.662405 0.498701 0.408703
O O8 0.582363 0.597745 0.454770
O O9 0.043349 0.750000 0.743993
O O10 0.981602 0.969849 0.742980
O O11 0.250000 0.532991 0.519844
O O12 0.313695 0.750000 0.522613
O O13 0.332036 0.527837 0.433662
O O14 0.129889 0.750000 0.357915
O O15 0.075566 0.524582 0.411426
O O16 0.118628 0.492090 0.287248
O O17 0.416361 0.750000 0.067399
O O18 0.417451 0.007335 0.144309
O O19 0.538648 0.750000 0.562003
O O20 0.500000 0.000000 0.500000
O O21 0.077499 0.250000 0.230405
#
# Coordination Sequence:
#
# PCOD9447368 Si02
#       8
#     8   8   8   8   8   8   8   8
#     4   9  16  26  40  58  83 116 153 189 221 253
#     4  10  20  31  44  64  87 111 142 180 220 261
#     4  10  19  29  42  61  88 122 155 185 217 255
#     4   9  19  36  54  68  84 109 141 179 224 272
#     4  10  19  30  45  64  85 110 142 179 219 262
#     4   9  16  26  40  58  83 117 155 188 218 254
#     4  10  19  29  41  58  83 114 145 175 209 252
#     4  10  19  29  42  62  90 122 154 186 219 255
#
# _framework density 15.430878
#
# number of rings (size 3 to 8) (size 9 to 14) (size 15 to 20)
#    0.000    2.375    0.000    3.375    0.000    8.750 
#    0.000    0.000    0.000    0.000    0.000    0.000 
#    0.000    1.000    0.000    6.000    0.000    4.625 
#
# Total GULP energy -356326.337985 kJ/mol
# GULP energy per Si atom -5567.599031 kJ/mol
# Density = 1.539576 g / cm^3
# Si number density = 15.430878 Si / 1000 Ang^3
#
#
#
# Elastic Constant Matrix: (Units=GPa)
#
#
# Indices 1 2 3 4 5 6 
#
# 1 44.0942 21.8199 13.6043 0.0000 0.0000 0.0000
# 2 21.8199 73.5391 36.4377 0.0000 0.0000 0.0000
# 3 13.6043 36.4377 90.7682 0.0000 0.0000 0.0000
# 4 0.0000 0.0000 0.0000 30.1034 0.0000 0.0000
# 5 0.0000 0.0000 0.0000 0.0000 13.3899 0.0000
# 6 0.0000 0.0000 0.0000 0.0000 0.0000 13.5257
#
#
#
# Elastic Compliance Matrix: (Units=1/GPa)
#
#
# Indices 1 2 3 4 5 6 
#
# 1 0.026658 -0.007402 -0.001024 0.000000 0.000000 0.000000
# 2 -0.007402 0.019030 -0.006530 0.000000 0.000000 0.000000
# 3 -0.001024 -0.006530 0.013792 0.000000 0.000000 0.000000
# 4 0.000000 0.000000 0.000000 0.033219 0.000000 0.000000
# 5 0.000000 0.000000 0.000000 0.000000 0.074683 0.000000
# 6 0.000000 0.000000 0.000000 0.000000 0.000000 0.073933
#
#
# Mechanical properties :
#
#
# Convention : Reuss Voigt Hill
#
# Bulk Modulus (GPa) = 33.82107 39.12504 36.47305
# Shear Modulus (GPa) = 17.78837 20.50645 19.14741
#
# Velocity S-wave (km/s) = 3.39894 3.64939 3.52639
# Velocity P-wave (km/s) = 6.11303 6.57020 6.34573
#
# Compressibility (1/GPa) = 0.02956737
#
# Stress axis : x y z
#
# Youngs Moduli (GPa) = 37.51273 52.54857 72.50647
#
# Poissons Ratio (x) = 0.38898 0.07424
# Poissons Ratio (y) = 0.27768 0.47346
# Poissons Ratio (z) = 0.03841 0.34314
#
# Static dielectric constant tensor:
#      x y z
#    x 1.476990 0.000000 0.000000 
#    y 0.000000 1.548000 0.000000 
#    z 0.000000 0.000000 1.527530 
# 
# From -- ./inp_files/25093.got.cif
#   From: 2010.05.17/outbox.cif.g08.bks.cpg/sg59_13_cif.got.tgz:25093.got - 2010.06.03 14:40:33.
