data_PCOD9447049
_publ_section_title
;
Structure prediction by ZEFSAII (Michael W. Deem and Ramdas Pophale) SiO2 
 PCOD9447049
Probable space group: P M M N
;
_chemical_formula_sum "Si O2"
_cell_formula_units_Z 48
_cell_length_a 7.426103
_cell_length_b 9.792939
_cell_length_c 29.319929
_cell_angle_alpha 90.000000
_cell_angle_beta 90.000000
_cell_angle_gamma 90.000000
_cell_volume 2132.244153
_symmetry_space_group_name_H-M "P M M N"
_symmetry_group_IT_number 59
_space_group.IT_coordinate_system_code '2'
_symmetry_cell_setting 'orthorhombic'
loop_
_space_group_symop_operation_xyz
x,y,z
1/2-x,1/2-y,z
1/2+x,-y,-z
-x,1/2+y,-z
-x,-y,-z
1/2+x,1/2+y,-z
1/2-x,y,z
x,1/2-y,z
loop_
_atom_site_type_symbol
_atom_site_label
_atom_site_fract_x
_atom_site_fract_y
_atom_site_fract_z
Si Si1 0.530511 0.398762 0.706411
Si Si2 0.534371 0.092060 0.044503
Si Si3 0.533687 0.594931 0.784481
Si Si4 0.970466 0.038812 0.604355
Si Si5 0.035375 0.092964 0.871838
Si Si6 0.541158 0.750000 0.577114
Si Si7 0.532791 0.250000 0.528724
O O1 0.750000 0.402346 0.706290
O O2 0.477003 0.250000 0.725033
O O3 0.468838 0.522505 0.738065
O O4 0.473765 0.408621 0.653771
O O5 0.750000 0.102587 0.049530
O O6 0.467514 0.250000 0.041775
O O7 0.464586 0.003537 0.087353
O O8 0.500000 0.000000 0.000000
O O9 0.750000 0.603775 0.781507
O O10 0.466460 0.750000 0.791460
O O11 0.493840 0.490992 0.825471
O O12 0.750000 0.044046 0.604154
O O13 0.025205 0.123436 0.559968
O O14 0.037048 0.886854 0.597131
O O15 0.250000 0.103703 0.878541
O O16 0.966218 0.250000 0.871137
O O17 0.750000 0.750000 0.591042
O O18 0.535411 0.750000 0.522442
O O19 0.750000 0.250000 0.525559
#
# Coordination Sequence:
#
# PCOD9447049 Si02
#       7
#     8   8   8   8   8   4   4
#     4   9  16  29  49  73 100 129 166 213 259 305
#     4  10  21  37  58  84 113 148 189 231 275 320
#     4  10  21  34  53  83 112 138 173 222 275 320
#     4   9  17  29  47  71  96 125 162 203 248 300
#     4  10  21  38  59  81 109 148 189 224 266 324
#     4  10  20  30  46  72  98 122 156 204 253 294
#     4  10  18  32  50  68  92 128 166 196 239 304
#
# _framework density 22.511493999999999
#
# number of rings (size 3 to 8) (size 9 to 14) (size 15 to 20)
#    0.000    2.333    0.833    2.000    1.167    3.667 
#    0.000    0.000    0.000    2.000    0.000    0.000 
#    0.000    0.000    0.000    0.000    0.000    0.000 
#
# Total GULP energy -268052.752809 kJ/mol
# GULP energy per Si atom -5584.432350 kJ/mol
# Density = 2.246026 g / cm^3
# Si number density = 22.511494 Si / 1000 Ang^3
#
#
#
# Elastic Constant Matrix: (Units=GPa)
#
#
# Indices 1 2 3 4 5 6 
#
# 1 73.0643 6.6120 -11.5730 0.0000 0.0000 0.0000
# 2 6.6120 226.9914 66.7608 0.0000 0.0000 0.0000
# 3 -11.5730 66.7608 106.5337 0.0000 0.0000 0.0000
# 4 0.0000 0.0000 0.0000 41.1223 0.0000 0.0000
# 5 0.0000 0.0000 0.0000 0.0000 17.3538 0.0000
# 6 0.0000 0.0000 0.0000 0.0000 0.0000 -3.8645
#
#
#
# Elastic Compliance Matrix: (Units=1/GPa)
#
#
# Indices 1 2 3 4 5 6 
#
# 1 0.014131 -0.001058 0.002198 0.000000 0.000000 0.000000
# 2 -0.001058 0.005480 -0.003549 0.000000 0.000000 0.000000
# 3 0.002198 -0.003549 0.011850 0.000000 0.000000 0.000000
# 4 0.000000 0.000000 0.000000 0.024318 0.000000 0.000000
# 5 0.000000 0.000000 0.000000 0.000000 0.057624 0.000000
# 6 0.000000 0.000000 0.000000 0.000000 0.000000 -0.258762
#
#
# Mechanical properties :
#
#
# Convention : Reuss Voigt Hill
#
# Bulk Modulus (GPa) = 37.53477 58.90988 48.22232
# Shear Modulus (GPa) = -37.97624 33.90828 -2.03398
#
# Velocity S-wave (km/s) = -4.11173 3.88527 -0.95157
# Velocity P-wave (km/s) = 2.41495 6.80829 4.50115
#
# Compressibility (1/GPa) = 0.02664197
#
# Stress axis : x y z
#
# Youngs Moduli (GPa) = 70.76889 182.47787 84.39105
#
# Poissons Ratio (x) = 0.19308 -0.18550
# Poissons Ratio (y) = 0.07488 0.29952
# Poissons Ratio (z) = -0.15556 0.64764
#
# Static dielectric constant tensor:
#      x y z
#    x 1.886770 0.000000 0.000000 
#    y 0.000000 1.926590 0.000000 
#    z 0.000000 0.000000 1.773400 
# 
# From -- ./inp_files/32964.got.cif
#   From: 2010.05.17/outbox.cif.g08.bks.cpg/sg59_17_cif.got.tgz:32964.got - 2010.06.03 14:40:33.
