data_PCOD9447530
_publ_section_title
;
Structure prediction by ZEFSAII (Michael W. Deem and Ramdas Pophale) SiO2 
 PCOD9447530
Probable space group: P M M N
;
_chemical_formula_sum "Si O2"
_cell_formula_units_Z 40
_cell_length_a 27.476932
_cell_length_b 7.613059
_cell_length_c 9.658496
_cell_angle_alpha 90.000000
_cell_angle_beta 90.000000
_cell_angle_gamma 90.000000
_cell_volume 2020.398041
_symmetry_space_group_name_H-M "P M M N"
_symmetry_group_IT_number 59
_space_group.IT_coordinate_system_code '2'
_symmetry_cell_setting 'orthorhombic'
loop_
_space_group_symop_operation_xyz
x,y,z
1/2-x,1/2-y,z
1/2+x,-y,-z
-x,1/2+y,-z
-x,-y,-z
1/2+x,1/2+y,-z
1/2-x,y,z
x,1/2-y,z
loop_
_atom_site_type_symbol
_atom_site_label
_atom_site_fract_x
_atom_site_fract_y
_atom_site_fract_z
Si Si1 0.695579 0.535160 0.858024
Si Si2 0.603918 0.544882 0.688037
Si Si3 0.195935 0.038288 0.822035
Si Si4 0.501281 0.039724 0.335911
Si Si5 0.605281 0.456799 0.369251
O O1 0.750000 0.479093 0.814208
O O2 0.696002 0.750000 0.853298
O O3 0.650908 0.469921 0.765368
O O4 0.688577 0.483950 0.018395
O O5 0.602138 0.750000 0.727317
O O6 0.550115 0.468633 0.720960
O O7 0.610639 0.536627 0.522162
O O8 0.250000 0.978246 0.778049
O O9 0.196478 0.250000 0.821209
O O10 0.152458 0.982197 0.723623
O O11 0.499652 0.250000 0.315129
O O12 0.555357 0.976674 0.295793
O O13 0.500000 0.000000 0.500000
O O14 0.598372 0.250000 0.393233
#
# Coordination Sequence:
#
# PCOD9447530 Si02
#       5
#     8   8   8   8   8
#     4   8  15  29  49  70  89 112 148 193 232 265
#     4   9  16  29  50  71  91 119 155 191 227 267
#     4   9  18  33  50  66  87 118 154 188 225 272
#     4   8  15  27  43  64  91 122 151 181 221 268
#     4  10  19  30  45  68  97 123 150 186 226 269
#
# _framework density 19.798079999999999
#
# number of rings (size 3 to 8) (size 9 to 14) (size 15 to 20)
#    0.000    3.200    0.000    1.800    0.000    2.000 
#    0.000    4.000    0.000    1.200    0.000    0.000 
#    0.000    0.000    0.000    0.000    0.000    0.000 
#
# Total GULP energy -222699.909513 kJ/mol
# GULP energy per Si atom -5567.497738 kJ/mol
# Density = 1.975302 g / cm^3
# Si number density = 19.798080 Si / 1000 Ang^3
#
#
#
# Elastic Constant Matrix: (Units=GPa)
#
#
# Indices 1 2 3 4 5 6 
#
# 1 233.5563 -1.4648 73.6617 0.0000 0.0000 0.0000
# 2 -1.4648 39.2241 -6.1711 0.0000 0.0000 0.0000
# 3 73.6617 -6.1711 36.6643 0.0000 0.0000 0.0000
# 4 0.0000 0.0000 0.0000 -4.5329 0.0000 0.0000
# 5 0.0000 0.0000 0.0000 0.0000 -57.3284 0.0000
# 6 0.0000 0.0000 0.0000 0.0000 0.0000 -0.1186
#
#
#
# Elastic Compliance Matrix: (Units=1/GPa)
#
#
# Indices 1 2 3 4 5 6 
#
# 1 0.012131 -0.003473 -0.024957 0.000000 0.000000 0.000000
# 2 -0.003473 0.027183 0.011554 0.000000 0.000000 0.000000
# 3 -0.024957 0.011554 0.079360 0.000000 0.000000 0.000000
# 4 0.000000 0.000000 0.000000 -0.220610 0.000000 0.000000
# 5 0.000000 0.000000 0.000000 0.000000 -0.017443 0.000000
# 6 0.000000 0.000000 0.000000 0.000000 0.000000 -8.432054
#
#
# Mechanical properties :
#
#
# Convention : Reuss Voigt Hill
#
# Bulk Modulus (GPa) = 11.77583 49.05516 30.41549
# Shear Modulus (GPa) = -0.58897 3.83194 1.62148
#
# Velocity S-wave (km/s) = -0.54602 1.39274 0.90597
# Velocity P-wave (km/s) = 2.35868 5.23620 4.06086
#
# Compressibility (1/GPa) = 0.08491973
#
# Stress axis : x y z
#
# Youngs Moduli (GPa) = 82.43298 36.78835 12.60083
#
# Poissons Ratio (x) = 0.12778 0.31448
# Poissons Ratio (y) = 0.28632 -0.14558
# Poissons Ratio (z) = 2.05728 -0.42504
#
# Static dielectric constant tensor:
#      x y z
#    x 1.770300 0.000000 0.000000 
#    y 0.000000 1.572680 0.000000 
#    z 0.000000 0.000000 1.638130 
# 
# From -- ./inp_files/5699.got.cif
#   From: 2010.05.17/outbox.cif.g08.bks.cpg/sg59_3_cif.got.tgz:5699.got - 2010.06.03 14:40:33.
