data_PCOD9447197
_publ_section_title
;
Structure prediction by ZEFSAII (Michael W. Deem and Ramdas Pophale) SiO2 
 PCOD9447197
Probable space group: P M M N
;
_chemical_formula_sum "Si O2"
_cell_formula_units_Z 64
_cell_length_a 7.577177
_cell_length_b 15.732263
_cell_length_c 24.373982
_cell_angle_alpha 90.000000
_cell_angle_beta 90.000000
_cell_angle_gamma 90.000000
_cell_volume 2905.528344
_symmetry_space_group_name_H-M "P M M N"
_symmetry_group_IT_number 59
_space_group.IT_coordinate_system_code '2'
_symmetry_cell_setting 'orthorhombic'
loop_
_space_group_symop_operation_xyz
x,y,z
1/2-x,1/2-y,z
1/2+x,-y,-z
-x,1/2+y,-z
-x,-y,-z
1/2+x,1/2+y,-z
1/2-x,y,z
x,1/2-y,z
loop_
_atom_site_type_symbol
_atom_site_label
_atom_site_fract_x
_atom_site_fract_y
_atom_site_fract_z
Si Si1 0.536894 0.485313 0.702935
Si Si2 0.950681 0.877987 0.876575
Si Si3 0.041476 0.349073 0.491139
Si Si4 0.465983 0.158724 0.243391
Si Si5 0.542539 0.990071 0.423315
Si Si6 0.535035 0.845363 0.997950
Si Si7 0.543629 0.937909 0.103791
Si Si8 0.036588 0.844233 0.210854
O O1 0.750000 0.485253 0.705424
O O2 0.473518 0.577278 0.723367
O O3 0.486647 0.471255 0.640275
O O4 0.473873 0.414263 0.745750
O O5 0.750000 0.845491 0.878638
O O6 0.029164 0.846391 0.819724
O O7 0.030797 0.857779 0.935967
O O8 0.948383 0.979531 0.873409
O O9 0.250000 0.339510 0.500855
O O10 0.973988 0.250000 0.486619
O O11 0.969145 0.411358 0.539852
O O12 0.024041 0.415195 0.439911
O O13 0.250000 0.154855 0.241358
O O14 0.515288 0.250000 0.267141
O O15 0.750000 0.993230 0.434771
O O16 0.750000 0.852706 0.996565
O O17 0.492245 0.750000 0.015839
O O18 0.473196 0.910099 0.044413
O O19 0.750000 0.958908 0.098210
O O20 0.524396 0.865867 0.149471
O O21 0.250000 0.846789 0.210176
O O22 0.980251 0.750000 0.226813
#
# Coordination Sequence:
#
# PCOD9447197 Si02
#       8
#     8   8   8   8   8   8   8   8
#     4  10  20  36  55  80 113 147 187 231 274 326
#     4  10  18  33  55  75  98 132 179 228 274 330
#     4   9  19  38  62  86 116 156 195 229 269 322
#     4   9  17  31  54  79 100 132 182 233 275 320
#     4  10  21  36  57  88 121 152 189 234 278 322
#     4   9  18  31  49  75 102 130 172 226 279 336
#     4  11  21  33  51  76 108 140 173 219 282 344
#     4  10  21  38  58  79 105 142 189 235 275 322
#
# _framework density 22.026976000000001
#
# number of rings (size 3 to 8) (size 9 to 14) (size 15 to 20)
#    0.000    2.250    1.250    1.875    0.000    4.500 
#    0.000    1.875    0.000    3.750    0.000    0.000 
#    0.000    0.000    0.000    0.000    0.000    0.000 
#
# Total GULP energy -357162.175559 kJ/mol
# GULP energy per Si atom -5580.658993 kJ/mol
# Density = 2.197684 g / cm^3
# Si number density = 22.026976 Si / 1000 Ang^3
#
#
#
# Elastic Constant Matrix: (Units=GPa)
#
#
# Indices 1 2 3 4 5 6 
#
# 1 56.6484 11.5830 -2.4196 0.0000 0.0000 0.0000
# 2 11.5830 128.2508 7.5167 0.0000 0.0000 0.0000
# 3 -2.4196 7.5167 78.4015 0.0000 0.0000 0.0000
# 4 0.0000 0.0000 0.0000 37.0463 0.0000 0.0000
# 5 0.0000 0.0000 0.0000 0.0000 11.1592 0.0000
# 6 0.0000 0.0000 0.0000 0.0000 0.0000 2.0131
#
#
#
# Elastic Compliance Matrix: (Units=1/GPa)
#
#
# Indices 1 2 3 4 5 6 
#
# 1 0.018025 -0.001670 0.000716 0.000000 0.000000 0.000000
# 2 -0.001670 0.007996 -0.000818 0.000000 0.000000 0.000000
# 3 0.000716 -0.000818 0.012855 0.000000 0.000000 0.000000
# 4 0.000000 0.000000 0.000000 0.026993 0.000000 0.000000
# 5 0.000000 0.000000 0.000000 0.000000 0.089612 0.000000
# 6 0.000000 0.000000 0.000000 0.000000 0.000000 0.496752
#
#
# Mechanical properties :
#
#
# Convention : Reuss Voigt Hill
#
# Bulk Modulus (GPa) = 28.30225 32.96231 30.63228
# Shear Modulus (GPa) = 7.49003 26.48510 16.98756
#
# Velocity S-wave (km/s) = 1.84601 3.47132 2.78009
# Velocity P-wave (km/s) = 4.17379 5.57348 4.92363
#
# Compressibility (1/GPa) = 0.03533287
#
# Stress axis : x y z
#
# Youngs Moduli (GPa) = 55.47914 125.06273 77.78832
#
# Poissons Ratio (x) = 0.20884 -0.05573
# Poissons Ratio (y) = 0.09264 0.06364
# Poissons Ratio (z) = -0.03974 0.10232
#
# Static dielectric constant tensor:
#      x y z
#    x 1.885080 0.000000 0.000000 
#    y 0.000000 1.829170 0.000000 
#    z 0.000000 0.000000 1.774380 
# 
# From -- ./inp_files/31495.got.cif
#   From: 2010.05.17/outbox.cif.g08.bks.cpg/sg59_16_cif.got.tgz:31495.got - 2010.06.03 14:40:33.
