data_PCOD9447885
_publ_section_title
;
Structure prediction by ZEFSAII (Michael W. Deem and Ramdas Pophale) SiO2 
 PCOD9447885
Probable space group: P M M N
;
_chemical_formula_sum "Si O2"
_cell_formula_units_Z 64
_cell_length_a 25.293488
_cell_length_b 8.790431
_cell_length_c 15.953849
_cell_angle_alpha 90.000000
_cell_angle_beta 90.000000
_cell_angle_gamma 90.000000
_cell_volume 3547.189332
_symmetry_space_group_name_H-M "P M M N"
_symmetry_group_IT_number 59
_space_group.IT_coordinate_system_code '2'
_symmetry_cell_setting 'orthorhombic'
loop_
_space_group_symop_operation_xyz
x,y,z
1/2-x,1/2-y,z
1/2+x,-y,-z
-x,1/2+y,-z
-x,-y,-z
1/2+x,1/2+y,-z
1/2-x,y,z
x,1/2-y,z
loop_
_atom_site_type_symbol
_atom_site_label
_atom_site_fract_x
_atom_site_fract_y
_atom_site_fract_z
Si Si1 0.416761 0.568032 0.454790
Si Si2 0.947367 0.927836 0.034378
Si Si3 0.981213 0.431026 0.377604
Si Si4 0.160205 0.930387 0.018937
Si Si5 0.418082 0.427880 0.773451
Si Si6 0.811874 0.931575 0.618733
Si Si7 0.307532 0.433211 0.844295
Si Si8 0.186862 0.577261 0.204372
O O1 0.413429 0.750000 0.449420
O O2 0.442547 0.525777 0.544752
O O3 0.461567 0.508359 0.390238
O O4 0.358496 0.500547 0.438506
O O5 0.940955 0.750000 0.011452
O O6 0.944383 0.935651 0.134935
O O7 0.900113 0.027854 0.997979
O O8 0.000000 0.000000 0.000000
O O9 0.988654 0.250000 0.380357
O O10 0.951614 0.481033 0.293691
O O11 0.170670 0.750000 0.017647
O O12 0.188796 0.005241 0.939209
O O13 0.173296 0.985875 0.112534
O O14 0.415907 0.250000 0.748048
O O15 0.357969 0.484797 0.790169
O O16 0.750000 0.980833 0.603134
O O17 0.812690 0.750000 0.611666
O O18 0.826885 0.981109 0.713701
O O19 0.250000 0.473430 0.809111
O O20 0.311871 0.250000 0.849389
O O21 0.250000 0.588308 0.205423
O O22 0.164953 0.750000 0.211985
#
# Coordination Sequence:
#
# PCOD9447885 Si02
#       8
#     8   8   8   8   8   8   8   8
#     4  10  21  38  60  83 108 139 172 211 263 319
#     4  10  21  36  52  72 100 136 175 213 258 309
#     4  10  21  37  59  85 108 134 174 220 263 311
#     4  10  19  31  49  73 100 133 174 217 260 306
#     4   9  19  35  54  77 107 141 175 215 265 318
#     4  10  21  36  55  81 111 142 178 219 262 311
#     4   9  18  33  52  74 103 140 179 218 263 314
#     4   9  18  32  49  71 102 138 172 207 251 303
#
# _framework density 18.042455
#
# number of rings (size 3 to 8) (size 9 to 14) (size 15 to 20)
#    0.000    2.375    0.000    3.000    0.000    7.500 
#    0.000    3.125    0.000    2.250    0.000    0.000 
#    0.000    0.000    0.000    0.000    0.000    0.000 
#
# Total GULP energy -356732.114077 kJ/mol
# GULP energy per Si atom -5573.939282 kJ/mol
# Density = 1.800139 g / cm^3
# Si number density = 18.042455 Si / 1000 Ang^3
#
#
#
# Elastic Constant Matrix: (Units=GPa)
#
#
# Indices 1 2 3 4 5 6 
#
# 1 109.4846 24.2254 28.6569 0.0000 0.0000 0.0000
# 2 24.2254 27.7608 16.3655 0.0000 0.0000 0.0000
# 3 28.6569 16.3655 31.2349 0.0000 0.0000 0.0000
# 4 0.0000 0.0000 0.0000 26.2884 0.0000 0.0000
# 5 0.0000 0.0000 0.0000 0.0000 14.5512 0.0000
# 6 0.0000 0.0000 0.0000 0.0000 0.0000 27.0506
#
#
#
# Elastic Compliance Matrix: (Units=1/GPa)
#
#
# Indices 1 2 3 4 5 6 
#
# 1 0.012695 -0.006094 -0.008454 0.000000 0.000000 0.000000
# 2 -0.006094 0.055047 -0.023250 0.000000 0.000000 0.000000
# 3 -0.008454 -0.023250 0.051954 0.000000 0.000000 0.000000
# 4 0.000000 0.000000 0.000000 0.038040 0.000000 0.000000
# 5 0.000000 0.000000 0.000000 0.000000 0.068723 0.000000
# 6 0.000000 0.000000 0.000000 0.000000 0.000000 0.036968
#
#
# Mechanical properties :
#
#
# Convention : Reuss Voigt Hill
#
# Bulk Modulus (GPa) = 22.67676 34.10842 28.39259
# Shear Modulus (GPa) = 14.13536 20.19353 17.16445
#
# Velocity S-wave (km/s) = 2.80205 3.34911 3.08772
# Velocity P-wave (km/s) = 4.80255 5.82245 5.33692
#
# Compressibility (1/GPa) = 0.04409801
#
# Stress axis : x y z
#
# Youngs Moduli (GPa) = 78.77122 18.16633 19.24789
#
# Poissons Ratio (x) = 0.11071 0.16272
# Poissons Ratio (y) = 0.48007 0.44752
# Poissons Ratio (z) = 0.66593 0.42237
#
# Static dielectric constant tensor:
#      x y z
#    x 1.707530 0.000000 0.000000 
#    y 0.000000 1.623340 0.000000 
#    z 0.000000 0.000000 1.608410 
# 
# From -- ./inp_files/24682.got.cif
#   From: 2010.05.17/outbox.cif.g08.bks.cpg/sg59_13_cif.got.tgz:24682.got - 2010.06.03 14:40:33.
