data_PCOD9447007
_publ_section_title
;
Structure prediction by ZEFSAII (Michael W. Deem and Ramdas Pophale) SiO2 
 PCOD9447007
Probable space group: P M M N
;
_chemical_formula_sum "Si O2"
_cell_formula_units_Z 64
_cell_length_a 18.010483
_cell_length_b 8.656649
_cell_length_c 23.176855
_cell_angle_alpha 90.000000
_cell_angle_beta 90.000000
_cell_angle_gamma 90.000000
_cell_volume 3613.513421
_symmetry_space_group_name_H-M "P M M N"
_symmetry_group_IT_number 59
_space_group.IT_coordinate_system_code '2'
_symmetry_cell_setting 'orthorhombic'
loop_
_space_group_symop_operation_xyz
x,y,z
1/2-x,1/2-y,z
1/2+x,-y,-z
-x,1/2+y,-z
-x,-y,-z
1/2+x,1/2+y,-z
1/2-x,y,z
x,1/2-y,z
loop_
_atom_site_type_symbol
_atom_site_label
_atom_site_fract_x
_atom_site_fract_y
_atom_site_fract_z
Si Si1 0.960555 0.433866 0.873846
Si Si2 0.508233 0.065294 0.246621
Si Si3 0.126245 0.068265 0.915192
Si Si4 0.166652 0.564008 0.039322
Si Si5 0.835748 0.935264 0.553269
Si Si6 0.466923 0.933685 0.366880
Si Si7 0.830692 0.435860 0.207036
Si Si8 0.433949 0.565359 0.540349
O O1 0.952065 0.250000 0.862458
O O2 0.893775 0.488768 0.914209
O O3 0.969047 0.520700 0.813384
O O4 0.037785 0.453882 0.908062
O O5 0.507221 0.250000 0.254547
O O6 0.594447 0.011615 0.239354
O O7 0.469956 0.984498 0.300728
O O8 0.142628 0.250000 0.912179
O O9 0.161556 0.987006 0.859489
O O10 0.152136 0.002269 0.975930
O O11 0.250000 0.523936 0.057560
O O12 0.160762 0.750000 0.035510
O O13 0.750000 0.974593 0.565615
O O14 0.843436 0.750000 0.552572
O O15 0.894146 0.001776 0.599925
O O16 0.860902 0.000775 0.490846
O O17 0.467825 0.750000 0.373403
O O18 0.540445 0.004446 0.397565
O O19 0.750000 0.489078 0.229199
O O20 0.831824 0.250000 0.208923
O O21 0.500000 0.500000 0.500000
O O22 0.433638 0.750000 0.539601
#
# Coordination Sequence:
#
# PCOD9447007 Si02
#       8
#     8   8   8   8   8   8   8   8
#     4   9  19  35  51  69  95 128 166 207 253 306
#     4  10  20  35  55  76  99 132 175 217 257 304
#     4  10  19  30  48  73  98 124 157 200 251 308
#     4  10  20  33  49  69  95 127 162 202 250 304
#     4  10  20  35  56  83 114 143 175 219 265 305
#     4  11  21  35  56  79 107 143 182 218 255 305
#     4   9  18  33  52  73  98 128 162 204 256 312
#     4  10  18  31  53  79 108 139 172 209 252 302
#
# _framework density 17.711293999999999
#
# number of rings (size 3 to 8) (size 9 to 14) (size 15 to 20)
#    0.000    2.125    0.000    5.625    0.000    4.500 
#    0.000    1.250    0.000    4.500    0.000    0.000 
#    0.000    0.000    0.000    0.000    0.000    0.000 
#
# Total GULP energy -357037.014778 kJ/mol
# GULP energy per Si atom -5578.703356 kJ/mol
# Density = 1.767098 g / cm^3
# Si number density = 17.711294 Si / 1000 Ang^3
#
#
#
# Elastic Constant Matrix: (Units=GPa)
#
#
# Indices 1 2 3 4 5 6 
#
# 1 94.0711 37.2666 38.7825 0.0000 0.0000 0.0000
# 2 37.2666 64.0889 20.1907 0.0000 0.0000 0.0000
# 3 38.7825 20.1907 56.3436 0.0000 0.0000 0.0000
# 4 0.0000 0.0000 0.0000 24.4727 0.0000 0.0000
# 5 0.0000 0.0000 0.0000 0.0000 15.2762 0.0000
# 6 0.0000 0.0000 0.0000 0.0000 0.0000 21.5362
#
#
#
# Elastic Compliance Matrix: (Units=1/GPa)
#
#
# Indices 1 2 3 4 5 6 
#
# 1 0.017310 -0.007115 -0.009365 0.000000 0.000000 0.000000
# 2 -0.007115 0.020514 -0.002454 0.000000 0.000000 0.000000
# 3 -0.009365 -0.002454 0.025074 0.000000 0.000000 0.000000
# 4 0.000000 0.000000 0.000000 0.040862 0.000000 0.000000
# 5 0.000000 0.000000 0.000000 0.000000 0.065461 0.000000
# 6 0.000000 0.000000 0.000000 0.000000 0.000000 0.046433
#
#
# Mechanical properties :
#
#
# Convention : Reuss Voigt Hill
#
# Bulk Modulus (GPa) = 39.95256 45.22038 42.58647
# Shear Modulus (GPa) = 19.09385 20.14126 19.61756
#
# Velocity S-wave (km/s) = 3.28695 3.37590 3.33172
# Velocity P-wave (km/s) = 6.08375 6.38615 6.23678
#
# Compressibility (1/GPa) = 0.02502969
#
# Stress axis : x y z
#
# Youngs Moduli (GPa) = 57.77079 48.74823 39.88246
#
# Poissons Ratio (x) = 0.34684 0.37350
# Poissons Ratio (y) = 0.41104 0.09786
# Poissons Ratio (z) = 0.54103 0.11961
#
# Static dielectric constant tensor:
#      x y z
#    x 1.667350 0.000000 0.000000 
#    y 0.000000 1.594780 0.000000 
#    z 0.000000 0.000000 1.621340 
# 
# From -- ./inp_files/30744.got.cif
#   From: 2010.05.17/outbox.cif.g08.bks.cpg/sg59_16_cif.got.tgz:30744.got - 2010.06.03 14:40:33.
