data_PCOD9447120
_publ_section_title
;
Structure prediction by ZEFSAII (Michael W. Deem and Ramdas Pophale) SiO2 
 PCOD9447120
Probable space group: P M M N
;
_chemical_formula_sum "Si O2"
_cell_formula_units_Z 64
_cell_length_a 20.047454
_cell_length_b 8.573849
_cell_length_c 20.847700
_cell_angle_alpha 90.000000
_cell_angle_beta 90.000000
_cell_angle_gamma 90.000000
_cell_volume 3583.382803
_symmetry_space_group_name_H-M "P M M N"
_symmetry_group_IT_number 59
_space_group.IT_coordinate_system_code '2'
_symmetry_cell_setting 'orthorhombic'
loop_
_space_group_symop_operation_xyz
x,y,z
1/2-x,1/2-y,z
1/2+x,-y,-z
-x,1/2+y,-z
-x,-y,-z
1/2+x,1/2+y,-z
1/2-x,y,z
x,1/2-y,z
loop_
_atom_site_type_symbol
_atom_site_label
_atom_site_fract_x
_atom_site_fract_y
_atom_site_fract_z
Si Si1 0.574964 0.438287 0.790803
Si Si2 0.675778 0.937763 0.260668
Si Si3 0.573694 0.063112 0.015230
Si Si4 0.951124 0.936331 0.651005
Si Si5 0.573256 0.436877 0.518513
Si Si6 0.603800 0.437753 0.380983
Si Si7 0.930326 0.561301 0.154902
Si Si8 0.673372 0.059618 0.902028
O O1 0.575149 0.250000 0.787373
O O2 0.574961 0.502399 0.718798
O O3 0.505367 0.484987 0.825024
O O4 0.635683 0.487819 0.836638
O O5 0.750000 0.991876 0.243981
O O6 0.675044 0.750000 0.259326
O O7 0.620501 0.991703 0.209963
O O8 0.655067 0.992159 0.331066
O O9 0.571462 0.250000 0.012909
O O10 0.589957 0.006375 0.086524
O O11 0.627521 0.010269 0.962160
O O12 0.500000 0.000000 0.000000
O O13 0.950538 0.750000 0.650629
O O14 0.028724 0.987446 0.640718
O O15 0.911444 0.996599 0.588553
O O16 0.500000 0.500000 0.500000
O O17 0.571191 0.250000 0.522149
O O18 0.615404 0.481485 0.455391
O O19 0.605444 0.250000 0.377244
O O20 0.929361 0.750000 0.151107
O O21 0.750000 0.007045 0.905836
O O22 0.673973 0.250000 0.902556
#
# Coordination Sequence:
#
# PCOD9447120 Si02
#       8
#     8   8   8   8   8   8   8   8
#     4  10  18  32  55  78 102 139 175 214 265 311
#     4  10  21  35  51  72 103 143 180 216 265 322
#     4  11  21  35  57  83 108 139 176 217 264 314
#     4  10  19  30  48  78 108 135 172 218 265 311
#     4   9  17  29  46  73 105 135 170 214 265 313
#     4   9  18  31  48  72 102 135 174 220 262 306
#     4  10  20  35  53  78 106 136 177 220 262 313
#     4   9  19  36  56  79 106 136 176 219 261 316
#
# _framework density 17.860219000000001
#
# number of rings (size 3 to 8) (size 9 to 14) (size 15 to 20)
#    0.000    2.250    2.500    1.875    0.000    4.250 
#    0.000    0.000    0.000    3.750    0.000    1.750 
#    0.000    0.000    0.000    0.000    0.000    0.000 
#
# Total GULP energy -356892.601792 kJ/mol
# GULP energy per Si atom -5576.446903 kJ/mol
# Density = 1.781957 g / cm^3
# Si number density = 17.860219 Si / 1000 Ang^3
#
#
#
# Elastic Constant Matrix: (Units=GPa)
#
#
# Indices 1 2 3 4 5 6 
#
# 1 109.5046 18.2645 64.6201 0.0000 0.0000 0.0000
# 2 18.2645 14.4420 26.9831 0.0000 0.0000 0.0000
# 3 64.6201 26.9831 169.0372 0.0000 0.0000 0.0000
# 4 0.0000 0.0000 0.0000 34.1817 0.0000 0.0000
# 5 0.0000 0.0000 0.0000 0.0000 20.1137 0.0000
# 6 0.0000 0.0000 0.0000 0.0000 0.0000 13.3657
#
#
#
# Elastic Compliance Matrix: (Units=1/GPa)
#
#
# Indices 1 2 3 4 5 6 
#
# 1 0.012728 -0.009983 -0.003272 0.000000 0.000000 0.000000
# 2 -0.009983 0.106502 -0.013184 0.000000 0.000000 0.000000
# 3 -0.003272 -0.013184 0.009271 0.000000 0.000000 0.000000
# 4 0.000000 0.000000 0.000000 0.029255 0.000000 0.000000
# 5 0.000000 0.000000 0.000000 0.000000 0.049717 0.000000
# 6 0.000000 0.000000 0.000000 0.000000 0.000000 0.074818
#
#
# Mechanical properties :
#
#
# Convention : Reuss Voigt Hill
#
# Bulk Modulus (GPa) = 13.22374 56.96878 35.09626
# Shear Modulus (GPa) = 13.87429 25.73995 19.80712
#
# Velocity S-wave (km/s) = 2.79018 3.80042 3.33379
# Velocity P-wave (km/s) = 4.21904 7.15708 5.87470
#
# Compressibility (1/GPa) = 0.07562156
#
# Stress axis : x y z
#
# Youngs Moduli (GPa) = 78.56636 9.38953 107.85984
#
# Poissons Ratio (x) = 0.09374 0.35293
# Poissons Ratio (y) = 0.78436 1.42204
# Poissons Ratio (z) = 0.25708 0.12379
#
# Static dielectric constant tensor:
#      x y z
#    x 1.606100 0.000000 0.000000 
#    y 0.000000 1.608550 0.000000 
#    z 0.000000 0.000000 1.620880 
# 
# From -- ./inp_files/30673.got.cif
#   From: 2010.05.17/outbox.cif.g08.bks.cpg/sg59_16_cif.got.tgz:30673.got - 2010.06.03 14:40:33.
