data_PCOD9447318
_publ_section_title
;
Structure prediction by ZEFSAII (Michael W. Deem and Ramdas Pophale) SiO2 
 PCOD9447318
Probable space group: P M M N
;
_chemical_formula_sum "Si O2"
_cell_formula_units_Z 64
_cell_length_a 8.345771
_cell_length_b 31.885874
_cell_length_c 12.292762
_cell_angle_alpha 90.000000
_cell_angle_beta 90.000000
_cell_angle_gamma 90.000000
_cell_volume 3271.253971
_symmetry_space_group_name_H-M "P M M N"
_symmetry_group_IT_number 59
_space_group.IT_coordinate_system_code '2'
_symmetry_cell_setting 'orthorhombic'
loop_
_space_group_symop_operation_xyz
x,y,z
1/2-x,1/2-y,z
1/2+x,-y,-z
-x,1/2+y,-z
-x,-y,-z
1/2+x,1/2+y,-z
1/2-x,y,z
x,1/2-y,z
loop_
_atom_site_type_symbol
_atom_site_label
_atom_site_fract_x
_atom_site_fract_y
_atom_site_fract_z
Si Si1 0.558291 0.623384 0.124467
Si Si2 0.442028 0.953137 0.978180
Si Si3 0.556028 0.623513 0.374835
Si Si4 0.556252 0.203904 0.010345
Si Si5 0.557794 0.453059 0.479825
Si Si6 0.055077 0.583608 0.749428
Si Si7 0.442561 0.204339 0.489544
Si Si8 0.443411 0.818872 0.746952
O O1 0.750000 0.622042 0.125046
O O2 0.502053 0.625432 0.249617
O O3 0.505312 0.664570 0.058052
O O4 0.497424 0.581440 0.065153
O O5 0.250000 0.952907 0.977047
O O6 0.501124 0.938308 0.859429
O O7 0.500000 0.000000 0.000000
O O8 0.750000 0.624268 0.375621
O O9 0.502054 0.580809 0.432823
O O10 0.497268 0.663946 0.443621
O O11 0.750000 0.201938 0.009005
O O12 0.506608 0.250000 0.969120
O O13 0.506736 0.199914 0.137049
O O14 0.500000 0.500000 0.500000
O O15 0.750000 0.452353 0.480302
O O16 0.499890 0.438154 0.360914
O O17 0.250000 0.582296 0.750116
O O18 0.010263 0.632250 0.748943
O O19 0.250000 0.203851 0.498273
O O20 0.499950 0.250000 0.529801
O O21 0.487198 0.200270 0.362859
O O22 0.250000 0.815562 0.740720
#
# Coordination Sequence:
#
# PCOD9447318 Si02
#       8
#     8   8   8   8   8   8   8   8
#     4  11  24  41  61  86 118 159 203 248 297 349
#     4  11  23  42  64  90 122 157 197 242 296 354
#     4  10  23  42  60  82 117 160 200 242 293 349
#     4  10  21  38  61  88 119 156 196 242 300 360
#     4  11  23  40  62  90 119 153 195 241 295 351
#     4   9  19  37  62  86 117 154 188 237 293 347
#     4  10  21  37  58  86 118 152 193 243 294 344
#     4  10  18  36  61  87 118 154 191 234 293 353
#
# _framework density 19.564363
#
# number of rings (size 3 to 8) (size 9 to 14) (size 15 to 20)
#    0.000    1.750    2.500    1.500    1.750    3.000 
#    0.000    3.125    0.000    0.000    0.000    0.000 
#    0.000    0.000    0.000    0.000    0.000    0.000 
#
# Total GULP energy -357491.519665 kJ/mol
# GULP energy per Si atom -5585.804995 kJ/mol
# Density = 1.951983 g / cm^3
# Si number density = 19.564363 Si / 1000 Ang^3
#
#
#
# Elastic Constant Matrix: (Units=GPa)
#
#
# Indices 1 2 3 4 5 6 
#
# 1 21.9984 24.3266 21.7408 0.0000 0.0000 0.0000
# 2 24.3266 199.9329 91.3967 0.0000 0.0000 0.0000
# 3 21.7408 91.3967 153.6424 0.0000 0.0000 0.0000
# 4 0.0000 0.0000 0.0000 60.4331 0.0000 0.0000
# 5 0.0000 0.0000 0.0000 0.0000 28.2057 0.0000
# 6 0.0000 0.0000 0.0000 0.0000 0.0000 24.1246
#
#
#
# Elastic Compliance Matrix: (Units=1/GPa)
#
#
# Indices 1 2 3 4 5 6 
#
# 1 0.055463 -0.004341 -0.005266 0.000000 0.000000 0.000000
# 2 -0.004341 0.007210 -0.003674 0.000000 0.000000 0.000000
# 3 -0.005266 -0.003674 0.009440 0.000000 0.000000 0.000000
# 4 0.000000 0.000000 0.000000 0.016547 0.000000 0.000000
# 5 0.000000 0.000000 0.000000 0.000000 0.035454 0.000000
# 6 0.000000 0.000000 0.000000 0.000000 0.000000 0.041452
#
#
# Mechanical properties :
#
#
# Convention : Reuss Voigt Hill
#
# Bulk Modulus (GPa) = 21.95434 72.27798 47.11616
# Shear Modulus (GPa) = 24.11847 38.42665 31.27256
#
# Velocity S-wave (km/s) = 3.51490 4.43664 4.00239
# Velocity P-wave (km/s) = 5.26485 7.95418 6.74491
#
# Compressibility (1/GPa) = 0.04554908
#
# Stress axis : x y z
#
# Youngs Moduli (GPa) = 18.03017 138.70348 105.93730
#
# Poissons Ratio (x) = 0.60214 0.55783
# Poissons Ratio (y) = 0.07827 0.38926
# Poissons Ratio (z) = 0.09494 0.50966
#
# Static dielectric constant tensor:
#      x y z
#    x 1.684650 0.000000 0.000000 
#    y 0.000000 1.676680 0.000000 
#    z 0.000000 0.000000 1.674550 
# 
# From -- ./inp_files/14898.got.cif
#   From: 2010.05.17/outbox.cif.g08.bks.cpg/sg59_8_cif.got.tgz:14898.got - 2010.06.03 14:40:33.
