data_PCOD9447862
_publ_section_title
;
Structure prediction by ZEFSAII (Michael W. Deem and Ramdas Pophale) SiO2 
 PCOD9447862
Probable space group: P M M N
;
_chemical_formula_sum "Si O2"
_cell_formula_units_Z 64
_cell_length_a 22.183128
_cell_length_b 7.482799
_cell_length_c 15.846093
_cell_angle_alpha 90.000000
_cell_angle_beta 90.000000
_cell_angle_gamma 90.000000
_cell_volume 2630.322895
_symmetry_space_group_name_H-M "P M M N"
_symmetry_group_IT_number 59
_space_group.IT_coordinate_system_code '2'
_symmetry_cell_setting 'orthorhombic'
loop_
_space_group_symop_operation_xyz
x,y,z
1/2-x,1/2-y,z
1/2+x,-y,-z
-x,1/2+y,-z
-x,-y,-z
1/2+x,1/2+y,-z
1/2-x,y,z
x,1/2-y,z
loop_
_atom_site_type_symbol
_atom_site_label
_atom_site_fract_x
_atom_site_fract_y
_atom_site_fract_z
Si Si1 0.986663 0.964561 0.870677
Si Si2 0.854381 0.452335 0.914972
Si Si3 0.685544 0.530394 0.451133
Si Si4 0.379179 0.960821 0.911135
Si Si5 0.681292 0.033325 0.730696
Si Si6 0.847665 0.950414 0.274609
Si Si7 0.518097 0.465361 0.318730
Si Si8 0.910004 0.542228 0.580273
O O1 0.983986 0.750000 0.883221
O O2 0.052024 0.031285 0.902047
O O3 0.985267 0.998465 0.770535
O O4 0.927330 0.048165 0.909786
O O5 0.829933 0.250000 0.915026
O O6 0.832668 0.531896 0.826210
O O7 0.843930 0.534739 0.007577
O O8 0.750000 0.482582 0.490662
O O9 0.682559 0.750000 0.449915
O O10 0.684476 0.465438 0.354885
O O11 0.628571 0.463836 0.503907
O O12 0.385376 0.750000 0.926931
O O13 0.348598 0.975242 0.819619
O O14 0.750000 0.985077 0.709115
O O15 0.676222 0.250000 0.730755
O O16 0.633999 0.965942 0.661724
O O17 0.824920 0.750000 0.266016
O O18 0.916775 0.951223 0.307308
O O19 0.526049 0.250000 0.325113
O O20 0.474653 0.532936 0.392425
O O21 0.920755 0.750000 0.560930
#
# Coordination Sequence:
#
# PCOD9447862 Si02
#       8
#     8   8   8   8   8   8   8   8
#     4   9  16  28  46  72 105 134 164 210 256 297
#     4  10  19  31  49  71  99 138 177 209 252 308
#     4   9  19  36  57  80 104 133 175 223 264 305
#     4   9  19  34  50  72 104 138 172 213 260 305
#     4  10  21  35  50  74 110 143 172 216 266 309
#     4  10  20  34  54  79 105 137 177 218 263 315
#     4   9  18  32  51  79 113 141 166 208 264 315
#     4  10  19  35  59  81 103 137 177 212 256 318
#
# _framework density 24.331614999999999
#
# number of rings (size 3 to 8) (size 9 to 14) (size 15 to 20)
#    0.000    2.500    1.250    1.875    0.000    4.250 
#    0.000    1.875    0.000    3.750    0.000    0.000 
#    0.000    0.000    0.000    0.000    0.000    0.000 
#
# Total GULP energy -357387.676039 kJ/mol
# GULP energy per Si atom -5584.182438 kJ/mol
# Density = 2.427623 g / cm^3
# Si number density = 24.331615 Si / 1000 Ang^3
#
#
#
# Elastic Constant Matrix: (Units=GPa)
#
#
# Indices 1 2 3 4 5 6 
#
# 1 38.1243 -2.3887 27.9844 0.0000 0.0000 0.0000
# 2 -2.3887 65.6185 0.6580 0.0000 0.0000 0.0000
# 3 27.9844 0.6580 110.8741 0.0000 0.0000 0.0000
# 4 0.0000 0.0000 0.0000 14.0478 0.0000 0.0000
# 5 0.0000 0.0000 0.0000 0.0000 1.0149 0.0000
# 6 0.0000 0.0000 0.0000 0.0000 0.0000 14.2832
#
#
#
# Elastic Compliance Matrix: (Units=1/GPa)
#
#
# Indices 1 2 3 4 5 6 
#
# 1 0.032298 0.001258 -0.008159 0.000000 0.000000 0.000000
# 2 0.001258 0.015289 -0.000408 0.000000 0.000000 0.000000
# 3 -0.008159 -0.000408 0.011081 0.000000 0.000000 0.000000
# 4 0.000000 0.000000 0.000000 0.071186 0.000000 0.000000
# 5 0.000000 0.000000 0.000000 0.000000 0.985355 0.000000
# 6 0.000000 0.000000 0.000000 0.000000 0.000000 0.070012
#
#
# Mechanical properties :
#
#
# Convention : Reuss Voigt Hill
#
# Bulk Modulus (GPa) = 22.70220 29.68049 26.19135
# Shear Modulus (GPa) = 4.11684 18.42670 11.27177
#
# Velocity S-wave (km/s) = 1.30217 2.75492 2.15467
# Velocity P-wave (km/s) = 3.40756 4.72697 4.12042
#
# Compressibility (1/GPa) = 0.04404859
#
# Stress axis : x y z
#
# Youngs Moduli (GPa) = 30.96155 65.40442 90.24376
#
# Poissons Ratio (x) = -0.08225 0.73634
# Poissons Ratio (y) = -0.03894 0.03683
# Poissons Ratio (z) = 0.25263 0.02669
#
# Static dielectric constant tensor:
#      x y z
#    x 1.912010 0.000000 0.000000 
#    y 0.000000 1.897080 0.000000 
#    z 0.000000 0.000000 1.977400 
# 
# From -- ./inp_files/24741.got.cif
#   From: 2010.05.17/outbox.cif.g08.bks.cpg/sg59_13_cif.got.tgz:24741.got - 2010.06.03 14:40:33.
