data_PCOD9447670
_publ_section_title
;
Structure prediction by ZEFSAII (Michael W. Deem and Ramdas Pophale) SiO2 
 PCOD9447670
Probable space group: P M M N
;
_chemical_formula_sum "Si O2"
_cell_formula_units_Z 64
_cell_length_a 12.853129
_cell_length_b 16.207706
_cell_length_c 17.505842
_cell_angle_alpha 90.000000
_cell_angle_beta 90.000000
_cell_angle_gamma 90.000000
_cell_volume 3646.812384
_symmetry_space_group_name_H-M "P M M N"
_symmetry_group_IT_number 59
_space_group.IT_coordinate_system_code '2'
_symmetry_cell_setting 'orthorhombic'
loop_
_space_group_symop_operation_xyz
x,y,z
1/2-x,1/2-y,z
1/2+x,-y,-z
-x,1/2+y,-z
-x,-y,-z
1/2+x,1/2+y,-z
1/2-x,y,z
x,1/2-y,z
loop_
_atom_site_type_symbol
_atom_site_label
_atom_site_fract_x
_atom_site_fract_y
_atom_site_fract_z
Si Si1 0.128838 0.057754 0.904611
Si Si2 0.632003 0.841969 0.945568
Si Si3 0.374140 0.843978 0.672693
Si Si4 0.026719 0.903920 0.826593
Si Si5 0.130769 0.513942 0.273806
Si Si6 0.870830 0.840310 0.350028
Si Si7 0.478636 0.657883 0.203741
Si Si8 0.477384 0.000032 0.589237
O O1 0.250000 0.072745 0.882679
O O2 0.045534 0.115420 0.862233
O O3 0.096403 0.966245 0.877582
O O4 0.120632 0.084540 0.993013
O O5 0.750000 0.848860 0.913482
O O6 0.626148 0.750000 0.981919
O O7 0.542810 0.849303 0.882725
O O8 0.250000 0.851218 0.665950
O O9 0.404766 0.750000 0.651537
O O10 0.406504 0.859490 0.761071
O O11 0.426343 0.915421 0.621133
O O12 0.942766 0.956518 0.777882
O O13 0.250000 0.488304 0.275428
O O14 0.115969 0.602599 0.233622
O O15 0.079342 0.514362 0.357862
O O16 0.750000 0.845934 0.329234
O O17 0.887061 0.750000 0.388134
O O18 0.941218 0.840789 0.274767
O O19 0.903311 0.921366 0.395522
O O20 0.447706 0.750000 0.183430
O O21 0.500000 0.000000 0.500000
#
# Coordination Sequence:
#
# PCOD9447670 Si02
#       8
#     8   8   8   8   8   8   8   8
#     4  10  19  30  48  75 103 132 171 219 269 319
#     4  10  20  32  48  72 101 134 172 216 268 322
#     4  10  21  37  58  83 108 138 179 222 262 310
#     4  10  19  34  53  72 100 136 176 220 263 308
#     4   9  19  33  49  70  95 129 172 209 246 302
#     4   9  17  30  50  75 100 127 162 203 249 304
#     4   9  17  29  47  71  99 130 163 205 255 304
#     4  10  21  35  54  77 105 135 164 206 259 312
#
# _framework density 17.549574
#
# number of rings (size 3 to 8) (size 9 to 14) (size 15 to 20)
#    0.000    2.375    0.000    3.375    0.000    3.000 
#    0.000    0.000    0.000    4.125    0.000    0.000 
#    0.000    0.000    0.000    0.000    0.000    0.000 
#
# Total GULP energy -356476.060774 kJ/mol
# GULP energy per Si atom -5569.938450 kJ/mol
# Density = 1.750963 g / cm^3
# Si number density = 17.549574 Si / 1000 Ang^3
#
#
#
# Elastic Constant Matrix: (Units=GPa)
#
#
# Indices 1 2 3 4 5 6 
#
# 1 54.9266 9.1319 14.6616 0.0000 0.0000 0.0000
# 2 9.1319 90.7057 19.7878 0.0000 0.0000 0.0000
# 3 14.6616 19.7878 64.7358 0.0000 0.0000 0.0000
# 4 0.0000 0.0000 0.0000 12.9722 0.0000 0.0000
# 5 0.0000 0.0000 0.0000 0.0000 5.9662 0.0000
# 6 0.0000 0.0000 0.0000 0.0000 0.0000 18.4189
#
#
#
# Elastic Compliance Matrix: (Units=1/GPa)
#
#
# Indices 1 2 3 4 5 6 
#
# 1 0.019474 -0.001070 -0.004084 0.000000 0.000000 0.000000
# 2 -0.001070 0.011871 -0.003386 0.000000 0.000000 0.000000
# 3 -0.004084 -0.003386 0.017407 0.000000 0.000000 0.000000
# 4 0.000000 0.000000 0.000000 0.077088 0.000000 0.000000
# 5 0.000000 0.000000 0.000000 0.000000 0.167611 0.000000
# 6 0.000000 0.000000 0.000000 0.000000 0.000000 0.054292
#
#
# Mechanical properties :
#
#
# Convention : Reuss Voigt Hill
#
# Bulk Modulus (GPa) = 31.57246 33.05896 32.31571
# Shear Modulus (GPa) = 13.31982 18.59058 15.95520
#
# Velocity S-wave (km/s) = 2.75795 3.25825 3.01848
# Velocity P-wave (km/s) = 5.30766 5.74746 5.53193
#
# Compressibility (1/GPa) = 0.03167318
#
# Stress axis : x y z
#
# Youngs Moduli (GPa) = 51.35056 84.23807 57.44697
#
# Poissons Ratio (x) = 0.09011 0.23459
# Poissons Ratio (y) = 0.05493 0.19454
# Poissons Ratio (z) = 0.20969 0.28526
#
# Static dielectric constant tensor:
#      x y z
#    x 1.575560 0.000000 0.000000 
#    y 0.000000 1.644980 0.000000 
#    z 0.000000 0.000000 1.584430 
# 
# From -- ./inp_files/27080.got.cif
#   From: 2010.05.17/outbox.cif.g08.bks.cpg/sg59_14_cif.got.tgz:27080.got - 2010.06.03 14:40:33.
