data_PCOD9447266
_publ_section_title
;
Structure prediction by ZEFSAII (Michael W. Deem and Ramdas Pophale) SiO2 
 PCOD9447266
Probable space group: P M M N
;
_chemical_formula_sum "Si O2"
_cell_formula_units_Z 48
_cell_length_a 16.882444
_cell_length_b 18.709254
_cell_length_c 8.864594
_cell_angle_alpha 90.000000
_cell_angle_beta 90.000000
_cell_angle_gamma 90.000000
_cell_volume 2799.952337
_symmetry_space_group_name_H-M "P M M N"
_symmetry_group_IT_number 59
_space_group.IT_coordinate_system_code '2'
_symmetry_cell_setting 'orthorhombic'
loop_
_space_group_symop_operation_xyz
x,y,z
1/2-x,1/2-y,z
1/2+x,-y,-z
-x,1/2+y,-z
-x,-y,-z
1/2+x,1/2+y,-z
1/2-x,y,z
x,1/2-y,z
loop_
_atom_site_type_symbol
_atom_site_label
_atom_site_fract_x
_atom_site_fract_y
_atom_site_fract_z
Si Si1 0.089024 0.432193 0.107036
Si Si2 0.160389 0.169334 0.353710
Si Si3 0.031029 0.386394 0.573905
Si Si4 0.842473 0.075491 0.036413
Si Si5 0.517399 0.334123 0.897132
Si Si6 0.938273 0.459311 0.315108
O O1 0.141614 0.387112 0.222868
O O2 0.134657 0.498018 0.032877
O O3 0.014840 0.462170 0.204083
O O4 0.050284 0.378930 0.985258
O O5 0.250000 0.159659 0.409400
O O6 0.152967 0.250000 0.293515
O O7 0.096294 0.158598 0.484720
O O8 0.963373 0.409318 0.454281
O O9 0.995769 0.348667 0.720253
O O10 0.072393 0.460844 0.624006
O O11 0.750000 0.090141 0.017829
O O12 0.899758 0.132664 0.955353
O O13 0.868185 0.070237 0.211905
O O14 0.512662 0.250000 0.930060
#
# Coordination Sequence:
#
# PCOD9447266 Si02
#       6
#     8   8   8   8   8   8
#     4  10  18  37  57  79 103 143 188 224 265 324
#     4  10  21  34  49  77 115 147 176 218 278 334
#     4  10  18  34  57  78 109 146 183 227 267 328
#     4  11  21  36  57  84 113 142 184 234 282 324
#     4  11  21  36  59  83 108 143 187 230 274 327
#     4   9  18  34  57  78 106 137 186 226 263 326
#
# _framework density 17.143148
#
# number of rings (size 3 to 8) (size 9 to 14) (size 15 to 20)
#    0.000    1.833    3.333    2.500    0.000    1.000 
#    0.000    1.667    0.000    3.000    0.000    0.000 
#    0.000    0.000    0.000    0.000    0.000    0.000 
#
# Total GULP energy -267842.726457 kJ/mol
# GULP energy per Si atom -5580.056801 kJ/mol
# Density = 1.710413 g / cm^3
# Si number density = 17.143148 Si / 1000 Ang^3
#
#
#
# Elastic Constant Matrix: (Units=GPa)
#
#
# Indices 1 2 3 4 5 6 
#
# 1 60.8835 18.5626 14.4829 0.0000 0.0000 0.0000
# 2 18.5626 78.5271 18.8086 0.0000 0.0000 0.0000
# 3 14.4829 18.8086 84.5723 0.0000 0.0000 0.0000
# 4 0.0000 0.0000 0.0000 16.1670 0.0000 0.0000
# 5 0.0000 0.0000 0.0000 0.0000 11.6144 0.0000
# 6 0.0000 0.0000 0.0000 0.0000 0.0000 20.5432
#
#
#
# Elastic Compliance Matrix: (Units=1/GPa)
#
#
# Indices 1 2 3 4 5 6 
#
# 1 0.018104 -0.003736 -0.002269 0.000000 0.000000 0.000000
# 2 -0.003736 0.014222 -0.002523 0.000000 0.000000 0.000000
# 3 -0.002269 -0.002523 0.012774 0.000000 0.000000 0.000000
# 4 0.000000 0.000000 0.000000 0.061854 0.000000 0.000000
# 5 0.000000 0.000000 0.000000 0.000000 0.086100 0.000000
# 6 0.000000 0.000000 0.000000 0.000000 0.000000 0.048678
#
#
# Mechanical properties :
#
#
# Convention : Reuss Voigt Hill
#
# Bulk Modulus (GPa) = 35.65984 36.41011 36.03497
# Shear Modulus (GPa) = 18.64725 21.14018 19.89372
#
# Velocity S-wave (km/s) = 3.30167 3.51544 3.41023
# Velocity P-wave (km/s) = 5.94820 6.14514 6.04747
#
# Compressibility (1/GPa) = 0.02804275
#
# Stress axis : x y z
#
# Youngs Moduli (GPa) = 55.23740 70.31410 78.28423
#
# Poissons Ratio (x) = 0.26268 0.17766
# Poissons Ratio (y) = 0.20636 0.19752
# Poissons Ratio (z) = 0.12536 0.17741
#
# Static dielectric constant tensor:
#      x y z
#    x 1.561830 0.000000 0.000000 
#    y 0.000000 1.576550 0.000000 
#    z 0.000000 0.000000 1.589620 
# 
# From -- ./inp_files/8977.got.cif
#   From: 2010.05.17/outbox.cif.g08.bks.cpg/sg59_5_cif.got.tgz:8977.got - 2010.06.03 14:40:33.
