data_PCOD9447617
_publ_section_title
;
Structure prediction by ZEFSAII (Michael W. Deem and Ramdas Pophale) SiO2 
 PCOD9447617
Probable space group: P M M N
;
_chemical_formula_sum "Si O2"
_cell_formula_units_Z 48
_cell_length_a 9.086510
_cell_length_b 20.249174
_cell_length_c 15.544537
_cell_angle_alpha 90.000000
_cell_angle_beta 90.000000
_cell_angle_gamma 90.000000
_cell_volume 2860.106547
_symmetry_space_group_name_H-M "P M M N"
_symmetry_group_IT_number 59
_space_group.IT_coordinate_system_code '2'
_symmetry_cell_setting 'orthorhombic'
loop_
_space_group_symop_operation_xyz
x,y,z
1/2-x,1/2-y,z
1/2+x,-y,-z
-x,1/2+y,-z
-x,-y,-z
1/2+x,1/2+y,-z
1/2-x,y,z
x,1/2-y,z
loop_
_atom_site_type_symbol
_atom_site_label
_atom_site_fract_x
_atom_site_fract_y
_atom_site_fract_z
Si Si1 0.080524 0.909091 0.936373
Si Si2 0.418833 0.066929 0.895226
Si Si3 0.424588 0.932852 0.466813
Si Si4 0.923636 0.465657 0.727582
Si Si5 0.422986 0.327184 0.412748
Si Si6 0.427377 0.608189 0.746268
O O1 0.250000 0.891645 0.954193
O O2 0.033763 0.877078 0.845901
O O3 0.077319 0.988087 0.916582
O O4 0.983483 0.897928 0.020478
O O5 0.250000 0.084933 0.879784
O O6 0.514419 0.074052 0.809238
O O7 0.250000 0.934930 0.485242
O O8 0.444166 0.930498 0.363917
O O9 0.499241 0.872570 0.516346
O O10 0.500000 0.000000 0.500000
O O11 0.750000 0.478908 0.739371
O O12 0.009829 0.535323 0.725007
O O13 0.250000 0.344455 0.407038
O O14 0.436378 0.250000 0.432866
O O15 0.500923 0.343169 0.322187
O O16 0.250000 0.607250 0.739949
#
# Coordination Sequence:
#
# PCOD9447617 Si02
#       6
#     8   8   8   8   8   8
#     4   8  15  26  40  63  95 129 163 200 246 298
#     4   9  16  25  40  65  96 131 166 202 246 297
#     4  11  22  35  55  79 104 137 177 221 268 318
#     4  10  19  30  47  72 102 134 168 211 261 311
#     4  11  24  39  54  75 105 140 177 219 267 319
#     4  10  19  31  50  73  98 133 172 211 257 309
#
# _framework density 16.782591
#
# number of rings (size 3 to 8) (size 9 to 14) (size 15 to 20)
#    0.000    2.167    1.667    3.500    0.000    8.000 
#    0.000    0.000    0.000    0.000    0.000    1.167 
#    0.000    9.333    0.000    0.000    0.000    0.000 
#
# Total GULP energy -267682.359865 kJ/mol
# GULP energy per Si atom -5576.715831 kJ/mol
# Density = 1.674439 g / cm^3
# Si number density = 16.782591 Si / 1000 Ang^3
#
#
#
# Elastic Constant Matrix: (Units=GPa)
#
#
# Indices 1 2 3 4 5 6 
#
# 1 117.4952 38.5101 83.9288 0.0000 0.0000 0.0000
# 2 38.5101 40.8473 38.4353 0.0000 0.0000 0.0000
# 3 83.9288 38.4353 131.0602 0.0000 0.0000 0.0000
# 4 0.0000 0.0000 0.0000 15.2886 0.0000 0.0000
# 5 0.0000 0.0000 0.0000 0.0000 33.0401 0.0000
# 6 0.0000 0.0000 0.0000 0.0000 0.0000 17.7806
#
#
#
# Elastic Compliance Matrix: (Units=1/GPa)
#
#
# Indices 1 2 3 4 5 6 
#
# 1 0.017477 -0.008212 -0.008784 0.000000 0.000000 0.000000
# 2 -0.008212 0.037670 -0.005789 0.000000 0.000000 0.000000
# 3 -0.008784 -0.005789 0.014953 0.000000 0.000000 0.000000
# 4 0.000000 0.000000 0.000000 0.065408 0.000000 0.000000
# 5 0.000000 0.000000 0.000000 0.000000 0.030266 0.000000
# 6 0.000000 0.000000 0.000000 0.000000 0.000000 0.056241
#
#
# Mechanical properties :
#
#
# Convention : Reuss Voigt Hill
#
# Bulk Modulus (GPa) = 40.76403 67.90568 54.33485
# Shear Modulus (GPa) = 18.13169 21.79043 19.96106
#
# Velocity S-wave (km/s) = 3.29049 3.60723 3.45250
# Velocity P-wave (km/s) = 6.22725 7.60916 6.95262
#
# Compressibility (1/GPa) = 0.02453143
#
# Stress axis : x y z
#
# Youngs Moduli (GPa) = 57.21883 26.54615 66.87833
#
# Poissons Ratio (x) = 0.21799 0.58743
# Poissons Ratio (y) = 0.46987 0.38713
# Poissons Ratio (z) = 0.50259 0.15366
#
# Static dielectric constant tensor:
#      x y z
#    x 1.565990 0.000000 0.000000 
#    y 0.000000 1.539220 0.000000 
#    z 0.000000 0.000000 1.589770 
# 
# From -- ./inp_files/20733.got.cif
#   From: 2010.05.17/outbox.cif.g08.bks.cpg/sg59_11_cif.got.tgz:20733.got - 2010.06.03 14:40:33.
