data_PCOD9447364
_publ_section_title
;
Structure prediction by ZEFSAII (Michael W. Deem and Ramdas Pophale) SiO2 
 PCOD9447364
Probable space group: P M M N
;
_chemical_formula_sum "Si O2"
_cell_formula_units_Z 64
_cell_length_a 9.113332
_cell_length_b 25.634109
_cell_length_c 19.033506
_cell_angle_alpha 90.000000
_cell_angle_beta 90.000000
_cell_angle_gamma 90.000000
_cell_volume 4446.458180
_symmetry_space_group_name_H-M "P M M N"
_symmetry_group_IT_number 59
_space_group.IT_coordinate_system_code '2'
_symmetry_cell_setting 'orthorhombic'
loop_
_space_group_symop_operation_xyz
x,y,z
1/2-x,1/2-y,z
1/2+x,-y,-z
-x,1/2+y,-z
-x,-y,-z
1/2+x,1/2+y,-z
1/2-x,y,z
x,1/2-y,z
loop_
_atom_site_type_symbol
_atom_site_label
_atom_site_fract_x
_atom_site_fract_y
_atom_site_fract_z
Si Si1 0.073371 0.191643 0.560464
Si Si2 0.079177 0.810582 0.290074
Si Si3 0.926029 0.919615 0.486184
Si Si4 0.924563 0.566957 0.044486
Si Si5 0.425234 0.497455 0.387669
Si Si6 0.076711 0.036313 0.103020
Si Si7 0.922400 0.006063 0.238496
Si Si8 0.420256 0.386238 0.814028
O O1 0.250000 0.192580 0.563152
O O2 0.023986 0.250000 0.538217
O O3 0.031163 0.141206 0.514739
O O4 0.011876 0.181967 0.638462
O O5 0.250000 0.820412 0.304827
O O6 0.062355 0.750000 0.269386
O O7 0.021600 0.848186 0.229717
O O8 0.750000 0.923093 0.474726
O O9 0.958407 0.950182 0.558252
O O10 0.005748 0.951203 0.423972
O O11 0.750000 0.552464 0.051136
O O12 0.949339 0.611486 0.102311
O O13 0.024112 0.518843 0.069995
O O14 0.951765 0.575878 0.961905
O O15 0.250000 0.503091 0.382349
O O16 0.494779 0.487820 0.311868
O O17 0.250000 0.035322 0.117212
O O18 0.989650 0.040717 0.175621
O O19 0.750000 0.016258 0.246459
O O20 0.938678 0.945529 0.214109
O O21 0.250000 0.371862 0.802830
#
# Coordination Sequence:
#
# PCOD9447364 Si02
#       8
#     8   8   8   8   8   8   8   8
#     4   9  17  30  47  62  77 103 136 167 203 245
#     4  10  20  30  39  56  81 104 130 168 205 233
#     4   9  18  31  44  60  83 107 134 170 206 243
#     4   8  15  26  38  55  79 104 130 161 194 226
#     4  10  19  29  42  60  82 110 140 167 202 247
#     4   9  15  24  39  57  78 104 132 160 191 228
#     4  10  19  29  40  57  82 108 136 169 200 233
#     4   9  17  28  41  56  76 105 137 165 195 233
#
# _framework density 14.393478
#
# number of rings (size 3 to 8) (size 9 to 14) (size 15 to 20)
#    0.000    2.750    0.000    3.000    0.000    7.750 
#    0.000    0.000    0.000    0.000    0.000    0.000 
#    0.000    1.000    0.000    7.500    0.000    3.250 
#
# Total GULP energy -356297.630212 kJ/mol
# GULP energy per Si atom -5567.150472 kJ/mol
# Density = 1.436072 g / cm^3
# Si number density = 14.393478 Si / 1000 Ang^3
#
#
#
# Elastic Constant Matrix: (Units=GPa)
#
#
# Indices 1 2 3 4 5 6 
#
# 1 30.1721 21.0142 32.7489 0.0000 0.0000 0.0000
# 2 21.0142 60.3167 29.3858 0.0000 0.0000 0.0000
# 3 32.7489 29.3858 93.5552 0.0000 0.0000 0.0000
# 4 0.0000 0.0000 0.0000 16.1378 0.0000 0.0000
# 5 0.0000 0.0000 0.0000 0.0000 22.5012 0.0000
# 6 0.0000 0.0000 0.0000 0.0000 0.0000 16.6550
#
#
#
# Elastic Compliance Matrix: (Units=1/GPa)
#
#
# Indices 1 2 3 4 5 6 
#
# 1 0.060769 -0.012761 -0.017264 0.000000 0.000000 0.000000
# 2 -0.012761 0.022254 -0.002523 0.000000 0.000000 0.000000
# 3 -0.017264 -0.002523 0.017525 0.000000 0.000000 0.000000
# 4 0.000000 0.000000 0.000000 0.061966 0.000000 0.000000
# 5 0.000000 0.000000 0.000000 0.000000 0.044442 0.000000
# 6 0.000000 0.000000 0.000000 0.000000 0.000000 0.060042
#
#
# Mechanical properties :
#
#
# Convention : Reuss Voigt Hill
#
# Bulk Modulus (GPa) = 28.20714 38.92688 33.56701
# Shear Modulus (GPa) = 14.53861 17.78516 16.16189
#
# Velocity S-wave (km/s) = 3.18163 3.51898 3.35455
# Velocity P-wave (km/s) = 5.75645 6.60413 6.19480
#
# Compressibility (1/GPa) = 0.03545201
#
# Stress axis : x y z
#
# Youngs Moduli (GPa) = 16.45568 44.93521 57.06249
#
# Poissons Ratio (x) = 0.57342 0.98513
# Poissons Ratio (y) = 0.20999 0.14398
# Poissons Ratio (z) = 0.28409 0.11338
#
# Static dielectric constant tensor:
#      x y z
#    x 1.481120 0.000000 0.000000 
#    y 0.000000 1.473450 0.000000 
#    z 0.000000 0.000000 1.487510 
# 
# From -- ./inp_files/26683.got.cif
#   From: 2010.05.17/outbox.cif.g08.bks.cpg/sg59_14_cif.got.tgz:26683.got - 2010.06.03 14:40:33.
