data_PCOD9447551
_publ_section_title
;
Structure prediction by ZEFSAII (Michael W. Deem and Ramdas Pophale) SiO2 
 PCOD9447551
Probable space group: P M M N
;
_chemical_formula_sum "Si O2"
_cell_formula_units_Z 64
_cell_length_a 14.234430
_cell_length_b 8.648969
_cell_length_c 31.545100
_cell_angle_alpha 90.000000
_cell_angle_beta 90.000000
_cell_angle_gamma 90.000000
_cell_volume 3883.616433
_symmetry_space_group_name_H-M "P M M N"
_symmetry_group_IT_number 59
_space_group.IT_coordinate_system_code '2'
_symmetry_cell_setting 'orthorhombic'
loop_
_space_group_symop_operation_xyz
x,y,z
1/2-x,1/2-y,z
1/2+x,-y,-z
-x,1/2+y,-z
-x,-y,-z
1/2+x,1/2+y,-z
1/2-x,y,z
x,1/2-y,z
loop_
_atom_site_type_symbol
_atom_site_label
_atom_site_fract_x
_atom_site_fract_y
_atom_site_fract_z
Si Si1 0.470396 0.065246 0.933962
Si Si2 0.515134 0.070450 0.546227
Si Si3 0.642563 0.061057 0.241351
Si Si4 0.516771 0.068027 0.316530
Si Si5 0.857469 0.563356 0.981959
Si Si6 0.857475 0.436361 0.143609
Si Si7 0.858405 0.937306 0.619988
Si Si8 0.140044 0.571282 0.601020
O O1 0.473427 0.250000 0.933535
O O2 0.572254 0.000723 0.946523
O O3 0.429049 0.004737 0.890079
O O4 0.400932 0.016070 0.972505
O O5 0.537153 0.250000 0.542561
O O6 0.500000 0.000000 0.500000
O O7 0.593716 0.991690 0.576183
O O8 0.418466 0.041072 0.571386
O O9 0.750000 0.013937 0.252460
O O10 0.642440 0.250000 0.243383
O O11 0.562863 0.003145 0.273708
O O12 0.624624 0.018274 0.192477
O O13 0.497438 0.250000 0.308570
O O14 0.424237 0.006214 0.340841
O O15 0.598380 0.058775 0.351884
O O16 0.750000 0.511671 0.977697
O O17 0.859146 0.750000 0.980401
O O18 0.750000 0.483278 0.133133
O O19 0.861326 0.250000 0.141758
O O20 0.750000 0.985457 0.623359
O O21 0.861902 0.750000 0.620296
O O22 0.250000 0.542976 0.600269
O O23 0.122256 0.750000 0.587419
#
# Coordination Sequence:
#
# PCOD9447551 Si02
#       8
#     8   8   8   8   8   8   8   8
#     4  10  19  30  46  68  93 121 153 191 236 284
#     4  11  22  35  50  68  93 123 155 190 227 270
#     4   8  13  22  40  68  97 123 153 189 229 273
#     4   8  13  24  45  71  95 119 149 187 228 267
#     4   9  18  32  48  66  89 118 154 195 236 278
#     4   9  17  28  43  65  94 128 162 193 228 273
#     4   9  18  33  52  73  96 122 155 196 238 276
#     4   9  17  30  49  72  96 121 148 179 220 269
#
# _framework density 16.479486999999999
#
# number of rings (size 3 to 8) (size 9 to 14) (size 15 to 20)
#    0.000    2.875    0.000    3.750    0.000    4.000 
#    0.000    0.000    0.000    3.750    0.000    7.000 
#    0.000    0.000    0.000    0.000    0.000    0.000 
#
# Total GULP energy -356507.871977 kJ/mol
# GULP energy per Si atom -5570.435500 kJ/mol
# Density = 1.644198 g / cm^3
# Si number density = 16.479487 Si / 1000 Ang^3
#
#
#
# Elastic Constant Matrix: (Units=GPa)
#
#
# Indices 1 2 3 4 5 6 
#
# 1 136.5052 22.7257 73.2087 0.0000 0.0000 0.0000
# 2 22.7257 14.5202 19.1461 0.0000 0.0000 0.0000
# 3 73.2087 19.1461 100.0973 0.0000 0.0000 0.0000
# 4 0.0000 0.0000 0.0000 16.3138 0.0000 0.0000
# 5 0.0000 0.0000 0.0000 0.0000 15.1069 0.0000
# 6 0.0000 0.0000 0.0000 0.0000 0.0000 15.2222
#
#
#
# Elastic Compliance Matrix: (Units=1/GPa)
#
#
# Indices 1 2 3 4 5 6 
#
# 1 0.013166 -0.010577 -0.007606 0.000000 0.000000 0.000000
# 2 -0.010577 0.100595 -0.011506 0.000000 0.000000 0.000000
# 3 -0.007606 -0.011506 0.017754 0.000000 0.000000 0.000000
# 4 0.000000 0.000000 0.000000 0.061298 0.000000 0.000000
# 5 0.000000 0.000000 0.000000 0.000000 0.066195 0.000000
# 6 0.000000 0.000000 0.000000 0.000000 0.000000 0.065693
#
#
# Mechanical properties :
#
#
# Convention : Reuss Voigt Hill
#
# Bulk Modulus (GPa) = 13.86240 53.47597 33.66918
# Shear Modulus (GPa) = 12.25119 18.39805 15.32462
#
# Velocity S-wave (km/s) = 2.72953 3.34491 3.05277
# Velocity P-wave (km/s) = 4.28532 6.88755 5.73596
#
# Compressibility (1/GPa) = 0.07213760
#
# Stress axis : x y z
#
# Youngs Moduli (GPa) = 75.95484 9.94086 56.32561
#
# Poissons Ratio (x) = 0.10514 0.42841
# Poissons Ratio (y) = 0.80335 0.64807
# Poissons Ratio (z) = 0.57771 0.11438
#
# Static dielectric constant tensor:
#      x y z
#    x 1.551860 0.000000 0.000000 
#    y 0.000000 1.552640 0.000000 
#    z 0.000000 0.000000 1.550430 
# 
# From -- ./inp_files/33351.got.cif
#   From: 2010.05.17/outbox.cif.g08.bks.cpg/sg59_17_cif.got.tgz:33351.got - 2010.06.03 14:40:33.
