data_PCOD9447383
_publ_section_title
;
Structure prediction by ZEFSAII (Michael W. Deem and Ramdas Pophale) SiO2 
 PCOD9447383
Probable space group: P M M N
;
_chemical_formula_sum "Si O2"
_cell_formula_units_Z 56
_cell_length_a 14.084691
_cell_length_b 9.011520
_cell_length_c 29.973042
_cell_angle_alpha 90.000000
_cell_angle_beta 90.000000
_cell_angle_gamma 90.000000
_cell_volume 3804.312609
_symmetry_space_group_name_H-M "P M M N"
_symmetry_group_IT_number 59
_space_group.IT_coordinate_system_code '2'
_symmetry_cell_setting 'orthorhombic'
loop_
_space_group_symop_operation_xyz
x,y,z
1/2-x,1/2-y,z
1/2+x,-y,-z
-x,1/2+y,-z
-x,-y,-z
1/2+x,1/2+y,-z
1/2-x,y,z
x,1/2-y,z
loop_
_atom_site_type_symbol
_atom_site_label
_atom_site_fract_x
_atom_site_fract_y
_atom_site_fract_z
Si Si1 0.862024 0.926803 0.152603
Si Si2 0.031389 0.928689 0.569007
Si Si3 0.141264 0.571451 0.478578
Si Si4 0.640210 0.431116 0.342773
Si Si5 0.134745 0.578794 0.755647
Si Si6 0.640252 0.071785 0.977120
Si Si7 0.965216 0.072846 0.069357
O O1 0.750000 0.965620 0.147104
O O2 0.870520 0.750000 0.150061
O O3 0.892611 0.984004 0.201440
O O4 0.921901 0.002542 0.113683
O O5 0.022770 0.750000 0.569967
O O6 0.102239 0.966311 0.528062
O O7 0.075865 0.978396 0.615861
O O8 0.930924 0.999355 0.556349
O O9 0.250000 0.523986 0.473315
O O10 0.137279 0.750000 0.474665
O O11 0.750000 0.477683 0.349208
O O12 0.641155 0.250000 0.342196
O O13 0.605477 0.476716 0.293474
O O14 0.250000 0.579431 0.753890
O O15 0.104412 0.750000 0.761513
O O16 0.750000 0.028525 0.971794
O O17 0.633095 0.250000 0.971552
O O18 0.567691 0.992616 0.943690
O O19 0.603278 0.037291 0.027153
O O20 0.970031 0.250000 0.073497
#
# Coordination Sequence:
#
# PCOD9447383 Si02
#       7
#     8   8   8   8   8   8   8
#     4  10  19  29  42  62  89 118 145 174 210 253
#     4   9  16  26  42  62  81 105 140 175 204 239
#     4   9  17  28  40  56  82 113 140 168 204 245
#     4   8  13  23  41  63  84 107 136 169 206 249
#     4   8  14  25  41  60  82 108 137 169 207 252
#     4   9  18  32  47  64  89 118 146 178 214 250
#     4  10  19  30  46  67  89 115 148 180 210 248
#
# _framework density 14.720136
#
# number of rings (size 3 to 8) (size 9 to 14) (size 15 to 20)
#    0.000    3.000    0.000    2.571    0.000    4.286 
#    0.000    0.714    0.000    2.143    0.000    1.000 
#    0.000    5.714    0.000    0.000    0.000    0.000 
#
# Total GULP energy -311916.410810 kJ/mol
# GULP energy per Si atom -5569.935907 kJ/mol
# Density = 1.468663 g / cm^3
# Si number density = 14.720136 Si / 1000 Ang^3
#
#
#
# Elastic Constant Matrix: (Units=GPa)
#
#
# Indices 1 2 3 4 5 6 
#
# 1 111.6702 36.1069 72.8709 0.0000 0.0000 0.0000
# 2 36.1069 23.5084 41.9069 0.0000 0.0000 0.0000
# 3 72.8709 41.9069 142.9645 0.0000 0.0000 0.0000
# 4 0.0000 0.0000 0.0000 20.6599 0.0000 0.0000
# 5 0.0000 0.0000 0.0000 0.0000 24.7414 0.0000
# 6 0.0000 0.0000 0.0000 0.0000 0.0000 21.1577
#
#
#
# Elastic Compliance Matrix: (Units=1/GPa)
#
#
# Indices 1 2 3 4 5 6 
#
# 1 0.018131 -0.023821 -0.002259 0.000000 0.000000 0.000000
# 2 -0.023821 0.120387 -0.023147 0.000000 0.000000 0.000000
# 3 -0.002259 -0.023147 0.014931 0.000000 0.000000 0.000000
# 4 0.000000 0.000000 0.000000 0.048403 0.000000 0.000000
# 5 0.000000 0.000000 0.000000 0.000000 0.040418 0.000000
# 6 0.000000 0.000000 0.000000 0.000000 0.000000 0.047264
#
#
# Mechanical properties :
#
#
# Convention : Reuss Voigt Hill
#
# Bulk Modulus (GPa) = 18.18320 64.43474 41.30897
# Shear Modulus (GPa) = 12.30553 21.79571 17.05062
#
# Velocity S-wave (km/s) = 2.89444 3.85213 3.40710
# Velocity P-wave (km/s) = 4.85282 7.97831 6.60315
#
# Compressibility (1/GPa) = 0.05499583
#
# Stress axis : x y z
#
# Youngs Moduli (GPa) = 55.15331 8.30651 66.97290
#
# Poissons Ratio (x) = 0.19787 0.15131
# Poissons Ratio (y) = 1.31379 1.55024
# Poissons Ratio (z) = 0.12460 0.19227
#
# Static dielectric constant tensor:
#      x y z
#    x 1.464820 0.000000 0.000000 
#    y 0.000000 1.491860 0.000000 
#    z 0.000000 0.000000 1.488340 
# 
# From -- ./inp_files/33304.got.cif
#   From: 2010.05.17/outbox.cif.g08.bks.cpg/sg59_17_cif.got.tgz:33304.got - 2010.06.03 14:40:33.
