data_PCOD9447315
_publ_section_title
;
Structure prediction by ZEFSAII (Michael W. Deem and Ramdas Pophale) SiO2 
 PCOD9447315
Probable space group: P M M N
;
_chemical_formula_sum "Si O2"
_cell_formula_units_Z 48
_cell_length_a 20.356436
_cell_length_b 14.747305
_cell_length_c 8.970608
_cell_angle_alpha 90.000000
_cell_angle_beta 90.000000
_cell_angle_gamma 90.000000
_cell_volume 2692.999580
_symmetry_space_group_name_H-M "P M M N"
_symmetry_group_IT_number 59
_space_group.IT_coordinate_system_code '2'
_symmetry_cell_setting 'orthorhombic'
loop_
_space_group_symop_operation_xyz
x,y,z
1/2-x,1/2-y,z
1/2+x,-y,-z
-x,1/2+y,-z
-x,-y,-z
1/2+x,1/2+y,-z
1/2-x,y,z
x,1/2-y,z
loop_
_atom_site_type_symbol
_atom_site_label
_atom_site_fract_x
_atom_site_fract_y
_atom_site_fract_z
Si Si1 0.595049 0.354319 0.621564
Si Si2 0.538203 0.848614 0.217315
Si Si3 0.046246 0.428104 0.089733
Si Si4 0.824855 0.144514 0.141283
Si Si5 0.061443 0.951611 0.677787
Si Si6 0.176016 0.962829 0.165601
O O1 0.607057 0.250000 0.575165
O O2 0.540097 0.352279 0.751909
O O3 0.565165 0.414599 0.489105
O O4 0.657763 0.404556 0.688928
O O5 0.560695 0.750000 0.275155
O O6 0.563713 0.939542 0.298680
O O7 0.553182 0.854805 0.041193
O O8 0.117104 0.466433 0.136005
O O9 0.002907 0.412511 0.237052
O O10 0.000000 0.500000 0.000000
O O11 0.750000 0.135565 0.196636
O O12 0.842724 0.250000 0.140468
O O13 0.875662 0.089095 0.238877
O O14 0.826349 0.105154 0.974801
O O15 0.250000 0.000618 0.173973
#
# Coordination Sequence:
#
# PCOD9447315 Si02
#       6
#     8   8   8   8   8   8
#     4  11  22  34  54  86 120 154 189 230 287 358
#     4  10  20  35  57  84 112 146 196 251 293 331
#     4  10  18  36  58  83 109 147 197 249 286 334
#     4  10  20  34  55  84 117 149 184 230 290 358
#     4  11  20  36  57  82 118 155 193 238 287 341
#     4  11  21  36  57  82 117 156 187 228 291 356
#
# _framework density 17.823990999999999
#
# number of rings (size 3 to 8) (size 9 to 14) (size 15 to 20)
#    0.000    1.500    6.667    1.500    0.000    4.333 
#    0.000    0.000    0.000    2.000    0.000    0.000 
#    0.000    0.000    0.000    0.000    0.000    0.000 
#
# Total GULP energy -267499.877717 kJ/mol
# GULP energy per Si atom -5572.914119 kJ/mol
# Density = 1.778342 g / cm^3
# Si number density = 17.823991 Si / 1000 Ang^3
#
#
#
# Elastic Constant Matrix: (Units=GPa)
#
#
# Indices 1 2 3 4 5 6 
#
# 1 104.0071 38.2853 36.8141 0.0000 0.0000 0.0000
# 2 38.2853 77.8374 37.1392 0.0000 0.0000 0.0000
# 3 36.8141 37.1392 69.4042 0.0000 0.0000 0.0000
# 4 0.0000 0.0000 0.0000 16.9686 0.0000 0.0000
# 5 0.0000 0.0000 0.0000 0.0000 2.6686 0.0000
# 6 0.0000 0.0000 0.0000 0.0000 0.0000 20.5644
#
#
#
# Elastic Compliance Matrix: (Units=1/GPa)
#
#
# Indices 1 2 3 4 5 6 
#
# 1 0.012736 -0.004084 -0.004570 0.000000 0.000000 0.000000
# 2 -0.004084 0.018562 -0.007767 0.000000 0.000000 0.000000
# 3 -0.004570 -0.007767 0.020988 0.000000 0.000000 0.000000
# 4 0.000000 0.000000 0.000000 0.058932 0.000000 0.000000
# 5 0.000000 0.000000 0.000000 0.000000 0.374722 0.000000
# 6 0.000000 0.000000 0.000000 0.000000 0.000000 0.048628
#
#
# Mechanical properties :
#
#
# Convention : Reuss Voigt Hill
#
# Bulk Modulus (GPa) = 51.42675 52.85842 52.14259
# Shear Modulus (GPa) = 8.71247 17.30768 13.01008
#
# Velocity S-wave (km/s) = 2.21329 3.11952 2.70463
# Velocity P-wave (km/s) = 5.95372 6.53417 6.25068
#
# Compressibility (1/GPa) = 0.01944513
#
# Stress axis : x y z
#
# Youngs Moduli (GPa) = 78.52058 53.87489 47.64519
#
# Poissons Ratio (x) = 0.22000 0.21775
# Poissons Ratio (y) = 0.32064 0.37004
# Poissons Ratio (z) = 0.35885 0.41842
#
# Static dielectric constant tensor:
#      x y z
#    x 1.613330 0.000000 0.000000 
#    y 0.000000 1.644430 0.000000 
#    z 0.000000 0.000000 1.656130 
# 
# From -- ./inp_files/10248.got.cif
#   From: 2010.05.17/outbox.cif.g08.bks.cpg/sg59_6_cif.got.tgz:10248.got - 2010.06.03 14:40:33.
