data_PCOD9447104
_publ_section_title
;
Structure prediction by ZEFSAII (Michael W. Deem and Ramdas Pophale) SiO2 
 PCOD9447104
Probable space group: P M M N
;
_chemical_formula_sum "Si O2"
_cell_formula_units_Z 56
_cell_length_a 16.006466
_cell_length_b 8.904063
_cell_length_c 21.991866
_cell_angle_alpha 90.000000
_cell_angle_beta 90.000000
_cell_angle_gamma 90.000000
_cell_volume 3134.337518
_symmetry_space_group_name_H-M "P M M N"
_symmetry_group_IT_number 59
_space_group.IT_coordinate_system_code '2'
_symmetry_cell_setting 'orthorhombic'
loop_
_space_group_symop_operation_xyz
x,y,z
1/2-x,1/2-y,z
1/2+x,-y,-z
-x,1/2+y,-z
-x,-y,-z
1/2+x,1/2+y,-z
1/2-x,y,z
x,1/2-y,z
loop_
_atom_site_type_symbol
_atom_site_label
_atom_site_fract_x
_atom_site_fract_y
_atom_site_fract_z
Si Si1 0.750000 0.578442 0.536234
Si Si2 0.407787 0.069134 0.000019
Si Si3 0.574887 0.070740 0.538115
Si Si4 0.344740 0.068996 0.866862
Si Si5 0.075090 0.928900 0.318511
Si Si6 0.495434 0.569789 0.791720
Si Si7 0.750000 0.578694 0.683863
Si Si8 0.842299 0.932537 0.868749
O O1 0.750000 0.750000 0.514566
O O2 0.835291 0.495377 0.518610
O O3 0.750000 0.581777 0.610103
O O4 0.414910 0.250000 0.001672
O O5 0.362263 0.028714 0.937323
O O6 0.359421 0.023790 0.061205
O O7 0.500000 0.000000 0.000000
O O8 0.575713 0.250000 0.531492
O O9 0.563682 0.036316 0.610031
O O10 0.500000 0.000000 0.500000
O O11 0.250000 0.027668 0.850552
O O12 0.352685 0.250000 0.861954
O O13 0.414178 0.991896 0.825464
O O14 0.074973 0.750000 0.311409
O O15 0.165114 0.995321 0.299127
O O16 0.006779 0.004470 0.275594
O O17 0.494220 0.750000 0.790489
O O18 0.578127 0.519170 0.829297
O O19 0.750000 0.750000 0.706889
O O20 0.750000 0.984145 0.849006
O O21 0.841605 0.750000 0.866468
#
# Coordination Sequence:
#
# PCOD9447104 Si02
#       8
#     4   8   8   8   8   8   4   8
#     4   9  17  31  53  83 117 149 185 226 267 322
#     4  10  18  32  54  77 103 135 176 223 273 327
#     4  10  20  35  58  85 115 150 188 231 281 332
#     4  10  21  37  58  79 102 140 185 229 280 335
#     4  10  21  36  54  80 115 151 185 226 276 329
#     4  11  22  35  55  81 109 143 182 228 274 326
#     4   9  17  31  53  81 111 147 187 222 261 320
#     4   9  18  32  50  75 107 140 174 213 263 323
#
# _framework density 17.866613999999998
#
# number of rings (size 3 to 8) (size 9 to 14) (size 15 to 20)
#    0.000    2.143    1.429    2.143    1.000    5.429 
#    0.000    0.000    1.571    3.000    0.000    0.000 
#    0.000    0.000    0.000    0.000    0.000    0.000 
#
# Total GULP energy -312599.439660 kJ/mol
# GULP energy per Si atom -5582.132851 kJ/mol
# Density = 1.782595 g / cm^3
# Si number density = 17.866614 Si / 1000 Ang^3
#
#
#
# Elastic Constant Matrix: (Units=GPa)
#
#
# Indices 1 2 3 4 5 6 
#
# 1 161.3363 55.3512 69.7349 0.0000 0.0000 0.0000
# 2 55.3512 53.3028 50.1129 0.0000 0.0000 0.0000
# 3 69.7349 50.1129 83.2646 0.0000 0.0000 0.0000
# 4 0.0000 0.0000 0.0000 20.8685 0.0000 0.0000
# 5 0.0000 0.0000 0.0000 0.0000 26.8004 0.0000
# 6 0.0000 0.0000 0.0000 0.0000 0.0000 33.1684
#
#
#
# Elastic Compliance Matrix: (Units=1/GPa)
#
#
# Indices 1 2 3 4 5 6 
#
# 1 0.010505 -0.006074 -0.005142 0.000000 0.000000 0.000000
# 2 -0.006074 0.046723 -0.023033 0.000000 0.000000 0.000000
# 3 -0.005142 -0.023033 0.030179 0.000000 0.000000 0.000000
# 4 0.000000 0.000000 0.000000 0.047919 0.000000 0.000000
# 5 0.000000 0.000000 0.000000 0.000000 0.037313 0.000000
# 6 0.000000 0.000000 0.000000 0.000000 0.000000 0.030149
#
#
# Mechanical properties :
#
#
# Convention : Reuss Voigt Hill
#
# Bulk Modulus (GPa) = 52.88773 72.03354 62.46063
# Shear Modulus (GPa) = 18.01224 24.34777 21.18001
#
# Velocity S-wave (km/s) = 3.17858 3.69555 3.44677
# Velocity P-wave (km/s) = 6.56787 7.65600 7.13272
#
# Compressibility (1/GPa) = 0.01890798
#
# Stress axis : x y z
#
# Youngs Moduli (GPa) = 95.19546 21.40281 33.13555
#
# Poissons Ratio (x) = 0.13000 0.17039
# Poissons Ratio (y) = 0.57821 0.76322
# Poissons Ratio (z) = 0.48951 0.49297
#
# Static dielectric constant tensor:
#      x y z
#    x 1.592650 0.000000 0.000000 
#    y 0.000000 1.598720 0.000000 
#    z 0.000000 0.000000 1.619900 
# 
# From -- ./inp_files/29223.got.cif
#   From: 2010.05.17/outbox.cif.g08.bks.cpg/sg59_15_cif.got.tgz:29223.got - 2010.06.03 14:40:33.
