data_PCOD9447422
_publ_section_title
;
Structure prediction by ZEFSAII (Michael W. Deem and Ramdas Pophale) SiO2 
 PCOD9447422
Probable space group: P M M N
;
_chemical_formula_sum "Si O2"
_cell_formula_units_Z 64
_cell_length_a 7.773665
_cell_length_b 29.617535
_cell_length_c 16.199780
_cell_angle_alpha 90.000000
_cell_angle_beta 90.000000
_cell_angle_gamma 90.000000
_cell_volume 3729.785430
_symmetry_space_group_name_H-M "P M M N"
_symmetry_group_IT_number 59
_space_group.IT_coordinate_system_code '2'
_symmetry_cell_setting 'orthorhombic'
loop_
_space_group_symop_operation_xyz
x,y,z
1/2-x,1/2-y,z
1/2+x,-y,-z
-x,1/2+y,-z
-x,-y,-z
1/2+x,1/2+y,-z
1/2-x,y,z
x,1/2-y,z
loop_
_atom_site_type_symbol
_atom_site_label
_atom_site_fract_x
_atom_site_fract_y
_atom_site_fract_z
Si Si1 0.545279 0.799736 0.614339
Si Si2 0.455549 0.954364 0.816387
Si Si3 0.041338 0.699495 0.422037
Si Si4 0.955566 0.947477 0.493177
Si Si5 0.453971 0.610208 0.334862
Si Si6 0.456184 0.559776 0.174794
Si Si7 0.956818 0.603942 0.656988
Si Si8 0.043305 0.553092 0.995350
O O1 0.750000 0.797798 0.629376
O O2 0.473032 0.750000 0.635040
O O3 0.518750 0.806827 0.516292
O O4 0.476669 0.844574 0.658586
O O5 0.250000 0.955921 0.820670
O O6 0.504924 0.925007 0.737751
O O7 0.514447 0.006418 0.809436
O O8 0.520110 0.933761 0.903998
O O9 0.250000 0.698174 0.423383
O O10 0.989017 0.750000 0.395661
O O11 0.976857 0.658439 0.365870
O O12 0.750000 0.943110 0.490868
O O13 0.021197 0.921127 0.574318
O O14 0.024194 0.924868 0.409904
O O15 0.000000 0.000000 0.500000
O O16 0.250000 0.616395 0.322154
O O17 0.526406 0.589084 0.250636
O O18 0.250000 0.565690 0.172972
O O19 0.522988 0.571918 0.082851
O O20 0.750000 0.606227 0.649332
O O21 0.250000 0.558734 0.995917
O O22 0.000000 0.500000 0.000000
#
# Coordination Sequence:
#
# PCOD9447422 Si02
#       8
#     8   8   8   8   8   8   8   8
#     4   9  17  31  49  65  82 108 145 185 221 259
#     4  10  19  29  44  66  88 114 147 183 217 255
#     4   9  17  29  45  65  88 111 139 180 223 257
#     4  11  22  33  43  59  87 122 152 178 210 250
#     4  10  19  30  45  65  87 115 148 177 212 258
#     4   9  17  30  46  63  87 118 146 178 217 259
#     4  10  20  32  44  62  87 116 146 176 215 260
#     4   8  15  28  44  62  84 110 143 180 219 255
#
# _framework density 17.159164000000001
#
# number of rings (size 3 to 8) (size 9 to 14) (size 15 to 20)
#    0.000    2.500    1.250    1.500    0.000    5.500 
#    0.000    0.000    0.000    0.000    0.000    0.875 
#    0.000    3.000    0.000    0.000    0.000    0.000 
#
# Total GULP energy -356622.949458 kJ/mol
# GULP energy per Si atom -5572.233585 kJ/mol
# Density = 1.712011 g / cm^3
# Si number density = 17.159164 Si / 1000 Ang^3
#
#
#
# Elastic Constant Matrix: (Units=GPa)
#
#
# Indices 1 2 3 4 5 6 
#
# 1 22.2328 -8.3048 -11.6856 0.0000 0.0000 0.0000
# 2 -8.3048 69.9078 12.4777 0.0000 0.0000 0.0000
# 3 -11.6856 12.4777 72.1302 0.0000 0.0000 0.0000
# 4 0.0000 0.0000 0.0000 9.5792 0.0000 0.0000
# 5 0.0000 0.0000 0.0000 0.0000 -164.7386 0.0000
# 6 0.0000 0.0000 0.0000 0.0000 0.0000 6.8320
#
#
#
# Elastic Compliance Matrix: (Units=1/GPa)
#
#
# Indices 1 2 3 4 5 6 
#
# 1 0.050615 0.004694 0.007388 0.000000 0.000000 0.000000
# 2 0.004694 0.015196 -0.001868 0.000000 0.000000 0.000000
# 3 0.007388 -0.001868 0.015384 0.000000 0.000000 0.000000
# 4 0.000000 0.000000 0.000000 0.104393 0.000000 0.000000
# 5 0.000000 0.000000 0.000000 0.000000 -0.006070 0.000000
# 6 0.000000 0.000000 0.000000 0.000000 0.000000 0.146371
#
#
# Mechanical properties :
#
#
# Convention : Reuss Voigt Hill
#
# Bulk Modulus (GPa) = 9.84030 16.58281 13.21156
# Shear Modulus (GPa) = 14.73473 -18.21324 -1.73926
#
# Velocity S-wave (km/s) = 2.93355 -3.26149 -1.00787
# Velocity P-wave (km/s) = 4.14988 2.12085 2.52225
#
# Compressibility (1/GPa) = 0.10162291
#
# Stress axis : x y z
#
# Youngs Moduli (GPa) = 19.75691 65.80825 65.00300
#
# Poissons Ratio (x) = -0.30892 -0.48024
# Poissons Ratio (y) = -0.09274 0.12144
# Poissons Ratio (z) = -0.14596 0.12294
#
# Static dielectric constant tensor:
#      x y z
#    x 1.684870 0.000000 0.000000 
#    y 0.000000 1.585200 0.000000 
#    z 0.000000 0.000000 1.608550 
# 
# From -- ./inp_files/21809.got.cif
#   From: 2010.05.17/outbox.cif.g08.bks.cpg/sg59_11_cif.got.tgz:21809.got - 2010.06.03 14:40:33.
