data_PCOD9447737
_publ_section_title
;
Structure prediction by ZEFSAII (Michael W. Deem and Ramdas Pophale) SiO2 
 PCOD9447737
Probable space group: P M M N
;
_chemical_formula_sum "Si O2"
_cell_formula_units_Z 64
_cell_length_a 14.780657
_cell_length_b 9.201695
_cell_length_c 22.147714
_cell_angle_alpha 90.000000
_cell_angle_beta 90.000000
_cell_angle_gamma 90.000000
_cell_volume 3012.246300
_symmetry_space_group_name_H-M "P M M N"
_symmetry_group_IT_number 59
_space_group.IT_coordinate_system_code '2'
_symmetry_cell_setting 'orthorhombic'
loop_
_space_group_symop_operation_xyz
x,y,z
1/2-x,1/2-y,z
1/2+x,-y,-z
-x,1/2+y,-z
-x,-y,-z
1/2+x,1/2+y,-z
1/2-x,y,z
x,1/2-y,z
loop_
_atom_site_type_symbol
_atom_site_label
_atom_site_fract_x
_atom_site_fract_y
_atom_site_fract_z
Si Si1 0.393289 0.084814 0.877676
Si Si2 0.900773 0.073314 0.003527
Si Si3 0.855220 0.072690 0.374322
Si Si4 0.889425 0.084307 0.874135
Si Si5 0.141687 0.914328 0.755751
Si Si6 0.357840 0.585650 0.256822
Si Si7 0.139302 0.414244 0.374710
Si Si8 0.860831 0.081939 0.505102
O O1 0.360241 0.250000 0.882086
O O2 0.502400 0.089533 0.880189
O O3 0.373146 0.013838 0.813377
O O4 0.360502 0.988919 0.934452
O O5 0.906022 0.250000 0.005340
O O6 0.856122 0.029920 0.939298
O O7 0.000000 0.000000 0.000000
O O8 0.750000 0.026128 0.374984
O O9 0.855913 0.250000 0.374383
O O10 0.893866 0.029324 0.309092
O O11 0.893310 0.027206 0.439382
O O12 0.854914 0.250000 0.868481
O O13 0.871368 0.014180 0.809154
O O14 0.250000 0.903019 0.748360
O O15 0.106873 0.750000 0.766801
O O16 0.250000 0.597892 0.264137
O O17 0.396601 0.750000 0.256483
O O18 0.390512 0.497380 0.314530
O O19 0.250000 0.411952 0.374241
O O20 0.105888 0.250000 0.373411
O O21 0.112086 0.490935 0.436743
O O22 0.750000 0.080462 0.503236
O O23 0.887489 0.250000 0.512559
#
# Coordination Sequence:
#
# PCOD9447737 Si02
#       8
#     8   8   8   8   8   8   8   8
#     4  10  19  31  47  67  92 120 149 182 221 268
#     4   9  16  29  48  68  90 115 146 185 225 263
#     4   7  11  21  38  59  82 108 140 179 218 254
#     4   8  16  30  47  67  88 111 144 185 222 257
#     4   9  17  30  47  67  92 120 149 184 225 265
#     4   9  16  28  46  64  83 111 146 180 215 258
#     4   9  16  24  34  54  86 116 139 170 214 257
#     4   8  12  20  36  56  77 106 144 177 206 249
#
# _framework density 21.246603
#
# number of rings (size 3 to 8) (size 9 to 14) (size 15 to 20)
#    0.000    3.375    0.000    3.375    0.000    1.750 
#    0.000    5.000    0.000    4.500    0.000    0.875 
#    0.000    0.000    0.000    0.000    0.000    0.000 
#
# Total GULP energy -356445.956930 kJ/mol
# GULP energy per Si atom -5569.468077 kJ/mol
# Density = 2.119825 g / cm^3
# Si number density = 21.246603 Si / 1000 Ang^3
#
#
#
# Elastic Constant Matrix: (Units=GPa)
#
#
# Indices 1 2 3 4 5 6 
#
# 1 53.0050 3.6698 5.6926 0.0000 0.0000 0.0000
# 2 3.6698 88.6941 98.1458 0.0000 0.0000 0.0000
# 3 5.6926 98.1458 284.7040 0.0000 0.0000 0.0000
# 4 0.0000 0.0000 0.0000 0.5985 0.0000 0.0000
# 5 0.0000 0.0000 0.0000 0.0000 20.8056 0.0000
# 6 0.0000 0.0000 0.0000 0.0000 0.0000 1.6316
#
#
#
# Elastic Compliance Matrix: (Units=1/GPa)
#
#
# Indices 1 2 3 4 5 6 
#
# 1 0.018926 -0.000589 -0.000175 0.000000 0.000000 0.000000
# 2 -0.000589 0.018246 -0.006278 0.000000 0.000000 0.000000
# 3 -0.000175 -0.006278 0.005680 0.000000 0.000000 0.000000
# 4 0.000000 0.000000 0.000000 1.670884 0.000000 0.000000
# 5 0.000000 0.000000 0.000000 0.000000 0.048064 0.000000
# 6 0.000000 0.000000 0.000000 0.000000 0.000000 0.612887
#
#
# Mechanical properties :
#
#
# Convention : Reuss Voigt Hill
#
# Bulk Modulus (GPa) = 34.76196 71.26882 53.01539
# Shear Modulus (GPa) = 2.08476 25.86681 13.97578
#
# Velocity S-wave (km/s) = 0.99164 3.49299 2.56752
# Velocity P-wave (km/s) = 4.20807 7.06289 5.81344
#
# Compressibility (1/GPa) = 0.02876708
#
# Stress axis : x y z
#
# Youngs Moduli (GPa) = 52.83804 54.80522 176.04886
#
# Poissons Ratio (x) = 0.03228 0.03087
# Poissons Ratio (y) = 0.03112 1.10529
# Poissons Ratio (z) = 0.00927 0.34408
#
# Static dielectric constant tensor:
#      x y z
#    x 1.854370 0.000000 0.000000 
#    y 0.000000 1.728220 0.000000 
#    z 0.000000 0.000000 1.830080 
# 
# From -- ./inp_files/30944.got.cif
#   From: 2010.05.17/outbox.cif.g08.bks.cpg/sg59_16_cif.got.tgz:30944.got - 2010.06.03 14:40:33.
