data_PCOD9447649
_publ_section_title
;
Structure prediction by ZEFSAII (Michael W. Deem and Ramdas Pophale) SiO2 
 PCOD9447649
Probable space group: P M M N
;
_chemical_formula_sum "Si O2"
_cell_formula_units_Z 40
_cell_length_a 7.390819
_cell_length_b 13.314872
_cell_length_c 16.539263
_cell_angle_alpha 90.000000
_cell_angle_beta 90.000000
_cell_angle_gamma 90.000000
_cell_volume 1627.592634
_symmetry_space_group_name_H-M "P M M N"
_symmetry_group_IT_number 59
_space_group.IT_coordinate_system_code '2'
_symmetry_cell_setting 'orthorhombic'
loop_
_space_group_symop_operation_xyz
x,y,z
1/2-x,1/2-y,z
1/2+x,-y,-z
-x,1/2+y,-z
-x,-y,-z
1/2+x,1/2+y,-z
1/2-x,y,z
x,1/2-y,z
loop_
_atom_site_type_symbol
_atom_site_label
_atom_site_fract_x
_atom_site_fract_y
_atom_site_fract_z
Si Si1 0.030660 0.364873 0.860263
Si Si2 0.969775 0.639798 0.441108
Si Si3 0.462058 0.129848 0.038143
Si Si4 0.960273 0.566458 0.790302
Si Si5 0.959801 0.919639 0.616985
O O1 0.250000 0.364555 0.861186
O O2 0.973004 0.250000 0.846715
O O3 0.968283 0.445632 0.795471
O O4 0.966741 0.401205 0.949783
O O5 0.750000 0.635603 0.440531
O O6 0.022947 0.750000 0.410243
O O7 0.033340 0.627371 0.534428
O O8 0.032645 0.540093 0.395795
O O9 0.250000 0.101979 0.038794
O O10 0.470555 0.250000 0.034726
O O11 0.543538 0.099582 0.124231
O O12 0.750000 0.598796 0.791793
O O13 0.038770 0.602974 0.705262
O O14 0.750000 0.888860 0.619710
#
# Coordination Sequence:
#
# PCOD9447649 Si02
#       5
#     8   8   8   8   8
#     4   9  18  32  48  66  92 128 164 193 225 269
#     4   9  18  34  54  71  90 121 157 189 225 275
#     4   8  15  29  48  69  93 123 159 194 229 272
#     4  10  19  30  48  73  97 121 151 192 238 275
#     4   9  19  33  48  72 100 120 147 190 236 279
#
# _framework density 24.576174000000002
#
# number of rings (size 3 to 8) (size 9 to 14) (size 15 to 20)
#    0.000    3.000    0.000    1.800    0.000    3.200 
#    0.000    8.000    0.000    1.800    0.000    2.800 
#    0.000    0.000    0.000    0.000    0.000    0.000 
#
# Total GULP energy -223276.925718 kJ/mol
# GULP energy per Si atom -5581.923143 kJ/mol
# Density = 2.452024 g / cm^3
# Si number density = 24.576174 Si / 1000 Ang^3
#
#
#
# Elastic Constant Matrix: (Units=GPa)
#
#
# Indices 1 2 3 4 5 6 
#
# 1 88.3466 -3.8860 3.1799 0.0000 0.0000 0.0000
# 2 -3.8860 41.9637 -14.5516 0.0000 0.0000 0.0000
# 3 3.1799 -14.5516 96.0838 0.0000 0.0000 0.0000
# 4 0.0000 0.0000 0.0000 2.9116 0.0000 0.0000
# 5 0.0000 0.0000 0.0000 0.0000 4.1643 0.0000
# 6 0.0000 0.0000 0.0000 0.0000 0.0000 14.3883
#
#
#
# Elastic Compliance Matrix: (Units=1/GPa)
#
#
# Indices 1 2 3 4 5 6 
#
# 1 0.011370 0.000974 -0.000229 0.000000 0.000000 0.000000
# 2 0.000974 0.025234 0.003789 0.000000 0.000000 0.000000
# 3 -0.000229 0.003789 0.010989 0.000000 0.000000 0.000000
# 4 0.000000 0.000000 0.000000 0.343456 0.000000 0.000000
# 5 0.000000 0.000000 0.000000 0.000000 0.240138 0.000000
# 6 0.000000 0.000000 0.000000 0.000000 0.000000 0.069501
#
#
# Mechanical properties :
#
#
# Convention : Reuss Voigt Hill
#
# Bulk Modulus (GPa) = 17.64858 21.76431 19.70645
# Shear Modulus (GPa) = 7.03723 20.40294 13.72008
#
# Velocity S-wave (km/s) = 1.69400 2.88443 2.36533
# Velocity P-wave (km/s) = 3.32009 4.46859 3.93645
#
# Compressibility (1/GPa) = 0.05666177
#
# Stress axis : x y z
#
# Youngs Moduli (GPa) = 87.94982 39.62857 90.99964
#
# Poissons Ratio (x) = -0.03858 0.02083
# Poissons Ratio (y) = -0.08562 -0.34484
# Poissons Ratio (z) = 0.02013 -0.15017
#
# Static dielectric constant tensor:
#      x y z
#    x 1.955270 0.000000 0.000000 
#    y 0.000000 1.956960 0.000000 
#    z 0.000000 0.000000 1.973940 
# 
# From -- ./inp_files/19861.got.cif
#   From: 2010.05.17/outbox.cif.g08.bks.cpg/sg59_10_cif.got.tgz:19861.got - 2010.06.03 14:40:33.
