data_PCOD9447265
_publ_section_title
;
Structure prediction by ZEFSAII (Michael W. Deem and Ramdas Pophale) SiO2 
 PCOD9447265
Probable space group: P M M N
;
_chemical_formula_sum "Si O2"
_cell_formula_units_Z 58
_cell_length_a 30.831819
_cell_length_b 7.940293
_cell_length_c 12.846689
_cell_angle_alpha 90.000000
_cell_angle_beta 90.000000
_cell_angle_gamma 90.000000
_cell_volume 3145.045166
_symmetry_space_group_name_H-M "P M M N"
_symmetry_group_IT_number 59
_space_group.IT_coordinate_system_code '2'
_symmetry_cell_setting 'orthorhombic'
loop_
_space_group_symop_operation_xyz
x,y,z
1/2-x,1/2-y,z
1/2+x,-y,-z
-x,1/2+y,-z
-x,-y,-z
1/2+x,1/2+y,-z
1/2-x,y,z
x,1/2-y,z
loop_
_atom_site_type_symbol
_atom_site_label
_atom_site_fract_x
_atom_site_fract_y
_atom_site_fract_z
Si Si1 0.186586 0.557410 0.523355
Si Si2 0.700889 0.544768 0.238220
Si Si3 0.554761 0.056671 0.330744
Si Si4 0.908202 0.552929 0.539393
Si Si5 0.462503 0.943826 0.265254
Si Si6 0.113637 0.448962 0.859141
Si Si7 0.048626 0.451817 0.034685
Si Si8 0.750000 0.750000 0.534036
O O1 0.199579 0.750000 0.497015
O O2 0.193084 0.530587 0.647365
O O3 0.136391 0.534043 0.494146
O O4 0.212844 0.402142 0.472775
O O5 0.750000 0.504500 0.204749
O O6 0.698434 0.750000 0.249477
O O7 0.662251 0.487141 0.162453
O O8 0.567937 0.250000 0.342376
O O9 0.559036 0.970818 0.442693
O O10 0.506082 0.047247 0.287966
O O11 0.586598 0.973211 0.246912
O O12 0.900538 0.750000 0.555114
O O13 0.928565 0.477694 0.643539
O O14 0.476186 0.750000 0.266280
O O15 0.444413 0.986180 0.151677
O O16 0.118006 0.250000 0.878718
O O17 0.084256 0.519458 0.952760
O O18 0.050643 0.250000 0.033765
O O19 0.000000 0.500000 0.000000
#
# Coordination Sequence:
#
# PCOD9447265 Si02
#       8
#     8   8   8   8   8   8   8   2
#     4  12  22  36  59  89 124 162 202 249 306 372
#     4  10  18  34  56  86 121 157 193 244 305 362
#     4  12  23  36  57  86 120 161 200 244 301 365
#     4  12  24  41  59  86 125 161 201 250 307 370
#     4  12  25  41  59  83 115 160 209 258 305 360
#     4  10  21  35  57  85 119 157 198 245 299 360
#     4  11  22  38  59  85 115 156 204 252 300 358
#     4  12  22  40  56  90 120 166 206 252 308 362
#
# _framework density 18.441706
#
# number of rings (size 3 to 8) (size 9 to 14) (size 15 to 20)
#    0.000    0.690    4.828    4.759    0.000    0.552 
#    0.000    0.000    0.000    0.000    1.793    0.000 
#    0.000    0.000    0.000    0.000    0.000    0.000 
#
# Total GULP energy -323539.528058 kJ/mol
# GULP energy per Si atom -5578.267725 kJ/mol
# Density = 1.839973 g / cm^3
# Si number density = 18.441706 Si / 1000 Ang^3
#
#
#
# Elastic Constant Matrix: (Units=GPa)
#
#
# Indices 1 2 3 4 5 6 
#
# 1 122.8979 4.0254 46.0188 0.0000 0.0000 0.0000
# 2 4.0254 63.9060 2.2640 0.0000 0.0000 0.0000
# 3 46.0188 2.2640 110.8910 0.0000 0.0000 0.0000
# 4 0.0000 0.0000 0.0000 20.9985 0.0000 0.0000
# 5 0.0000 0.0000 0.0000 0.0000 14.4827 0.0000
# 6 0.0000 0.0000 0.0000 0.0000 0.0000 23.4278
#
#
#
# Elastic Compliance Matrix: (Units=1/GPa)
#
#
# Indices 1 2 3 4 5 6 
#
# 1 0.009648 -0.000466 -0.003994 0.000000 0.000000 0.000000
# 2 -0.000466 0.015682 -0.000127 0.000000 0.000000 0.000000
# 3 -0.003994 -0.000127 0.010678 0.000000 0.000000 0.000000
# 4 0.000000 0.000000 0.000000 0.047622 0.000000 0.000000
# 5 0.000000 0.000000 0.000000 0.000000 0.069048 0.000000
# 6 0.000000 0.000000 0.000000 0.000000 0.000000 0.042684
#
#
# Mechanical properties :
#
#
# Convention : Reuss Voigt Hill
#
# Bulk Modulus (GPa) = 37.26706 44.70127 40.98416
# Shear Modulus (GPa) = 23.42130 28.14092 25.78111
#
# Velocity S-wave (km/s) = 3.56760 3.91056 3.74301
# Velocity P-wave (km/s) = 6.10100 6.68445 6.39938
#
# Compressibility (1/GPa) = 0.02683335
#
# Stress axis : x y z
#
# Youngs Moduli (GPa) = 103.65133 63.76809 93.65036
#
# Poissons Ratio (x) = 0.02973 0.37406
# Poissons Ratio (y) = 0.04832 0.01187
# Poissons Ratio (z) = 0.41401 0.00808
#
# Static dielectric constant tensor:
#      x y z
#    x 1.662520 0.000000 0.000000 
#    y 0.000000 1.655120 0.000000 
#    z 0.000000 0.000000 1.616090 
# 
# From -- ./inp_files/19141.got.cif
#   From: 2010.05.17/outbox.cif.g08.bks.cpg/sg59_10_cif.got.tgz:19141.got - 2010.06.03 14:40:33.
