data_PCOD9447154
_publ_section_title
;
Structure prediction by ZEFSAII (Michael W. Deem and Ramdas Pophale) SiO2 
 PCOD9447154
Probable space group: P M M N
;
_chemical_formula_sum "Si O2"
_cell_formula_units_Z 48
_cell_length_a 13.859401
_cell_length_b 19.767941
_cell_length_c 10.289918
_cell_angle_alpha 90.000000
_cell_angle_beta 90.000000
_cell_angle_gamma 90.000000
_cell_volume 2819.147575
_symmetry_space_group_name_H-M "P M M N"
_symmetry_group_IT_number 59
_space_group.IT_coordinate_system_code '2'
_symmetry_cell_setting 'orthorhombic'
loop_
_space_group_symop_operation_xyz
x,y,z
1/2-x,1/2-y,z
1/2+x,-y,-z
-x,1/2+y,-z
-x,-y,-z
1/2+x,1/2+y,-z
1/2-x,y,z
x,1/2-y,z
loop_
_atom_site_type_symbol
_atom_site_label
_atom_site_fract_x
_atom_site_fract_y
_atom_site_fract_z
Si Si1 0.054270 0.085560 0.227422
Si Si2 0.363546 0.936379 0.198655
Si Si3 0.863222 0.616573 0.050455
Si Si4 0.363123 0.330836 0.464695
Si Si5 0.361398 0.542691 0.893454
Si Si6 0.514737 0.672359 0.278033
O O1 0.082883 0.129537 0.350653
O O2 0.940829 0.075006 0.199700
O O3 0.100301 0.010757 0.238547
O O4 0.099349 0.117910 0.096777
O O5 0.250000 0.930280 0.223842
O O6 0.426223 0.879143 0.267169
O O7 0.377692 0.932371 0.041811
O O8 0.750000 0.632273 0.054112
O O9 0.875687 0.538555 0.098606
O O10 0.923339 0.662853 0.147001
O O11 0.250000 0.349972 0.469152
O O12 0.367833 0.250000 0.442231
O O13 0.415705 0.344619 0.601220
O O14 0.250000 0.555845 0.858430
O O15 0.483141 0.750000 0.291139
#
# Coordination Sequence:
#
# PCOD9447154 Si02
#       6
#     8   8   8   8   8   8
#     4  11  18  36  60  84 111 143 181 225 277 328
#     4  10  19  35  58  85 112 143 184 229 275 324
#     4  10  18  32  56  84 108 137 181 227 270 324
#     4  10  23  40  55  77 113 149 178 223 287 335
#     4   9  17  32  57  85 115 141 169 224 285 320
#     4  11  22  37  54  76 111 152 185 224 274 323
#
# _framework density 17.026423000000001
#
# number of rings (size 3 to 8) (size 9 to 14) (size 15 to 20)
#    0.000    1.833    3.333    4.000    0.000    2.667 
#    0.000    0.833    0.000    1.500    0.000    0.000 
#    0.000    0.000    0.000    0.000    0.000    0.000 
#
# Total GULP energy -267961.651996 kJ/mol
# GULP energy per Si atom -5582.534417 kJ/mol
# Density = 1.698767 g / cm^3
# Si number density = 17.026423 Si / 1000 Ang^3
#
#
#
# Elastic Constant Matrix: (Units=GPa)
#
#
# Indices 1 2 3 4 5 6 
#
# 1 112.8845 43.0967 36.0694 0.0000 0.0000 0.0000
# 2 43.0967 48.9825 50.1298 0.0000 0.0000 0.0000
# 3 36.0694 50.1298 73.8094 0.0000 0.0000 0.0000
# 4 0.0000 0.0000 0.0000 23.1119 0.0000 0.0000
# 5 0.0000 0.0000 0.0000 0.0000 28.4233 0.0000
# 6 0.0000 0.0000 0.0000 0.0000 0.0000 25.2225
#
#
#
# Elastic Compliance Matrix: (Units=1/GPa)
#
#
# Indices 1 2 3 4 5 6 
#
# 1 0.013870 -0.017273 0.004953 0.000000 0.000000 0.000000
# 2 -0.017273 0.088465 -0.051643 0.000000 0.000000 0.000000
# 3 0.004953 -0.051643 0.046203 0.000000 0.000000 0.000000
# 4 0.000000 0.000000 0.000000 0.043268 0.000000 0.000000
# 5 0.000000 0.000000 0.000000 0.000000 0.035182 0.000000
# 6 0.000000 0.000000 0.000000 0.000000 0.000000 0.039647
#
#
# Mechanical properties :
#
#
# Convention : Reuss Voigt Hill
#
# Bulk Modulus (GPa) = 48.51261 54.91869 51.71565
# Shear Modulus (GPa) = 12.45542 22.44359 17.44950
#
# Velocity S-wave (km/s) = 2.70762 3.63459 3.20480
# Velocity P-wave (km/s) = 6.19107 7.06673 6.64334
#
# Compressibility (1/GPa) = 0.02061320
#
# Stress axis : x y z
#
# Youngs Moduli (GPa) = 72.09636 11.30387 21.64378
#
# Poissons Ratio (x) = 0.19525 -0.10721
# Poissons Ratio (y) = 1.24531 1.11775
# Poissons Ratio (z) = -0.35710 0.58376
#
# Static dielectric constant tensor:
#      x y z
#    x 1.578720 0.000000 0.000000 
#    y 0.000000 1.560620 0.000000 
#    z 0.000000 0.000000 1.554440 
# 
# From -- ./inp_files/8978.got.cif
#   From: 2010.05.17/outbox.cif.g08.bks.cpg/sg59_5_cif.got.tgz:8978.got - 2010.06.03 14:40:33.
