data_PCOD9447240
_publ_section_title
;
Structure prediction by ZEFSAII (Michael W. Deem and Ramdas Pophale) SiO2 
 PCOD9447240
Probable space group: P M M N
;
_chemical_formula_sum "Si O2"
_cell_formula_units_Z 48
_cell_length_a 8.618129
_cell_length_b 10.278698
_cell_length_c 30.166447
_cell_angle_alpha 90.000000
_cell_angle_beta 90.000000
_cell_angle_gamma 90.000000
_cell_volume 2672.238758
_symmetry_space_group_name_H-M "P M M N"
_symmetry_group_IT_number 59
_space_group.IT_coordinate_system_code '2'
_symmetry_cell_setting 'orthorhombic'
loop_
_space_group_symop_operation_xyz
x,y,z
1/2-x,1/2-y,z
1/2+x,-y,-z
-x,1/2+y,-z
-x,-y,-z
1/2+x,1/2+y,-z
1/2-x,y,z
x,1/2-y,z
loop_
_atom_site_type_symbol
_atom_site_label
_atom_site_fract_x
_atom_site_fract_y
_atom_site_fract_z
Si Si1 0.437747 0.897990 0.799015
Si Si2 0.934439 0.600158 0.464318
Si Si3 0.937746 0.250000 0.034914
Si Si4 0.561031 0.475468 0.101960
Si Si5 0.937636 0.750000 0.064475
Si Si6 0.562094 0.099323 0.727426
Si Si7 0.427970 0.907631 0.370449
O O1 0.250000 0.903051 0.798241
O O2 0.484808 0.750000 0.788094
O O3 0.488514 0.930833 0.849269
O O4 0.501850 0.003339 0.764890
O O5 0.750000 0.602831 0.468140
O O6 0.992056 0.750000 0.470571
O O7 0.000000 0.500000 0.500000
O O8 0.979858 0.557276 0.414521
O O9 0.750000 0.250000 0.031936
O O10 0.986533 0.124837 0.063683
O O11 0.005939 0.250000 0.985997
O O12 0.750000 0.473640 0.102434
O O13 0.509578 0.619895 0.089379
O O14 0.750000 0.750000 0.064341
O O15 0.750000 0.098934 0.726772
O O16 0.513084 0.250000 0.734660
O O17 0.510812 0.054174 0.678088
O O18 0.250000 0.952425 0.375227
O O19 0.425343 0.750000 0.368697
#
# Coordination Sequence:
#
# PCOD9447240 Si02
#       7
#     8   8   4   8   4   8   8
#     4  10  20  35  54  76 102 136 177 213 252 308
#     4  10  20  33  52  79 109 141 180 222 263 310
#     4  10  18  34  54  70  96 132 162 196 249 304
#     4   9  18  33  52  72  97 130 165 203 248 300
#     4  10  20  32  50  76 100 122 162 210 247 294
#     4   9  19  35  55  80 107 134 168 214 266 316
#     4   8  15  31  53  74 101 138 175 213 262 314
#
# _framework density 17.962465999999999
#
# number of rings (size 3 to 8) (size 9 to 14) (size 15 to 20)
#    0.000    2.667    0.833    2.000    1.167    2.333 
#    0.000    4.167    0.000    1.000    0.000    0.000 
#    0.000    0.000    0.000    0.000    0.000    0.000 
#
# Total GULP energy -267604.403490 kJ/mol
# GULP energy per Si atom -5575.091739 kJ/mol
# Density = 1.792158 g / cm^3
# Si number density = 17.962466 Si / 1000 Ang^3
#
#
#
# Elastic Constant Matrix: (Units=GPa)
#
#
# Indices 1 2 3 4 5 6 
#
# 1 13.2251 20.3117 21.6233 0.0000 0.0000 0.0000
# 2 20.3117 120.6012 67.8515 0.0000 0.0000 0.0000
# 3 21.6233 67.8515 130.7646 0.0000 0.0000 0.0000
# 4 0.0000 0.0000 0.0000 33.1101 0.0000 0.0000
# 5 0.0000 0.0000 0.0000 0.0000 34.2804 0.0000
# 6 0.0000 0.0000 0.0000 0.0000 0.0000 17.2043
#
#
#
# Elastic Compliance Matrix: (Units=1/GPa)
#
#
# Indices 1 2 3 4 5 6 
#
# 1 0.115187 -0.012264 -0.012684 0.000000 0.000000 0.000000
# 2 -0.012264 0.013016 -0.004726 0.000000 0.000000 0.000000
# 3 -0.012684 -0.004726 0.012197 0.000000 0.000000 0.000000
# 4 0.000000 0.000000 0.000000 0.030202 0.000000 0.000000
# 5 0.000000 0.000000 0.000000 0.000000 0.029171 0.000000
# 6 0.000000 0.000000 0.000000 0.000000 0.000000 0.058125
#
#
# Mechanical properties :
#
#
# Convention : Reuss Voigt Hill
#
# Bulk Modulus (GPa) = 12.33758 53.79598 33.06678
# Shear Modulus (GPa) = 14.52375 27.23927 20.88151
#
# Velocity S-wave (km/s) = 2.84661 3.89839 3.41326
# Velocity P-wave (km/s) = 4.20567 7.09066 5.82945
#
# Compressibility (1/GPa) = 0.08105318
#
# Stress axis : x y z
#
# Youngs Moduli (GPa) = 8.68150 76.82794 81.98787
#
# Poissons Ratio (x) = 0.94220 1.03993
# Poissons Ratio (y) = 0.10647 0.38746
# Poissons Ratio (z) = 0.11012 0.36308
#
# Static dielectric constant tensor:
#      x y z
#    x 1.619160 0.000000 0.000000 
#    y 0.000000 1.610890 0.000000 
#    z 0.000000 0.000000 1.601320 
# 
# From -- ./inp_files/33027.got.cif
#   From: 2010.05.17/outbox.cif.g08.bks.cpg/sg59_17_cif.got.tgz:33027.got - 2010.06.03 14:40:33.
