data_PCOD9447836
_publ_section_title
;
Structure prediction by ZEFSAII (Michael W. Deem and Ramdas Pophale) SiO2 
 PCOD9447836
Probable space group: P M M N
;
_chemical_formula_sum "Si O2"
_cell_formula_units_Z 64
_cell_length_a 7.586557
_cell_length_b 15.508596
_cell_length_c 27.987505
_cell_angle_alpha 90.000000
_cell_angle_beta 90.000000
_cell_angle_gamma 90.000000
_cell_volume 3292.921609
_symmetry_space_group_name_H-M "P M M N"
_symmetry_group_IT_number 59
_space_group.IT_coordinate_system_code '2'
_symmetry_cell_setting 'orthorhombic'
loop_
_space_group_symop_operation_xyz
x,y,z
1/2-x,1/2-y,z
1/2+x,-y,-z
-x,1/2+y,-z
-x,-y,-z
1/2+x,1/2+y,-z
1/2-x,y,z
x,1/2-y,z
loop_
_atom_site_type_symbol
_atom_site_label
_atom_site_fract_x
_atom_site_fract_y
_atom_site_fract_z
Si Si1 0.461375 0.847284 0.696972
Si Si2 0.042021 0.154187 0.582454
Si Si3 0.966548 0.471881 0.386697
Si Si4 0.540607 0.653126 0.807170
Si Si5 0.536416 0.347193 0.025849
Si Si6 0.041837 0.972844 0.892094
Si Si7 0.962858 0.152470 0.471689
Si Si8 0.957155 0.845073 0.085084
O O1 0.250000 0.843875 0.691570
O O2 0.528712 0.750000 0.687241
O O3 0.499692 0.867657 0.752108
O O4 0.525103 0.918278 0.659554
O O5 0.250000 0.158729 0.593028
O O6 0.966566 0.250000 0.591680
O O7 0.971238 0.070427 0.609611
O O8 0.023697 0.136962 0.525718
O O9 0.750000 0.473399 0.386841
O O10 0.021850 0.418094 0.433581
O O11 0.750000 0.656596 0.812303
O O12 0.469467 0.750000 0.816975
O O13 0.475371 0.582841 0.844412
O O14 0.750000 0.349605 0.024937
O O15 0.484534 0.250000 0.040678
O O16 0.469775 0.417141 0.063531
O O17 0.473098 0.360702 0.971883
O O18 0.250000 0.982453 0.901772
O O19 0.967525 0.069568 0.890124
O O20 0.750000 0.151281 0.472105
O O21 0.017453 0.250000 0.457916
O O22 0.750000 0.839473 0.097045
O O23 0.034845 0.750000 0.094776
#
# Coordination Sequence:
#
# PCOD9447836 Si02
#       8
#     8   8   8   8   8   8   8   8
#     4   9  17  31  51  70  87 111 144 181 223 271
#     4   9  17  28  41  60  89 121 149 178 213 254
#     4   9  16  27  45  66  86 112 148 184 216 256
#     4  10  21  35  50  71  97 119 142 181 233 282
#     4   9  17  28  43  66  95 125 158 193 227 267
#     4  10  19  31  49  70  93 125 161 192 224 268
#     4   9  16  26  41  62  88 116 147 182 216 252
#     4   9  18  31  46  67  96 127 159 195 230 262
#
# _framework density 19.435627
#
# number of rings (size 3 to 8) (size 9 to 14) (size 15 to 20)
#    0.000    2.750    0.000    1.875    0.000    3.750 
#    0.000    2.500    0.000    3.750    0.000    3.500 
#    0.000    0.000    0.000    0.000    0.000    0.000 
#
# Total GULP energy -357022.797847 kJ/mol
# GULP energy per Si atom -5578.481216 kJ/mol
# Density = 1.939139 g / cm^3
# Si number density = 19.435627 Si / 1000 Ang^3
#
#
#
# Elastic Constant Matrix: (Units=GPa)
#
#
# Indices 1 2 3 4 5 6 
#
# 1 41.9307 5.9988 -9.3870 0.0000 0.0000 0.0000
# 2 5.9988 190.0839 87.4158 0.0000 0.0000 0.0000
# 3 -9.3870 87.4158 61.2647 0.0000 0.0000 0.0000
# 4 0.0000 0.0000 0.0000 27.4214 0.0000 0.0000
# 5 0.0000 0.0000 0.0000 0.0000 14.3159 0.0000
# 6 0.0000 0.0000 0.0000 0.0000 0.0000 2.2729
#
#
#
# Elastic Compliance Matrix: (Units=1/GPa)
#
#
# Indices 1 2 3 4 5 6 
#
# 1 0.028787 -0.008542 0.016599 0.000000 0.000000 0.000000
# 2 -0.008542 0.017836 -0.026758 0.000000 0.000000 0.000000
# 3 0.016599 -0.026758 0.057046 0.000000 0.000000 0.000000
# 4 0.000000 0.000000 0.000000 0.036468 0.000000 0.000000
# 5 0.000000 0.000000 0.000000 0.000000 0.069852 0.000000
# 6 0.000000 0.000000 0.000000 0.000000 0.000000 0.439972
#
#
# Mechanical properties :
#
#
# Convention : Reuss Voigt Hill
#
# Bulk Modulus (GPa) = 15.09064 51.25941 33.17503
# Shear Modulus (GPa) = 7.04770 22.75215 14.89993
#
# Velocity S-wave (km/s) = 1.90632 3.42518 2.77181
# Velocity P-wave (km/s) = 3.55340 6.48642 5.22974
#
# Compressibility (1/GPa) = 0.06626626
#
# Stress axis : x y z
#
# Youngs Moduli (GPa) = 34.73804 56.06667 17.52980
#
# Poissons Ratio (x) = 0.47892 -0.29098
# Poissons Ratio (y) = 0.29673 0.46906
# Poissons Ratio (z) = -0.57661 1.50023
#
# Static dielectric constant tensor:
#      x y z
#    x 1.718870 0.000000 0.000000 
#    y 0.000000 1.726540 0.000000 
#    z 0.000000 0.000000 1.630710 
# 
# From -- ./inp_files/33214.got.cif
#   From: 2010.05.17/outbox.cif.g08.bks.cpg/sg59_17_cif.got.tgz:33214.got - 2010.06.03 14:40:33.
