data_PCOD9447164
_publ_section_title
;
Structure prediction by ZEFSAII (Michael W. Deem and Ramdas Pophale) SiO2 
 PCOD9447164
Probable space group: P M M N
;
_chemical_formula_sum "Si O2"
_cell_formula_units_Z 64
_cell_length_a 7.603445
_cell_length_b 15.707074
_cell_length_c 24.553037
_cell_angle_alpha 90.000000
_cell_angle_beta 90.000000
_cell_angle_gamma 90.000000
_cell_volume 2932.316991
_symmetry_space_group_name_H-M "P M M N"
_symmetry_group_IT_number 59
_space_group.IT_coordinate_system_code '2'
_symmetry_cell_setting 'orthorhombic'
loop_
_space_group_symop_operation_xyz
x,y,z
1/2-x,1/2-y,z
1/2+x,-y,-z
-x,1/2+y,-z
-x,-y,-z
1/2+x,1/2+y,-z
1/2-x,y,z
x,1/2-y,z
loop_
_atom_site_type_symbol
_atom_site_label
_atom_site_fract_x
_atom_site_fract_y
_atom_site_fract_z
Si Si1 0.455912 0.483620 0.186229
Si Si2 0.034477 0.154424 0.627042
Si Si3 0.546674 0.345395 0.859909
Si Si4 0.044896 0.992588 0.692539
Si Si5 0.452134 0.353266 0.980547
Si Si6 0.034096 0.348396 0.099001
Si Si7 0.960562 0.900493 0.492721
Si Si8 0.963077 0.656853 0.609764
O O1 0.250000 0.489217 0.171504
O O2 0.534126 0.576970 0.173746
O O3 0.466267 0.465466 0.250015
O O4 0.527122 0.409697 0.147240
O O5 0.250000 0.151455 0.626560
O O6 0.982487 0.250000 0.642167
O O7 0.974689 0.133191 0.565385
O O8 0.972350 0.080486 0.667486
O O9 0.750000 0.337249 0.843346
O O10 0.467728 0.250000 0.855414
O O11 0.542811 0.372527 0.923518
O O12 0.250000 0.005966 0.702865
O O13 0.024578 0.919825 0.647320
O O14 0.250000 0.381004 0.975424
O O15 0.453788 0.250000 0.984735
O O16 0.522916 0.381783 0.039205
O O17 0.250000 0.346852 0.097445
O O18 0.979096 0.250000 0.106560
O O19 0.750000 0.888965 0.491574
O O20 0.024923 0.855365 0.547558
O O21 0.000000 0.000000 0.500000
O O22 0.750000 0.653835 0.609345
O O23 0.017241 0.750000 0.629947
#
# Coordination Sequence:
#
# PCOD9447164 Si02
#       8
#     8   8   8   8   8   8   8   8
#     4  10  21  36  53  72  98 137 180 217 255 311
#     4   9  18  34  56  80 107 141 177 213 261 319
#     4   9  18  32  49  72 104 138 168 204 257 315
#     4  11  23  38  55  78 107 139 178 230 279 312
#     4   8  14  27  49  75 100 126 161 207 255 305
#     4   8  15  30  52  75  97 125 165 211 256 304
#     4  10  18  32  57  85 113 142 173 213 262 315
#     4  10  21  37  59  84 109 143 183 217 257 319
#
# _framework density 21.825745000000001
#
# number of rings (size 3 to 8) (size 9 to 14) (size 15 to 20)
#    0.000    2.625    1.250    1.500    0.000    3.750 
#    0.000    1.875    0.000    4.500    0.000    0.000 
#    0.000    0.000    0.000    0.000    0.000    0.000 
#
# Total GULP energy -357160.404655 kJ/mol
# GULP energy per Si atom -5580.631323 kJ/mol
# Density = 2.177607 g / cm^3
# Si number density = 21.825745 Si / 1000 Ang^3
#
#
#
# Elastic Constant Matrix: (Units=GPa)
#
#
# Indices 1 2 3 4 5 6 
#
# 1 43.1366 -0.1733 -4.3730 0.0000 0.0000 0.0000
# 2 -0.1733 70.4895 -8.4127 0.0000 0.0000 0.0000
# 3 -4.3730 -8.4127 34.6566 0.0000 0.0000 0.0000
# 4 0.0000 0.0000 0.0000 -23.4161 0.0000 0.0000
# 5 0.0000 0.0000 0.0000 0.0000 -476.5256 0.0000
# 6 0.0000 0.0000 0.0000 0.0000 0.0000 5.4491
#
#
#
# Elastic Compliance Matrix: (Units=1/GPa)
#
#
# Indices 1 2 3 4 5 6 
#
# 1 0.023495 0.000424 0.003067 0.000000 0.000000 0.000000
# 2 0.000424 0.014617 0.003602 0.000000 0.000000 0.000000
# 3 0.003067 0.003602 0.030116 0.000000 0.000000 0.000000
# 4 0.000000 0.000000 0.000000 -0.042706 0.000000 0.000000
# 5 0.000000 0.000000 0.000000 0.000000 -0.002099 0.000000
# 6 0.000000 0.000000 0.000000 0.000000 0.000000 0.183515
#
#
# Mechanical properties :
#
#
# Convention : Reuss Voigt Hill
#
# Bulk Modulus (GPa) = 12.13379 13.59607 12.86493
# Shear Modulus (GPa) = 22.70414 -88.14907 -32.72247
#
# Velocity S-wave (km/s) = 3.22878 -6.36202 -3.87623
# Velocity P-wave (km/s) = 4.41265 6.90827 3.75850
#
# Compressibility (1/GPa) = 0.08241447
#
# Stress axis : x y z
#
# Youngs Moduli (GPa) = 42.56251 68.41151 33.20503
#
# Poissons Ratio (x) = -0.02900 -0.10186
# Poissons Ratio (y) = -0.01804 -0.11960
# Poissons Ratio (z) = -0.13056 -0.24640
#
# Static dielectric constant tensor:
#      x y z
#    x 1.835360 0.000000 0.000000 
#    y 0.000000 1.806200 0.000000 
#    z 0.000000 0.000000 1.768250 
# 
# From -- ./inp_files/31528.got.cif
#   From: 2010.05.17/outbox.cif.g08.bks.cpg/sg59_16_cif.got.tgz:31528.got - 2010.06.03 14:40:33.
