data_PCOD9447482
_publ_section_title
;
Structure prediction by ZEFSAII (Michael W. Deem and Ramdas Pophale) SiO2 
 PCOD9447482
Probable space group: P M M N
;
_chemical_formula_sum "Si O2"
_cell_formula_units_Z 56
_cell_length_a 26.573516
_cell_length_b 7.615086
_cell_length_c 14.986413
_cell_angle_alpha 90.000000
_cell_angle_beta 90.000000
_cell_angle_gamma 90.000000
_cell_volume 3032.644685
_symmetry_space_group_name_H-M "P M M N"
_symmetry_group_IT_number 59
_space_group.IT_coordinate_system_code '2'
_symmetry_cell_setting 'orthorhombic'
loop_
_space_group_symop_operation_xyz
x,y,z
1/2-x,1/2-y,z
1/2+x,-y,-z
-x,1/2+y,-z
-x,-y,-z
1/2+x,1/2+y,-z
1/2-x,y,z
x,1/2-y,z
loop_
_atom_site_type_symbol
_atom_site_label
_atom_site_fract_x
_atom_site_fract_y
_atom_site_fract_z
Si Si1 0.192843 0.464417 0.400125
Si Si2 0.941907 0.038648 0.096837
Si Si3 0.098132 0.034734 0.286992
Si Si4 0.942626 0.540547 0.899287
Si Si5 0.693681 0.539182 0.396740
Si Si6 0.500514 0.039339 0.395411
Si Si7 0.403609 0.960164 0.716016
O O1 0.250000 0.518274 0.378307
O O2 0.192375 0.250000 0.399697
O O3 0.149686 0.524318 0.332956
O O4 0.181698 0.520567 0.502101
O O5 0.943738 0.250000 0.100482
O O6 0.911291 0.974909 0.182813
O O7 0.999724 0.972644 0.104186
O O8 0.922451 0.993690 0.998394
O O9 0.098937 0.250000 0.287971
O O10 0.088914 0.976368 0.185315
O O11 0.049959 0.978037 0.345533
O O12 0.946129 0.750000 0.888981
O O13 0.750000 0.475724 0.373470
O O14 0.695929 0.750000 0.400647
O O15 0.649895 0.494631 0.328441
O O16 0.500647 0.250000 0.386319
O O17 0.550747 0.972056 0.346176
O O18 0.500000 0.000000 0.500000
O O19 0.409207 0.750000 0.719321
#
# Coordination Sequence:
#
# PCOD9447482 Si02
#       7
#     8   8   8   8   8   8   8
#     4   8  14  25  43  67  91 117 151 187 223 266
#     4   9  17  30  45  64  91 119 149 190 231 271
#     4   9  15  26  44  63  89 122 150 182 227 273
#     4   9  16  28  46  66  87 117 155 189 226 273
#     4   9  18  32  49  70  94 120 155 195 228 264
#     4  10  19  30  43  64  94 125 153 185 228 279
#     4  10  19  31  47  67  93 123 155 190 232 283
#
# _framework density 18.465730000000001
#
# number of rings (size 3 to 8) (size 9 to 14) (size 15 to 20)
#    0.000    2.857    1.429    1.714    0.000    2.571 
#    0.000    0.714    0.000    1.714    0.000    2.000 
#    0.000    0.000    0.000    0.000    0.000    0.000 
#
# Total GULP energy -312257.134206 kJ/mol
# GULP energy per Si atom -5576.020254 kJ/mol
# Density = 1.842370 g / cm^3
# Si number density = 18.465730 Si / 1000 Ang^3
#
#
#
# Elastic Constant Matrix: (Units=GPa)
#
#
# Indices 1 2 3 4 5 6 
#
# 1 136.2136 3.4808 118.3111 0.0000 0.0000 0.0000
# 2 3.4808 33.9351 3.2983 0.0000 0.0000 0.0000
# 3 118.3111 3.2983 203.9817 0.0000 0.0000 0.0000
# 4 0.0000 0.0000 0.0000 18.3764 0.0000 0.0000
# 5 0.0000 0.0000 0.0000 0.0000 22.3934 0.0000
# 6 0.0000 0.0000 0.0000 0.0000 0.0000 10.0168
#
#
#
# Elastic Compliance Matrix: (Units=1/GPa)
#
#
# Indices 1 2 3 4 5 6 
#
# 1 0.014810 -0.000685 -0.008579 0.000000 0.000000 0.000000
# 2 -0.000685 0.029546 -0.000080 0.000000 0.000000 0.000000
# 3 -0.008579 -0.000080 0.009880 0.000000 0.000000 0.000000
# 4 0.000000 0.000000 0.000000 0.054418 0.000000 0.000000
# 5 0.000000 0.000000 0.000000 0.000000 0.044656 0.000000
# 6 0.000000 0.000000 0.000000 0.000000 0.000000 0.099832
#
#
# Mechanical properties :
#
#
# Convention : Reuss Voigt Hill
#
# Bulk Modulus (GPa) = 28.13188 69.36787 48.74988
# Shear Modulus (GPa) = 17.62547 26.76001 22.19274
#
# Velocity S-wave (km/s) = 3.09284 3.81093 3.47051
# Velocity P-wave (km/s) = 5.29358 7.55060 6.52049
#
# Compressibility (1/GPa) = 0.03554685
#
# Stress axis : x y z
#
# Youngs Moduli (GPa) = 67.51969 33.84541 101.21807
#
# Poissons Ratio (x) = 0.02320 0.86836
# Poissons Ratio (y) = 0.04627 0.00812
# Poissons Ratio (z) = 0.57926 0.00272
#
# Static dielectric constant tensor:
#      x y z
#    x 1.625320 0.000000 0.000000 
#    y 0.000000 1.706200 0.000000 
#    z 0.000000 0.000000 1.639680 
# 
# From -- ./inp_files/16183.got.cif
#   From: 2010.05.17/outbox.cif.g08.bks.cpg/sg59_9_cif.got.tgz:16183.got - 2010.06.03 14:40:33.
