data_PCOD9447369
_publ_section_title
;
Structure prediction by ZEFSAII (Michael W. Deem and Ramdas Pophale) SiO2 
 PCOD9447369
Probable space group: P M M N
;
_chemical_formula_sum "Si O2"
_cell_formula_units_Z 64
_cell_length_a 9.184978
_cell_length_b 25.477402
_cell_length_c 18.778610
_cell_angle_alpha 90.000000
_cell_angle_beta 90.000000
_cell_angle_gamma 90.000000
_cell_volume 4394.370825
_symmetry_space_group_name_H-M "P M M N"
_symmetry_group_IT_number 59
_space_group.IT_coordinate_system_code '2'
_symmetry_cell_setting 'orthorhombic'
loop_
_space_group_symop_operation_xyz
x,y,z
1/2-x,1/2-y,z
1/2+x,-y,-z
-x,1/2+y,-z
-x,-y,-z
1/2+x,1/2+y,-z
1/2-x,y,z
x,1/2-y,z
loop_
_atom_site_type_symbol
_atom_site_label
_atom_site_fract_x
_atom_site_fract_y
_atom_site_fract_z
Si Si1 0.923464 0.579838 0.987270
Si Si2 0.923679 0.998501 0.114749
Si Si3 0.918109 0.958287 0.402027
Si Si4 0.580506 0.188114 0.216230
Si Si5 0.417944 0.922171 0.536652
Si Si6 0.079650 0.114003 0.327175
Si Si7 0.924504 0.809032 0.935079
Si Si8 0.579199 0.004401 0.734183
O O1 0.750000 0.573997 0.973172
O O2 0.958876 0.641559 0.985276
O O3 0.010271 0.548991 0.925895
O O4 0.953116 0.550272 0.061386
O O5 0.750000 0.004136 0.123111
O O6 0.999867 0.990948 0.190375
O O7 0.750000 0.942646 0.393563
O O8 0.000896 0.924047 0.461126
O O9 0.918388 0.017818 0.433550
O O10 0.001513 0.961668 0.327232
O O11 0.750000 0.172944 0.211499
O O12 0.572483 0.250000 0.233246
O O13 0.499840 0.154345 0.275446
O O14 0.503200 0.181240 0.140028
O O15 0.250000 0.906078 0.529799
O O16 0.502754 0.889292 0.596177
O O17 0.250000 0.126324 0.334470
O O18 0.068246 0.056178 0.291710
O O19 0.750000 0.809430 0.923646
O O20 0.964116 0.750000 0.959865
O O21 0.750000 0.017225 0.739646
#
# Coordination Sequence:
#
# PCOD9447369 Si02
#       8
#     8   8   8   8   8   8   8   8
#     4   9  18  31  44  60  83 109 139 174 210 252
#     4  10  19  29  42  60  83 112 142 172 209 253
#     4   9  16  26  40  58  81 108 137 167 198 235
#     4  10  20  31  42  59  83 108 136 173 213 249
#     4   9  16  26  40  58  81 108 136 166 200 236
#     4  10  19  29  42  59  80 109 143 175 205 242
#     4   9  17  30  47  63  80 106 139 174 212 252
#     4  10  19  29  41  59  83 110 141 174 207 245
#
# _framework density 14.564088
#
# number of rings (size 3 to 8) (size 9 to 14) (size 15 to 20)
#    0.000    2.500    0.000    3.000    0.000    9.250 
#    0.000    0.000    0.000    0.000    0.000    0.000 
#    0.000    1.000    0.000    5.000    0.000    3.500 
#
# Total GULP energy -356746.731745 kJ/mol
# GULP energy per Si atom -5574.167684 kJ/mol
# Density = 1.453094 g / cm^3
# Si number density = 14.564088 Si / 1000 Ang^3
#
#
#
# Elastic Constant Matrix: (Units=GPa)
#
#
# Indices 1 2 3 4 5 6 
#
# 1 89.6322 34.7504 59.9180 0.0000 0.0000 0.0000
# 2 34.7504 58.7315 32.7823 0.0000 0.0000 0.0000
# 3 59.9180 32.7823 102.6124 0.0000 0.0000 0.0000
# 4 0.0000 0.0000 0.0000 23.1468 0.0000 0.0000
# 5 0.0000 0.0000 0.0000 0.0000 26.8353 0.0000
# 6 0.0000 0.0000 0.0000 0.0000 0.0000 17.5903
#
#
#
# Elastic Compliance Matrix: (Units=1/GPa)
#
#
# Indices 1 2 3 4 5 6 
#
# 1 0.020163 -0.006521 -0.009690 0.000000 0.000000 0.000000
# 2 -0.006521 0.022831 -0.003486 0.000000 0.000000 0.000000
# 3 -0.009690 -0.003486 0.016517 0.000000 0.000000 0.000000
# 4 0.000000 0.000000 0.000000 0.043202 0.000000 0.000000
# 5 0.000000 0.000000 0.000000 0.000000 0.037264 0.000000
# 6 0.000000 0.000000 0.000000 0.000000 0.000000 0.056849
#
#
# Mechanical properties :
#
#
# Convention : Reuss Voigt Hill
#
# Bulk Modulus (GPa) = 49.71093 56.20861 52.95977
# Shear Modulus (GPa) = 20.58227 21.74952 21.16589
#
# Velocity S-wave (km/s) = 3.76336 3.86860 3.81634
# Velocity P-wave (km/s) = 7.28632 7.65719 7.47406
#
# Compressibility (1/GPa) = 0.02011630
#
# Stress axis : x y z
#
# Youngs Moduli (GPa) = 49.59653 43.80025 60.54200
#
# Poissons Ratio (x) = 0.28563 0.58666
# Poissons Ratio (y) = 0.32343 0.21105
# Poissons Ratio (z) = 0.48060 0.15269
#
# Static dielectric constant tensor:
#      x y z
#    x 1.486990 0.000000 0.000000 
#    y 0.000000 1.475050 0.000000 
#    z 0.000000 0.000000 1.457820 
# 
# From -- ./inp_files/26575.got.cif
#   From: 2010.05.17/outbox.cif.g08.bks.cpg/sg59_14_cif.got.tgz:26575.got - 2010.06.03 14:40:33.
