data_PCOD9447088
_publ_section_title
;
Structure prediction by ZEFSAII (Michael W. Deem and Ramdas Pophale) SiO2 
 PCOD9447088
Probable space group: P M M N
;
_chemical_formula_sum "Si O2"
_cell_formula_units_Z 56
_cell_length_a 8.554386
_cell_length_b 25.061135
_cell_length_c 15.124167
_cell_angle_alpha 90.000000
_cell_angle_beta 90.000000
_cell_angle_gamma 90.000000
_cell_volume 3242.358583
_symmetry_space_group_name_H-M "P M M N"
_symmetry_group_IT_number 59
_space_group.IT_coordinate_system_code '2'
_symmetry_cell_setting 'orthorhombic'
loop_
_space_group_symop_operation_xyz
x,y,z
1/2-x,1/2-y,z
1/2+x,-y,-z
-x,1/2+y,-z
-x,-y,-z
1/2+x,1/2+y,-z
1/2-x,y,z
x,1/2-y,z
loop_
_atom_site_type_symbol
_atom_site_label
_atom_site_fract_x
_atom_site_fract_y
_atom_site_fract_z
Si Si1 0.438712 0.932511 0.869603
Si Si2 0.559523 0.750000 0.792570
Si Si3 0.439099 0.361524 0.288885
Si Si4 0.936678 0.364558 0.959800
Si Si5 0.437797 0.422818 0.456493
Si Si6 0.937157 0.750000 0.997216
Si Si7 0.064630 0.536904 0.368069
Si Si8 0.563721 0.949333 0.173176
O O1 0.250000 0.932339 0.869430
O O2 0.497874 0.904735 0.780398
O O3 0.490203 0.994241 0.869854
O O4 0.492974 0.897310 0.953027
O O5 0.750000 0.750000 0.792684
O O6 0.508095 0.803616 0.743716
O O7 0.508571 0.750000 0.894528
O O8 0.250000 0.363580 0.285235
O O9 0.484579 0.376550 0.388557
O O10 0.750000 0.361186 0.964350
O O11 0.003920 0.304939 0.960307
O O12 0.986382 0.399837 0.876398
O O13 0.250000 0.422118 0.468789
O O14 0.517584 0.424158 0.551729
O O15 0.477080 0.478013 0.405231
O O16 0.750000 0.750000 0.997902
O O17 0.250000 0.538077 0.353062
O O18 0.979397 0.548387 0.276438
O O19 0.750000 0.945756 0.163156
#
# Coordination Sequence:
#
# PCOD9447088 Si02
#       8
#     8   4   8   8   8   4   8   8
#     4  10  21  34  51  78 111 144 177 220 270 322
#     4   9  18  31  53  80 105 138 179 221 260 310
#     4  10  18  32  53  78 108 142 179 217 264 322
#     4  11  23  38  55  78 110 145 183 226 274 323
#     4   9  18  31  50  76 106 139 173 215 267 324
#     4  11  21  37  59  80 105 142 187 227 268 316
#     4  10  19  32  52  77 105 137 175 219 269 324
#     4  11  22  36  54  79 110 144 184 226 271 327
#
# _framework density 17.271377000000001
#
# number of rings (size 3 to 8) (size 9 to 14) (size 15 to 20)
#    0.000    1.857    2.857    1.929    0.000    2.286 
#    0.000    0.357    0.000    0.857    0.000    4.000 
#    0.000    0.000    0.000    0.000    0.000    0.000 
#
# Total GULP energy -312598.926933 kJ/mol
# GULP energy per Si atom -5582.123695 kJ/mol
# Density = 1.723207 g / cm^3
# Si number density = 17.271377 Si / 1000 Ang^3
#
#
#
# Elastic Constant Matrix: (Units=GPa)
#
#
# Indices 1 2 3 4 5 6 
#
# 1 23.4899 27.2635 16.3522 0.0000 0.0000 0.0000
# 2 27.2635 133.9438 47.6587 0.0000 0.0000 0.0000
# 3 16.3522 47.6587 68.5260 0.0000 0.0000 0.0000
# 4 0.0000 0.0000 0.0000 22.5071 0.0000 0.0000
# 5 0.0000 0.0000 0.0000 0.0000 26.1473 0.0000
# 6 0.0000 0.0000 0.0000 0.0000 0.0000 16.2130
#
#
#
# Elastic Compliance Matrix: (Units=1/GPa)
#
#
# Indices 1 2 3 4 5 6 
#
# 1 0.058539 -0.009229 -0.007551 0.000000 0.000000 0.000000
# 2 -0.009229 0.011376 -0.005709 0.000000 0.000000 0.000000
# 3 -0.007551 -0.005709 0.020366 0.000000 0.000000 0.000000
# 4 0.000000 0.000000 0.000000 0.044430 0.000000 0.000000
# 5 0.000000 0.000000 0.000000 0.000000 0.038245 0.000000
# 6 0.000000 0.000000 0.000000 0.000000 0.000000 0.061679
#
#
# Mechanical properties :
#
#
# Convention : Reuss Voigt Hill
#
# Bulk Modulus (GPa) = 22.07367 45.38983 33.73175
# Shear Modulus (GPa) = 16.96567 21.95251 19.45909
#
# Velocity S-wave (km/s) = 3.13757 3.56902 3.36023
# Velocity P-wave (km/s) = 5.09254 6.58189 5.88453
#
# Compressibility (1/GPa) = 0.04530284
#
# Stress axis : x y z
#
# Youngs Moduli (GPa) = 17.08264 87.90654 49.10246
#
# Poissons Ratio (x) = 0.81126 0.37076
# Poissons Ratio (y) = 0.15765 0.28035
# Poissons Ratio (z) = 0.12899 0.50189
#
# Static dielectric constant tensor:
#      x y z
#    x 1.579120 0.000000 0.000000 
#    y 0.000000 1.582380 0.000000 
#    z 0.000000 0.000000 1.573190 
# 
# From -- ./inp_files/21123.got.cif
#   From: 2010.05.17/outbox.cif.g08.bks.cpg/sg59_11_cif.got.tgz:21123.got - 2010.06.03 14:40:33.
