data_PCOD9447297
_publ_section_title
;
Structure prediction by ZEFSAII (Michael W. Deem and Ramdas Pophale) SiO2 
 PCOD9447297
Probable space group: P M M N
;
_chemical_formula_sum "Si O2"
_cell_formula_units_Z 40
_cell_length_a 14.957891
_cell_length_b 14.230096
_cell_length_c 9.983174
_cell_angle_alpha 90.000000
_cell_angle_beta 90.000000
_cell_angle_gamma 90.000000
_cell_volume 2124.940797
_symmetry_space_group_name_H-M "P M M N"
_symmetry_group_IT_number 59
_space_group.IT_coordinate_system_code '2'
_symmetry_cell_setting 'orthorhombic'
loop_
_space_group_symop_operation_xyz
x,y,z
1/2-x,1/2-y,z
1/2+x,-y,-z
-x,1/2+y,-z
-x,-y,-z
1/2+x,1/2+y,-z
1/2-x,y,z
x,1/2-y,z
loop_
_atom_site_type_symbol
_atom_site_label
_atom_site_fract_x
_atom_site_fract_y
_atom_site_fract_z
Si Si1 0.589556 0.515890 0.196349
Si Si2 0.250000 0.357153 0.501763
Si Si3 0.416699 0.859404 0.269068
Si Si4 0.607045 0.012045 0.494755
Si Si5 0.250000 0.144392 0.826962
Si Si6 0.648018 0.142187 0.024959
O O1 0.503488 0.577827 0.232591
O O2 0.626541 0.473929 0.337419
O O3 0.662332 0.586773 0.135761
O O4 0.580782 0.429923 0.094863
O O5 0.250000 0.250000 0.450801
O O6 0.337131 0.419014 0.464831
O O7 0.250000 0.350819 0.664069
O O8 0.440622 0.750000 0.292497
O O9 0.372795 0.905242 0.400662
O O10 0.357650 0.864456 0.135546
O O11 0.500000 0.000000 0.500000
O O12 0.250000 0.250000 0.879089
O O13 0.750000 0.121042 0.067564
O O14 0.627428 0.250000 0.060446
#
# Coordination Sequence:
#
# PCOD9447297 Si02
#       6
#     8   4   8   8   4   8
#     4  10  18  35  56  81 107 141 183 231 271 324
#     4   9  18  34  56  79 112 154 187 225 282 339
#     4  10  21  36  55  80 112 145 181 221 278 337
#     4   9  20  34  56  87 114 143 188 234 282 337
#     4   9  16  28  52  81 106 134 177 229 274 315
#     4  10  21  36  53  76 107 147 185 222 272 326
#
# _framework density 18.824054
#
# number of rings (size 3 to 8) (size 9 to 14) (size 15 to 20)
#    0.000    2.400    1.000    1.200    1.400    5.600 
#    0.000    3.000    0.000    3.600    0.000    0.000 
#    0.000    0.000    0.000    0.000    0.000    0.000 
#
# Total GULP energy -222810.561984 kJ/mol
# GULP energy per Si atom -5570.264050 kJ/mol
# Density = 1.878121 g / cm^3
# Si number density = 18.824054 Si / 1000 Ang^3
#
#
#
# Elastic Constant Matrix: (Units=GPa)
#
#
# Indices 1 2 3 4 5 6 
#
# 1 69.5776 38.5599 -2.4345 0.0000 0.0000 0.0000
# 2 38.5599 147.7826 52.4552 0.0000 0.0000 0.0000
# 3 -2.4345 52.4552 59.8731 0.0000 0.0000 0.0000
# 4 0.0000 0.0000 0.0000 34.1216 0.0000 0.0000
# 5 0.0000 0.0000 0.0000 0.0000 16.9330 0.0000
# 6 0.0000 0.0000 0.0000 0.0000 0.0000 28.0252
#
#
#
# Elastic Compliance Matrix: (Units=1/GPa)
#
#
# Indices 1 2 3 4 5 6 
#
# 1 0.018791 -0.007510 0.007343 0.000000 0.000000 0.000000
# 2 -0.007510 0.012822 -0.011538 0.000000 0.000000 0.000000
# 3 0.007343 -0.011538 0.027110 0.000000 0.000000 0.000000
# 4 0.000000 0.000000 0.000000 0.029307 0.000000 0.000000
# 5 0.000000 0.000000 0.000000 0.000000 0.059056 0.000000
# 6 0.000000 0.000000 0.000000 0.000000 0.000000 0.035682
#
#
# Mechanical properties :
#
#
# Convention : Reuss Voigt Hill
#
# Bulk Modulus (GPa) = 28.31839 50.48827 39.40333
# Shear Modulus (GPa) = 22.94122 28.39280 25.66701
#
# Velocity S-wave (km/s) = 3.49480 3.88793 3.69660
# Velocity P-wave (km/s) = 5.60011 6.85814 6.26080
#
# Compressibility (1/GPa) = 0.03531274
#
# Stress axis : x y z
#
# Youngs Moduli (GPa) = 53.21654 77.99297 36.88742
#
# Poissons Ratio (x) = 0.58569 -0.27087
# Poissons Ratio (y) = 0.39963 0.42562
# Poissons Ratio (z) = -0.39078 0.89992
#
# Static dielectric constant tensor:
#      x y z
#    x 1.665260 0.000000 0.000000 
#    y 0.000000 1.650690 0.000000 
#    z 0.000000 0.000000 1.667560 
# 
# From -- ./inp_files/8636.got.cif
#   From: 2010.05.17/outbox.cif.g08.bks.cpg/sg59_5_cif.got.tgz:8636.got - 2010.06.03 14:40:33.
