data_PCOD9447162
_publ_section_title
;
Structure prediction by ZEFSAII (Michael W. Deem and Ramdas Pophale) SiO2 
 PCOD9447162
Probable space group: P M M N
;
_chemical_formula_sum "Si O2"
_cell_formula_units_Z 56
_cell_length_a 7.948515
_cell_length_b 15.986541
_cell_length_c 21.895522
_cell_angle_alpha 90.000000
_cell_angle_beta 90.000000
_cell_angle_gamma 90.000000
_cell_volume 2782.247798
_symmetry_space_group_name_H-M "P M M N"
_symmetry_group_IT_number 59
_space_group.IT_coordinate_system_code '2'
_symmetry_cell_setting 'orthorhombic'
loop_
_space_group_symop_operation_xyz
x,y,z
1/2-x,1/2-y,z
1/2+x,-y,-z
-x,1/2+y,-z
-x,-y,-z
1/2+x,1/2+y,-z
1/2-x,y,z
x,1/2-y,z
loop_
_atom_site_type_symbol
_atom_site_label
_atom_site_fract_x
_atom_site_fract_y
_atom_site_fract_z
Si Si1 0.447644 0.003442 0.791352
Si Si2 0.048330 0.341889 0.135573
Si Si3 0.452746 0.402968 0.004112
Si Si4 0.543859 0.842386 0.127859
Si Si5 0.546577 0.655140 0.433417
Si Si6 0.449318 0.502107 0.347702
Si Si7 0.544608 0.844607 0.574245
O O1 0.250000 0.003245 0.802870
O O2 0.512367 0.916061 0.817757
O O3 0.517957 0.082233 0.829515
O O4 0.478114 0.012034 0.719685
O O5 0.250000 0.337299 0.130748
O O6 0.985636 0.250000 0.154024
O O7 0.983207 0.365480 0.067871
O O8 0.250000 0.396420 0.004953
O O9 0.500000 0.500000 0.000000
O O10 0.509887 0.358449 0.942019
O O11 0.750000 0.843407 0.128471
O O12 0.491210 0.750000 0.148207
O O13 0.750000 0.653468 0.432147
O O14 0.494090 0.750000 0.416682
O O15 0.483030 0.583139 0.389132
O O16 0.493985 0.640140 0.503800
O O17 0.250000 0.491808 0.340941
O O18 0.515158 0.418954 0.382210
O O19 0.750000 0.845386 0.574843
O O20 0.492749 0.750000 0.591418
#
# Coordination Sequence:
#
# PCOD9447162 Si02
#       7
#     8   8   8   8   8   8   8
#     4  11  23  38  55  78 109 148 190 232 273 322
#     4  10  21  37  58  82 109 143 182 227 281 336
#     4  10  18  32  57  84 109 136 173 223 279 333
#     4   9  18  34  56  79 103 137 181 224 269 324
#     4   9  18  35  59  84 110 142 181 224 272 329
#     4  11  22  35  55  82 113 148 185 227 276 327
#     4   8  16  33  57  83 109 140 180 225 274 329
#
# _framework density 20.127611999999999
#
# number of rings (size 3 to 8) (size 9 to 14) (size 15 to 20)
#    0.000    2.286    1.429    2.571    0.000    3.429 
#    0.000    3.571    0.000    7.286    0.000    0.000 
#    0.000    0.000    0.000    0.000    0.000    0.000 
#
# Total GULP energy -312628.814436 kJ/mol
# GULP energy per Si atom -5582.657401 kJ/mol
# Density = 2.008180 g / cm^3
# Si number density = 20.127612 Si / 1000 Ang^3
#
#
#
# Elastic Constant Matrix: (Units=GPa)
#
#
# Indices 1 2 3 4 5 6 
#
# 1 13.8624 -2.1041 -9.5389 0.0000 0.0000 0.0000
# 2 -2.1041 132.6861 37.1161 0.0000 0.0000 0.0000
# 3 -9.5389 37.1161 57.5105 0.0000 0.0000 0.0000
# 4 0.0000 0.0000 0.0000 -0.5704 0.0000 0.0000
# 5 0.0000 0.0000 0.0000 0.0000 21.7051 0.0000
# 6 0.0000 0.0000 0.0000 0.0000 0.0000 23.3692
#
#
#
# Elastic Compliance Matrix: (Units=1/GPa)
#
#
# Indices 1 2 3 4 5 6 
#
# 1 0.082445 -0.003072 0.015658 0.000000 0.000000 0.000000
# 2 -0.003072 0.009311 -0.006519 0.000000 0.000000 0.000000
# 3 0.015658 -0.006519 0.024192 0.000000 0.000000 0.000000
# 4 0.000000 0.000000 0.000000 -1.753129 0.000000 0.000000
# 5 0.000000 0.000000 0.000000 0.000000 0.046072 0.000000
# 6 0.000000 0.000000 0.000000 0.000000 0.000000 0.042791
#
#
# Mechanical properties :
#
#
# Convention : Reuss Voigt Hill
#
# Bulk Modulus (GPa) = 7.80752 28.33388 18.07070
# Shear Modulus (GPa) = -3.29434 20.80651 8.75608
#
# Velocity S-wave (km/s) = -1.28073 3.21865 2.08800
# Velocity P-wave (km/s) = 1.30399 5.28400 3.84844
#
# Compressibility (1/GPa) = 0.12808159
#
# Stress axis : x y z
#
# Youngs Moduli (GPa) = 12.12924 107.39506 41.33524
#
# Poissons Ratio (x) = 0.32997 -0.64721
# Poissons Ratio (y) = 0.03727 0.26946
# Poissons Ratio (z) = -0.18992 0.70011
#
# Static dielectric constant tensor:
#      x y z
#    x 1.746570 0.000000 0.000000 
#    y 0.000000 1.717320 0.000000 
#    z 0.000000 0.000000 1.710800 
# 
# From -- ./inp_files/29009.got.cif
#   From: 2010.05.17/outbox.cif.g08.bks.cpg/sg59_15_cif.got.tgz:29009.got - 2010.06.03 14:40:33.
