data_PCOD9447037
_publ_section_title
;
Structure prediction by ZEFSAII (Michael W. Deem and Ramdas Pophale) SiO2 
 PCOD9447037
Probable space group: P M M N
;
_chemical_formula_sum "Si O2"
_cell_formula_units_Z 56
_cell_length_a 13.954346
_cell_length_b 20.518433
_cell_length_c 9.681566
_cell_angle_alpha 90.000000
_cell_angle_beta 90.000000
_cell_angle_gamma 90.000000
_cell_volume 2772.038693
_symmetry_space_group_name_H-M "P M M N"
_symmetry_group_IT_number 59
_space_group.IT_coordinate_system_code '2'
_symmetry_cell_setting 'orthorhombic'
loop_
_space_group_symop_operation_xyz
x,y,z
1/2-x,1/2-y,z
1/2+x,-y,-z
-x,1/2+y,-z
-x,-y,-z
1/2+x,1/2+y,-z
1/2-x,y,z
x,1/2-y,z
loop_
_atom_site_type_symbol
_atom_site_label
_atom_site_fract_x
_atom_site_fract_y
_atom_site_fract_z
Si Si1 0.515046 0.873151 0.163664
Si Si2 0.852017 0.530308 0.749610
Si Si3 0.993494 0.139109 0.303487
Si Si4 0.946014 0.435185 0.559854
Si Si5 0.136468 0.250000 0.939672
Si Si6 0.146017 0.011117 0.930992
Si Si7 0.860968 0.362003 0.066778
Si Si8 0.636697 0.750000 0.722771
O O1 0.499120 0.891451 0.323677
O O2 0.585399 0.813624 0.125270
O O3 0.563211 0.939334 0.106216
O O4 0.417608 0.858686 0.078094
O O5 0.750000 0.565037 0.724982
O O6 0.942551 0.577542 0.744640
O O7 0.862154 0.470545 0.644416
O O8 0.850529 0.504619 0.904535
O O9 0.077872 0.189406 0.337720
O O10 0.931442 0.112559 0.431205
O O11 0.927235 0.169512 0.184315
O O12 0.000000 0.500000 0.500000
O O13 0.250000 0.250000 0.910862
O O14 0.127076 0.250000 0.108013
O O15 0.250000 0.037721 0.884375
O O16 0.137182 0.937472 0.881346
O O17 0.750000 0.341621 0.057683
O O18 0.750000 0.750000 0.692975
#
# Coordination Sequence:
#
# PCOD9447037 Si02
#       8
#     8   8   8   8   4   8   8   4
#     4  12  21  40  61  89 132 165 211 267 312 376
#     4  10  18  33  59  89 120 157 203 256 312 372
#     4  11  22  40  57  90 126 165 205 251 314 373
#     4  10  23  37  58  87 126 170 203 246 317 380
#     4  11  24  41  67  99 124 164 213 260 313 371
#     4  10  18  31  59  92 118 154 201 261 321 363
#     4  11  22  36  61  91 119 159 211 266 322 369
#     4  11  22  41  69  95 122 164 215 258 309 379
#
# _framework density 20.201737000000001
#
# number of rings (size 3 to 8) (size 9 to 14) (size 15 to 20)
#    0.000    1.286    4.286    3.000    0.000    3.429 
#    0.000   10.714    0.000    0.000    0.000    3.000 
#    0.000    0.000    0.000    0.000    0.000    0.000 
#
# Total GULP energy -312109.917964 kJ/mol
# GULP energy per Si atom -5573.391392 kJ/mol
# Density = 2.015576 g / cm^3
# Si number density = 20.201737 Si / 1000 Ang^3
#
#
#
# Elastic Constant Matrix: (Units=GPa)
#
#
# Indices 1 2 3 4 5 6 
#
# 1 119.8410 12.1825 9.9625 0.0000 0.0000 0.0000
# 2 12.1825 55.6095 0.2086 0.0000 0.0000 0.0000
# 3 9.9625 0.2086 72.8981 0.0000 0.0000 0.0000
# 4 0.0000 0.0000 0.0000 14.7578 0.0000 0.0000
# 5 0.0000 0.0000 0.0000 0.0000 8.8045 0.0000
# 6 0.0000 0.0000 0.0000 0.0000 0.0000 21.6627
#
#
#
# Elastic Compliance Matrix: (Units=1/GPa)
#
#
# Indices 1 2 3 4 5 6 
#
# 1 0.008634 -0.001887 -0.001175 0.000000 0.000000 0.000000
# 2 -0.001887 0.018395 0.000205 0.000000 0.000000 0.000000
# 3 -0.001175 0.000205 0.013878 0.000000 0.000000 0.000000
# 4 0.000000 0.000000 0.000000 0.067761 0.000000 0.000000
# 5 0.000000 0.000000 0.000000 0.000000 0.113579 0.000000
# 6 0.000000 0.000000 0.000000 0.000000 0.000000 0.046162
#
#
# Mechanical properties :
#
#
# Convention : Reuss Voigt Hill
#
# Bulk Modulus (GPa) = 28.41385 32.56176 30.48780
# Shear Modulus (GPa) = 17.49154 24.11133 20.80143
#
# Velocity S-wave (km/s) = 2.94571 3.45849 3.21235
# Velocity P-wave (km/s) = 5.06609 5.66582 5.37433
#
# Compressibility (1/GPa) = 0.03519411
#
# Stress axis : x y z
#
# Youngs Moduli (GPa) = 115.82308 54.36210 72.05798
#
# Poissons Ratio (x) = 0.10258 0.08463
# Poissons Ratio (y) = 0.21856 -0.01479
# Poissons Ratio (z) = 0.13604 -0.01116
#
# Static dielectric constant tensor:
#      x y z
#    x 1.753230 0.000000 0.000000 
#    y 0.000000 1.807140 0.000000 
#    z 0.000000 0.000000 1.742740 
# 
# From -- ./inp_files/9398.got.cif
#   From: 2010.05.17/outbox.cif.g08.bks.cpg/sg59_5_cif.got.tgz:9398.got - 2010.06.03 14:40:33.
