data_PCOD9447828
_publ_section_title
;
Structure prediction by ZEFSAII (Michael W. Deem and Ramdas Pophale) SiO2 
 PCOD9447828
Probable space group: P M M N
;
_chemical_formula_sum "Si O2"
_cell_formula_units_Z 64
_cell_length_a 7.827762
_cell_length_b 25.206096
_cell_length_c 16.796050
_cell_angle_alpha 90.000000
_cell_angle_beta 90.000000
_cell_angle_gamma 90.000000
_cell_volume 3313.983619
_symmetry_space_group_name_H-M "P M M N"
_symmetry_group_IT_number 59
_space_group.IT_coordinate_system_code '2'
_symmetry_cell_setting 'orthorhombic'
loop_
_space_group_symop_operation_xyz
x,y,z
1/2-x,1/2-y,z
1/2+x,-y,-z
-x,1/2+y,-z
-x,-y,-z
1/2+x,1/2+y,-z
1/2-x,y,z
x,1/2-y,z
loop_
_atom_site_type_symbol
_atom_site_label
_atom_site_fract_x
_atom_site_fract_y
_atom_site_fract_z
Si Si1 0.544652 0.191051 0.289865
Si Si2 0.955790 0.441101 0.028438
Si Si3 0.456072 0.386799 0.611040
Si Si4 0.455419 0.604226 0.133956
Si Si5 0.456280 0.309778 0.474955
Si Si6 0.044917 0.190898 0.750500
Si Si7 0.452793 0.524908 0.273218
Si Si8 0.545530 0.085531 0.204921
O O1 0.750000 0.192029 0.280897
O O2 0.479935 0.250000 0.267194
O O3 0.506702 0.183585 0.383332
O O4 0.477945 0.140730 0.240625
O O5 0.750000 0.437008 0.032166
O O6 0.022432 0.427918 0.116437
O O7 0.018405 0.405175 0.955213
O O8 0.000000 0.500000 0.000000
O O9 0.250000 0.386601 0.609253
O O10 0.516222 0.358830 0.529667
O O11 0.518788 0.346536 0.679709
O O12 0.505151 0.444598 0.644588
O O13 0.250000 0.599193 0.133169
O O14 0.502150 0.661124 0.168443
O O15 0.521191 0.560621 0.198572
O O16 0.250000 0.309158 0.479751
O O17 0.513186 0.250000 0.500969
O O18 0.250000 0.193021 0.742382
O O19 0.976791 0.250000 0.745820
O O20 0.250000 0.524102 0.266176
O O21 0.513945 0.465008 0.261565
O O22 0.750000 0.091003 0.198361
#
# Coordination Sequence:
#
# PCOD9447828 Si02
#       8
#     8   8   8   8   8   8   8   8
#     4   9  19  36  55  75 100 129 164 208 253 297
#     4  10  19  32  51  75 100 126 164 206 246 294
#     4   9  17  30  49  73 102 133 167 205 246 294
#     4   9  18  31  45  68 100 128 159 201 246 289
#     4   9  17  31  53  78 101 129 169 213 253 296
#     4   9  17  29  46  68  96 132 168 198 235 288
#     4  10  19  31  48  73 105 134 163 203 249 296
#     4  10  20  34  54  76  99 130 168 205 249 304
#
# _framework density 19.312104999999999
#
# number of rings (size 3 to 8) (size 9 to 14) (size 15 to 20)
#    0.000    2.625    1.250    0.750    0.000    3.750 
#    0.000    1.250    0.000    4.500    0.000    1.750 
#    0.000    0.000    0.000    0.000    0.000    0.000 
#
# Total GULP energy -356698.220829 kJ/mol
# GULP energy per Si atom -5573.409700 kJ/mol
# Density = 1.926815 g / cm^3
# Si number density = 19.312105 Si / 1000 Ang^3
#
#
#
# Elastic Constant Matrix: (Units=GPa)
#
#
# Indices 1 2 3 4 5 6 
#
# 1 22.5932 4.2616 4.5512 0.0000 0.0000 0.0000
# 2 4.2616 137.4547 70.7754 0.0000 0.0000 0.0000
# 3 4.5512 70.7754 90.7316 0.0000 0.0000 0.0000
# 4 0.0000 0.0000 0.0000 25.7096 0.0000 0.0000
# 5 0.0000 0.0000 0.0000 0.0000 15.1456 0.0000
# 6 0.0000 0.0000 0.0000 0.0000 0.0000 14.2814
#
#
#
# Elastic Compliance Matrix: (Units=1/GPa)
#
#
# Indices 1 2 3 4 5 6 
#
# 1 0.044725 -0.000387 -0.001942 0.000000 0.000000 0.000000
# 2 -0.000387 0.012162 -0.009468 0.000000 0.000000 0.000000
# 3 -0.001942 -0.009468 0.018504 0.000000 0.000000 0.000000
# 4 0.000000 0.000000 0.000000 0.038896 0.000000 0.000000
# 5 0.000000 0.000000 0.000000 0.000000 0.066026 0.000000
# 6 0.000000 0.000000 0.000000 0.000000 0.000000 0.070021
#
#
# Mechanical properties :
#
#
# Convention : Reuss Voigt Hill
#
# Bulk Modulus (GPa) = 19.30541 45.55067 32.42804
# Shear Modulus (GPa) = 17.17076 22.44008 19.80542
#
# Velocity S-wave (km/s) = 2.98504 3.41247 3.20589
# Velocity P-wave (km/s) = 4.67962 6.25814 5.52554
#
# Compressibility (1/GPa) = 0.05179896
#
# Stress axis : x y z
#
# Youngs Moduli (GPa) = 22.35880 82.22352 54.04204
#
# Poissons Ratio (x) = 0.03181 0.10493
# Poissons Ratio (y) = 0.00865 0.51165
# Poissons Ratio (z) = 0.04341 0.77846
#
# Static dielectric constant tensor:
#      x y z
#    x 1.714910 0.000000 0.000000 
#    y 0.000000 1.692400 0.000000 
#    z 0.000000 0.000000 1.681960 
# 
# From -- ./inp_files/21503.got.cif
#   From: 2010.05.17/outbox.cif.g08.bks.cpg/sg59_11_cif.got.tgz:21503.got - 2010.06.03 14:40:33.
