data_PCOD9447356
_publ_section_title
;
Structure prediction by ZEFSAII (Michael W. Deem and Ramdas Pophale) SiO2 
 PCOD9447356
Probable space group: P M M N
;
_chemical_formula_sum "Si O2"
_cell_formula_units_Z 56
_cell_length_a 9.257891
_cell_length_b 14.008398
_cell_length_c 29.912886
_cell_angle_alpha 90.000000
_cell_angle_beta 90.000000
_cell_angle_gamma 90.000000
_cell_volume 3879.348993
_symmetry_space_group_name_H-M "P M M N"
_symmetry_group_IT_number 59
_space_group.IT_coordinate_system_code '2'
_symmetry_cell_setting 'orthorhombic'
loop_
_space_group_symop_operation_xyz
x,y,z
1/2-x,1/2-y,z
1/2+x,-y,-z
-x,1/2+y,-z
-x,-y,-z
1/2+x,1/2+y,-z
1/2-x,y,z
x,1/2-y,z
loop_
_atom_site_type_symbol
_atom_site_label
_atom_site_fract_x
_atom_site_fract_y
_atom_site_fract_z
Si Si1 0.916402 0.365889 0.752304
Si Si2 0.075827 0.637041 0.347809
Si Si3 0.576554 0.530968 0.068644
Si Si4 0.076746 0.359837 0.022654
Si Si5 0.078541 0.640938 0.515291
Si Si6 0.423591 0.138368 0.841659
Si Si7 0.422076 0.047541 0.568213
O O1 0.750000 0.395613 0.758042
O O2 0.917975 0.250000 0.751586
O O3 0.966130 0.393958 0.702566
O O4 0.009224 0.395587 0.794905
O O5 0.250000 0.628530 0.351216
O O6 0.041793 0.750000 0.353259
O O7 0.997707 0.577650 0.386025
O O8 0.750000 0.518623 0.069555
O O9 0.500688 0.431891 0.056404
O O10 0.530583 0.576929 0.115534
O O11 0.543723 0.602722 0.027501
O O12 0.250000 0.366076 0.028146
O O13 0.033150 0.250000 0.027904
O O14 0.250000 0.633852 0.504519
O O15 0.048240 0.750000 0.528349
O O16 0.048848 0.561735 0.553086
O O17 0.988349 0.611596 0.471645
O O18 0.250000 0.134789 0.838886
O O19 0.463773 0.250000 0.848383
O O20 0.250000 0.060979 0.570953
#
# Coordination Sequence:
#
# PCOD9447356 Si02
#       7
#     8   8   8   8   8   8   8
#     4   8  15  27  41  58  81 109 139 167 197 240
#     4   9  17  29  43  59  84 116 140 160 198 249
#     4   9  17  28  42  61  84 110 139 169 204 246
#     4   9  17  29  43  59  82 111 141 172 204 240
#     4   9  18  32  45  57  81 115 141 163 200 247
#     4   9  16  26  41  61  85 111 136 165 204 245
#     4  10  19  28  42  65  85 104 138 177 204 232
#
# _framework density 14.435411
#
# number of rings (size 3 to 8) (size 9 to 14) (size 15 to 20)
#    0.000    3.000    0.000    2.143    0.000    6.000 
#    0.000    1.429    0.000    2.571    0.000    1.000 
#    0.000    3.429    0.000    0.000    0.000    0.000 
#
# Total GULP energy -311868.617229 kJ/mol
# GULP energy per Si atom -5569.082451 kJ/mol
# Density = 1.440256 g / cm^3
# Si number density = 14.435411 Si / 1000 Ang^3
#
#
#
# Elastic Constant Matrix: (Units=GPa)
#
#
# Indices 1 2 3 4 5 6 
#
# 1 27.1266 37.6771 51.2281 0.0000 0.0000 0.0000
# 2 37.6771 97.7480 66.8749 0.0000 0.0000 0.0000
# 3 51.2281 66.8749 146.6490 0.0000 0.0000 0.0000
# 4 0.0000 0.0000 0.0000 22.2075 0.0000 0.0000
# 5 0.0000 0.0000 0.0000 0.0000 28.3141 0.0000
# 6 0.0000 0.0000 0.0000 0.0000 0.0000 20.6902
#
#
#
# Elastic Compliance Matrix: (Units=1/GPa)
#
#
# Indices 1 2 3 4 5 6 
#
# 1 0.161713 -0.034424 -0.040792 0.000000 0.000000 0.000000
# 2 -0.034424 0.022197 0.001903 0.000000 0.000000 0.000000
# 3 -0.040792 0.001903 0.020201 0.000000 0.000000 0.000000
# 4 0.000000 0.000000 0.000000 0.045030 0.000000 0.000000
# 5 0.000000 0.000000 0.000000 0.000000 0.035318 0.000000
# 6 0.000000 0.000000 0.000000 0.000000 0.000000 0.048332
#
#
# Mechanical properties :
#
#
# Convention : Reuss Voigt Hill
#
# Bulk Modulus (GPa) = 17.39612 64.78709 41.09161
# Shear Modulus (GPa) = 10.02847 21.95858 15.99352
#
# Velocity S-wave (km/s) = 2.63860 3.90444 3.33218
# Velocity P-wave (km/s) = 4.62170 8.08111 6.58272
#
# Compressibility (1/GPa) = 0.05748409
#
# Stress axis : x y z
#
# Youngs Moduli (GPa) = 6.18379 45.05012 49.50240
#
# Poissons Ratio (x) = 1.55082 2.01931
# Poissons Ratio (y) = 0.21287 -0.09419
# Poissons Ratio (z) = 0.25225 -0.08572
#
# Static dielectric constant tensor:
#      x y z
#    x 1.481210 0.000000 0.000000 
#    y 0.000000 1.462220 0.000000 
#    z 0.000000 0.000000 1.469680 
# 
# From -- ./inp_files/33167.got.cif
#   From: 2010.05.17/outbox.cif.g08.bks.cpg/sg59_17_cif.got.tgz:33167.got - 2010.06.03 14:40:33.
