data_PCOD9447003
_publ_section_title
;
Structure prediction by ZEFSAII (Michael W. Deem and Ramdas Pophale) SiO2 
 PCOD9447003
Probable space group: P M M N
;
_chemical_formula_sum "Si O2"
_cell_formula_units_Z 64
_cell_length_a 8.906675
_cell_length_b 19.878300
_cell_length_c 20.527609
_cell_angle_alpha 90.000000
_cell_angle_beta 90.000000
_cell_angle_gamma 90.000000
_cell_volume 3634.404093
_symmetry_space_group_name_H-M "P M M N"
_symmetry_group_IT_number 59
_space_group.IT_coordinate_system_code '2'
_symmetry_cell_setting 'orthorhombic'
loop_
_space_group_symop_operation_xyz
x,y,z
1/2-x,1/2-y,z
1/2+x,-y,-z
-x,1/2+y,-z
-x,-y,-z
1/2+x,1/2+y,-z
1/2-x,y,z
x,1/2-y,z
loop_
_atom_site_type_symbol
_atom_site_label
_atom_site_fract_x
_atom_site_fract_y
_atom_site_fract_z
Si Si1 0.572352 0.908124 0.465205
Si Si2 0.429141 0.553231 0.596202
Si Si3 0.429938 0.430667 0.903113
Si Si4 0.431835 0.171544 0.017213
Si Si5 0.576569 0.095830 0.769092
Si Si6 0.922009 0.170996 0.642763
Si Si7 0.423251 0.438138 0.265028
Si Si8 0.569463 0.416631 0.127749
O O1 0.750000 0.909744 0.476383
O O2 0.488479 0.905837 0.534044
O O3 0.520731 0.849045 0.418439
O O4 0.531412 0.976414 0.425183
O O5 0.250000 0.557597 0.601960
O O6 0.503474 0.573504 0.664459
O O7 0.250000 0.432406 0.905495
O O8 0.481356 0.381498 0.961058
O O9 0.483781 0.399788 0.834960
O O10 0.480099 0.509437 0.901012
O O11 0.250000 0.169162 0.020517
O O12 0.473530 0.250000 0.005635
O O13 0.500816 0.141662 0.083254
O O14 0.750000 0.115039 0.781738
O O15 0.517237 0.138973 0.709142
O O16 0.574560 0.018644 0.745921
O O17 0.750000 0.145130 0.633554
O O18 0.915478 0.250000 0.650291
O O19 0.250000 0.415738 0.264117
O O20 0.511372 0.410912 0.201970
O O21 0.750000 0.414885 0.126677
#
# Coordination Sequence:
#
# PCOD9447003 Si02
#       8
#     8   8   8   8   8   8   8   8
#     4  10  20  32  49  74 103 135 173 215 258 306
#     4  10  19  31  51  77 105 133 166 215 265 307
#     4   9  19  34  53  77 106 139 175 220 267 314
#     4  10  21  37  55  76 105 140 178 220 268 322
#     4   9  18  31  48  73 103 135 172 212 254 304
#     4  10  20  34  50  69 101 143 181 216 255 304
#     4  10  18  31  53  78 106 136 169 212 262 313
#     4  10  20  34  54  80 108 138 176 221 268 319
#
# _framework density 17.609490000000001
#
# number of rings (size 3 to 8) (size 9 to 14) (size 15 to 20)
#    0.000    2.250    1.250    1.875    0.000    4.000 
#    0.000    0.000    0.000    0.750    0.000    0.000 
#    0.000    0.000    0.000    0.000    0.000    0.000 
#
# Total GULP energy -356845.538596 kJ/mol
# GULP energy per Si atom -5575.711541 kJ/mol
# Density = 1.756941 g / cm^3
# Si number density = 17.609490 Si / 1000 Ang^3
#
#
#
# Elastic Constant Matrix: (Units=GPa)
#
#
# Indices 1 2 3 4 5 6 
#
# 1 23.5118 12.4925 21.0984 0.0000 0.0000 0.0000
# 2 12.4925 36.7459 30.3310 0.0000 0.0000 0.0000
# 3 21.0984 30.3310 110.7112 0.0000 0.0000 0.0000
# 4 0.0000 0.0000 0.0000 9.0330 0.0000 0.0000
# 5 0.0000 0.0000 0.0000 0.0000 33.9451 0.0000
# 6 0.0000 0.0000 0.0000 0.0000 0.0000 18.7009
#
#
#
# Elastic Compliance Matrix: (Units=1/GPa)
#
#
# Indices 1 2 3 4 5 6 
#
# 1 0.055845 -0.013182 -0.007031 0.000000 0.000000 0.000000
# 2 -0.013182 0.038278 -0.007975 0.000000 0.000000 0.000000
# 3 -0.007031 -0.007975 0.012557 0.000000 0.000000 0.000000
# 4 0.000000 0.000000 0.000000 0.110705 0.000000 0.000000
# 5 0.000000 0.000000 0.000000 0.000000 0.029459 0.000000
# 6 0.000000 0.000000 0.000000 0.000000 0.000000 0.053473
#
#
# Mechanical properties :
#
#
# Convention : Reuss Voigt Hill
#
# Bulk Modulus (GPa) = 19.87884 33.20139 26.54012
# Shear Modulus (GPa) = 13.38824 19.47227 16.43026
#
# Velocity S-wave (km/s) = 2.76032 3.32894 3.05787
# Velocity P-wave (km/s) = 4.63383 5.80267 5.25087
#
# Compressibility (1/GPa) = 0.05030473
#
# Stress axis : x y z
#
# Youngs Moduli (GPa) = 17.90664 26.12473 79.63550
#
# Poissons Ratio (x) = 0.34438 0.55992
# Poissons Ratio (y) = 0.23605 0.63507
# Poissons Ratio (z) = 0.12590 0.20834
#
# Static dielectric constant tensor:
#      x y z
#    x 1.610740 0.000000 0.000000 
#    y 0.000000 1.602620 0.000000 
#    z 0.000000 0.000000 1.588270 
# 
# From -- ./inp_files/26204.got.cif
#   From: 2010.05.17/outbox.cif.g08.bks.cpg/sg59_14_cif.got.tgz:26204.got - 2010.06.03 14:40:33.
