data_PCOD9447514
_publ_section_title
;
Structure prediction by ZEFSAII (Michael W. Deem and Ramdas Pophale) SiO2 
 PCOD9447514
Probable space group: P M M N
;
_chemical_formula_sum "Si O2"
_cell_formula_units_Z 64
_cell_length_a 9.111582
_cell_length_b 18.527649
_cell_length_c 22.266289
_cell_angle_alpha 90.000000
_cell_angle_beta 90.000000
_cell_angle_gamma 90.000000
_cell_volume 3758.910144
_symmetry_space_group_name_H-M "P M M N"
_symmetry_group_IT_number 59
_space_group.IT_coordinate_system_code '2'
_symmetry_cell_setting 'orthorhombic'
loop_
_space_group_symop_operation_xyz
x,y,z
1/2-x,1/2-y,z
1/2+x,-y,-z
-x,1/2+y,-z
-x,-y,-z
1/2+x,1/2+y,-z
1/2-x,y,z
x,1/2-y,z
loop_
_atom_site_type_symbol
_atom_site_label
_atom_site_fract_x
_atom_site_fract_y
_atom_site_fract_z
Si Si1 0.578068 0.662801 0.638885
Si Si2 0.925278 0.831252 0.871137
Si Si3 0.426031 0.963374 0.188473
Si Si4 0.425449 0.833328 0.272010
Si Si5 0.925447 0.397455 0.243164
Si Si6 0.581041 0.837976 0.395019
Si Si7 0.581062 0.162025 0.484034
Si Si8 0.074795 0.475559 0.060931
O O1 0.750000 0.644243 0.642188
O O2 0.566084 0.750000 0.643369
O O3 0.490095 0.628059 0.693577
O O4 0.509824 0.640816 0.574866
O O5 0.750000 0.838555 0.858930
O O6 0.952504 0.750000 0.892571
O O7 0.964808 0.894275 0.917914
O O8 0.011462 0.846299 0.809664
O O9 0.250000 0.976476 0.193992
O O10 0.458711 0.885823 0.216764
O O11 0.511660 0.024113 0.225660
O O12 0.463287 0.974595 0.118494
O O13 0.250000 0.835247 0.282322
O O14 0.466764 0.750000 0.260549
O O15 0.504817 0.859032 0.332692
O O16 0.750000 0.396646 0.243573
O O17 0.750000 0.860961 0.397178
O O18 0.578728 0.750000 0.395881
O O19 0.493890 0.862385 0.454067
O O20 0.750000 0.138830 0.480204
O O21 0.580544 0.250000 0.485194
O O22 0.250000 0.478073 0.053134
O O23 0.000000 0.500000 0.000000
#
# Coordination Sequence:
#
# PCOD9447514 Si02
#       8
#     8   8   8   8   8   8   8   8
#     4  10  19  30  45  66  95 131 167 203 248 299
#     4   9  18  34  54  74  99 133 172 210 248 293
#     4   9  19  36  54  72  98 132 166 198 240 296
#     4   9  17  31  53  77  97 121 159 206 249 289
#     4  11  21  31  47  72 100 129 164 206 249 294
#     4   9  16  26  42  66  96 127 158 196 246 300
#     4   9  16  26  41  63  92 125 164 208 247 286
#     4   9  18  33  53  76 102 134 168 200 239 289
#
# _framework density 17.026211
#
# number of rings (size 3 to 8) (size 9 to 14) (size 15 to 20)
#    0.000    2.625    0.000    3.375    0.000    8.000 
#    0.000    0.625    0.000    1.500    0.000    0.000 
#    0.000    0.000    0.000    0.000    0.000    0.000 
#
# Total GULP energy -356848.386276 kJ/mol
# GULP energy per Si atom -5575.756036 kJ/mol
# Density = 1.698746 g / cm^3
# Si number density = 17.026211 Si / 1000 Ang^3
#
#
#
# Elastic Constant Matrix: (Units=GPa)
#
#
# Indices 1 2 3 4 5 6 
#
# 1 82.5239 42.3458 70.8090 0.0000 0.0000 0.0000
# 2 42.3458 63.3604 72.2945 0.0000 0.0000 0.0000
# 3 70.8090 72.2945 160.6614 0.0000 0.0000 0.0000
# 4 0.0000 0.0000 0.0000 18.1043 0.0000 0.0000
# 5 0.0000 0.0000 0.0000 0.0000 33.6578 0.0000
# 6 0.0000 0.0000 0.0000 0.0000 0.0000 13.4750
#
#
#
# Elastic Compliance Matrix: (Units=1/GPa)
#
#
# Indices 1 2 3 4 5 6 
#
# 1 0.020942 -0.007121 -0.006025 0.000000 0.000000 0.000000
# 2 -0.007121 0.034858 -0.012547 0.000000 0.000000 0.000000
# 3 -0.006025 -0.012547 0.014526 0.000000 0.000000 0.000000
# 4 0.000000 0.000000 0.000000 0.055235 0.000000 0.000000
# 5 0.000000 0.000000 0.000000 0.000000 0.029711 0.000000
# 6 0.000000 0.000000 0.000000 0.000000 0.000000 0.074212
#
#
# Mechanical properties :
#
#
# Convention : Reuss Voigt Hill
#
# Bulk Modulus (GPa) = 52.80169 75.27159 64.03664
# Shear Modulus (GPa) = 17.41047 21.12051 19.26549
#
# Velocity S-wave (km/s) = 3.20123 3.52585 3.36746
# Velocity P-wave (km/s) = 6.68903 7.80261 7.26718
#
# Compressibility (1/GPa) = 0.01893879
#
# Stress axis : x y z
#
# Youngs Moduli (GPa) = 47.75130 28.68769 68.84307
#
# Poissons Ratio (x) = 0.20429 0.41481
# Poissons Ratio (y) = 0.34004 0.86377
# Poissons Ratio (z) = 0.28772 0.35994
#
# Static dielectric constant tensor:
#      x y z
#    x 1.567160 0.000000 0.000000 
#    y 0.000000 1.584710 0.000000 
#    z 0.000000 0.000000 1.548380 
# 
# From -- ./inp_files/29361.got.cif
#   From: 2010.05.17/outbox.cif.g08.bks.cpg/sg59_15_cif.got.tgz:29361.got - 2010.06.03 14:40:33.
