data_PCOD9447720
_publ_section_title
;
Structure prediction by ZEFSAII (Michael W. Deem and Ramdas Pophale) SiO2 
 PCOD9447720
Probable space group: P M M N
;
_chemical_formula_sum "Si O2"
_cell_formula_units_Z 60
_cell_length_a 7.316100
_cell_length_b 15.187998
_cell_length_c 24.532981
_cell_angle_alpha 90.000000
_cell_angle_beta 90.000000
_cell_angle_gamma 90.000000
_cell_volume 2726.029095
_symmetry_space_group_name_H-M "P M M N"
_symmetry_group_IT_number 59
_space_group.IT_coordinate_system_code '2'
_symmetry_cell_setting 'orthorhombic'
loop_
_space_group_symop_operation_xyz
x,y,z
1/2-x,1/2-y,z
1/2+x,-y,-z
-x,1/2+y,-z
-x,-y,-z
1/2+x,1/2+y,-z
1/2-x,y,z
x,1/2-y,z
loop_
_atom_site_type_symbol
_atom_site_label
_atom_site_fract_x
_atom_site_fract_y
_atom_site_fract_z
Si Si1 0.469447 0.501845 0.915440
Si Si2 0.499901 0.250000 0.501048
Si Si3 0.526749 0.499436 0.208863
Si Si4 0.527409 0.350034 0.291986
Si Si5 0.527604 0.902031 0.413120
Si Si6 0.527585 0.099089 0.414432
Si Si7 0.972580 0.850218 0.290953
Si Si8 0.533126 0.850878 0.002706
O O1 0.250000 0.494285 0.914077
O O2 0.535029 0.502027 0.853423
O O3 0.508497 0.592573 0.947449
O O4 0.538087 0.417881 0.950510
O O5 0.536926 0.326747 0.546762
O O6 0.462813 0.173241 0.455318
O O7 0.750000 0.499066 0.208076
O O8 0.468882 0.415646 0.244542
O O9 0.469681 0.585231 0.242839
O O10 0.750000 0.351219 0.292315
O O11 0.469202 0.250000 0.283446
O O12 0.472774 0.382255 0.352105
O O13 0.750000 0.896475 0.414798
O O14 0.472828 0.884580 0.350639
O O15 0.473251 0.000274 0.429532
O O16 0.750000 0.104833 0.416257
O O17 0.750000 0.850974 0.291265
O O18 0.031343 0.750000 0.283518
O O19 0.750000 0.843808 0.011475
O O20 0.462565 0.750000 0.001744
#
# Coordination Sequence:
#
# PCOD9447720 Si02
#       8
#     8   4   8   8   8   8   8   8
#     4   9  18  31  49  78 109 134 169 219 261 295
#     4  12  20  28  44  68  86 112 154 194 224 270
#     4   9  16  26  43  68  97 122 148 187 239 298
#     4   9  15  25  41  60  86 118 145 177 231 295
#     4  10  19  31  45  63  90 120 149 188 237 291
#     4  10  19  31  45  62  88 119 151 188 233 289
#     4   9  15  25  42  63  90 123 148 175 233 306
#     4   9  18  33  51  71 103 147 181 207 247 303
#
# _framework density 22.010034999999998
#
# number of rings (size 3 to 8) (size 9 to 14) (size 15 to 20)
#    0.000    2.533    2.667    0.800    0.000    1.333 
#    0.000    4.000    0.000    0.000    0.000    3.733 
#    0.000    0.000    0.000    0.000    0.000    0.000 
#
# Total GULP energy -334248.475128 kJ/mol
# GULP energy per Si atom -5570.807919 kJ/mol
# Density = 2.195994 g / cm^3
# Si number density = 22.010035 Si / 1000 Ang^3
#
#
#
# Elastic Constant Matrix: (Units=GPa)
#
#
# Indices 1 2 3 4 5 6 
#
# 1 86.6430 7.8411 2.2408 0.0000 0.0000 0.0000
# 2 7.8411 272.7550 127.4591 0.0000 0.0000 0.0000
# 3 2.2408 127.4591 206.5591 0.0000 0.0000 0.0000
# 4 0.0000 0.0000 0.0000 28.5330 0.0000 0.0000
# 5 0.0000 0.0000 0.0000 0.0000 28.6692 0.0000
# 6 0.0000 0.0000 0.0000 0.0000 0.0000 -7.9409
#
#
#
# Elastic Compliance Matrix: (Units=1/GPa)
#
#
# Indices 1 2 3 4 5 6 
#
# 1 0.011574 -0.000385 0.000112 0.000000 0.000000 0.000000
# 2 -0.000385 0.005165 -0.003183 0.000000 0.000000 0.000000
# 3 0.000112 -0.003183 0.006804 0.000000 0.000000 0.000000
# 4 0.000000 0.000000 0.000000 0.035047 0.000000 0.000000
# 5 0.000000 0.000000 0.000000 0.000000 0.034881 0.000000
# 6 0.000000 0.000000 0.000000 0.000000 0.000000 -0.125930
#
#
# Mechanical properties :
#
#
# Convention : Reuss Voigt Hill
#
# Bulk Modulus (GPa) = 60.12979 93.44879 76.78929
# Shear Modulus (GPa) = -249.93655 38.41332 -105.76162
#
# Velocity S-wave (km/s) = -10.66781 4.18217 -6.93944
# Velocity P-wave (km/s) = 11.15158 8.11605 5.40775
#
# Compressibility (1/GPa) = 0.01663069
#
# Stress axis : x y z
#
# Youngs Moduli (GPa) = 86.40378 193.62363 146.97367
#
# Poissons Ratio (x) = 0.07456 -0.01647
# Poissons Ratio (y) = 0.03327 0.46778
# Poissons Ratio (z) = -0.00968 0.61625
#
# Static dielectric constant tensor:
#      x y z
#    x 1.922730 0.000000 0.000000 
#    y 0.000000 1.747670 0.000000 
#    z 0.000000 0.000000 1.745540 
# 
# From -- ./inp_files/30147.got.cif
#   From: 2010.05.17/outbox.cif.g08.bks.cpg/sg59_16_cif.got.tgz:30147.got - 2010.06.03 14:40:33.
