data_PCOD9447616
_publ_section_title
;
Structure prediction by ZEFSAII (Michael W. Deem and Ramdas Pophale) SiO2 
 PCOD9447616
Probable space group: P M M N
;
_chemical_formula_sum "Si O2"
_cell_formula_units_Z 64
_cell_length_a 19.412490
_cell_length_b 8.922508
_cell_length_c 21.884805
_cell_angle_alpha 90.000000
_cell_angle_beta 90.000000
_cell_angle_gamma 90.000000
_cell_volume 3790.625434
_symmetry_space_group_name_H-M "P M M N"
_symmetry_group_IT_number 59
_space_group.IT_coordinate_system_code '2'
_symmetry_cell_setting 'orthorhombic'
loop_
_space_group_symop_operation_xyz
x,y,z
1/2-x,1/2-y,z
1/2+x,-y,-z
-x,1/2+y,-z
-x,-y,-z
1/2+x,1/2+y,-z
1/2-x,y,z
x,1/2-y,z
loop_
_atom_site_type_symbol
_atom_site_label
_atom_site_fract_x
_atom_site_fract_y
_atom_site_fract_z
Si Si1 0.364076 0.420248 0.266974
Si Si2 0.468611 0.928407 0.439269
Si Si3 0.913608 0.428856 0.849092
Si Si4 0.174434 0.068937 0.399562
Si Si5 0.168866 0.071519 0.899828
Si Si6 0.058899 0.569520 0.810382
Si Si7 0.830508 0.429723 0.969705
Si Si8 0.980055 0.421074 0.319577
O O1 0.342893 0.250000 0.252047
O O2 0.364754 0.520398 0.206957
O O3 0.325455 0.472820 0.327608
O O4 0.443127 0.415374 0.290688
O O5 0.467997 0.750000 0.443054
O O6 0.500000 0.000000 0.500000
O O7 0.390982 0.990236 0.429582
O O8 0.512751 0.980812 0.380086
O O9 0.921900 0.250000 0.847819
O O10 0.878632 0.472627 0.913008
O O11 0.987663 0.504835 0.837944
O O12 0.250000 0.034622 0.425716
O O13 0.164277 0.250000 0.401612
O O14 0.250000 0.039068 0.890256
O O15 0.158881 0.250000 0.897147
O O16 0.121536 0.991448 0.850115
O O17 0.150924 0.011496 0.967419
O O18 0.055629 0.750000 0.811773
O O19 0.064005 0.524925 0.738551
O O20 0.750000 0.462593 0.956049
O O21 0.836178 0.250000 0.978452
O O22 0.960916 0.250000 0.335981
#
# Coordination Sequence:
#
# PCOD9447616 Si02
#       8
#     8   8   8   8   8   8   8   8
#     4   8  15  28  45  67  97 131 163 196 239 292
#     4  11  21  33  53  79 107 140 175 210 250 296
#     4  10  19  30  47  72 101 132 167 209 251 291
#     4   9  18  33  51  72 102 138 174 212 252 295
#     4  10  21  36  54  75  96 121 160 210 259 308
#     4  10  20  34  54  76 100 131 162 200 250 301
#     4   9  19  35  50  65  92 131 170 207 252 305
#     4   8  16  32  51  73 100 127 160 199 238 286
#
# _framework density 16.883756000000002
#
# number of rings (size 3 to 8) (size 9 to 14) (size 15 to 20)
#    0.000    2.625    0.000    3.750    0.000    8.000 
#    0.000    0.000    0.000    0.750    0.000    3.500 
#    0.000    0.000    0.000    0.000    0.000    0.000 
#
# Total GULP energy -356705.852589 kJ/mol
# GULP energy per Si atom -5573.528947 kJ/mol
# Density = 1.684533 g / cm^3
# Si number density = 16.883756 Si / 1000 Ang^3
#
#
#
# Elastic Constant Matrix: (Units=GPa)
#
#
# Indices 1 2 3 4 5 6 
#
# 1 72.1032 47.7808 73.5457 0.0000 0.0000 0.0000
# 2 47.7808 75.0158 71.9088 0.0000 0.0000 0.0000
# 3 73.5457 71.9088 146.1299 0.0000 0.0000 0.0000
# 4 0.0000 0.0000 0.0000 30.9693 0.0000 0.0000
# 5 0.0000 0.0000 0.0000 0.0000 18.0207 0.0000
# 6 0.0000 0.0000 0.0000 0.0000 0.0000 18.7873
#
#
#
# Elastic Compliance Matrix: (Units=1/GPa)
#
#
# Indices 1 2 3 4 5 6 
#
# 1 0.031547 -0.009226 -0.011337 0.000000 0.000000 0.000000
# 2 -0.009226 0.027931 -0.009101 0.000000 0.000000 0.000000
# 3 -0.011337 -0.009101 0.017028 0.000000 0.000000 0.000000
# 4 0.000000 0.000000 0.000000 0.032290 0.000000 0.000000
# 5 0.000000 0.000000 0.000000 0.000000 0.055492 0.000000
# 6 0.000000 0.000000 0.000000 0.000000 0.000000 0.053227
#
#
# Mechanical properties :
#
#
# Convention : Reuss Voigt Hill
#
# Bulk Modulus (GPa) = 58.21743 75.52440 66.87092
# Shear Modulus (GPa) = 17.69473 20.22301 18.95887
#
# Velocity S-wave (km/s) = 3.24085 3.46465 3.35461
# Velocity P-wave (km/s) = 6.96852 7.79963 7.39576
#
# Compressibility (1/GPa) = 0.01717698
#
# Stress axis : x y z
#
# Youngs Moduli (GPa) = 31.69895 35.80213 58.72723
#
# Poissons Ratio (x) = 0.33030 0.66581
# Poissons Ratio (y) = 0.29245 0.53450
# Poissons Ratio (z) = 0.35938 0.32585
#
# Static dielectric constant tensor:
#      x y z
#    x 1.583030 0.000000 0.000000 
#    y 0.000000 1.562390 0.000000 
#    z 0.000000 0.000000 1.568570 
# 
# From -- ./inp_files/30928.got.cif
#   From: 2010.05.17/outbox.cif.g08.bks.cpg/sg59_16_cif.got.tgz:30928.got - 2010.06.03 14:40:33.
