data_PCOD9447996
_publ_section_title
;
Structure prediction by ZEFSAII (Michael W. Deem and Ramdas Pophale) SiO2 
 PCOD9447996
Probable space group: P M M N
;
_chemical_formula_sum "Si O2"
_cell_formula_units_Z 64
_cell_length_a 20.035366
_cell_length_b 10.657947
_cell_length_c 17.610245
_cell_angle_alpha 90.000000
_cell_angle_beta 90.000000
_cell_angle_gamma 90.000000
_cell_volume 3760.418969
_symmetry_space_group_name_H-M "P M M N"
_symmetry_group_IT_number 59
_space_group.IT_coordinate_system_code '2'
_symmetry_cell_setting 'orthorhombic'
loop_
_space_group_symop_operation_xyz
x,y,z
1/2-x,1/2-y,z
1/2+x,-y,-z
-x,1/2+y,-z
-x,-y,-z
1/2+x,1/2+y,-z
1/2-x,y,z
x,1/2-y,z
loop_
_atom_site_type_symbol
_atom_site_label
_atom_site_fract_x
_atom_site_fract_y
_atom_site_fract_z
Si Si1 0.674356 0.889650 0.544113
Si Si2 0.171865 0.102690 0.893524
Si Si3 0.373104 0.111625 0.289947
Si Si4 0.905254 0.105064 0.821265
Si Si5 0.442613 0.397142 0.771555
Si Si6 0.328154 0.893812 0.022289
Si Si7 0.578612 0.114228 0.514778
Si Si8 0.005855 0.529782 0.631004
O O1 0.750000 0.897392 0.517349
O O2 0.647570 0.750000 0.526655
O O3 0.672481 0.901995 0.635665
O O4 0.629713 0.999712 0.512036
O O5 0.250000 0.090688 0.870507
O O6 0.162088 0.250000 0.916218
O O7 0.119163 0.075434 0.826791
O O8 0.160310 0.002389 0.960571
O O9 0.362171 0.250000 0.256021
O O10 0.447400 0.103221 0.325757
O O11 0.369358 0.996637 0.232188
O O12 0.892689 0.250000 0.797588
O O13 0.876734 0.091016 0.905887
O O14 0.985187 0.084127 0.812830
O O15 0.439065 0.250000 0.751751
O O16 0.444854 0.478028 0.694921
O O17 0.250000 0.903296 0.046203
O O18 0.337164 0.750000 0.992947
O O19 0.610215 0.250000 0.524788
O O20 0.538023 0.108096 0.436580
O O21 0.530428 0.084401 0.586036
#
# Coordination Sequence:
#
# PCOD9447996 Si02
#       8
#     8   8   8   8   8   8   8   8
#     4   9  19  34  48  65  94 130 162 194 239 292
#     4   9  18  33  52  72  93 121 160 201 237 277
#     4   9  17  30  48  69  95 125 156 192 234 283
#     4   9  18  31  47  70  98 126 157 193 235 283
#     4   9  17  31  50  71  97 126 157 196 239 283
#     4   9  18  33  50  68  95 129 160 191 233 286
#     4  10  19  31  51  75  96 123 162 203 239 283
#     4   9  18  31  49  71  99 126 154 192 244 294
#
# _framework density 17.019380000000002
#
# number of rings (size 3 to 8) (size 9 to 14) (size 15 to 20)
#    0.000    2.875    0.000    0.750    0.000    8.250 
#    0.000    3.750    0.000    1.500    0.000    0.000 
#    0.000    0.000    0.000    0.000    0.000    0.000 
#
# Total GULP energy -356356.184500 kJ/mol
# GULP energy per Si atom -5568.065383 kJ/mol
# Density = 1.698064 g / cm^3
# Si number density = 17.019380 Si / 1000 Ang^3
#
#
#
# Elastic Constant Matrix: (Units=GPa)
#
#
# Indices 1 2 3 4 5 6 
#
# 1 30.5791 31.5603 14.7454 0.0000 0.0000 0.0000
# 2 31.5603 104.1278 38.2444 0.0000 0.0000 0.0000
# 3 14.7454 38.2444 52.3742 0.0000 0.0000 0.0000
# 4 0.0000 0.0000 0.0000 -2.6598 0.0000 0.0000
# 5 0.0000 0.0000 0.0000 0.0000 15.9951 0.0000
# 6 0.0000 0.0000 0.0000 0.0000 0.0000 15.4992
#
#
#
# Elastic Compliance Matrix: (Units=1/GPa)
#
#
# Indices 1 2 3 4 5 6 
#
# 1 0.048184 -0.013148 -0.003965 0.000000 0.000000 0.000000
# 2 -0.013148 0.016711 -0.008501 0.000000 0.000000 0.000000
# 3 -0.003965 -0.008501 0.026417 0.000000 0.000000 0.000000
# 4 0.000000 0.000000 0.000000 -0.375964 0.000000 0.000000
# 5 0.000000 0.000000 0.000000 0.000000 0.062519 0.000000
# 6 0.000000 0.000000 0.000000 0.000000 0.000000 0.064520
#
#
# Mechanical properties :
#
#
# Convention : Reuss Voigt Hill
#
# Bulk Modulus (GPa) = 24.94728 39.57569 32.26148
# Shear Modulus (GPa) = -53.74865 12.60230 -20.57317
#
# Velocity S-wave (km/s) = -5.62578 2.72411 -3.48056
# Velocity P-wave (km/s) = 5.24492 5.76178 1.68655
#
# Compressibility (1/GPa) = 0.04008454
#
# Stress axis : x y z
#
# Youngs Moduli (GPa) = 20.75389 59.84145 37.85432
#
# Poissons Ratio (x) = 0.78679 0.15008
# Poissons Ratio (y) = 0.27287 0.32179
# Poissons Ratio (z) = 0.08228 0.50870
#
# Static dielectric constant tensor:
#      x y z
#    x 1.588150 0.000000 0.000000 
#    y 0.000000 1.596120 0.000000 
#    z 0.000000 0.000000 1.549450 
# 
# From -- ./inp_files/27964.got.cif
#   From: 2010.05.17/outbox.cif.g08.bks.cpg/sg59_14_cif.got.tgz:27964.got - 2010.06.03 14:40:33.
