data_PCOD9447387
_publ_section_title
;
Structure prediction by ZEFSAII (Michael W. Deem and Ramdas Pophale) SiO2 
 PCOD9447387
Probable space group: P M M N
;
_chemical_formula_sum "Si O2"
_cell_formula_units_Z 56
_cell_length_a 18.920707
_cell_length_b 8.780110
_cell_length_c 19.739093
_cell_angle_alpha 90.000000
_cell_angle_beta 90.000000
_cell_angle_gamma 90.000000
_cell_volume 3279.174368
_symmetry_space_group_name_H-M "P M M N"
_symmetry_group_IT_number 59
_space_group.IT_coordinate_system_code '2'
_symmetry_cell_setting 'orthorhombic'
loop_
_space_group_symop_operation_xyz
x,y,z
1/2-x,1/2-y,z
1/2+x,-y,-z
-x,1/2+y,-z
-x,-y,-z
1/2+x,1/2+y,-z
1/2-x,y,z
x,1/2-y,z
loop_
_atom_site_type_symbol
_atom_site_label
_atom_site_fract_x
_atom_site_fract_y
_atom_site_fract_z
Si Si1 0.398504 0.066459 0.280604
Si Si2 0.828746 0.935228 0.860375
Si Si3 0.026660 0.065544 0.070432
Si Si4 0.668804 0.066105 0.301125
Si Si5 0.956830 0.065025 0.209207
Si Si6 0.832858 0.431723 0.585115
Si Si7 0.835892 0.574062 0.443520
O O1 0.395437 0.250000 0.286733
O O2 0.348804 0.022507 0.216871
O O3 0.477503 0.023389 0.257530
O O4 0.374346 0.993649 0.350343
O O5 0.750000 0.988427 0.878276
O O6 0.828502 0.750000 0.861782
O O7 0.893570 0.982569 0.908560
O O8 0.025965 0.250000 0.067643
O O9 0.976648 0.016631 0.133257
O O10 0.000000 0.000000 0.000000
O O11 0.750000 0.015599 0.291197
O O12 0.668735 0.250000 0.302149
O O13 0.616161 0.012855 0.242231
O O14 0.642712 0.009013 0.374387
O O15 0.955476 0.250000 0.207586
O O16 0.750000 0.476268 0.592722
O O17 0.836271 0.250000 0.582499
O O18 0.859430 0.498037 0.513593
O O19 0.750000 0.566007 0.444245
O O20 0.856786 0.750000 0.441597
#
# Coordination Sequence:
#
# PCOD9447387 Si02
#       7
#     8   8   8   8   8   8   8
#     4   9  16  28  47  67  88 117 153 190 225 265
#     4   8  14  26  46  69  90 118 157 192 221 261
#     4   9  17  31  50  70  95 125 153 183 222 270
#     4   9  16  29  50  70  88 115 151 190 232 275
#     4   8  16  31  49  69  92 118 149 184 224 273
#     4  10  19  29  42  64  94 123 151 186 228 273
#     4   9  17  29  45  65  89 118 154 194 231 267
#
# _framework density 17.077469000000001
#
# number of rings (size 3 to 8) (size 9 to 14) (size 15 to 20)
#    0.000    3.143    0.000    3.000    0.000    3.143 
#    0.000    5.714    0.000    2.143    0.000    0.000 
#    0.000    0.000    0.000    0.000    0.000    0.000 
#
# Total GULP energy -311902.566459 kJ/mol
# GULP energy per Si atom -5569.688687 kJ/mol
# Density = 1.703860 g / cm^3
# Si number density = 17.077469 Si / 1000 Ang^3
#
#
#
# Elastic Constant Matrix: (Units=GPa)
#
#
# Indices 1 2 3 4 5 6 
#
# 1 97.3188 20.1343 91.7850 0.0000 0.0000 0.0000
# 2 20.1343 13.0674 26.8823 0.0000 0.0000 0.0000
# 3 91.7850 26.8823 158.1746 0.0000 0.0000 0.0000
# 4 0.0000 0.0000 0.0000 28.7011 0.0000 0.0000
# 5 0.0000 0.0000 0.0000 0.0000 22.9652 0.0000
# 6 0.0000 0.0000 0.0000 0.0000 0.0000 12.1930
#
#
#
# Elastic Compliance Matrix: (Units=1/GPa)
#
#
# Indices 1 2 3 4 5 6 
#
# 1 0.024017 -0.012816 -0.011758 0.000000 0.000000 0.000000
# 2 -0.012816 0.124504 -0.013723 0.000000 0.000000 0.000000
# 3 -0.011758 -0.013723 0.015477 0.000000 0.000000 0.000000
# 4 0.000000 0.000000 0.000000 0.034842 0.000000 0.000000
# 5 0.000000 0.000000 0.000000 0.000000 0.043544 0.000000
# 6 0.000000 0.000000 0.000000 0.000000 0.000000 0.082015
#
#
# Mechanical properties :
#
#
# Convention : Reuss Voigt Hill
#
# Bulk Modulus (GPa) = 11.44112 60.68487 36.06300
# Shear Modulus (GPa) = 11.62445 21.42246 16.52346
#
# Velocity S-wave (km/s) = 2.61183 3.54563 3.11394
# Velocity P-wave (km/s) = 3.97613 7.23700 5.83883
#
# Compressibility (1/GPa) = 0.08740401
#
# Stress axis : x y z
#
# Youngs Moduli (GPa) = 41.63801 8.03184 64.61037
#
# Poissons Ratio (x) = 0.10294 0.75970
# Poissons Ratio (y) = 0.53363 0.88666
# Poissons Ratio (z) = 0.48958 0.11022
#
# Static dielectric constant tensor:
#      x y z
#    x 1.596980 0.000000 0.000000 
#    y 0.000000 1.575480 0.000000 
#    z 0.000000 0.000000 1.554540 
# 
# From -- ./inp_files/30625.got.cif
#   From: 2010.05.17/outbox.cif.g08.bks.cpg/sg59_16_cif.got.tgz:30625.got - 2010.06.03 14:40:33.
