data_PCOD9447999
_publ_section_title
;
Structure prediction by ZEFSAII (Michael W. Deem and Ramdas Pophale) SiO2 
 PCOD9447999
Probable space group: P M M N
;
_chemical_formula_sum "Si O2"
_cell_formula_units_Z 64
_cell_length_a 18.826128
_cell_length_b 13.394825
_cell_length_c 14.607572
_cell_angle_alpha 90.000000
_cell_angle_beta 90.000000
_cell_angle_gamma 90.000000
_cell_volume 3683.630725
_symmetry_space_group_name_H-M "P M M N"
_symmetry_group_IT_number 59
_space_group.IT_coordinate_system_code '2'
_symmetry_cell_setting 'orthorhombic'
loop_
_space_group_symop_operation_xyz
x,y,z
1/2-x,1/2-y,z
1/2+x,-y,-z
-x,1/2+y,-z
-x,-y,-z
1/2+x,1/2+y,-z
1/2-x,y,z
x,1/2-y,z
loop_
_atom_site_type_symbol
_atom_site_label
_atom_site_fract_x
_atom_site_fract_y
_atom_site_fract_z
Si Si1 0.460685 0.366164 0.521898
Si Si2 0.103141 0.569596 0.951690
Si Si3 0.671448 0.629859 0.600328
Si Si4 0.440018 0.136458 0.029522
Si Si5 0.666598 0.133413 0.857725
Si Si6 0.406471 0.053991 0.224540
Si Si7 0.460138 0.547709 0.646040
Si Si8 0.333552 0.869351 0.756495
O O1 0.457687 0.250000 0.543985
O O2 0.387581 0.400621 0.472995
O O3 0.470588 0.435737 0.609068
O O4 0.518557 0.385994 0.442341
O O5 0.139030 0.597750 0.856550
O O6 0.024664 0.617620 0.961417
O O7 0.090935 0.450604 0.964781
O O8 0.149716 0.609978 0.036091
O O9 0.750000 0.594434 0.577125
O O10 0.670632 0.750000 0.601422
O O11 0.648219 0.593714 0.700182
O O12 0.426659 0.250000 0.000603
O O13 0.407965 0.115519 0.130368
O O14 0.750000 0.113179 0.839370
O O15 0.652748 0.250000 0.839391
O O16 0.616239 0.058325 0.801687
O O17 0.483081 0.063874 0.272768
O O18 0.383120 0.574773 0.683411
O O19 0.250000 0.890582 0.746613
O O20 0.344182 0.750000 0.747679
#
# Coordination Sequence:
#
# PCOD9447999 Si02
#       8
#     8   8   8   8   8   8   8   8
#     4   9  19  35  55  76 102 136 168 209 266 322
#     4  10  20  33  51  77 104 139 180 217 257 308
#     4   9  17  30  50  75  99 126 163 204 251 310
#     4  10  19  32  52  77 106 137 173 219 265 304
#     4  10  20  33  49  72 105 141 177 216 258 309
#     4  10  19  31  51  76 103 134 170 215 262 303
#     4  10  20  35  54  80 105 132 175 223 265 316
#     4  11  22  36  57  81 107 141 180 224 269 314
#
# _framework density 17.374161999999998
#
# number of rings (size 3 to 8) (size 9 to 14) (size 15 to 20)
#    0.000    2.125    1.250    2.625    0.000    3.000 
#    0.000    0.625    0.000    8.250    0.000   12.250 
#    0.000    0.000    0.000    0.000    0.000    0.000 
#
# Total GULP energy -357016.698393 kJ/mol
# GULP energy per Si atom -5578.385912 kJ/mol
# Density = 1.733462 g / cm^3
# Si number density = 17.374162 Si / 1000 Ang^3
#
#
#
# Elastic Constant Matrix: (Units=GPa)
#
#
# Indices 1 2 3 4 5 6 
#
# 1 59.2136 8.6620 7.5867 0.0000 0.0000 0.0000
# 2 8.6620 70.7857 -0.2663 0.0000 0.0000 0.0000
# 3 7.5867 -0.2663 36.7999 0.0000 0.0000 0.0000
# 4 0.0000 0.0000 0.0000 11.0350 0.0000 0.0000
# 5 0.0000 0.0000 0.0000 0.0000 5.3960 0.0000
# 6 0.0000 0.0000 0.0000 0.0000 0.0000 23.3098
#
#
#
# Elastic Compliance Matrix: (Units=1/GPa)
#
#
# Indices 1 2 3 4 5 6 
#
# 1 0.017675 -0.002177 -0.003660 0.000000 0.000000 0.000000
# 2 -0.002177 0.014396 0.000553 0.000000 0.000000 0.000000
# 3 -0.003660 0.000553 0.027932 0.000000 0.000000 0.000000
# 4 0.000000 0.000000 0.000000 0.090621 0.000000 0.000000
# 5 0.000000 0.000000 0.000000 0.000000 0.185323 0.000000
# 6 0.000000 0.000000 0.000000 0.000000 0.000000 0.042900
#
#
# Mechanical properties :
#
#
# Convention : Reuss Voigt Hill
#
# Bulk Modulus (GPa) = 20.22799 22.08488 21.15644
# Shear Modulus (GPa) = 12.31851 18.00262 15.16056
#
# Velocity S-wave (km/s) = 2.66562 3.22245 2.95717
# Velocity P-wave (km/s) = 4.59803 5.15602 4.88500
#
# Compressibility (1/GPa) = 0.04943645
#
# Stress axis : x y z
#
# Youngs Moduli (GPa) = 56.57609 69.46569 35.80062
#
# Poissons Ratio (x) = 0.15120 0.13102
# Poissons Ratio (y) = 0.12315 -0.01979
# Poissons Ratio (z) = 0.20705 -0.03841
#
# Static dielectric constant tensor:
#      x y z
#    x 1.602370 0.000000 0.000000 
#    y 0.000000 1.586640 0.000000 
#    z 0.000000 0.000000 1.571310 
# 
# From -- ./inp_files/23959.got.cif
#   From: 2010.05.17/outbox.cif.g08.bks.cpg/sg59_12_cif.got.tgz:23959.got - 2010.06.03 14:40:33.
