data_PCOD9447213
_publ_section_title
;
Structure prediction by ZEFSAII (Michael W. Deem and Ramdas Pophale) SiO2 
 PCOD9447213
Probable space group: P M M N
;
_chemical_formula_sum "Si O2"
_cell_formula_units_Z 48
_cell_length_a 8.466476
_cell_length_b 16.522746
_cell_length_c 14.123524
_cell_angle_alpha 90.000000
_cell_angle_beta 90.000000
_cell_angle_gamma 90.000000
_cell_volume 1975.731757
_symmetry_space_group_name_H-M "P M M N"
_symmetry_group_IT_number 59
_space_group.IT_coordinate_system_code '2'
_symmetry_cell_setting 'orthorhombic'
loop_
_space_group_symop_operation_xyz
x,y,z
1/2-x,1/2-y,z
1/2+x,-y,-z
-x,1/2+y,-z
-x,-y,-z
1/2+x,1/2+y,-z
1/2-x,y,z
x,1/2-y,z
loop_
_atom_site_type_symbol
_atom_site_label
_atom_site_fract_x
_atom_site_fract_y
_atom_site_fract_z
Si Si1 0.562558 0.841474 0.909103
Si Si2 0.081818 0.874398 0.663338
Si Si3 0.750000 0.846293 0.425814
Si Si4 0.571906 0.501028 0.194408
Si Si5 0.066960 0.582850 0.454153
Si Si6 0.750000 0.661536 0.635801
Si Si7 0.064336 0.838900 0.120250
O O1 0.750000 0.846083 0.894098
O O2 0.507316 0.750000 0.880063
O O3 0.482159 0.920978 0.863537
O O4 0.527543 0.846066 0.021240
O O5 0.250000 0.843092 0.700790
O O6 0.075329 0.966952 0.698600
O O7 0.083486 0.863239 0.550764
O O8 0.909715 0.845561 0.693691
O O9 0.750000 0.750000 0.411031
O O10 0.575900 0.877236 0.394010
O O11 0.750000 0.883296 0.535303
O O12 0.750000 0.521327 0.165916
O O13 0.470475 0.580485 0.179226
O O14 0.250000 0.575227 0.416726
O O15 0.000000 0.500000 0.500000
O O16 0.750000 0.750000 0.596335
O O17 0.250000 0.838471 0.098373
O O18 0.024929 0.750000 0.162789
#
# Coordination Sequence:
#
# PCOD9447213 Si02
#       7
#     8   8   4   8   8   4   8
#     4  10  21  36  54  78 108 142 179 218 264 323
#     4   9  21  35  50  79 112 142 184 223 268 329
#     4   9  18  32  50  80 111 139 178 223 271 323
#     4  11  22  36  54  77 108 144 177 220 276 324
#     4  10  18  33  56  81 108 144 188 227 272 325
#     4   9  18  32  52  74 107 147 176 215 267 319
#     4  10  21  37  57  79 102 134 179 229 274 321
#
# _framework density 24.294796000000002
#
# number of rings (size 3 to 8) (size 9 to 14) (size 15 to 20)
#    0.000    2.167    0.833    2.000    2.333    3.333 
#    0.000    5.000    0.000    1.000    0.000    0.000 
#    0.000    0.000    0.000    0.000    0.000    0.000 
#
# Total GULP energy -267413.065789 kJ/mol
# GULP energy per Si atom -5571.105537 kJ/mol
# Density = 2.423950 g / cm^3
# Si number density = 24.294796 Si / 1000 Ang^3
#
#
#
# Elastic Constant Matrix: (Units=GPa)
#
#
# Indices 1 2 3 4 5 6 
#
# 1 214.7393 42.8306 1.8242 0.0000 0.0000 0.0000
# 2 42.8306 129.7586 15.4080 0.0000 0.0000 0.0000
# 3 1.8242 15.4080 45.0290 0.0000 0.0000 0.0000
# 4 0.0000 0.0000 0.0000 17.9440 0.0000 0.0000
# 5 0.0000 0.0000 0.0000 0.0000 -80.2713 0.0000
# 6 0.0000 0.0000 0.0000 0.0000 0.0000 21.5727
#
#
#
# Elastic Compliance Matrix: (Units=1/GPa)
#
#
# Indices 1 2 3 4 5 6 
#
# 1 0.004991 -0.001692 0.000377 0.000000 0.000000 0.000000
# 2 -0.001692 0.008607 -0.002877 0.000000 0.000000 0.000000
# 3 0.000377 -0.002877 0.023177 0.000000 0.000000 0.000000
# 4 0.000000 0.000000 0.000000 0.055729 0.000000 0.000000
# 5 0.000000 0.000000 0.000000 0.000000 -0.012458 0.000000
# 6 0.000000 0.000000 0.000000 0.000000 0.000000 0.046355
#
#
# Mechanical properties :
#
#
# Convention : Reuss Voigt Hill
#
# Bulk Modulus (GPa) = 35.22237 56.62806 45.92522
# Shear Modulus (GPa) = 34.66248 13.81337 24.23793
#
# Velocity S-wave (km/s) = 3.78133 2.38706 3.16200
# Velocity P-wave (km/s) = 5.79603 5.56388 5.68114
#
# Compressibility (1/GPa) = 0.02839105
#
# Stress axis : x y z
#
# Youngs Moduli (GPa) = 200.35557 116.18789 43.14637
#
# Poissons Ratio (x) = 0.19661 -0.01626
# Poissons Ratio (y) = 0.33904 0.12411
# Poissons Ratio (z) = -0.07550 0.33421
#
# Static dielectric constant tensor:
#      x y z
#    x 1.980980 0.000000 0.000000 
#    y 0.000000 1.958030 0.000000 
#    z 0.000000 0.000000 2.027490 
# 
# From -- ./inp_files/25510.got.cif
#   From: 2010.05.17/outbox.cif.g08.bks.cpg/sg59_13_cif.got.tgz:25510.got - 2010.06.03 14:40:33.
