data_PCOD9447803
_publ_section_title
;
Structure prediction by ZEFSAII (Michael W. Deem and Ramdas Pophale) SiO2 
 PCOD9447803
Probable space group: P M M N
;
_chemical_formula_sum "Si O2"
_cell_formula_units_Z 48
_cell_length_a 31.817776
_cell_length_b 7.923136
_cell_length_c 9.986311
_cell_angle_alpha 90.000000
_cell_angle_beta 90.000000
_cell_angle_gamma 90.000000
_cell_volume 2517.514715
_symmetry_space_group_name_H-M "P M M N"
_symmetry_group_IT_number 59
_space_group.IT_coordinate_system_code '2'
_symmetry_cell_setting 'orthorhombic'
loop_
_space_group_symop_operation_xyz
x,y,z
1/2-x,1/2-y,z
1/2+x,-y,-z
-x,1/2+y,-z
-x,-y,-z
1/2+x,1/2+y,-z
1/2-x,y,z
x,1/2-y,z
loop_
_atom_site_type_symbol
_atom_site_label
_atom_site_fract_x
_atom_site_fract_y
_atom_site_fract_z
Si Si1 0.631394 0.047795 0.508560
Si Si2 0.359666 0.451247 0.916988
Si Si3 0.568065 0.545978 0.287446
Si Si4 0.297397 0.547314 0.693364
Si Si5 0.485230 0.953620 0.149009
Si Si6 0.890895 0.452885 0.799322
O O1 0.636360 0.250000 0.514760
O O2 0.670236 0.980753 0.419564
O O3 0.627731 0.982420 0.659406
O O4 0.588969 0.012187 0.425236
O O5 0.360587 0.250000 0.914017
O O6 0.400152 0.512476 0.830790
O O7 0.318913 0.510087 0.835844
O O8 0.364099 0.507832 0.069149
O O9 0.568118 0.750000 0.287145
O O10 0.521282 0.487221 0.251805
O O11 0.250000 0.481683 0.682564
O O12 0.295780 0.750000 0.679268
O O13 0.484038 0.750000 0.156373
O O14 0.438447 0.018007 0.178116
O O15 0.500000 0.000000 0.000000
O O16 0.893548 0.250000 0.788597
#
# Coordination Sequence:
#
# PCOD9447803 Si02
#       6
#     8   8   8   8   8   8
#     4   9  19  34  51  74 102 133 170 210 257 307
#     4  10  19  32  52  76 103 132 166 209 253 299
#     4   9  18  32  48  70  99 134 175 214 253 297
#     4   9  18  35  58  78  97 127 166 205 249 307
#     4  10  19  31  48  71 101 137 179 220 254 293
#     4  10  20  33  50  74 106 139 172 214 257 300
#
# _framework density 19.066424999999999
#
# number of rings (size 3 to 8) (size 9 to 14) (size 15 to 20)
#    0.000    2.500    1.667    0.500    0.000    3.000 
#    0.000    0.833    0.000    3.000    0.000    0.000 
#    0.000    0.000    0.000    0.000    0.000    0.000 
#
# Total GULP energy -267766.214759 kJ/mol
# GULP energy per Si atom -5578.462807 kJ/mol
# Density = 1.902303 g / cm^3
# Si number density = 19.066425 Si / 1000 Ang^3
#
#
#
# Elastic Constant Matrix: (Units=GPa)
#
#
# Indices 1 2 3 4 5 6 
#
# 1 128.3899 10.1080 70.1308 0.0000 0.0000 0.0000
# 2 10.1080 14.6927 5.2096 0.0000 0.0000 0.0000
# 3 70.1308 5.2096 160.8083 0.0000 0.0000 0.0000
# 4 0.0000 0.0000 0.0000 16.8447 0.0000 0.0000
# 5 0.0000 0.0000 0.0000 0.0000 15.1372 0.0000
# 6 0.0000 0.0000 0.0000 0.0000 0.0000 16.7100
#
#
#
# Elastic Compliance Matrix: (Units=1/GPa)
#
#
# Indices 1 2 3 4 5 6 
#
# 1 0.010686 -0.005766 -0.004474 0.000000 0.000000 0.000000
# 2 -0.005766 0.071962 0.000183 0.000000 0.000000 0.000000
# 3 -0.004474 0.000183 0.008164 0.000000 0.000000 0.000000
# 4 0.000000 0.000000 0.000000 0.059366 0.000000 0.000000
# 5 0.000000 0.000000 0.000000 0.000000 0.066062 0.000000
# 6 0.000000 0.000000 0.000000 0.000000 0.000000 0.059845
#
#
# Mechanical properties :
#
#
# Convention : Reuss Voigt Hill
#
# Bulk Modulus (GPa) = 14.14423 52.75417 33.44920
# Shear Modulus (GPa) = 15.63653 24.30122 19.96887
#
# Velocity S-wave (km/s) = 2.86686 3.57396 3.23976
# Velocity P-wave (km/s) = 4.28871 6.69027 5.61928
#
# Compressibility (1/GPa) = 0.07070021
#
# Stress axis : x y z
#
# Youngs Moduli (GPa) = 93.57710 13.89615 122.49355
#
# Poissons Ratio (x) = 0.08012 0.54800
# Poissons Ratio (y) = 0.53952 -0.02243
# Poissons Ratio (z) = 0.41864 -0.00254
#
# Static dielectric constant tensor:
#      x y z
#    x 1.669300 0.000000 0.000000 
#    y 0.000000 1.686680 0.000000 
#    z 0.000000 0.000000 1.656300 
# 
# From -- ./inp_files/6178.got.cif
#   From: 2010.05.17/outbox.cif.g08.bks.cpg/sg59_4_cif.got.tgz:6178.got - 2010.06.03 14:40:33.
