data_PCOD9447938
_publ_section_title
;
Structure prediction by ZEFSAII (Michael W. Deem and Ramdas Pophale) SiO2 
 PCOD9447938
Probable space group: P M M N
;
_chemical_formula_sum "Si O2"
_cell_formula_units_Z 64
_cell_length_a 20.022474
_cell_length_b 8.399611
_cell_length_c 22.442245
_cell_angle_alpha 90.000000
_cell_angle_beta 90.000000
_cell_angle_gamma 90.000000
_cell_volume 3774.359046
_symmetry_space_group_name_H-M "P M M N"
_symmetry_group_IT_number 59
_space_group.IT_coordinate_system_code '2'
_symmetry_cell_setting 'orthorhombic'
loop_
_space_group_symop_operation_xyz
x,y,z
1/2-x,1/2-y,z
1/2+x,-y,-z
-x,1/2+y,-z
-x,-y,-z
1/2+x,1/2+y,-z
1/2-x,y,z
x,1/2-y,z
loop_
_atom_site_type_symbol
_atom_site_label
_atom_site_fract_x
_atom_site_fract_y
_atom_site_fract_z
Si Si1 0.826383 0.559040 0.121780
Si Si2 0.890633 0.935573 0.477581
Si Si3 0.824979 0.438591 0.364669
Si Si4 0.524732 0.938792 0.581306
Si Si5 0.463942 0.057226 0.060118
Si Si6 0.042809 0.937852 0.822720
Si Si7 0.538070 0.936304 0.307756
Si Si8 0.176270 0.056457 0.017529
O O1 0.750000 0.525173 0.138631
O O2 0.836693 0.750000 0.126455
O O3 0.880285 0.469513 0.160687
O O4 0.834568 0.514845 0.052031
O O5 0.872611 0.750000 0.475455
O O6 0.907572 0.982200 0.545848
O O7 0.840461 0.028585 0.434666
O O8 0.963095 0.963430 0.446939
O O9 0.750000 0.496600 0.349946
O O10 0.827457 0.250000 0.354422
O O11 0.886693 0.513791 0.328229
O O12 0.513737 0.750000 0.570603
O O13 0.515474 0.972963 0.650754
O O14 0.465843 0.250000 0.059840
O O15 0.500823 0.003077 0.120038
O O16 0.387003 0.003698 0.055488
O O17 0.500000 0.000000 0.000000
O O18 0.031123 0.750000 0.815541
O O19 0.027812 0.023283 0.761005
O O20 0.531177 0.750000 0.318559
O O21 0.250000 0.999951 0.035555
O O22 0.177545 0.250000 0.019140
#
# Coordination Sequence:
#
# PCOD9447938 Si02
#       8
#     8   8   8   8   8   8   8   8
#     4   9  17  30  48  67  89 121 159 196 232 281
#     4   9  16  26  45  71  95 122 153 188 231 275
#     4  10  20  33  49  70  99 133 165 200 238 275
#     4   9  16  28  46  68  94 119 148 192 237 274
#     4  10  19  31  50  73  96 123 155 197 250 298
#     4  11  22  33  46  68  97 128 160 202 252 300
#     4  11  22  34  49  66  89 127 168 204 238 284
#     4   8  14  27  48  71  93 117 148 187 232 285
#
# _framework density 16.956520999999999
#
# number of rings (size 3 to 8) (size 9 to 14) (size 15 to 20)
#    0.000    2.375    1.250    4.875    0.000    3.750 
#    0.000    0.000    0.000    0.375    0.000    0.875 
#    0.000    5.000    0.000    0.000    0.000    0.000 
#
# Total GULP energy -356604.458481 kJ/mol
# GULP energy per Si atom -5571.944664 kJ/mol
# Density = 1.691793 g / cm^3
# Si number density = 16.956521 Si / 1000 Ang^3
#
#
#
# Elastic Constant Matrix: (Units=GPa)
#
#
# Indices 1 2 3 4 5 6 
#
# 1 42.2595 3.1275 33.2211 0.0000 0.0000 0.0000
# 2 3.1275 27.4890 10.6441 0.0000 0.0000 0.0000
# 3 33.2211 10.6441 97.4947 0.0000 0.0000 0.0000
# 4 0.0000 0.0000 0.0000 21.7303 0.0000 0.0000
# 5 0.0000 0.0000 0.0000 0.0000 16.2439 0.0000
# 6 0.0000 0.0000 0.0000 0.0000 0.0000 15.7533
#
#
#
# Elastic Compliance Matrix: (Units=1/GPa)
#
#
# Indices 1 2 3 4 5 6 
#
# 1 0.032331 0.000613 -0.011084 0.000000 0.000000 0.000000
# 2 0.000613 0.037996 -0.004357 0.000000 0.000000 0.000000
# 3 -0.011084 -0.004357 0.014509 0.000000 0.000000 0.000000
# 4 0.000000 0.000000 0.000000 0.046019 0.000000 0.000000
# 5 0.000000 0.000000 0.000000 0.000000 0.061562 0.000000
# 6 0.000000 0.000000 0.000000 0.000000 0.000000 0.063479
#
#
# Mechanical properties :
#
#
# Convention : Reuss Voigt Hill
#
# Bulk Modulus (GPa) = 18.12221 29.02540 23.57380
# Shear Modulus (GPa) = 16.45042 18.76221 17.60632
#
# Velocity S-wave (km/s) = 3.11811 3.33000 3.22580
# Velocity P-wave (km/s) = 4.86561 5.65154 5.27324
#
# Compressibility (1/GPa) = 0.05518090
#
# Stress axis : x y z
#
# Youngs Moduli (GPa) = 30.93003 26.31887 68.92076
#
# Poissons Ratio (x) = -0.01614 0.76390
# Poissons Ratio (y) = -0.01897 0.30030
# Poissons Ratio (z) = 0.34282 0.11468
#
# Static dielectric constant tensor:
#      x y z
#    x 1.586040 0.000000 0.000000 
#    y 0.000000 1.583980 0.000000 
#    z 0.000000 0.000000 1.605490 
# 
# From -- ./inp_files/30979.got.cif
#   From: 2010.05.17/outbox.cif.g08.bks.cpg/sg59_16_cif.got.tgz:30979.got - 2010.06.03 14:40:33.
