data_PCOD9447611
_publ_section_title
;
Structure prediction by ZEFSAII (Michael W. Deem and Ramdas Pophale) SiO2 
 PCOD9447611
Probable space group: P M M N
;
_chemical_formula_sum "Si O2"
_cell_formula_units_Z 64
_cell_length_a 8.371177
_cell_length_b 14.361405
_cell_length_c 31.705384
_cell_angle_alpha 90.000000
_cell_angle_beta 90.000000
_cell_angle_gamma 90.000000
_cell_volume 3811.680339
_symmetry_space_group_name_H-M "P M M N"
_symmetry_group_IT_number 59
_space_group.IT_coordinate_system_code '2'
_symmetry_cell_setting 'orthorhombic'
loop_
_space_group_symop_operation_xyz
x,y,z
1/2-x,1/2-y,z
1/2+x,-y,-z
-x,1/2+y,-z
-x,-y,-z
1/2+x,1/2+y,-z
1/2-x,y,z
x,1/2-y,z
loop_
_atom_site_type_symbol
_atom_site_label
_atom_site_fract_x
_atom_site_fract_y
_atom_site_fract_z
Si Si1 0.440549 0.355783 0.760482
Si Si2 0.441291 0.037909 0.935451
Si Si3 0.557542 0.511525 0.547528
Si Si4 0.944655 0.146742 0.610042
Si Si5 0.442969 0.855099 0.982787
Si Si6 0.057643 0.981153 0.313184
Si Si7 0.941152 0.355567 0.855552
Si Si8 0.554819 0.642952 0.624002
O O1 0.250000 0.353324 0.758357
O O2 0.499689 0.250000 0.748397
O O3 0.498836 0.440165 0.730984
O O4 0.493480 0.371618 0.808639
O O5 0.250000 0.039213 0.936344
O O6 0.499183 0.072092 0.890192
O O7 0.495938 0.934483 0.949656
O O8 0.504039 0.108115 0.971436
O O9 0.500000 0.500000 0.500000
O O10 0.750000 0.516017 0.546709
O O11 0.505969 0.418693 0.572010
O O12 0.505632 0.594933 0.579391
O O13 0.750000 0.148725 0.609820
O O14 0.006546 0.250000 0.606530
O O15 0.991410 0.097839 0.653264
O O16 0.250000 0.853572 0.982203
O O17 0.500250 0.750000 0.974843
O O18 0.250000 0.985525 0.311272
O O19 0.005256 0.077368 0.336325
O O20 0.750000 0.358131 0.854071
O O21 0.990582 0.250000 0.868077
O O22 0.750000 0.641967 0.624051
O O23 0.502556 0.750000 0.627216
#
# Coordination Sequence:
#
# PCOD9447611 Si02
#       8
#     8   8   8   8   8   8   8   8
#     4  10  20  32  47  70  99 125 146 177 227 280
#     4  10  19  30  47  71  97 125 159 201 243 278
#     4   9  17  28  42  61  85 114 147 182 220 262
#     4   8  14  25  41  60  82 109 140 172 208 254
#     4   9  18  32  48  67  94 129 165 197 234 283
#     4   9  16  28  49  71  88 112 148 187 222 263
#     4  10  20  33  49  69  95 127 159 189 225 276
#     4   8  15  29  48  68  90 119 155 192 230 271
#
# _framework density 16.790496000000001
#
# number of rings (size 3 to 8) (size 9 to 14) (size 15 to 20)
#    0.000    2.875    0.000    3.375    0.000    4.750 
#    0.000    2.500    0.000    2.625    0.000    0.000 
#    0.000    0.000    0.000    0.000    0.000    0.000 
#
# Total GULP energy -356378.743699 kJ/mol
# GULP energy per Si atom -5568.417870 kJ/mol
# Density = 1.675228 g / cm^3
# Si number density = 16.790496 Si / 1000 Ang^3
#
#
#
# Elastic Constant Matrix: (Units=GPa)
#
#
# Indices 1 2 3 4 5 6 
#
# 1 8.7152 20.8126 15.0840 0.0000 0.0000 0.0000
# 2 20.8126 158.9887 80.1893 0.0000 0.0000 0.0000
# 3 15.0840 80.1893 111.6821 0.0000 0.0000 0.0000
# 4 0.0000 0.0000 0.0000 12.0139 0.0000 0.0000
# 5 0.0000 0.0000 0.0000 0.0000 27.6126 0.0000
# 6 0.0000 0.0000 0.0000 0.0000 0.0000 13.8748
#
#
#
# Elastic Compliance Matrix: (Units=1/GPa)
#
#
# Indices 1 2 3 4 5 6 
#
# 1 0.175580 -0.017283 -0.011305 0.000000 0.000000 0.000000
# 2 -0.017283 0.011562 -0.005967 0.000000 0.000000 0.000000
# 3 -0.011305 -0.005967 0.014766 0.000000 0.000000 0.000000
# 4 0.000000 0.000000 0.000000 0.083237 0.000000 0.000000
# 5 0.000000 0.000000 0.000000 0.000000 0.036215 0.000000
# 6 0.000000 0.000000 0.000000 0.000000 0.000000 0.072073
#
#
# Mechanical properties :
#
#
# Convention : Reuss Voigt Hill
#
# Bulk Modulus (GPa) = 7.53027 56.83977 32.18502
# Shear Modulus (GPa) = 9.86566 21.58694 15.72630
#
# Velocity S-wave (km/s) = 2.42662 3.58951 3.06374
# Velocity P-wave (km/s) = 3.51367 7.14879 5.63255
#
# Compressibility (1/GPa) = 0.13279740
#
# Stress axis : x y z
#
# Youngs Moduli (GPa) = 5.69541 86.49079 67.72514
#
# Poissons Ratio (x) = 1.49478 0.76564
# Poissons Ratio (y) = 0.09843 0.40414
# Poissons Ratio (z) = 0.06439 0.51613
#
# Static dielectric constant tensor:
#      x y z
#    x 1.582000 0.000000 0.000000 
#    y 0.000000 1.585930 0.000000 
#    z 0.000000 0.000000 1.556280 
# 
# From -- ./inp_files/33242.got.cif
#   From: 2010.05.17/outbox.cif.g08.bks.cpg/sg59_17_cif.got.tgz:33242.got - 2010.06.03 14:40:33.
