data_PCOD9447577
_publ_section_title
;
Structure prediction by ZEFSAII (Michael W. Deem and Ramdas Pophale) SiO2 
 PCOD9447577
Probable space group: P M M N
;
_chemical_formula_sum "Si O2"
_cell_formula_units_Z 64
_cell_length_a 19.428723
_cell_length_b 9.033879
_cell_length_c 20.497464
_cell_angle_alpha 90.000000
_cell_angle_beta 90.000000
_cell_angle_gamma 90.000000
_cell_volume 3597.647910
_symmetry_space_group_name_H-M "P M M N"
_symmetry_group_IT_number 59
_space_group.IT_coordinate_system_code '2'
_symmetry_cell_setting 'orthorhombic'
loop_
_space_group_symop_operation_xyz
x,y,z
1/2-x,1/2-y,z
1/2+x,-y,-z
-x,1/2+y,-z
-x,-y,-z
1/2+x,1/2+y,-z
1/2-x,y,z
x,1/2-y,z
loop_
_atom_site_type_symbol
_atom_site_label
_atom_site_fract_x
_atom_site_fract_y
_atom_site_fract_z
Si Si1 0.916867 0.572674 0.449832
Si Si2 0.060964 0.425518 0.409969
Si Si3 0.566858 0.927709 0.859827
Si Si4 0.074962 0.571245 0.922107
Si Si5 0.829580 0.928288 0.967770
Si Si6 0.462153 0.924771 0.279136
Si Si7 0.676334 0.073094 0.189724
Si Si8 0.875687 0.577045 0.312785
O O1 0.933705 0.750000 0.446150
O O2 0.895193 0.542378 0.524265
O O3 0.866662 0.542849 0.389279
O O4 0.985089 0.479977 0.432374
O O5 0.060807 0.250000 0.398855
O O6 0.076186 0.506399 0.342112
O O7 0.561799 0.750000 0.851198
O O8 0.504164 0.970977 0.908875
O O9 0.637796 0.962436 0.896871
O O10 0.557203 0.001859 0.789571
O O11 0.077711 0.750000 0.929088
O O12 0.114547 0.523973 0.856115
O O13 0.118770 0.499641 0.979855
O O14 0.750000 0.976258 0.974682
O O15 0.831764 0.750000 0.975471
O O16 0.450189 0.750000 0.276310
O O17 0.543735 0.947287 0.294096
O O18 0.750000 0.022410 0.162697
O O19 0.675154 0.250000 0.189373
O O20 0.667300 0.017575 0.262636
O O21 0.860742 0.750000 0.302618
#
# Coordination Sequence:
#
# PCOD9447577 Si02
#       8
#     8   8   8   8   8   8   8   8
#     4   8  15  26  39  61  92 126 164 204 244 288
#     4   9  15  24  41  64  94 129 162 199 246 296
#     4  10  20  35  55  77 101 133 170 206 249 300
#     4  10  20  35  55  76  99 130 170 210 247 296
#     4  10  22  38  55  78 106 132 162 204 252 303
#     4  10  19  30  46  71 102 129 161 206 250 295
#     4  10  20  32  46  67  96 129 167 209 251 297
#     4   9  17  29  44  64  93 127 163 205 249 292
#
# _framework density 17.789401000000002
#
# number of rings (size 3 to 8) (size 9 to 14) (size 15 to 20)
#    0.000    2.500    1.250    2.250    0.000    5.000 
#    0.000    0.000    0.000    0.000    0.000    0.875 
#    0.000    3.000    0.000    0.000    0.000    0.000 
#
# Total GULP energy -356436.685215 kJ/mol
# GULP energy per Si atom -5569.323206 kJ/mol
# Density = 1.774891 g / cm^3
# Si number density = 17.789401 Si / 1000 Ang^3
#
#
#
# Elastic Constant Matrix: (Units=GPa)
#
#
# Indices 1 2 3 4 5 6 
#
# 1 49.5786 16.1841 38.9381 0.0000 0.0000 0.0000
# 2 16.1841 18.5551 40.2956 0.0000 0.0000 0.0000
# 3 38.9381 40.2956 134.1517 0.0000 0.0000 0.0000
# 4 0.0000 0.0000 0.0000 32.1697 0.0000 0.0000
# 5 0.0000 0.0000 0.0000 0.0000 6.0331 0.0000
# 6 0.0000 0.0000 0.0000 0.0000 0.0000 10.7687
#
#
#
# Elastic Compliance Matrix: (Units=1/GPa)
#
#
# Indices 1 2 3 4 5 6 
#
# 1 0.028446 -0.019790 -0.002312 0.000000 0.000000 0.000000
# 2 -0.019790 0.168775 -0.044951 0.000000 0.000000 0.000000
# 3 -0.002312 -0.044951 0.021628 0.000000 0.000000 0.000000
# 4 0.000000 0.000000 0.000000 0.031085 0.000000 0.000000
# 5 0.000000 0.000000 0.000000 0.000000 0.165751 0.000000
# 6 0.000000 0.000000 0.000000 0.000000 0.000000 0.092862
#
#
# Mechanical properties :
#
#
# Convention : Reuss Voigt Hill
#
# Bulk Modulus (GPa) = 11.80058 43.68012 27.74035
# Shear Modulus (GPa) = 7.45267 16.91882 12.18574
#
# Velocity S-wave (km/s) = 2.04902 3.08727 2.62009
# Velocity P-wave (km/s) = 3.49941 6.10866 4.97803
#
# Compressibility (1/GPa) = 0.08474158
#
# Stress axis : x y z
#
# Youngs Moduli (GPa) = 35.15433 5.92505 46.23717
#
# Poissons Ratio (x) = 0.11726 0.10691
# Poissons Ratio (y) = 0.69570 2.07843
# Poissons Ratio (z) = 0.08129 0.26634
#
# Static dielectric constant tensor:
#      x y z
#    x 1.610230 0.000000 0.000000 
#    y 0.000000 1.605170 0.000000 
#    z 0.000000 0.000000 1.644930 
# 
# From -- ./inp_files/29351.got.cif
#   From: 2010.05.17/outbox.cif.g08.bks.cpg/sg59_15_cif.got.tgz:29351.got - 2010.06.03 14:40:33.
