data_PCOD9447606
_publ_section_title
;
Structure prediction by ZEFSAII (Michael W. Deem and Ramdas Pophale) SiO2 
 PCOD9447606
Probable space group: P M M N
;
_chemical_formula_sum "Si O2"
_cell_formula_units_Z 64
_cell_length_a 17.824494
_cell_length_b 8.626495
_cell_length_c 23.985103
_cell_angle_alpha 90.000000
_cell_angle_beta 90.000000
_cell_angle_gamma 90.000000
_cell_volume 3688.019195
_symmetry_space_group_name_H-M "P M M N"
_symmetry_group_IT_number 59
_space_group.IT_coordinate_system_code '2'
_symmetry_cell_setting 'orthorhombic'
loop_
_space_group_symop_operation_xyz
x,y,z
1/2-x,1/2-y,z
1/2+x,-y,-z
-x,1/2+y,-z
-x,-y,-z
1/2+x,1/2+y,-z
1/2-x,y,z
x,1/2-y,z
loop_
_atom_site_type_symbol
_atom_site_label
_atom_site_fract_x
_atom_site_fract_y
_atom_site_fract_z
Si Si1 0.596160 0.565199 0.069739
Si Si2 0.981526 0.064605 0.241321
Si Si3 0.664677 0.062874 0.958651
Si Si4 0.479690 0.064054 0.635494
Si Si5 0.332287 0.563282 0.822676
Si Si6 0.055224 0.936656 0.134864
Si Si7 0.335307 0.562125 0.568799
Si Si8 0.428572 0.936553 0.466573
O O1 0.598780 0.750000 0.065933
O O2 0.654472 0.505903 0.116161
O O3 0.515418 0.520161 0.095257
O O4 0.615095 0.494577 0.010170
O O5 0.981607 0.250000 0.244775
O O6 0.900568 0.012799 0.216550
O O7 0.990968 0.995084 0.302223
O O8 0.041181 0.010532 0.194968
O O9 0.750000 0.008132 0.965018
O O10 0.664396 0.250000 0.960119
O O11 0.628303 0.016091 0.899795
O O12 0.475203 0.250000 0.634925
O O13 0.550470 0.015353 0.596280
O O14 0.401780 0.000463 0.608606
O O15 0.250000 0.520185 0.801348
O O16 0.335864 0.750000 0.827111
O O17 0.054458 0.750000 0.141016
O O18 0.250000 0.512271 0.581989
O O19 0.337141 0.750000 0.572383
O O20 0.358129 0.516498 0.505006
O O21 0.428760 0.750000 0.467040
O O22 0.500000 0.000000 0.500000
#
# Coordination Sequence:
#
# PCOD9447606 Si02
#       8
#     8   8   8   8   8   8   8   8
#     4  10  19  30  47  71  96 121 150 187 233 285
#     4  10  20  33  50  70  91 122 164 201 235 277
#     4  10  20  33  50  71  94 121 153 191 238 291
#     4  10  19  31  48  70  97 128 162 198 234 277
#     4   9  18  32  47  63  88 122 156 190 229 276
#     4   9  19  35  51  68  93 124 158 197 239 282
#     4   9  17  30  49  73 101 129 157 193 235 278
#     4   8  15  28  46  68  93 123 156 188 224 266
#
# _framework density 17.353489
#
# number of rings (size 3 to 8) (size 9 to 14) (size 15 to 20)
#    0.000    2.625    0.000    1.875    0.000    4.750 
#    0.000    1.250    0.000    0.750    0.000    3.500 
#    0.000    0.000    0.000    0.000    0.000    0.000 
#
# Total GULP energy -356549.655100 kJ/mol
# GULP energy per Si atom -5571.088361 kJ/mol
# Density = 1.731399 g / cm^3
# Si number density = 17.353489 Si / 1000 Ang^3
#
#
#
# Elastic Constant Matrix: (Units=GPa)
#
#
# Indices 1 2 3 4 5 6 
#
# 1 30.1563 11.9875 30.7158 0.0000 0.0000 0.0000
# 2 11.9875 12.1518 24.7735 0.0000 0.0000 0.0000
# 3 30.7158 24.7735 141.4134 0.0000 0.0000 0.0000
# 4 0.0000 0.0000 0.0000 26.9152 0.0000 0.0000
# 5 0.0000 0.0000 0.0000 0.0000 12.9961 0.0000
# 6 0.0000 0.0000 0.0000 0.0000 0.0000 15.0379
#
#
#
# Elastic Compliance Matrix: (Units=1/GPa)
#
#
# Indices 1 2 3 4 5 6 
#
# 1 0.055874 -0.047254 -0.003858 0.000000 0.000000 0.000000
# 2 -0.047254 0.167974 -0.019163 0.000000 0.000000 0.000000
# 3 -0.003858 -0.019163 0.011266 0.000000 0.000000 0.000000
# 4 0.000000 0.000000 0.000000 0.037154 0.000000 0.000000
# 5 0.000000 0.000000 0.000000 0.000000 0.076946 0.000000
# 6 0.000000 0.000000 0.000000 0.000000 0.000000 0.066499
#
#
# Mechanical properties :
#
#
# Convention : Reuss Voigt Hill
#
# Bulk Modulus (GPa) = 10.57464 35.40833 22.99148
# Shear Modulus (GPa) = 8.50652 18.73947 13.62300
#
# Velocity S-wave (km/s) = 2.21643 3.28970 2.80488
# Velocity P-wave (km/s) = 3.55766 5.90576 4.87519
#
# Compressibility (1/GPa) = 0.09456590
#
# Stress axis : x y z
#
# Youngs Moduli (GPa) = 17.89734 5.95330 88.75879
#
# Poissons Ratio (x) = 0.28131 0.34244
# Poissons Ratio (y) = 0.84571 1.70086
# Poissons Ratio (z) = 0.06905 0.11408
#
# Static dielectric constant tensor:
#      x y z
#    x 1.603070 0.000000 0.000000 
#    y 0.000000 1.588530 0.000000 
#    z 0.000000 0.000000 1.589930 
# 
# From -- ./inp_files/31765.got.cif
#   From: 2010.05.17/outbox.cif.g08.bks.cpg/sg59_16_cif.got.tgz:31765.got - 2010.06.03 14:40:33.
