data_PCOD9447091
_publ_section_title
;
Structure prediction by ZEFSAII (Michael W. Deem and Ramdas Pophale) SiO2 
 PCOD9447091
Probable space group: P M M N
;
_chemical_formula_sum "Si O2"
_cell_formula_units_Z 64
_cell_length_a 8.916294
_cell_length_b 23.435740
_cell_length_c 15.332103
_cell_angle_alpha 90.000000
_cell_angle_beta 90.000000
_cell_angle_gamma 90.000000
_cell_volume 3203.795445
_symmetry_space_group_name_H-M "P M M N"
_symmetry_group_IT_number 59
_space_group.IT_coordinate_system_code '2'
_symmetry_cell_setting 'orthorhombic'
loop_
_space_group_symop_operation_xyz
x,y,z
1/2-x,1/2-y,z
1/2+x,-y,-z
-x,1/2+y,-z
-x,-y,-z
1/2+x,1/2+y,-z
1/2-x,y,z
x,1/2-y,z
loop_
_atom_site_type_symbol
_atom_site_label
_atom_site_fract_x
_atom_site_fract_y
_atom_site_fract_z
Si Si1 0.571649 0.313932 0.041839
Si Si2 0.570225 0.894299 0.100435
Si Si3 0.428476 0.870231 0.428990
Si Si4 0.076483 0.012128 0.630441
Si Si5 0.572186 0.632623 0.800367
Si Si6 0.929072 0.609494 0.602144
Si Si7 0.569959 0.184940 0.753050
Si Si8 0.923815 0.486125 0.164447
O O1 0.750000 0.320280 0.036131
O O2 0.532216 0.250000 0.011731
O O3 0.516368 0.323183 0.140196
O O4 0.493459 0.360985 0.982120
O O5 0.750000 0.893512 0.100525
O O6 0.510290 0.859925 0.184351
O O7 0.524017 0.960655 0.106418
O O8 0.250000 0.871882 0.440672
O O9 0.488450 0.932417 0.400503
O O10 0.506545 0.856081 0.520435
O O11 0.463242 0.829008 0.347861
O O12 0.250000 0.014880 0.601806
O O13 0.074700 0.008801 0.735671
O O14 0.000643 0.953779 0.598438
O O15 0.750000 0.640511 0.809457
O O16 0.532730 0.633937 0.697816
O O17 0.524728 0.569944 0.835183
O O18 0.750000 0.605047 0.596751
O O19 0.750000 0.179238 0.764940
O O20 0.528083 0.250000 0.774248
O O21 0.750000 0.471226 0.143656
#
# Coordination Sequence:
#
# PCOD9447091 Si02
#       8
#     8   8   8   8   8   8   8   8
#     4  11  25  44  65  88 115 152 196 240 291 351
#     4  11  22  38  62  92 121 152 192 239 291 348
#     4  11  21  33  53  80 112 153 197 238 284 339
#     4  10  18  32  53  80 116 153 191 234 280 339
#     4  10  22  40  63  89 117 152 195 246 297 346
#     4  10  21  36  55  82 115 148 189 237 289 345
#     4  10  22  39  57  80 115 157 199 244 292 347
#     4   9  19  35  57  87 123 158 190 231 289 354
#
# _framework density 19.976306999999998
#
# number of rings (size 3 to 8) (size 9 to 14) (size 15 to 20)
#    0.000    1.750    1.250    3.000    0.000    6.750 
#    0.000    0.625    0.000    2.250    0.000    0.000 
#    0.000    0.000    0.000    0.000    0.000    0.000 
#
# Total GULP energy -357723.827634 kJ/mol
# GULP energy per Si atom -5589.434807 kJ/mol
# Density = 1.993084 g / cm^3
# Si number density = 19.976307 Si / 1000 Ang^3
#
#
#
# Elastic Constant Matrix: (Units=GPa)
#
#
# Indices 1 2 3 4 5 6 
#
# 1 33.7645 6.2486 20.9148 0.0000 0.0000 0.0000
# 2 6.2486 20.7865 23.0522 0.0000 0.0000 0.0000
# 3 20.9148 23.0522 69.1595 0.0000 0.0000 0.0000
# 4 0.0000 0.0000 0.0000 15.2594 0.0000 0.0000
# 5 0.0000 0.0000 0.0000 0.0000 34.3858 0.0000
# 6 0.0000 0.0000 0.0000 0.0000 0.0000 24.0360
#
#
#
# Elastic Compliance Matrix: (Units=1/GPa)
#
#
# Indices 1 2 3 4 5 6 
#
# 1 0.036497 0.002013 -0.011708 0.000000 0.000000 0.000000
# 2 0.002013 0.076431 -0.026085 0.000000 0.000000 0.000000
# 3 -0.011708 -0.026085 0.026695 0.000000 0.000000 0.000000
# 4 0.000000 0.000000 0.000000 0.065533 0.000000 0.000000
# 5 0.000000 0.000000 0.000000 0.000000 0.029082 0.000000
# 6 0.000000 0.000000 0.000000 0.000000 0.000000 0.041604
#
#
# Mechanical properties :
#
#
# Convention : Reuss Voigt Hill
#
# Bulk Modulus (GPa) = 14.69231 24.90463 19.79847
# Shear Modulus (GPa) = 13.51026 19.63590 16.57308
#
# Velocity S-wave (km/s) = 2.60343 3.13862 2.88347
# Velocity P-wave (km/s) = 4.05067 5.06248 4.58458
#
# Compressibility (1/GPa) = 0.06806281
#
# Stress axis : x y z
#
# Youngs Moduli (GPa) = 27.39972 13.08367 37.46076
#
# Poissons Ratio (x) = -0.02634 0.43859
# Poissons Ratio (y) = -0.05516 0.97716
# Poissons Ratio (z) = 0.32080 0.34128
#
# Static dielectric constant tensor:
#      x y z
#    x 1.663580 0.000000 0.000000 
#    y 0.000000 1.681400 0.000000 
#    z 0.000000 0.000000 1.742670 
# 
# From -- ./inp_files/21447.got.cif
#   From: 2010.05.17/outbox.cif.g08.bks.cpg/sg59_11_cif.got.tgz:21447.got - 2010.06.03 14:40:33.
