data_PCOD9447678
_publ_section_title
;
Structure prediction by ZEFSAII (Michael W. Deem and Ramdas Pophale) SiO2 
 PCOD9447678
Probable space group: P M M N
;
_chemical_formula_sum "Si O2"
_cell_formula_units_Z 64
_cell_length_a 7.744743
_cell_length_b 23.302006
_cell_length_c 18.187655
_cell_angle_alpha 90.000000
_cell_angle_beta 90.000000
_cell_angle_gamma 90.000000
_cell_volume 3282.290593
_symmetry_space_group_name_H-M "P M M N"
_symmetry_group_IT_number 59
_space_group.IT_coordinate_system_code '2'
_symmetry_cell_setting 'orthorhombic'
loop_
_space_group_symop_operation_xyz
x,y,z
1/2-x,1/2-y,z
1/2+x,-y,-z
-x,1/2+y,-z
-x,-y,-z
1/2+x,1/2+y,-z
1/2-x,y,z
x,1/2-y,z
loop_
_atom_site_type_symbol
_atom_site_label
_atom_site_fract_x
_atom_site_fract_y
_atom_site_fract_z
Si Si1 0.952495 0.812682 0.252105
Si Si2 0.045645 0.581348 0.829283
Si Si3 0.457110 0.025630 0.920243
Si Si4 0.044772 0.051958 0.331013
Si Si5 0.051072 0.843664 0.090715
Si Si6 0.457137 0.067044 0.489962
Si Si7 0.540707 0.582253 0.349643
Si Si8 0.961573 0.186419 0.072180
O O1 0.750000 0.810838 0.271390
O O2 0.027834 0.750000 0.270948
O O3 0.023856 0.868694 0.294117
O O4 0.964572 0.821489 0.164631
O O5 0.250000 0.580237 0.844418
O O6 0.978578 0.521279 0.861758
O O7 0.976536 0.635588 0.874726
O O8 0.021195 0.581716 0.742453
O O9 0.250000 0.033029 0.913335
O O10 0.539794 0.087485 0.910253
O O11 0.500000 0.000000 0.000000
O O12 0.250000 0.057721 0.331576
O O13 0.976436 0.079043 0.407689
O O14 0.006869 0.983402 0.329851
O O15 0.250000 0.825227 0.094538
O O16 0.980570 0.823331 0.011940
O O17 0.250000 0.074330 0.488606
O O18 0.518807 0.094759 0.566328
O O19 0.500000 0.000000 0.500000
O O20 0.750000 0.582591 0.348646
O O21 0.750000 0.184349 0.070910
O O22 0.011806 0.250000 0.096867
#
# Coordination Sequence:
#
# PCOD9447678 Si02
#       8
#     8   8   8   8   8   8   8   8
#     4  10  21  35  50  72 101 133 172 214 252 295
#     4  10  20  34  50  71  98 129 165 201 243 296
#     4  11  21  34  51  74 102 131 164 206 254 303
#     4  10  19  30  48  77 105 127 157 204 253 300
#     4  11  21  35  53  75 100 131 169 208 254 304
#     4   8  15  28  47  71  98 125 156 191 236 292
#     4   9  17  32  52  71  97 134 165 197 243 300
#     4   9  18  34  53  69  88 122 169 210 239 281
#
# _framework density 19.498577999999998
#
# number of rings (size 3 to 8) (size 9 to 14) (size 15 to 20)
#    0.000    2.250    1.250    2.250    0.000    5.750 
#    0.000    0.000    0.000    2.625    0.000    1.750 
#    0.000    0.000    0.000    0.000    0.000    0.000 
#
# Total GULP energy -356945.952380 kJ/mol
# GULP energy per Si atom -5577.280506 kJ/mol
# Density = 1.945420 g / cm^3
# Si number density = 19.498578 Si / 1000 Ang^3
#
#
#
# Elastic Constant Matrix: (Units=GPa)
#
#
# Indices 1 2 3 4 5 6 
#
# 1 28.1391 -1.6940 -11.9072 0.0000 0.0000 0.0000
# 2 -1.6940 87.0089 32.8867 0.0000 0.0000 0.0000
# 3 -11.9072 32.8867 114.0521 0.0000 0.0000 0.0000
# 4 0.0000 0.0000 0.0000 7.5882 0.0000 0.0000
# 5 0.0000 0.0000 0.0000 0.0000 20.2687 0.0000
# 6 0.0000 0.0000 0.0000 0.0000 0.0000 4.9168
#
#
#
# Elastic Compliance Matrix: (Units=1/GPa)
#
#
# Indices 1 2 3 4 5 6 
#
# 1 0.037234 -0.000835 0.004128 0.000000 0.000000 0.000000
# 2 -0.000835 0.012918 -0.003812 0.000000 0.000000 0.000000
# 3 0.004128 -0.003812 0.010298 0.000000 0.000000 0.000000
# 4 0.000000 0.000000 0.000000 0.131784 0.000000 0.000000
# 5 0.000000 0.000000 0.000000 0.000000 0.049337 0.000000
# 6 0.000000 0.000000 0.000000 0.000000 0.000000 0.203384
#
#
# Mechanical properties :
#
#
# Convention : Reuss Voigt Hill
#
# Bulk Modulus (GPa) = 16.83169 29.75234 23.29202
# Shear Modulus (GPa) = 10.73428 20.54904 15.64166
#
# Velocity S-wave (km/s) = 2.34885 3.24986 2.83538
# Velocity P-wave (km/s) = 4.00089 5.41978 4.76346
#
# Compressibility (1/GPa) = 0.05941173
#
# Stress axis : x y z
#
# Youngs Moduli (GPa) = 26.85690 77.41362 97.10532
#
# Poissons Ratio (x) = 0.06467 -0.40087
# Poissons Ratio (y) = 0.02244 0.37016
# Poissons Ratio (z) = -0.11087 0.29510
#
# Static dielectric constant tensor:
#      x y z
#    x 1.727890 0.000000 0.000000 
#    y 0.000000 1.691700 0.000000 
#    z 0.000000 0.000000 1.717100 
# 
# From -- ./inp_files/26273.got.cif
#   From: 2010.05.17/outbox.cif.g08.bks.cpg/sg59_14_cif.got.tgz:26273.got - 2010.06.03 14:40:33.
