data_PCOD9447733
_publ_section_title
;
Structure prediction by ZEFSAII (Michael W. Deem and Ramdas Pophale) SiO2 
 PCOD9447733
Probable space group: P M M N
;
_chemical_formula_sum "Si O2"
_cell_formula_units_Z 64
_cell_length_a 20.052678
_cell_length_b 9.239268
_cell_length_c 21.832169
_cell_angle_alpha 90.000000
_cell_angle_beta 90.000000
_cell_angle_gamma 90.000000
_cell_volume 4044.891059
_symmetry_space_group_name_H-M "P M M N"
_symmetry_group_IT_number 59
_space_group.IT_coordinate_system_code '2'
_symmetry_cell_setting 'orthorhombic'
loop_
_space_group_symop_operation_xyz
x,y,z
1/2-x,1/2-y,z
1/2+x,-y,-z
-x,1/2+y,-z
-x,-y,-z
1/2+x,1/2+y,-z
1/2-x,y,z
x,1/2-y,z
loop_
_atom_site_type_symbol
_atom_site_label
_atom_site_fract_x
_atom_site_fract_y
_atom_site_fract_z
Si Si1 0.124392 0.916675 0.837670
Si Si2 0.505635 0.083618 0.683553
Si Si3 0.469727 0.575486 0.559461
Si Si4 0.594468 0.582973 0.042718
Si Si5 0.321430 0.921906 0.596631
Si Si6 0.436157 0.582786 0.076913
Si Si7 0.650407 0.585428 0.279975
Si Si8 0.034142 0.082378 0.197282
O O1 0.144849 0.750000 0.842708
O O2 0.045240 0.917720 0.819619
O O3 0.129957 0.000195 0.901697
O O4 0.160812 0.998498 0.782482
O O5 0.527993 0.250000 0.674426
O O6 0.429084 0.090384 0.706950
O O7 0.502582 0.993173 0.620624
O O8 0.542846 0.001092 0.738589
O O9 0.500000 0.500000 0.500000
O O10 0.477785 0.750000 0.558660
O O11 0.390231 0.541536 0.562737
O O12 0.615159 0.750000 0.038267
O O13 0.515277 0.582617 0.059728
O O14 0.599892 0.499842 0.978499
O O15 0.250000 0.952716 0.565424
O O16 0.324654 0.750000 0.608502
O O17 0.321983 0.003733 0.661134
O O18 0.415656 0.750000 0.081496
O O19 0.430759 0.499682 0.141154
O O20 0.673608 0.750000 0.275386
O O21 0.054142 0.250000 0.201744
#
# Coordination Sequence:
#
# PCOD9447733 Si02
#       8
#     8   8   8   8   8   8   8   8
#     4   9  15  22  32  45  63  89 121 157 197 240
#     4   9  16  26  39  55  75  99 129 165 204 246
#     4  10  19  31  47  66  88 113 142 177 216 260
#     4   9  15  21  28  39  57  82 115 156 198 238
#     4   9  18  32  48  65  86 113 144 177 214 257
#     4   9  15  21  28  39  57  83 116 154 196 240
#     4   9  16  25  38  56  76  98 127 165 206 245
#     4   9  15  22  32  46  64  88 120 158 199 240
#
# _framework density 15.822429
#
# number of rings (size 3 to 8) (size 9 to 14) (size 15 to 20)
#    0.000    2.875    0.000    2.625    0.000    9.750 
#    0.000    0.000    0.000    0.000    0.000    0.000 
#    0.000    0.000    0.000    0.000    0.000    1.250 
#
# Total GULP energy -356426.766454 kJ/mol
# GULP energy per Si atom -5569.168226 kJ/mol
# Density = 1.578642 g / cm^3
# Si number density = 15.822429 Si / 1000 Ang^3
#
#
#
# Elastic Constant Matrix: (Units=GPa)
#
#
# Indices 1 2 3 4 5 6 
#
# 1 29.6611 30.4791 35.1961 0.0000 0.0000 0.0000
# 2 30.4791 127.5763 89.4783 0.0000 0.0000 0.0000
# 3 35.1961 89.4783 143.1634 0.0000 0.0000 0.0000
# 4 0.0000 0.0000 0.0000 32.4512 0.0000 0.0000
# 5 0.0000 0.0000 0.0000 0.0000 2.8681 0.0000
# 6 0.0000 0.0000 0.0000 0.0000 0.0000 2.7991
#
#
#
# Elastic Compliance Matrix: (Units=1/GPa)
#
#
# Indices 1 2 3 4 5 6 
#
# 1 0.049989 -0.005917 -0.008591 0.000000 0.000000 0.000000
# 2 -0.005917 0.014657 -0.007706 0.000000 0.000000 0.000000
# 3 -0.008591 -0.007706 0.013913 0.000000 0.000000 0.000000
# 4 0.000000 0.000000 0.000000 0.030816 0.000000 0.000000
# 5 0.000000 0.000000 0.000000 0.000000 0.348668 0.000000
# 6 0.000000 0.000000 0.000000 0.000000 0.000000 0.357261
#
#
# Mechanical properties :
#
#
# Convention : Reuss Voigt Hill
#
# Bulk Modulus (GPa) = 29.29934 67.85643 48.57789
# Shear Modulus (GPa) = 5.73981 17.30682 11.52331
#
# Velocity S-wave (km/s) = 1.90670 3.31088 2.70161
# Velocity P-wave (km/s) = 4.83789 7.58915 6.36397
#
# Compressibility (1/GPa) = 0.03413046
#
# Stress axis : x y z
#
# Youngs Moduli (GPa) = 20.00442 68.22767 71.87295
#
# Poissons Ratio (x) = 0.40371 0.61748
# Poissons Ratio (y) = 0.11837 0.55385
# Poissons Ratio (z) = 0.17186 0.52576
#
# Static dielectric constant tensor:
#      x y z
#    x 1.541480 0.000000 0.000000 
#    y 0.000000 1.533190 0.000000 
#    z 0.000000 0.000000 1.508560 
# 
# From -- ./inp_files/31065.got.cif
#   From: 2010.05.17/outbox.cif.g08.bks.cpg/sg59_16_cif.got.tgz:31065.got - 2010.06.03 14:40:33.
