data_PCOD9447000
_publ_section_title
;
Structure prediction by ZEFSAII (Michael W. Deem and Ramdas Pophale) SiO2 
 PCOD9447000
Probable space group: P M M N
;
_chemical_formula_sum "Si O2"
_cell_formula_units_Z 36
_cell_length_a 15.387595
_cell_length_b 13.472146
_cell_length_c 7.676782
_cell_angle_alpha 90.000000
_cell_angle_beta 90.000000
_cell_angle_gamma 90.000000
_cell_volume 1591.427051
_symmetry_space_group_name_H-M "P M M N"
_symmetry_group_IT_number 59
_space_group.IT_coordinate_system_code '2'
_symmetry_cell_setting 'orthorhombic'
loop_
_space_group_symop_operation_xyz
x,y,z
1/2-x,1/2-y,z
1/2+x,-y,-z
-x,1/2+y,-z
-x,-y,-z
1/2+x,1/2+y,-z
1/2-x,y,z
x,1/2-y,z
loop_
_atom_site_type_symbol
_atom_site_label
_atom_site_fract_x
_atom_site_fract_y
_atom_site_fract_z
Si Si1 0.565341 0.370094 0.938996
Si Si2 0.750000 0.959984 0.339425
Si Si3 0.934079 0.630153 0.354545
Si Si4 0.250000 0.630626 0.920832
Si Si5 0.559914 0.868876 0.755320
Si Si6 0.250000 0.131179 0.281867
O O1 0.564022 0.250000 0.938591
O O2 0.664626 0.397380 0.970141
O O3 0.509072 0.403958 0.104592
O O4 0.516201 0.398753 0.762870
O O5 0.658037 0.910937 0.284748
O O6 0.750000 0.937940 0.546946
O O7 0.750000 0.070275 0.260488
O O8 0.926757 0.750000 0.352060
O O9 0.947583 0.598547 0.555011
O O10 0.250000 0.750000 0.890450
O O11 0.548297 0.750000 0.748369
O O12 0.659390 0.885573 0.813966
O O13 0.250000 0.250000 0.336453
#
# Coordination Sequence:
#
# PCOD9447000 Si02
#       6
#     8   4   8   4   8   4
#     4   9  18  33  52  72 100 139 176 210 249 296
#     4  10  18  31  53  77 105 136 164 206 262 312
#     4   9  17  31  54  83 108 129 160 207 264 317
#     4  10  22  38  51  68 100 141 183 220 247 283
#     4   8  14  27  49  76 105 133 158 194 250 310
#     4   8  14  27  48  77 109 129 151 200 263 319
#
# _framework density 22.621207999999999
#
# number of rings (size 3 to 8) (size 9 to 14) (size 15 to 20)
#    0.000    3.111    0.000    2.333    0.000    1.778 
#    0.000    8.889    0.000   12.000    0.000    0.000 
#    0.000    0.000    0.000    0.000    0.000    0.000 
#
# Total GULP energy -201049.767395 kJ/mol
# GULP energy per Si atom -5584.715761 kJ/mol
# Density = 2.256972 g / cm^3
# Si number density = 22.621208 Si / 1000 Ang^3
#
#
#
# Elastic Constant Matrix: (Units=GPa)
#
#
# Indices 1 2 3 4 5 6 
#
# 1 222.0081 14.7397 96.2003 0.0000 0.0000 0.0000
# 2 14.7397 114.3322 37.2536 0.0000 0.0000 0.0000
# 3 96.2003 37.2536 105.5164 0.0000 0.0000 0.0000
# 4 0.0000 0.0000 0.0000 35.1407 0.0000 0.0000
# 5 0.0000 0.0000 0.0000 0.0000 68.7340 0.0000
# 6 0.0000 0.0000 0.0000 0.0000 0.0000 -11.5390
#
#
#
# Elastic Compliance Matrix: (Units=1/GPa)
#
#
# Indices 1 2 3 4 5 6 
#
# 1 0.007654 0.001454 -0.007492 0.000000 0.000000 0.000000
# 2 0.001454 0.010160 -0.004913 0.000000 0.000000 0.000000
# 3 -0.007492 -0.004913 0.018042 0.000000 0.000000 0.000000
# 4 0.000000 0.000000 0.000000 0.028457 0.000000 0.000000
# 5 0.000000 0.000000 0.000000 0.000000 0.014549 0.000000
# 6 0.000000 0.000000 0.000000 0.000000 0.000000 -0.086663
#
#
# Mechanical properties :
#
#
# Convention : Reuss Voigt Hill
#
# Bulk Modulus (GPa) = 71.65795 82.02711 76.84253
# Shear Modulus (GPa) = 266.64394 38.04468 152.34431
#
# Velocity S-wave (km/s) = 10.86873 4.10544 8.21535
# Velocity P-wave (km/s) = 13.75688 7.66895 11.13698
#
# Compressibility (1/GPa) = 0.01395519
#
# Stress axis : x y z
#
# Youngs Moduli (GPa) = 130.64860 98.42752 55.42589
#
# Poissons Ratio (x) = -0.14315 0.41524
# Poissons Ratio (y) = -0.19001 0.27230
# Poissons Ratio (z) = 0.97879 0.48357
#
# Static dielectric constant tensor:
#      x y z
#    x 1.813390 0.000000 0.000000 
#    y 0.000000 1.863680 0.000000 
#    z 0.000000 0.000000 1.812660 
# 
# From -- ./inp_files/8522.got.cif
#   From: 2010.05.17/outbox.cif.g08.bks.cpg/sg59_5_cif.got.tgz:8522.got - 2010.06.03 14:40:33.
