data_PCOD9447624
_publ_section_title
;
Structure prediction by ZEFSAII (Michael W. Deem and Ramdas Pophale) SiO2 
 PCOD9447624
Probable space group: P M M N
;
_chemical_formula_sum "Si O2"
_cell_formula_units_Z 64
_cell_length_a 25.576277
_cell_length_b 9.525013
_cell_length_c 15.956715
_cell_angle_alpha 90.000000
_cell_angle_beta 90.000000
_cell_angle_gamma 90.000000
_cell_volume 3887.285087
_symmetry_space_group_name_H-M "P M M N"
_symmetry_group_IT_number 59
_space_group.IT_coordinate_system_code '2'
_symmetry_cell_setting 'orthorhombic'
loop_
_space_group_symop_operation_xyz
x,y,z
1/2-x,1/2-y,z
1/2+x,-y,-z
-x,1/2+y,-z
-x,-y,-z
1/2+x,1/2+y,-z
1/2-x,y,z
x,1/2-y,z
loop_
_atom_site_type_symbol
_atom_site_label
_atom_site_fract_x
_atom_site_fract_y
_atom_site_fract_z
Si Si1 0.447923 0.088725 0.697135
Si Si2 0.101621 0.915669 0.549824
Si Si3 0.580907 0.417973 0.960645
Si Si4 0.934028 0.410748 0.632964
Si Si5 0.690509 0.593742 0.520994
Si Si6 0.190570 0.918242 0.128499
Si Si7 0.469805 0.081688 0.885593
Si Si8 0.657218 0.585423 0.709412
O O1 0.429004 0.250000 0.693179
O O2 0.507723 0.087863 0.666373
O O3 0.449422 0.042794 0.793686
O O4 0.417238 0.992772 0.632648
O O5 0.100765 0.750000 0.561701
O O6 0.068011 0.948985 0.465610
O O7 0.157784 0.974974 0.523963
O O8 0.581025 0.250000 0.975831
O O9 0.638946 0.455643 0.926943
O O10 0.532345 0.446297 0.896516
O O11 0.562522 0.500655 0.043278
O O12 0.913446 0.250000 0.640244
O O13 0.898055 0.514199 0.686418
O O14 0.750000 0.592227 0.493801
O O15 0.667750 0.750000 0.504578
O O16 0.687761 0.574075 0.621291
O O17 0.250000 0.946323 0.095564
O O18 0.187196 0.750000 0.142643
O O19 0.183524 0.001245 0.215325
O O20 0.463744 0.250000 0.895835
O O21 0.652349 0.750000 0.730167
#
# Coordination Sequence:
#
# PCOD9447624 Si02
#       8
#     8   8   8   8   8   8   8   8
#     4  10  19  32  50  70  97 131 163 197 240 290
#     4  10  20  31  46  71  99 126 161 202 241 284
#     4   9  18  34  53  73  98 125 157 198 243 291
#     4   9  18  32  48  68  99 136 166 196 237 284
#     4   9  18  33  50  66  90 127 166 201 240 285
#     4  10  20  33  50  72 100 134 165 193 235 294
#     4   9  18  32  52  75  96 123 159 200 244 289
#     4  10  19  30  47  73 102 130 163 201 237 278
#
# _framework density 16.463932
#
# number of rings (size 3 to 8) (size 9 to 14) (size 15 to 20)
#    0.000    2.500    0.000    2.250    0.000    5.500 
#    0.000    2.500    0.000    0.750    0.000    3.500 
#    0.000    0.000    0.000    0.000    0.000    0.000 
#
# Total GULP energy -356611.126363 kJ/mol
# GULP energy per Si atom -5572.048849 kJ/mol
# Density = 1.642646 g / cm^3
# Si number density = 16.463932 Si / 1000 Ang^3
#
#
#
# Elastic Constant Matrix: (Units=GPa)
#
#
# Indices 1 2 3 4 5 6 
#
# 1 82.3605 35.8807 46.0254 0.0000 0.0000 0.0000
# 2 35.8807 40.9248 41.0049 0.0000 0.0000 0.0000
# 3 46.0254 41.0049 88.5257 0.0000 0.0000 0.0000
# 4 0.0000 0.0000 0.0000 27.2089 0.0000 0.0000
# 5 0.0000 0.0000 0.0000 0.0000 11.1188 0.0000
# 6 0.0000 0.0000 0.0000 0.0000 0.0000 18.3049
#
#
#
# Elastic Compliance Matrix: (Units=1/GPa)
#
#
# Indices 1 2 3 4 5 6 
#
# 1 0.020507 -0.013616 -0.004355 0.000000 0.000000 0.000000
# 2 -0.013616 0.054637 -0.018229 0.000000 0.000000 0.000000
# 3 -0.004355 -0.018229 0.022004 0.000000 0.000000 0.000000
# 4 0.000000 0.000000 0.000000 0.036753 0.000000 0.000000
# 5 0.000000 0.000000 0.000000 0.000000 0.089938 0.000000
# 6 0.000000 0.000000 0.000000 0.000000 0.000000 0.054630
#
#
# Mechanical properties :
#
#
# Convention : Reuss Voigt Hill
#
# Bulk Modulus (GPa) = 40.40607 50.84812 45.62710
# Shear Modulus (GPa) = 13.92297 17.25319 15.58808
#
# Velocity S-wave (km/s) = 2.91119 3.24070 3.08035
# Velocity P-wave (km/s) = 5.99128 6.70481 6.35806
#
# Compressibility (1/GPa) = 0.02474876
#
# Stress axis : x y z
#
# Youngs Moduli (GPa) = 48.76278 18.30246 45.44667
#
# Poissons Ratio (x) = 0.24921 0.19792
# Poissons Ratio (y) = 0.66397 0.82843
# Poissons Ratio (z) = 0.21236 0.33363
#
# Static dielectric constant tensor:
#      x y z
#    x 1.557780 0.000000 0.000000 
#    y 0.000000 1.559690 0.000000 
#    z 0.000000 0.000000 1.540660 
# 
# From -- ./inp_files/24796.got.cif
#   From: 2010.05.17/outbox.cif.g08.bks.cpg/sg59_13_cif.got.tgz:24796.got - 2010.06.03 14:40:33.
