data_PCOD9447230
_publ_section_title
;
Structure prediction by ZEFSAII (Michael W. Deem and Ramdas Pophale) SiO2 
 PCOD9447230
Probable space group: P M M N
;
_chemical_formula_sum "Si O2"
_cell_formula_units_Z 64
_cell_length_a 7.729147
_cell_length_b 31.989948
_cell_length_c 11.956500
_cell_angle_alpha 90.000000
_cell_angle_beta 90.000000
_cell_angle_gamma 90.000000
_cell_volume 2956.304534
_symmetry_space_group_name_H-M "P M M N"
_symmetry_group_IT_number 59
_space_group.IT_coordinate_system_code '2'
_symmetry_cell_setting 'orthorhombic'
loop_
_space_group_symop_operation_xyz
x,y,z
1/2-x,1/2-y,z
1/2+x,-y,-z
-x,1/2+y,-z
-x,-y,-z
1/2+x,1/2+y,-z
1/2-x,y,z
x,1/2-y,z
loop_
_atom_site_type_symbol
_atom_site_label
_atom_site_fract_x
_atom_site_fract_y
_atom_site_fract_z
Si Si1 0.048899 0.448484 0.260893
Si Si2 0.047252 0.962457 0.216765
Si Si3 0.050856 0.379967 0.658072
Si Si4 0.046592 0.295258 0.763155
Si Si5 0.049969 0.628843 0.592289
Si Si6 0.540867 0.326334 0.001740
Si Si7 0.039589 0.576319 0.988868
Si Si8 0.538500 0.297209 0.248018
O O1 0.250000 0.447225 0.295132
O O2 0.975236 0.495422 0.271945
O O3 0.958450 0.412335 0.331129
O O4 0.032412 0.438114 0.129546
O O5 0.250000 0.971577 0.199449
O O6 0.976860 0.950918 0.094014
O O7 0.033677 0.921550 0.292832
O O8 0.250000 0.382099 0.695600
O O9 0.972086 0.336979 0.706598
O O10 0.042219 0.378333 0.524826
O O11 0.250000 0.294369 0.733549
O O12 0.971690 0.250000 0.731421
O O13 0.029873 0.301538 0.896028
O O14 0.250000 0.637749 0.565730
O O15 0.979666 0.667693 0.664662
O O16 0.750000 0.323521 0.997675
O O17 0.493513 0.375155 0.991565
O O18 0.484186 0.309196 0.122176
O O19 0.250000 0.574390 0.983429
O O20 0.750000 0.298581 0.247649
O O21 0.485764 0.250000 0.275532
#
# Coordination Sequence:
#
# PCOD9447230 Si02
#       8
#     8   8   8   8   8   8   8   8
#     4  11  23  38  60  89 120 154 193 236 289 351
#     4  10  22  40  61  87 119 155 194 239 287 344
#     4  11  24  41  61  85 113 152 198 245 292 345
#     4  10  22  39  58  85 122 157 189 232 290 350
#     4  11  23  41  62  83 113 154 195 245 296 341
#     4  10  18  33  60  89 118 153 193 236 283 339
#     4  10  19  35  60  89 121 154 191 235 288 343
#     4   9  18  34  57  86 116 147 187 234 284 337
#
# _framework density 21.648648999999999
#
# number of rings (size 3 to 8) (size 9 to 14) (size 15 to 20)
#    0.000    1.750    2.500    1.875    0.000    4.250 
#    0.000    0.000    0.000    1.875    0.000    0.000 
#    0.000    0.000    0.000    0.000    0.000    0.000 
#
# Total GULP energy -357677.408060 kJ/mol
# GULP energy per Si atom -5588.709501 kJ/mol
# Density = 2.159938 g / cm^3
# Si number density = 21.648649 Si / 1000 Ang^3
#
#
#
# Elastic Constant Matrix: (Units=GPa)
#
#
# Indices 1 2 3 4 5 6 
#
# 1 34.4529 -4.6147 -15.8138 0.0000 0.0000 0.0000
# 2 -4.6147 154.5051 33.8547 0.0000 0.0000 0.0000
# 3 -15.8138 33.8547 92.6205 0.0000 0.0000 0.0000
# 4 0.0000 0.0000 0.0000 -2.2075 0.0000 0.0000
# 5 0.0000 0.0000 0.0000 0.0000 26.5658 0.0000
# 6 0.0000 0.0000 0.0000 0.0000 0.0000 -21.1632
#
#
#
# Elastic Compliance Matrix: (Units=1/GPa)
#
#
# Indices 1 2 3 4 5 6 
#
# 1 0.031503 -0.000258 0.005473 0.000000 0.000000 0.000000
# 2 -0.000258 0.007038 -0.002617 0.000000 0.000000 0.000000
# 3 0.005473 -0.002617 0.012688 0.000000 0.000000 0.000000
# 4 0.000000 0.000000 0.000000 -0.452999 0.000000 0.000000
# 5 0.000000 0.000000 0.000000 0.000000 0.037642 0.000000
# 6 0.000000 0.000000 0.000000 0.000000 0.000000 -0.047252
#
#
# Mechanical properties :
#
#
# Convention : Reuss Voigt Hill
#
# Bulk Modulus (GPa) = 17.72280 34.27011 25.99645
# Shear Modulus (GPa) = -12.57013 18.51583 2.97285
#
# Velocity S-wave (km/s) = -2.41227 2.92770 1.17312
# Velocity P-wave (km/s) = 0.66755 5.22428 3.72416
#
# Compressibility (1/GPa) = 0.05642451
#
# Stress axis : x y z
#
# Youngs Moduli (GPa) = 31.74336 142.08776 78.81692
#
# Poissons Ratio (x) = 0.03671 -0.43137
# Poissons Ratio (y) = 0.00820 0.20623
# Poissons Ratio (z) = -0.17373 0.37179
#
# Static dielectric constant tensor:
#      x y z
#    x 1.800560 0.000000 0.000000 
#    y 0.000000 1.809280 0.000000 
#    z 0.000000 0.000000 1.733180 
# 
# From -- ./inp_files/15056.got.cif
#   From: 2010.05.17/outbox.cif.g08.bks.cpg/sg59_8_cif.got.tgz:15056.got - 2010.06.03 14:40:33.
