data_PCOD9447852
_publ_section_title
;
Structure prediction by ZEFSAII (Michael W. Deem and Ramdas Pophale) SiO2 
 PCOD9447852
Probable space group: P M M N
;
_chemical_formula_sum "Si O2"
_cell_formula_units_Z 64
_cell_length_a 17.863740
_cell_length_b 8.880872
_cell_length_c 23.668165
_cell_angle_alpha 90.000000
_cell_angle_beta 90.000000
_cell_angle_gamma 90.000000
_cell_volume 3754.849962
_symmetry_space_group_name_H-M "P M M N"
_symmetry_group_IT_number 59
_space_group.IT_coordinate_system_code '2'
_symmetry_cell_setting 'orthorhombic'
loop_
_space_group_symop_operation_xyz
x,y,z
1/2-x,1/2-y,z
1/2+x,-y,-z
-x,1/2+y,-z
-x,-y,-z
1/2+x,1/2+y,-z
1/2-x,y,z
x,1/2-y,z
loop_
_atom_site_type_symbol
_atom_site_label
_atom_site_fract_x
_atom_site_fract_y
_atom_site_fract_z
Si Si1 0.523255 0.430598 0.636810
Si Si2 0.445188 0.569897 0.873306
Si Si3 0.664370 0.932322 0.569186
Si Si4 0.086258 0.927318 0.064687
Si Si5 0.430458 0.069234 0.533668
Si Si6 0.975537 0.929018 0.758876
Si Si7 0.162251 0.429045 0.955632
Si Si8 0.164533 0.927480 0.182421
O O1 0.530415 0.250000 0.636641
O O2 0.599475 0.498509 0.608997
O O3 0.451304 0.473552 0.597759
O O4 0.512391 0.490370 0.699665
O O5 0.441705 0.750000 0.876702
O O6 0.512196 0.510235 0.913264
O O7 0.467496 0.527191 0.809320
O O8 0.370970 0.496101 0.898029
O O9 0.750000 0.978886 0.581695
O O10 0.660919 0.750000 0.574440
O O11 0.641434 0.972950 0.504172
O O12 0.070825 0.750000 0.057242
O O13 0.145254 0.944540 0.116111
O O14 0.118616 0.996529 0.007832
O O15 0.433931 0.250000 0.531566
O O16 0.500000 0.000000 0.500000
O O17 0.979179 0.750000 0.751508
O O18 0.894240 0.976195 0.782466
O O19 0.250000 0.461296 0.961182
O O20 0.150931 0.250000 0.956910
O O21 0.250000 0.968786 0.193540
O O22 0.153995 0.750000 0.195791
#
# Coordination Sequence:
#
# PCOD9447852 Si02
#       8
#     8   8   8   8   8   8   8   8
#     4  10  19  31  49  71  96 128 164 201 237 279
#     4  10  21  37  55  74  98 130 168 209 251 295
#     4   9  17  30  49  73 102 131 157 192 237 282
#     4  10  19  33  54  77 102 131 163 200 245 300
#     4   8  15  28  46  69  94 123 158 191 227 270
#     4  10  21  35  51  71  94 126 168 207 244 287
#     4  11  23  36  52  76 103 129 160 202 252 304
#     4   9  18  32  49  70  97 129 163 199 241 289
#
# _framework density 17.044622
#
# number of rings (size 3 to 8) (size 9 to 14) (size 15 to 20)
#    0.000    2.375    0.000    2.625    0.000    5.000 
#    0.000    0.000    0.000    0.750    0.000    1.750 
#    0.000    0.000    0.000    0.000    0.000    0.000 
#
# Total GULP energy -356781.015525 kJ/mol
# GULP energy per Si atom -5574.703368 kJ/mol
# Density = 1.700583 g / cm^3
# Si number density = 17.044622 Si / 1000 Ang^3
#
#
#
# Elastic Constant Matrix: (Units=GPa)
#
#
# Indices 1 2 3 4 5 6 
#
# 1 28.9800 16.8840 37.1851 0.0000 0.0000 0.0000
# 2 16.8840 29.6497 38.6654 0.0000 0.0000 0.0000
# 3 37.1851 38.6654 122.8298 0.0000 0.0000 0.0000
# 4 0.0000 0.0000 0.0000 22.1277 0.0000 0.0000
# 5 0.0000 0.0000 0.0000 0.0000 6.5518 0.0000
# 6 0.0000 0.0000 0.0000 0.0000 0.0000 21.8904
#
#
#
# Elastic Compliance Matrix: (Units=1/GPa)
#
#
# Indices 1 2 3 4 5 6 
#
# 1 0.061773 -0.018303 -0.012939 0.000000 0.000000 0.000000
# 2 -0.018303 0.062637 -0.014176 0.000000 0.000000 0.000000
# 3 -0.012939 -0.014176 0.016521 0.000000 0.000000 0.000000
# 4 0.000000 0.000000 0.000000 0.045192 0.000000 0.000000
# 5 0.000000 0.000000 0.000000 0.000000 0.152629 0.000000
# 6 0.000000 0.000000 0.000000 0.000000 0.000000 0.045682
#
#
# Mechanical properties :
#
#
# Convention : Reuss Voigt Hill
#
# Bulk Modulus (GPa) = 19.96255 40.76985 30.36620
# Shear Modulus (GPa) = 10.16323 16.02899 13.09611
#
# Velocity S-wave (km/s) = 2.44452 3.06994 2.77491
# Velocity P-wave (km/s) = 4.43902 6.04462 5.30294
#
# Compressibility (1/GPa) = 0.05009380
#
# Stress axis : x y z
#
# Youngs Moduli (GPa) = 16.18832 15.96506 60.52827
#
# Poissons Ratio (x) = 0.29220 0.78320
# Poissons Ratio (y) = 0.29629 0.85808
# Poissons Ratio (z) = 0.20947 0.22633
#
# Static dielectric constant tensor:
#      x y z
#    x 1.567910 0.000000 0.000000 
#    y 0.000000 1.568710 0.000000 
#    z 0.000000 0.000000 1.591400 
# 
# From -- ./inp_files/32308.got.cif
#   From: 2010.05.17/outbox.cif.g08.bks.cpg/sg59_17_cif.got.tgz:32308.got - 2010.06.03 14:40:33.
