data_PCOD9447116
_publ_section_title
;
Structure prediction by ZEFSAII (Michael W. Deem and Ramdas Pophale) SiO2 
 PCOD9447116
Probable space group: P M M N
;
_chemical_formula_sum "Si O2"
_cell_formula_units_Z 64
_cell_length_a 14.321526
_cell_length_b 16.852797
_cell_length_c 14.844753
_cell_angle_alpha 90.000000
_cell_angle_beta 90.000000
_cell_angle_gamma 90.000000
_cell_volume 3582.896486
_symmetry_space_group_name_H-M "P M M N"
_symmetry_group_IT_number 59
_space_group.IT_coordinate_system_code '2'
_symmetry_cell_setting 'orthorhombic'
loop_
_space_group_symop_operation_xyz
x,y,z
1/2-x,1/2-y,z
1/2+x,-y,-z
-x,1/2+y,-z
-x,-y,-z
1/2+x,1/2+y,-z
1/2-x,y,z
x,1/2-y,z
loop_
_atom_site_type_symbol
_atom_site_label
_atom_site_fract_x
_atom_site_fract_y
_atom_site_fract_z
Si Si1 0.859441 0.660605 0.674458
Si Si2 0.907931 0.959061 0.536900
Si Si3 0.645848 0.421771 0.844658
Si Si4 0.643551 0.612306 0.875956
Si Si5 0.977407 0.911578 0.036495
Si Si6 0.434463 0.159674 0.611398
Si Si7 0.646489 0.385631 0.631960
Si Si8 0.361068 0.157550 0.811130
O O1 0.750000 0.640167 0.656847
O O2 0.875780 0.750000 0.644182
O O3 0.922383 0.599291 0.621060
O O4 0.872375 0.654165 0.781068
O O5 0.881260 0.900625 0.455200
O O6 0.849769 0.031661 0.577037
O O7 0.000000 0.000000 0.500000
O O8 0.750000 0.397588 0.871039
O O9 0.639559 0.517509 0.855540
O O10 0.569898 0.383965 0.910982
O O11 0.634398 0.401977 0.739134
O O12 0.750000 0.629986 0.906635
O O13 0.567103 0.632376 0.950844
O O14 0.899512 0.902694 0.114106
O O15 0.000000 0.000000 0.000000
O O16 0.406079 0.250000 0.592703
O O17 0.547992 0.153636 0.602338
O O18 0.408076 0.141598 0.714599
O O19 0.750000 0.347486 0.620637
O O20 0.250000 0.151435 0.802753
O O21 0.383219 0.250000 0.835750
#
# Coordination Sequence:
#
# PCOD9447116 Si02
#       8
#     8   8   8   8   8   8   8   8
#     4  10  19  31  49  75 106 137 171 213 263 318
#     4  10  20  32  52  75 104 137 172 217 265 312
#     4   9  16  29  49  73 101 132 172 221 264 304
#     4   9  17  29  47  73 103 135 172 215 264 315
#     4  10  19  31  53  76 104 140 181 224 267 308
#     4  10  21  36  53  78 109 142 179 215 265 329
#     4  10  18  32  55  77 102 137 178 226 269 306
#     4  10  21  36  52  74 110 148 177 212 264 327
#
# _framework density 17.862642000000001
#
# number of rings (size 3 to 8) (size 9 to 14) (size 15 to 20)
#    0.000    2.250    2.500    1.125    0.000    2.250 
#    0.000    2.500    0.000    0.375    0.000    0.875 
#    0.000    5.000    0.000    0.000    0.000    0.000 
#
# Total GULP energy -356299.121642 kJ/mol
# GULP energy per Si atom -5567.173776 kJ/mol
# Density = 1.782199 g / cm^3
# Si number density = 17.862642 Si / 1000 Ang^3
#
#
#
# Elastic Constant Matrix: (Units=GPa)
#
#
# Indices 1 2 3 4 5 6 
#
# 1 78.8985 15.6142 34.0018 0.0000 0.0000 0.0000
# 2 15.6142 52.5269 31.8972 0.0000 0.0000 0.0000
# 3 34.0018 31.8972 83.2110 0.0000 0.0000 0.0000
# 4 0.0000 0.0000 0.0000 15.6754 0.0000 0.0000
# 5 0.0000 0.0000 0.0000 0.0000 -17.8478 0.0000
# 6 0.0000 0.0000 0.0000 0.0000 0.0000 2.1738
#
#
#
# Elastic Compliance Matrix: (Units=1/GPa)
#
#
# Indices 1 2 3 4 5 6 
#
# 1 0.015423 -0.000987 -0.005924 0.000000 0.000000 0.000000
# 2 -0.000987 0.024877 -0.009133 0.000000 0.000000 0.000000
# 3 -0.005924 -0.009133 0.017939 0.000000 0.000000 0.000000
# 4 0.000000 0.000000 0.000000 0.063794 0.000000 0.000000
# 5 0.000000 0.000000 0.000000 0.000000 -0.056029 0.000000
# 6 0.000000 0.000000 0.000000 0.000000 0.000000 0.460032
#
#
# Mechanical properties :
#
#
# Convention : Reuss Voigt Hill
#
# Bulk Modulus (GPa) = 38.23864 41.96253 40.10059
# Shear Modulus (GPa) = 8.82082 8.87516 8.84799
#
# Velocity S-wave (km/s) = 2.22460 2.23144 2.22803
# Velocity P-wave (km/s) = 5.29641 5.49381 5.39601
#
# Compressibility (1/GPa) = 0.02615156
#
# Stress axis : x y z
#
# Youngs Moduli (GPa) = 64.83942 40.19734 55.74464
#
# Poissons Ratio (x) = 0.03969 0.33020
# Poissons Ratio (y) = 0.06403 0.50910
# Poissons Ratio (z) = 0.38408 0.36711
#
# Static dielectric constant tensor:
#      x y z
#    x 1.625800 0.000000 0.000000 
#    y 0.000000 1.627490 0.000000 
#    z 0.000000 0.000000 1.615430 
# 
# From -- ./inp_files/23461.got.cif
#   From: 2010.05.17/outbox.cif.g08.bks.cpg/sg59_12_cif.got.tgz:23461.got - 2010.06.03 14:40:33.
