data_PCOD9447664
_publ_section_title
;
Structure prediction by ZEFSAII (Michael W. Deem and Ramdas Pophale) SiO2 
 PCOD9447664
Probable space group: P M M N
;
_chemical_formula_sum "Si O2"
_cell_formula_units_Z 40
_cell_length_a 18.571439
_cell_length_b 8.838938
_cell_length_c 14.166805
_cell_angle_alpha 90.000000
_cell_angle_beta 90.000000
_cell_angle_gamma 90.000000
_cell_volume 2325.506511
_symmetry_space_group_name_H-M "P M M N"
_symmetry_group_IT_number 59
_space_group.IT_coordinate_system_code '2'
_symmetry_cell_setting 'orthorhombic'
loop_
_space_group_symop_operation_xyz
x,y,z
1/2-x,1/2-y,z
1/2+x,-y,-z
-x,1/2+y,-z
-x,-y,-z
1/2+x,1/2+y,-z
1/2-x,y,z
x,1/2-y,z
loop_
_atom_site_type_symbol
_atom_site_label
_atom_site_fract_x
_atom_site_fract_y
_atom_site_fract_z
Si Si1 0.830160 0.431816 0.696708
Si Si2 0.166975 0.932766 0.923312
Si Si3 0.457655 0.568086 0.785246
Si Si4 0.893147 0.930566 0.884032
Si Si5 0.022699 0.930997 0.400721
O O1 0.750000 0.470582 0.663016
O O2 0.833740 0.250000 0.709437
O O3 0.845559 0.508411 0.797255
O O4 0.895320 0.474956 0.627557
O O5 0.250000 0.980995 0.914090
O O6 0.165562 0.750000 0.928416
O O7 0.116202 0.977518 0.835873
O O8 0.132655 0.996330 0.019084
O O9 0.457998 0.750000 0.772164
O O10 0.524581 0.531014 0.854993
O O11 0.473983 0.490851 0.685569
O O12 0.887301 0.750000 0.890263
O O13 0.018806 0.750000 0.404934
O O14 0.000000 0.000000 0.500000
#
# Coordination Sequence:
#
# PCOD9447664 Si02
#       5
#     8   8   8   8   8
#     4   9  18  33  52  74  99 127 161 200 241 288
#     4  10  20  33  49  70  99 136 172 202 235 281
#     4   9  19  35  52  71  97 129 166 205 243 287
#     4  10  19  30  48  74 102 131 162 200 246 290
#     4  10  20  35  56  77  97 125 161 201 246 294
#
# _framework density 17.200552999999999
#
# number of rings (size 3 to 8) (size 9 to 14) (size 15 to 20)
#    0.000    2.400    0.000    2.400    0.000    5.600 
#    0.000    1.000    0.000    6.000    0.000    0.000 
#    0.000    0.000    0.000    0.000    0.000    0.000 
#
# Total GULP energy -223181.516891 kJ/mol
# GULP energy per Si atom -5579.537922 kJ/mol
# Density = 1.716140 g / cm^3
# Si number density = 17.200553 Si / 1000 Ang^3
#
#
#
# Elastic Constant Matrix: (Units=GPa)
#
#
# Indices 1 2 3 4 5 6 
#
# 1 121.4542 40.8504 103.9995 0.0000 0.0000 0.0000
# 2 40.8504 20.9408 44.5450 0.0000 0.0000 0.0000
# 3 103.9995 44.5450 152.7585 0.0000 0.0000 0.0000
# 4 0.0000 0.0000 0.0000 33.2511 0.0000 0.0000
# 5 0.0000 0.0000 0.0000 0.0000 13.3517 0.0000
# 6 0.0000 0.0000 0.0000 0.0000 0.0000 22.1800
#
#
#
# Elastic Compliance Matrix: (Units=1/GPa)
#
#
# Indices 1 2 3 4 5 6 
#
# 1 0.027232 -0.036042 -0.008030 0.000000 0.000000 0.000000
# 2 -0.036042 0.173467 -0.026046 0.000000 0.000000 0.000000
# 3 -0.008030 -0.026046 0.019608 0.000000 0.000000 0.000000
# 4 0.000000 0.000000 0.000000 0.030074 0.000000 0.000000
# 5 0.000000 0.000000 0.000000 0.000000 0.074897 0.000000
# 6 0.000000 0.000000 0.000000 0.000000 0.000000 0.045086
#
#
# Mechanical properties :
#
#
# Convention : Reuss Voigt Hill
#
# Bulk Modulus (GPa) = 12.48879 74.88258 43.68568
# Shear Modulus (GPa) = 9.30598 20.80714 15.05656
#
# Velocity S-wave (km/s) = 2.32852 3.48182 2.96185
# Velocity P-wave (km/s) = 3.80865 7.73263 6.09505
#
# Compressibility (1/GPa) = 0.08007180
#
# Stress axis : x y z
#
# Youngs Moduli (GPa) = 36.72192 5.76478 50.99931
#
# Poissons Ratio (x) = 0.20777 0.40951
# Poissons Ratio (y) = 1.32352 1.32833
# Poissons Ratio (z) = 0.29487 0.15015
#
# Static dielectric constant tensor:
#      x y z
#    x 1.607180 0.000000 0.000000 
#    y 0.000000 1.581740 0.000000 
#    z 0.000000 0.000000 1.534620 
# 
# From -- ./inp_files/13848.got.cif
#   From: 2010.05.17/outbox.cif.g08.bks.cpg/sg59_7_cif.got.tgz:13848.got - 2010.06.03 14:40:33.
