data_PCOD9447669
_publ_section_title
;
Structure prediction by ZEFSAII (Michael W. Deem and Ramdas Pophale) SiO2 
 PCOD9447669
Probable space group: P M M N
;
_chemical_formula_sum "Si O2"
_cell_formula_units_Z 56
_cell_length_a 25.276818
_cell_length_b 13.883733
_cell_length_c 9.958476
_cell_angle_alpha 90.000000
_cell_angle_beta 90.000000
_cell_angle_gamma 90.000000
_cell_volume 3494.793631
_symmetry_space_group_name_H-M "P M M N"
_symmetry_group_IT_number 59
_space_group.IT_coordinate_system_code '2'
_symmetry_cell_setting 'orthorhombic'
loop_
_space_group_symop_operation_xyz
x,y,z
1/2-x,1/2-y,z
1/2+x,-y,-z
-x,1/2+y,-z
-x,-y,-z
1/2+x,1/2+y,-z
1/2-x,y,z
x,1/2-y,z
loop_
_atom_site_type_symbol
_atom_site_label
_atom_site_fract_x
_atom_site_fract_y
_atom_site_fract_z
Si Si1 0.812225 0.137351 0.655885
Si Si2 0.490236 0.636754 0.138345
Si Si3 0.123858 0.537538 0.114549
Si Si4 0.519349 0.478729 0.348643
Si Si5 0.125629 0.860633 0.620214
Si Si6 0.052219 0.136727 0.142730
Si Si7 0.687647 0.138671 0.108855
O O1 0.750000 0.120275 0.635133
O O2 0.818205 0.250000 0.696157
O O3 0.836711 0.069848 0.768623
O O4 0.845233 0.123160 0.520234
O O5 0.491464 0.750000 0.168452
O O6 0.430077 0.599635 0.127454
O O7 0.517254 0.573928 0.255403
O O8 0.518224 0.621217 0.994069
O O9 0.104461 0.428082 0.126822
O O10 0.152720 0.566532 0.978019
O O11 0.500000 0.500000 0.500000
O O12 0.577153 0.431920 0.356239
O O13 0.480837 0.405146 0.268464
O O14 0.105396 0.750000 0.621969
O O15 0.168488 0.868325 0.738357
O O16 0.061819 0.250000 0.157241
O O17 0.750000 0.120771 0.094987
O O18 0.677729 0.250000 0.064803
#
# Coordination Sequence:
#
# PCOD9447669 Si02
#       7
#     8   8   8   8   8   8   8
#     4  10  20  33  49  71  99 129 160 197 244 296
#     4  10  20  34  51  73 102 135 167 199 241 296
#     4  11  19  31  51  73  97 126 162 200 242 287
#     4  11  21  32  50  77 104 130 165 205 246 296
#     4  10  19  32  49  69  99 134 162 193 240 295
#     4  10  21  36  52  71 100 135 168 202 242 291
#     4  10  19  30  48  75 101 126 160 201 244 291
#
# _framework density 16.023834999999998
#
# number of rings (size 3 to 8) (size 9 to 14) (size 15 to 20)
#    0.000    1.714    0.000    7.714    0.000    7.429 
#    0.000    0.000    0.000    1.714    0.000    0.000 
#    0.000    5.714    0.000    0.000    0.000    0.000 
#
# Total GULP energy -312634.848193 kJ/mol
# GULP energy per Si atom -5582.765146 kJ/mol
# Density = 1.598736 g / cm^3
# Si number density = 16.023835 Si / 1000 Ang^3
#
#
#
# Elastic Constant Matrix: (Units=GPa)
#
#
# Indices 1 2 3 4 5 6 
#
# 1 46.8377 17.5289 -6.4917 0.0000 0.0000 0.0000
# 2 17.5289 86.2546 23.5531 0.0000 0.0000 0.0000
# 3 -6.4917 23.5531 70.1784 0.0000 0.0000 0.0000
# 4 0.0000 0.0000 0.0000 20.7446 0.0000 0.0000
# 5 0.0000 0.0000 0.0000 0.0000 31.3742 0.0000
# 6 0.0000 0.0000 0.0000 0.0000 0.0000 22.6054
#
#
#
# Elastic Compliance Matrix: (Units=1/GPa)
#
#
# Indices 1 2 3 4 5 6 
#
# 1 0.024225 -0.006093 0.004286 0.000000 0.000000 0.000000
# 2 -0.006093 0.014296 -0.005362 0.000000 0.000000 0.000000
# 3 0.004286 -0.005362 0.016445 0.000000 0.000000 0.000000
# 4 0.000000 0.000000 0.000000 0.048205 0.000000 0.000000
# 5 0.000000 0.000000 0.000000 0.000000 0.031873 0.000000
# 6 0.000000 0.000000 0.000000 0.000000 0.000000 0.044237
#
#
# Mechanical properties :
#
#
# Convention : Reuss Voigt Hill
#
# Bulk Modulus (GPa) = 24.61364 30.27236 27.44300
# Shear Modulus (GPa) = 24.13561 26.19019 25.16290
#
# Velocity S-wave (km/s) = 3.88523 4.04722 3.96705
# Velocity P-wave (km/s) = 5.95992 6.38538 6.17632
#
# Compressibility (1/GPa) = 0.04062787
#
# Stress axis : x y z
#
# Youngs Moduli (GPa) = 41.28007 69.94980 60.80764
#
# Poissons Ratio (x) = 0.42623 -0.26061
# Poissons Ratio (y) = 0.25153 0.32603
# Poissons Ratio (z) = -0.17692 0.37504
#
# Static dielectric constant tensor:
#      x y z
#    x 1.510980 0.000000 0.000000 
#    y 0.000000 1.531480 0.000000 
#    z 0.000000 0.000000 1.542800 
# 
# From -- ./inp_files/11450.got.cif
#   From: 2010.05.17/outbox.cif.g08.bks.cpg/sg59_6_cif.got.tgz:11450.got - 2010.06.03 14:40:33.
