data_PCOD9447592
_publ_section_title
;
Structure prediction by ZEFSAII (Michael W. Deem and Ramdas Pophale) SiO2 
 PCOD9447592
Probable space group: P M M N
;
_chemical_formula_sum "Si O2"
_cell_formula_units_Z 48
_cell_length_a 14.114457
_cell_length_b 8.915688
_cell_length_c 24.416348
_cell_angle_alpha 90.000000
_cell_angle_beta 90.000000
_cell_angle_gamma 90.000000
_cell_volume 3072.555549
_symmetry_space_group_name_H-M "P M M N"
_symmetry_group_IT_number 59
_space_group.IT_coordinate_system_code '2'
_symmetry_cell_setting 'orthorhombic'
loop_
_space_group_symop_operation_xyz
x,y,z
1/2-x,1/2-y,z
1/2+x,-y,-z
-x,1/2+y,-z
-x,-y,-z
1/2+x,1/2+y,-z
1/2-x,y,z
x,1/2-y,z
loop_
_atom_site_type_symbol
_atom_site_label
_atom_site_fract_x
_atom_site_fract_y
_atom_site_fract_z
Si Si1 0.141623 0.930768 0.026163
Si Si2 0.360879 0.569697 0.806077
Si Si3 0.044119 0.570723 0.584555
Si Si4 0.138950 0.429246 0.689266
Si Si5 0.857856 0.930124 0.520335
Si Si6 0.032177 0.930708 0.915527
O O1 0.250000 0.979370 0.032963
O O2 0.138472 0.750000 0.029860
O O3 0.102134 0.971968 0.965801
O O4 0.069018 0.999956 0.069574
O O5 0.250000 0.536207 0.817332
O O6 0.368765 0.750000 0.800229
O O7 0.386966 0.492800 0.748924
O O8 0.423942 0.521881 0.857668
O O9 0.052069 0.750000 0.587754
O O10 0.076318 0.498559 0.641214
O O11 0.110592 0.509334 0.535759
O O12 0.936944 0.531965 0.565707
O O13 0.250000 0.469120 0.679679
O O14 0.131560 0.250000 0.688852
O O15 0.750000 0.969198 0.534869
O O16 0.862490 0.750000 0.511818
O O17 0.025165 0.750000 0.915249
#
# Coordination Sequence:
#
# PCOD9447592 Si02
#       6
#     8   8   8   8   8   8
#     4   9  17  29  45  66  93 123 151 181 222 270
#     4   9  17  30  48  68  90 117 149 185 224 266
#     4  10  19  30  47  70  93 119 152 186 220 262
#     4  10  20  32  46  66  93 122 149 181 224 270
#     4   9  18  32  48  67  93 122 149 181 223 266
#     4   9  17  29  46  68  92 118 150 187 225 265
#
# _framework density 15.622173999999999
#
# number of rings (size 3 to 8) (size 9 to 14) (size 15 to 20)
#    0.000    2.667    0.000    2.000    0.000    7.000 
#    0.000    0.000    0.000    4.000    0.000    2.333 
#    0.000    0.000    0.000    0.000    0.000    0.000 
#
# Total GULP energy -267616.966752 kJ/mol
# GULP energy per Si atom -5575.353474 kJ/mol
# Density = 1.558662 g / cm^3
# Si number density = 15.622174 Si / 1000 Ang^3
#
#
#
# Elastic Constant Matrix: (Units=GPa)
#
#
# Indices 1 2 3 4 5 6 
#
# 1 134.1139 39.6442 90.8152 0.0000 0.0000 0.0000
# 2 39.6442 22.6250 45.2746 0.0000 0.0000 0.0000
# 3 90.8152 45.2746 148.4513 0.0000 0.0000 0.0000
# 4 0.0000 0.0000 0.0000 27.2635 0.0000 0.0000
# 5 0.0000 0.0000 0.0000 0.0000 22.6849 0.0000
# 6 0.0000 0.0000 0.0000 0.0000 0.0000 23.5665
#
#
#
# Elastic Compliance Matrix: (Units=1/GPa)
#
#
# Indices 1 2 3 4 5 6 
#
# 1 0.016034 -0.021726 -0.003183 0.000000 0.000000 0.000000
# 2 -0.021726 0.142855 -0.030277 0.000000 0.000000 0.000000
# 3 -0.003183 -0.030277 0.017917 0.000000 0.000000 0.000000
# 4 0.000000 0.000000 0.000000 0.036679 0.000000 0.000000
# 5 0.000000 0.000000 0.000000 0.000000 0.044082 0.000000
# 6 0.000000 0.000000 0.000000 0.000000 0.000000 0.042433
#
#
# Mechanical properties :
#
#
# Convention : Reuss Voigt Hill
#
# Bulk Modulus (GPa) = 15.05245 72.96200 44.00722
# Shear Modulus (GPa) = 11.56029 23.33341 17.44685
#
# Velocity S-wave (km/s) = 2.72323 3.86892 3.34548
# Velocity P-wave (km/s) = 4.42088 8.17089 6.56916
#
# Compressibility (1/GPa) = 0.06643438
#
# Stress axis : x y z
#
# Youngs Moduli (GPa) = 62.36867 7.00013 55.81299
#
# Poissons Ratio (x) = 0.15208 0.17763
# Poissons Ratio (y) = 1.35502 1.68984
# Poissons Ratio (z) = 0.19850 0.21194
#
# Static dielectric constant tensor:
#      x y z
#    x 1.516410 0.000000 0.000000 
#    y 0.000000 1.523950 0.000000 
#    z 0.000000 0.000000 1.495000 
# 
# From -- ./inp_files/28824.got.cif
#   From: 2010.05.17/outbox.cif.g08.bks.cpg/sg59_15_cif.got.tgz:28824.got - 2010.06.03 14:40:33.
