data_PCOD9447666
_publ_section_title
;
Structure prediction by ZEFSAII (Michael W. Deem and Ramdas Pophale) SiO2 
 PCOD9447666
Probable space group: P M M N
;
_chemical_formula_sum "Si O2"
_cell_formula_units_Z 64
_cell_length_a 9.083270
_cell_length_b 14.112261
_cell_length_c 29.559899
_cell_angle_alpha 90.000000
_cell_angle_beta 90.000000
_cell_angle_gamma 90.000000
_cell_volume 3789.149753
_symmetry_space_group_name_H-M "P M M N"
_symmetry_group_IT_number 59
_space_group.IT_coordinate_system_code '2'
_symmetry_cell_setting 'orthorhombic'
loop_
_space_group_symop_operation_xyz
x,y,z
1/2-x,1/2-y,z
1/2+x,-y,-z
-x,1/2+y,-z
-x,-y,-z
1/2+x,1/2+y,-z
1/2-x,y,z
x,1/2-y,z
loop_
_atom_site_type_symbol
_atom_site_label
_atom_site_fract_x
_atom_site_fract_y
_atom_site_fract_z
Si Si1 0.925958 0.363062 0.576895
Si Si2 0.425965 0.472133 0.659499
Si Si3 0.919519 0.365509 0.476435
Si Si4 0.925674 0.545040 0.069473
Si Si5 0.576754 0.637887 0.616124
Si Si6 0.925868 0.358392 0.016069
Si Si7 0.425978 0.139009 0.749753
Si Si8 0.074400 0.861786 0.154937
O O1 0.750000 0.379538 0.580104
O O2 0.949536 0.250000 0.579987
O O3 0.972454 0.395001 0.526325
O O4 0.008877 0.412967 0.617596
O O5 0.250000 0.472692 0.656908
O O6 0.490160 0.576702 0.652694
O O7 0.469317 0.423706 0.706743
O O8 0.750000 0.396623 0.469655
O O9 0.916349 0.250000 0.477873
O O10 0.018236 0.390884 0.433657
O O11 0.750000 0.555886 0.072623
O O12 0.958756 0.436910 0.054232
O O13 0.000886 0.576661 0.115747
O O14 0.988632 0.609944 0.028930
O O15 0.750000 0.619405 0.618990
O O16 0.551330 0.750000 0.621245
O O17 0.750000 0.364154 0.006932
O O18 0.960543 0.250000 0.028289
O O19 0.250000 0.129277 0.756764
O O20 0.455202 0.250000 0.739650
O O21 0.509565 0.114306 0.795827
O O22 0.250000 0.872857 0.154453
O O23 0.041054 0.750000 0.146715
#
# Coordination Sequence:
#
# PCOD9447666 Si02
#       8
#     8   8   8   8   8   8   8   8
#     4   9  18  32  50  73 102 133 161 192 234 287
#     4  11  22  34  52  76 100 128 160 197 244 297
#     4   8  15  30  50  70  94 125 160 197 236 280
#     4  10  19  30  48  74 102 135 175 215 253 294
#     4  10  21  36  53  72  94 123 161 204 246 288
#     4   9  18  32  48  69 102 141 177 213 252 294
#     4   9  19  36  55  76 102 128 157 196 241 291
#     4  10  20  33  51  75 102 133 166 201 245 294
#
# _framework density 16.890332999999998
#
# number of rings (size 3 to 8) (size 9 to 14) (size 15 to 20)
#    0.000    2.500    0.000    3.000    0.000    6.500 
#    0.000    2.500    0.000    0.750    0.000    1.750 
#    0.000    0.000    0.000    0.000    0.000    0.000 
#
# Total GULP energy -357181.516480 kJ/mol
# GULP energy per Si atom -5580.961195 kJ/mol
# Density = 1.685189 g / cm^3
# Si number density = 16.890333 Si / 1000 Ang^3
#
#
#
# Elastic Constant Matrix: (Units=GPa)
#
#
# Indices 1 2 3 4 5 6 
#
# 1 53.1061 44.5679 63.0392 0.0000 0.0000 0.0000
# 2 44.5679 90.6798 70.4280 0.0000 0.0000 0.0000
# 3 63.0392 70.4280 139.9087 0.0000 0.0000 0.0000
# 4 0.0000 0.0000 0.0000 28.6331 0.0000 0.0000
# 5 0.0000 0.0000 0.0000 0.0000 31.0900 0.0000
# 6 0.0000 0.0000 0.0000 0.0000 0.0000 24.9561
#
#
#
# Elastic Compliance Matrix: (Units=1/GPa)
#
#
# Indices 1 2 3 4 5 6 
#
# 1 0.046042 -0.010700 -0.015359 0.000000 0.000000 0.000000
# 2 -0.010700 0.020594 -0.005545 0.000000 0.000000 0.000000
# 3 -0.015359 -0.005545 0.016859 0.000000 0.000000 0.000000
# 4 0.000000 0.000000 0.000000 0.034925 0.000000 0.000000
# 5 0.000000 0.000000 0.000000 0.000000 0.032165 0.000000
# 6 0.000000 0.000000 0.000000 0.000000 0.000000 0.040070
#
#
# Mechanical properties :
#
#
# Convention : Reuss Voigt Hill
#
# Bulk Modulus (GPa) = 49.29533 71.08498 60.19016
# Shear Modulus (GPa) = 19.18465 23.97981 21.58223
#
# Velocity S-wave (km/s) = 3.37387 3.77203 3.57849
# Velocity P-wave (km/s) = 6.66530 7.81975 7.26549
#
# Compressibility (1/GPa) = 0.02028590
#
# Stress axis : x y z
#
# Youngs Moduli (GPa) = 21.71943 48.55855 59.31454
#
# Poissons Ratio (x) = 0.51958 0.91101
# Poissons Ratio (y) = 0.23240 0.32892
# Poissons Ratio (z) = 0.33359 0.26927
#
# Static dielectric constant tensor:
#      x y z
#    x 1.561050 0.000000 0.000000 
#    y 0.000000 1.598850 0.000000 
#    z 0.000000 0.000000 1.540120 
# 
# From -- ./inp_files/33251.got.cif
#   From: 2010.05.17/outbox.cif.g08.bks.cpg/sg59_17_cif.got.tgz:33251.got - 2010.06.03 14:40:33.
