data_PCOD9447610
_publ_section_title
;
Structure prediction by ZEFSAII (Michael W. Deem and Ramdas Pophale) SiO2 
 PCOD9447610
Probable space group: P M M N
;
_chemical_formula_sum "Si O2"
_cell_formula_units_Z 64
_cell_length_a 7.517581
_cell_length_b 20.208891
_cell_length_c 21.023556
_cell_angle_alpha 90.000000
_cell_angle_beta 90.000000
_cell_angle_gamma 90.000000
_cell_volume 3193.940149
_symmetry_space_group_name_H-M "P M M N"
_symmetry_group_IT_number 59
_space_group.IT_coordinate_system_code '2'
_symmetry_cell_setting 'orthorhombic'
loop_
_space_group_symop_operation_xyz
x,y,z
1/2-x,1/2-y,z
1/2+x,-y,-z
-x,1/2+y,-z
-x,-y,-z
1/2+x,1/2+y,-z
1/2-x,y,z
x,1/2-y,z
loop_
_atom_site_type_symbol
_atom_site_label
_atom_site_fract_x
_atom_site_fract_y
_atom_site_fract_z
Si Si1 0.042510 0.174828 0.617476
Si Si2 0.467859 0.826456 0.662668
Si Si3 0.031778 0.934578 0.764627
Si Si4 0.456645 0.830013 0.523844
Si Si5 0.960867 0.084786 0.955412
Si Si6 0.463637 0.323993 0.843271
Si Si7 0.967808 0.581538 0.270697
Si Si8 0.545169 0.442142 0.093040
O O1 0.250000 0.181401 0.633773
O O2 0.966065 0.250000 0.621821
O O3 0.970045 0.121397 0.666992
O O4 0.033742 0.151257 0.544377
O O5 0.250000 0.826217 0.660601
O O6 0.522197 0.750000 0.671999
O O7 0.523140 0.875118 0.718705
O O8 0.528470 0.851105 0.592661
O O9 0.250000 0.934989 0.766141
O O10 0.968429 0.927978 0.837541
O O11 0.975616 0.005767 0.737043
O O12 0.250000 0.848550 0.521292
O O13 0.468926 0.750000 0.526133
O O14 0.750000 0.071843 0.959326
O O15 0.991655 0.148580 0.912746
O O16 0.031850 0.087512 0.027607
O O17 0.041115 0.021184 0.919469
O O18 0.250000 0.322182 0.838097
O O19 0.530894 0.250000 0.832214
O O20 0.525948 0.375831 0.790355
O O21 0.750000 0.579961 0.271149
O O22 0.750000 0.419907 0.095874
#
# Coordination Sequence:
#
# PCOD9447610 Si02
#       8
#     8   8   8   8   8   8   8   8
#     4   9  16  26  42  64  87 113 150 192 227 261
#     4   8  14  25  43  68  92 113 144 187 232 276
#     4   9  15  26  47  69  88 115 153 193 227 267
#     4   8  14  26  43  62  86 116 148 181 222 275
#     4  10  19  30  47  71  97 123 154 195 237 276
#     4  10  19  32  50  69  93 128 165 198 232 275
#     4   9  16  27  44  66  89 116 155 197 227 262
#     4   9  17  31  50  70  91 120 158 192 229 279
#
# _framework density 20.037946000000002
#
# number of rings (size 3 to 8) (size 9 to 14) (size 15 to 20)
#    0.000    3.000    1.250    1.500    0.000    2.250 
#    0.000    1.875    0.000    4.500    0.000    0.000 
#    0.000    0.000    0.000    0.000    0.000    0.000 
#
# Total GULP energy -356697.414097 kJ/mol
# GULP energy per Si atom -5573.397095 kJ/mol
# Density = 1.999234 g / cm^3
# Si number density = 20.037946 Si / 1000 Ang^3
#
#
#
# Elastic Constant Matrix: (Units=GPa)
#
#
# Indices 1 2 3 4 5 6 
#
# 1 47.3896 -0.6138 6.5938 0.0000 0.0000 0.0000
# 2 -0.6138 101.5765 86.2041 0.0000 0.0000 0.0000
# 3 6.5938 86.2041 178.0456 0.0000 0.0000 0.0000
# 4 0.0000 0.0000 0.0000 31.2834 0.0000 0.0000
# 5 0.0000 0.0000 0.0000 0.0000 19.8868 0.0000
# 6 0.0000 0.0000 0.0000 0.0000 0.0000 4.0543
#
#
#
# Elastic Compliance Matrix: (Units=1/GPa)
#
#
# Indices 1 2 3 4 5 6 
#
# 1 0.021320 0.001356 -0.001446 0.000000 0.000000 0.000000
# 2 0.001356 0.016798 -0.008183 0.000000 0.000000 0.000000
# 3 -0.001446 -0.008183 0.009632 0.000000 0.000000 0.000000
# 4 0.000000 0.000000 0.000000 0.031966 0.000000 0.000000
# 5 0.000000 0.000000 0.000000 0.000000 0.050285 0.000000
# 6 0.000000 0.000000 0.000000 0.000000 0.000000 0.246650
#
#
# Mechanical properties :
#
#
# Convention : Reuss Voigt Hill
#
# Bulk Modulus (GPa) = 32.04721 56.81998 44.43360
# Shear Modulus (GPa) = 12.38853 26.70008 19.54431
#
# Velocity S-wave (km/s) = 2.48917 3.65427 3.12647
# Velocity P-wave (km/s) = 4.92841 6.79873 5.93767
#
# Compressibility (1/GPa) = 0.03120396
#
# Stress axis : x y z
#
# Youngs Moduli (GPa) = 46.90325 59.53186 103.81916
#
# Poissons Ratio (x) = -0.08074 0.15014
# Poissons Ratio (y) = -0.06361 0.84957
# Poissons Ratio (z) = 0.06783 0.48716
#
# Static dielectric constant tensor:
#      x y z
#    x 1.779440 0.000000 0.000000 
#    y 0.000000 1.667060 0.000000 
#    z 0.000000 0.000000 1.729400 
# 
# From -- ./inp_files/29712.got.cif
#   From: 2010.05.17/outbox.cif.g08.bks.cpg/sg59_15_cif.got.tgz:29712.got - 2010.06.03 14:40:33.
