data_PCOD9447267
_publ_section_title
;
Structure prediction by ZEFSAII (Michael W. Deem and Ramdas Pophale) SiO2 
 PCOD9447267
Probable space group: P M M N
;
_chemical_formula_sum "Si O2"
_cell_formula_units_Z 64
_cell_length_a 18.981863
_cell_length_b 19.461423
_cell_length_c 9.885902
_cell_angle_alpha 90.000000
_cell_angle_beta 90.000000
_cell_angle_gamma 90.000000
_cell_volume 3651.991246
_symmetry_space_group_name_H-M "P M M N"
_symmetry_group_IT_number 59
_space_group.IT_coordinate_system_code '2'
_symmetry_cell_setting 'orthorhombic'
loop_
_space_group_symop_operation_xyz
x,y,z
1/2-x,1/2-y,z
1/2+x,-y,-z
-x,1/2+y,-z
-x,-y,-z
1/2+x,1/2+y,-z
1/2-x,y,z
x,1/2-y,z
loop_
_atom_site_type_symbol
_atom_site_label
_atom_site_fract_x
_atom_site_fract_y
_atom_site_fract_z
Si Si1 0.939162 0.669349 0.797831
Si Si2 0.833217 0.418634 0.339717
Si Si3 0.939450 0.598057 0.513012
Si Si4 0.596625 0.331419 0.111046
Si Si5 0.834180 0.922145 0.284665
Si Si6 0.913437 0.058423 0.606150
Si Si7 0.833843 0.427732 0.888254
Si Si8 0.667380 0.914866 0.978509
O O1 0.923929 0.750000 0.808317
O O2 0.945420 0.648429 0.640248
O O3 0.879528 0.625137 0.871315
O O4 0.013208 0.655499 0.873457
O O5 0.750000 0.411299 0.329732
O O6 0.869786 0.362780 0.246516
O O7 0.851463 0.496180 0.291200
O O8 0.859994 0.414828 0.492216
O O9 0.877040 0.612142 0.406502
O O10 0.924862 0.522949 0.579260
O O11 0.011295 0.592574 0.426692
O O12 0.607918 0.250000 0.100705
O O13 0.633244 0.371811 0.988756
O O14 0.750000 0.915509 0.303605
O O15 0.852349 0.897782 0.133661
O O16 0.879051 0.070841 0.751020
O O17 0.750000 0.415806 0.865227
O O18 0.840108 0.503331 0.955325
O O19 0.750000 0.898704 0.960605
#
# Coordination Sequence:
#
# PCOD9447267 Si02
#       8
#     8   8   8   8   8   8   8   8
#     4  11  24  42  60  84 119 160 201 245 297 357
#     4  10  18  34  57  82 117 153 187 237 290 345
#     4  10  20  36  58  88 117 153 189 243 299 351
#     4  11  24  40  58  85 120 160 204 244 293 358
#     4   9  19  34  58  91 117 142 187 241 296 351
#     4  10  20  34  57  90 117 145 195 246 294 345
#     4  11  22  37  60  91 123 156 197 251 302 351
#     4  10  21  38  61  91 121 153 195 245 301 360
#
# _framework density 17.524685999999999
#
# number of rings (size 3 to 8) (size 9 to 14) (size 15 to 20)
#    0.000    1.750    3.750    0.750    1.750    2.750 
#    0.000    1.875    0.000    2.250    0.000    0.000 
#    0.000    0.000    0.000    0.000    0.000    0.000 
#
# Total GULP energy -357171.199558 kJ/mol
# GULP energy per Si atom -5580.799993 kJ/mol
# Density = 1.748480 g / cm^3
# Si number density = 17.524686 Si / 1000 Ang^3
#
#
#
# Elastic Constant Matrix: (Units=GPa)
#
#
# Indices 1 2 3 4 5 6 
#
# 1 54.7944 39.5942 22.4738 0.0000 0.0000 0.0000
# 2 39.5942 49.7427 21.7679 0.0000 0.0000 0.0000
# 3 22.4738 21.7679 75.9016 0.0000 0.0000 0.0000
# 4 0.0000 0.0000 0.0000 17.3402 0.0000 0.0000
# 5 0.0000 0.0000 0.0000 0.0000 37.4535 0.0000
# 6 0.0000 0.0000 0.0000 0.0000 0.0000 16.4049
#
#
#
# Elastic Compliance Matrix: (Units=1/GPa)
#
#
# Indices 1 2 3 4 5 6 
#
# 1 0.043708 -0.033308 -0.003389 0.000000 0.000000 0.000000
# 2 -0.033308 0.048371 -0.004010 0.000000 0.000000 0.000000
# 3 -0.003389 -0.004010 0.015329 0.000000 0.000000 0.000000
# 4 0.000000 0.000000 0.000000 0.057669 0.000000 0.000000
# 5 0.000000 0.000000 0.000000 0.000000 0.026700 0.000000
# 6 0.000000 0.000000 0.000000 0.000000 0.000000 0.060957
#
#
# Mechanical properties :
#
#
# Convention : Reuss Voigt Hill
#
# Bulk Modulus (GPa) = 38.47166 38.67894 38.57530
# Shear Modulus (GPa) = 14.58522 20.67989 17.63256
#
# Velocity S-wave (km/s) = 2.88803 3.43890 3.17544
# Velocity P-wave (km/s) = 5.75513 6.15525 5.95855
#
# Compressibility (1/GPa) = 0.02599316
#
# Stress axis : x y z
#
# Youngs Moduli (GPa) = 22.87904 20.67367 65.23771
#
# Poissons Ratio (x) = 0.68859 0.22110
# Poissons Ratio (y) = 0.76205 0.26161
# Poissons Ratio (z) = 0.07754 0.08291
#
# Static dielectric constant tensor:
#      x y z
#    x 1.597100 0.000000 0.000000 
#    y 0.000000 1.575300 0.000000 
#    z 0.000000 0.000000 1.581070 
# 
# From -- ./inp_files/10681.got.cif
#   From: 2010.05.17/outbox.cif.g08.bks.cpg/sg59_6_cif.got.tgz:10681.got - 2010.06.03 14:40:33.
