data_PCOD9447856
_publ_section_title
;
Structure prediction by ZEFSAII (Michael W. Deem and Ramdas Pophale) SiO2 
 PCOD9447856
Probable space group: P M M N
;
_chemical_formula_sum "Si O2"
_cell_formula_units_Z 64
_cell_length_a 8.660071
_cell_length_b 14.913665
_cell_length_c 28.988087
_cell_angle_alpha 90.000000
_cell_angle_beta 90.000000
_cell_angle_gamma 90.000000
_cell_volume 3743.909931
_symmetry_space_group_name_H-M "P M M N"
_symmetry_group_IT_number 59
_space_group.IT_coordinate_system_code '2'
_symmetry_cell_setting 'orthorhombic'
loop_
_space_group_symop_operation_xyz
x,y,z
1/2-x,1/2-y,z
1/2+x,-y,-z
-x,1/2+y,-z
-x,-y,-z
1/2+x,1/2+y,-z
1/2-x,y,z
x,1/2-y,z
loop_
_atom_site_type_symbol
_atom_site_label
_atom_site_fract_x
_atom_site_fract_y
_atom_site_fract_z
Si Si1 0.934569 0.852840 0.300787
Si Si2 0.063229 0.030763 0.883219
Si Si3 0.936038 0.351619 0.072440
Si Si4 0.066215 0.968692 0.383347
Si Si5 0.933338 0.643387 0.466769
Si Si6 0.061783 0.351389 0.427667
Si Si7 0.934973 0.645271 0.027744
Si Si8 0.934770 0.352834 0.800523
O O1 0.750000 0.855032 0.298089
O O2 0.981321 0.750000 0.312669
O O3 0.990748 0.920394 0.339830
O O4 0.003391 0.873491 0.250567
O O5 0.250000 0.033843 0.880781
O O6 0.997151 0.079029 0.838508
O O7 0.014193 0.928020 0.891803
O O8 0.015543 0.085820 0.929014
O O9 0.750000 0.349888 0.072804
O O10 0.992225 0.250000 0.081289
O O11 0.988343 0.378324 0.020949
O O12 0.250000 0.969383 0.377074
O O13 0.024181 0.912556 0.429071
O O14 0.012042 0.070358 0.393337
O O15 0.750000 0.623638 0.462775
O O16 0.951801 0.750000 0.458785
O O17 0.983136 0.625846 0.519553
O O18 0.250000 0.350220 0.427889
O O19 0.010404 0.250000 0.416990
O O20 0.750000 0.636376 0.022783
O O21 0.969868 0.750000 0.037008
O O22 0.750000 0.355004 0.800068
O O23 0.984278 0.250000 0.811605
#
# Coordination Sequence:
#
# PCOD9447856 Si02
#       8
#     8   8   8   8   8   8   8   8
#     4  10  21  37  55  73  97 129 157 184 230 293
#     4  10  19  31  49  71  97 131 165 196 237 290
#     4   9  18  31  46  67  97 132 169 206 239 271
#     4  11  20  29  48  75  99 125 160 204 245 278
#     4   9  17  30  47  67  96 134 169 197 232 285
#     4   8  16  31  48  67  95 132 169 201 236 280
#     4   9  17  28  43  66  96 129 165 202 239 283
#     4  10  21  36  54  77 101 121 148 193 242 285
#
# _framework density 17.094429000000002
#
# number of rings (size 3 to 8) (size 9 to 14) (size 15 to 20)
#    0.000    2.500    0.000    3.375    0.000    4.750 
#    0.000    1.875    0.000    3.750    0.000    0.000 
#    0.000    0.000    0.000    0.000    0.000    0.000 
#
# Total GULP energy -357052.278059 kJ/mol
# GULP energy per Si atom -5578.941845 kJ/mol
# Density = 1.705552 g / cm^3
# Si number density = 17.094429 Si / 1000 Ang^3
#
#
#
# Elastic Constant Matrix: (Units=GPa)
#
#
# Indices 1 2 3 4 5 6 
#
# 1 17.9764 29.7160 26.5013 0.0000 0.0000 0.0000
# 2 29.7160 114.0763 100.6628 0.0000 0.0000 0.0000
# 3 26.5013 100.6628 116.6152 0.0000 0.0000 0.0000
# 4 0.0000 0.0000 0.0000 32.0224 0.0000 0.0000
# 5 0.0000 0.0000 0.0000 0.0000 29.4016 0.0000
# 6 0.0000 0.0000 0.0000 0.0000 0.0000 17.7393
#
#
#
# Elastic Compliance Matrix: (Units=1/GPa)
#
#
# Indices 1 2 3 4 5 6 
#
# 1 0.097725 -0.024590 -0.000983 0.000000 0.000000 0.000000
# 2 -0.024590 0.042974 -0.031507 0.000000 0.000000 0.000000
# 3 -0.000983 -0.031507 0.035996 0.000000 0.000000 0.000000
# 4 0.000000 0.000000 0.000000 0.031228 0.000000 0.000000
# 5 0.000000 0.000000 0.000000 0.000000 0.034012 0.000000
# 6 0.000000 0.000000 0.000000 0.000000 0.000000 0.056372
#
#
# Mechanical properties :
#
#
# Convention : Reuss Voigt Hill
#
# Bulk Modulus (GPa) = 15.99086 62.49202 39.24144
# Shear Modulus (GPa) = 11.53907 21.95184 16.74546
#
# Velocity S-wave (km/s) = 2.60093 3.58739 3.13323
# Velocity P-wave (km/s) = 4.28888 7.33454 6.00791
#
# Compressibility (1/GPa) = 0.06253571
#
# Stress axis : x y z
#
# Youngs Moduli (GPa) = 10.23283 23.26983 27.78100
#
# Poissons Ratio (x) = 0.57219 0.02730
# Poissons Ratio (y) = 0.25162 0.87531
# Poissons Ratio (z) = 0.01005 0.73317
#
# Static dielectric constant tensor:
#      x y z
#    x 1.574700 0.000000 0.000000 
#    y 0.000000 1.606120 0.000000 
#    z 0.000000 0.000000 1.541960 
# 
# From -- ./inp_files/31663.got.cif
#   From: 2010.05.17/outbox.cif.g08.bks.cpg/sg59_16_cif.got.tgz:31663.got - 2010.06.03 14:40:33.
