data_PCOD9447730
_publ_section_title
;
Structure prediction by ZEFSAII (Michael W. Deem and Ramdas Pophale) SiO2 
 PCOD9447730
Probable space group: P M M N
;
_chemical_formula_sum "Si O2"
_cell_formula_units_Z 64
_cell_length_a 7.919879
_cell_length_b 28.533687
_cell_length_c 15.154409
_cell_angle_alpha 90.000000
_cell_angle_beta 90.000000
_cell_angle_gamma 90.000000
_cell_volume 3424.644090
_symmetry_space_group_name_H-M "P M M N"
_symmetry_group_IT_number 59
_space_group.IT_coordinate_system_code '2'
_symmetry_cell_setting 'orthorhombic'
loop_
_space_group_symop_operation_xyz
x,y,z
1/2-x,1/2-y,z
1/2+x,-y,-z
-x,1/2+y,-z
-x,-y,-z
1/2+x,1/2+y,-z
1/2-x,y,z
x,1/2-y,z
loop_
_atom_site_type_symbol
_atom_site_label
_atom_site_fract_x
_atom_site_fract_y
_atom_site_fract_z
Si Si1 0.550835 0.577405 0.844334
Si Si2 0.053033 0.462826 0.645907
Si Si3 0.956207 0.304138 0.651613
Si Si4 0.953023 0.887673 0.025372
Si Si5 0.954898 0.528612 0.151429
Si Si6 0.052106 0.433299 0.350974
Si Si7 0.444926 0.882551 0.480697
Si Si8 0.546459 0.303490 0.850095
O O1 0.750000 0.587882 0.838516
O O2 0.526644 0.522694 0.868657
O O3 0.482145 0.582196 0.744787
O O4 0.480287 0.607414 0.925599
O O5 0.250000 0.450273 0.639966
O O6 0.997173 0.458613 0.747925
O O7 0.032539 0.517522 0.622477
O O8 0.956280 0.428184 0.581742
O O9 0.750000 0.306124 0.651396
O O10 0.003515 0.250000 0.636612
O O11 0.016847 0.339758 0.577035
O O12 0.010941 0.317556 0.751067
O O13 0.750000 0.892039 0.021522
O O14 0.013494 0.931561 0.084313
O O15 0.992622 0.840145 0.076435
O O16 0.750000 0.525462 0.149345
O O17 0.250000 0.444112 0.340116
O O18 0.031010 0.395600 0.427509
O O19 0.250000 0.872370 0.500303
O O20 0.750000 0.302847 0.848098
O O21 0.489305 0.250000 0.866165
#
# Coordination Sequence:
#
# PCOD9447730 Si02
#       8
#     8   8   8   8   8   8   8   8
#     4   9  19  33  48  66  92 128 164 194 227 273
#     4  10  19  31  46  68  99 129 156 189 232 279
#     4   8  16  32  52  73  97 122 149 185 230 282
#     4  10  19  31  48  72  98 124 157 193 233 279
#     4   9  18  30  46  70  99 126 154 193 234 274
#     4  10  20  34  48  64  92 128 163 198 233 269
#     4  11  20  30  49  73  93 120 159 196 234 280
#     4   9  18  33  52  74  98 123 152 186 227 278
#
# _framework density 18.688075000000001
#
# number of rings (size 3 to 8) (size 9 to 14) (size 15 to 20)
#    0.000    2.500    0.000    3.375    0.000    2.250 
#    0.000    0.625    0.000    3.750    0.000    3.500 
#    0.000    0.000    0.000    0.000    0.000    0.000 
#
# Total GULP energy -357101.632775 kJ/mol
# GULP energy per Si atom -5579.713012 kJ/mol
# Density = 1.864554 g / cm^3
# Si number density = 18.688075 Si / 1000 Ang^3
#
#
#
# Elastic Constant Matrix: (Units=GPa)
#
#
# Indices 1 2 3 4 5 6 
#
# 1 14.8954 -8.6719 -1.1975 0.0000 0.0000 0.0000
# 2 -8.6719 80.2064 79.4209 0.0000 0.0000 0.0000
# 3 -1.1975 79.4209 117.5941 0.0000 0.0000 0.0000
# 4 0.0000 0.0000 0.0000 31.4304 0.0000 0.0000
# 5 0.0000 0.0000 0.0000 0.0000 12.6282 0.0000
# 6 0.0000 0.0000 0.0000 0.0000 0.0000 19.0911
#
#
#
# Elastic Compliance Matrix: (Units=1/GPa)
#
#
# Indices 1 2 3 4 5 6 
#
# 1 0.079644 0.023572 -0.015109 0.000000 0.000000 0.000000
# 2 0.023572 0.044618 -0.029894 0.000000 0.000000 0.000000
# 3 -0.015109 -0.029894 0.028540 0.000000 0.000000 0.000000
# 4 0.000000 0.000000 0.000000 0.031816 0.000000 0.000000
# 5 0.000000 0.000000 0.000000 0.000000 0.079188 0.000000
# 6 0.000000 0.000000 0.000000 0.000000 0.000000 0.052381
#
#
# Mechanical properties :
#
#
# Convention : Reuss Voigt Hill
#
# Bulk Modulus (GPa) = 9.09592 39.08876 24.09234
# Shear Modulus (GPa) = 12.63604 22.17289 17.40446
#
# Velocity S-wave (km/s) = 2.60312 3.44826 3.05505
# Velocity P-wave (km/s) = 3.72998 6.06760 5.03630
#
# Compressibility (1/GPa) = 0.10993939
#
# Stress axis : x y z
#
# Youngs Moduli (GPa) = 12.55593 22.41272 35.03895
#
# Poissons Ratio (x) = -0.52832 0.52941
# Poissons Ratio (y) = -0.29597 1.04745
# Poissons Ratio (z) = 0.18971 0.67000
#
# Static dielectric constant tensor:
#      x y z
#    x 1.670400 0.000000 0.000000 
#    y 0.000000 1.619900 0.000000 
#    z 0.000000 0.000000 1.676320 
# 
# From -- ./inp_files/21814.got.cif
#   From: 2010.05.17/outbox.cif.g08.bks.cpg/sg59_11_cif.got.tgz:21814.got - 2010.06.03 14:40:33.
