data_PCOD9447042
_publ_section_title
;
Structure prediction by ZEFSAII (Michael W. Deem and Ramdas Pophale) SiO2 
 PCOD9447042
Probable space group: P M M N
;
_chemical_formula_sum "Si O2"
_cell_formula_units_Z 56
_cell_length_a 15.247556
_cell_length_b 19.887755
_cell_length_c 10.106308
_cell_angle_alpha 90.000000
_cell_angle_beta 90.000000
_cell_angle_gamma 90.000000
_cell_volume 3064.633382
_symmetry_space_group_name_H-M "P M M N"
_symmetry_group_IT_number 59
_space_group.IT_coordinate_system_code '2'
_symmetry_cell_setting 'orthorhombic'
loop_
_space_group_symop_operation_xyz
x,y,z
1/2-x,1/2-y,z
1/2+x,-y,-z
-x,1/2+y,-z
-x,-y,-z
1/2+x,1/2+y,-z
1/2-x,y,z
x,1/2-y,z
loop_
_atom_site_type_symbol
_atom_site_label
_atom_site_fract_x
_atom_site_fract_y
_atom_site_fract_z
Si Si1 0.540181 0.135267 0.095777
Si Si2 0.147573 0.676685 0.655172
Si Si3 0.148279 0.534608 0.536686
Si Si4 0.153736 0.085985 0.075795
Si Si5 0.150900 0.824635 0.153295
Si Si6 0.094835 0.486283 0.822228
Si Si7 0.098015 0.963023 0.257261
O O1 0.582664 0.172439 0.220763
O O2 0.434554 0.129630 0.098616
O O3 0.577317 0.059016 0.111148
O O4 0.580671 0.166356 0.963634
O O5 0.250000 0.668756 0.698665
O O6 0.140091 0.750000 0.591334
O O7 0.127956 0.612847 0.564728
O O8 0.250000 0.528183 0.499407
O O9 0.134234 0.498100 0.676900
O O10 0.094498 0.512304 0.408707
O O11 0.250000 0.116797 0.098000
O O12 0.144297 0.020334 0.169999
O O13 0.147212 0.058397 0.925699
O O14 0.250000 0.827342 0.096705
O O15 0.140515 0.750000 0.213929
O O16 0.141717 0.889804 0.246243
O O17 0.999162 0.455551 0.800015
#
# Coordination Sequence:
#
# PCOD9447042 Si02
#       7
#     8   8   8   8   8   8   8
#     4  10  18  32  49  75 101 131 174 210 253 296
#     4   9  18  32  51  74 104 142 176 207 248 305
#     4  10  20  31  49  76 107 138 171 209 255 307
#     4  11  20  33  55  76 104 137 171 214 265 307
#     4  11  21  31  49  75 103 135 166 201 252 310
#     4  10  19  34  52  73 101 141 174 208 254 311
#     4  11  20  35  50  77 108 137 165 214 260 306
#
# _framework density 18.272986
#
# number of rings (size 3 to 8) (size 9 to 14) (size 15 to 20)
#    0.000    1.714    2.857    3.857    0.000    2.857 
#    0.000    1.429    0.000    1.714    0.000    0.000 
#    0.000    0.000    0.000    0.000    0.000    0.000 
#
# Total GULP energy -312288.592227 kJ/mol
# GULP energy per Si atom -5576.582004 kJ/mol
# Density = 1.823140 g / cm^3
# Si number density = 18.272986 Si / 1000 Ang^3
#
#
#
# Elastic Constant Matrix: (Units=GPa)
#
#
# Indices 1 2 3 4 5 6 
#
# 1 81.5002 10.8827 15.5343 0.0000 0.0000 0.0000
# 2 10.8827 48.1223 9.9518 0.0000 0.0000 0.0000
# 3 15.5343 9.9518 92.3310 0.0000 0.0000 0.0000
# 4 0.0000 0.0000 0.0000 2.3496 0.0000 0.0000
# 5 0.0000 0.0000 0.0000 0.0000 9.7200 0.0000
# 6 0.0000 0.0000 0.0000 0.0000 0.0000 16.1484
#
#
#
# Elastic Compliance Matrix: (Units=1/GPa)
#
#
# Indices 1 2 3 4 5 6 
#
# 1 0.012973 -0.002539 -0.001909 0.000000 0.000000 0.000000
# 2 -0.002539 0.021751 -0.001917 0.000000 0.000000 0.000000
# 3 -0.001909 -0.001917 0.011358 0.000000 0.000000 0.000000
# 4 0.000000 0.000000 0.000000 0.425600 0.000000 0.000000
# 5 0.000000 0.000000 0.000000 0.000000 0.102880 0.000000
# 6 0.000000 0.000000 0.000000 0.000000 0.000000 0.061926
#
#
# Mechanical properties :
#
#
# Convention : Reuss Voigt Hill
#
# Bulk Modulus (GPa) = 29.98329 32.74346 31.36337
# Shear Modulus (GPa) = 7.57190 18.01592 12.79391
#
# Velocity S-wave (km/s) = 2.03783 3.14336 2.64891
# Velocity P-wave (km/s) = 4.68841 5.57963 5.15332
#
# Compressibility (1/GPa) = 0.03335191
#
# Stress axis : x y z
#
# Youngs Moduli (GPa) = 77.08435 45.97479 88.04039
#
# Poissons Ratio (x) = 0.11673 0.16807
# Poissons Ratio (y) = 0.19572 0.16879
# Poissons Ratio (z) = 0.14715 0.08814
#
# Static dielectric constant tensor:
#      x y z
#    x 1.642090 0.000000 0.000000 
#    y 0.000000 1.637840 0.000000 
#    z 0.000000 0.000000 1.640540 
# 
# From -- ./inp_files/9362.got.cif
#   From: 2010.05.17/outbox.cif.g08.bks.cpg/sg59_5_cif.got.tgz:9362.got - 2010.06.03 14:40:33.
