data_PCOD9447386
_publ_section_title
;
Structure prediction by ZEFSAII (Michael W. Deem and Ramdas Pophale) SiO2 
 PCOD9447386
Probable space group: P M M N
;
_chemical_formula_sum "Si O2"
_cell_formula_units_Z 40
_cell_length_a 19.166678
_cell_length_b 7.463539
_cell_length_c 13.994219
_cell_angle_alpha 90.000000
_cell_angle_beta 90.000000
_cell_angle_gamma 90.000000
_cell_volume 2001.890503
_symmetry_space_group_name_H-M "P M M N"
_symmetry_group_IT_number 59
_space_group.IT_coordinate_system_code '2'
_symmetry_cell_setting 'orthorhombic'
loop_
_space_group_symop_operation_xyz
x,y,z
1/2-x,1/2-y,z
1/2+x,-y,-z
-x,1/2+y,-z
-x,-y,-z
1/2+x,1/2+y,-z
1/2-x,y,z
x,1/2-y,z
loop_
_atom_site_type_symbol
_atom_site_label
_atom_site_fract_x
_atom_site_fract_y
_atom_site_fract_z
Si Si1 0.327182 0.031435 0.186649
Si Si2 0.970044 0.536124 0.896130
Si Si3 0.963980 0.469363 0.301270
Si Si4 0.171827 0.540232 0.594105
Si Si5 0.891268 0.534044 0.611178
O O1 0.250000 0.969107 0.161146
O O2 0.326167 0.250000 0.184676
O O3 0.390981 0.970550 0.120349
O O4 0.347582 0.980528 0.294975
O O5 0.967366 0.750000 0.885432
O O6 0.016285 0.472670 0.806145
O O7 0.000000 0.500000 0.000000
O O8 0.963099 0.250000 0.302893
O O9 0.889844 0.534985 0.339551
O O10 0.028792 0.523450 0.369439
O O11 0.250000 0.463545 0.601402
O O12 0.177095 0.750000 0.618380
O O13 0.143469 0.529094 0.485976
O O14 0.891245 0.750000 0.608241
#
# Coordination Sequence:
#
# PCOD9447386 Si02
#       5
#     8   8   8   8   8
#     4   8  14  26  45  67  88 112 143 178 219 264
#     4   9  17  31  50  67  85 112 146 183 220 261
#     4   8  16  31  47  63  86 118 151 177 211 264
#     4  10  19  29  42  63  93 125 150 173 207 254
#     4   9  16  28  48  68  86 113 149 185 215 249
#
# _framework density 19.981110999999999
#
# number of rings (size 3 to 8) (size 9 to 14) (size 15 to 20)
#    0.000    3.200    0.000    3.600    0.000    1.200 
#    0.000    6.000    0.000    3.000    0.000    0.000 
#    0.000    0.000    0.000    0.000    0.000    0.000 
#
# Total GULP energy -223080.912753 kJ/mol
# GULP energy per Si atom -5577.022819 kJ/mol
# Density = 1.993563 g / cm^3
# Si number density = 19.981111 Si / 1000 Ang^3
#
#
#
# Elastic Constant Matrix: (Units=GPa)
#
#
# Indices 1 2 3 4 5 6 
#
# 1 233.8134 8.7483 113.0334 0.0000 0.0000 0.0000
# 2 8.7483 55.3800 -3.6245 0.0000 0.0000 0.0000
# 3 113.0334 -3.6245 107.7034 0.0000 0.0000 0.0000
# 4 0.0000 0.0000 0.0000 17.5186 0.0000 0.0000
# 5 0.0000 0.0000 0.0000 0.0000 19.0618 0.0000
# 6 0.0000 0.0000 0.0000 0.0000 0.0000 4.3229
#
#
#
# Elastic Compliance Matrix: (Units=1/GPa)
#
#
# Indices 1 2 3 4 5 6 
#
# 1 0.008902 -0.002022 -0.009411 0.000000 0.000000 0.000000
# 2 -0.002022 0.018556 0.002747 0.000000 0.000000 0.000000
# 3 -0.009411 0.002747 0.019253 0.000000 0.000000 0.000000
# 4 0.000000 0.000000 0.000000 0.057082 0.000000 0.000000
# 5 0.000000 0.000000 0.000000 0.000000 0.052461 0.000000
# 6 0.000000 0.000000 0.000000 0.000000 0.000000 0.231329
#
#
# Mechanical properties :
#
#
# Convention : Reuss Voigt Hill
#
# Bulk Modulus (GPa) = 34.08360 70.35679 52.22019
# Shear Modulus (GPa) = 12.05589 26.76331 19.40960
#
# Velocity S-wave (km/s) = 2.45901 3.66379 3.12011
# Velocity P-wave (km/s) = 5.01570 7.29287 6.25872
#
# Compressibility (1/GPa) = 0.02933963
#
# Stress axis : x y z
#
# Youngs Moduli (GPa) = 112.33498 53.89023 51.93881
#
# Poissons Ratio (x) = 0.10897 0.48877
# Poissons Ratio (y) = 0.22716 -0.14266
# Poissons Ratio (z) = 1.05713 -0.14802
#
# Static dielectric constant tensor:
#      x y z
#    x 1.730850 0.000000 0.000000 
#    y 0.000000 1.772650 0.000000 
#    z 0.000000 0.000000 1.667640 
# 
# From -- ./inp_files/13873.got.cif
#   From: 2010.05.17/outbox.cif.g08.bks.cpg/sg59_7_cif.got.tgz:13873.got - 2010.06.03 14:40:33.
