data_PCOD9447026
_publ_section_title
;
Structure prediction by ZEFSAII (Michael W. Deem and Ramdas Pophale) SiO2 
 PCOD9447026
Probable space group: P M M N
;
_chemical_formula_sum "Si O2"
_cell_formula_units_Z 56
_cell_length_a 15.866877
_cell_length_b 8.271681
_cell_length_c 21.933388
_cell_angle_alpha 90.000000
_cell_angle_beta 90.000000
_cell_angle_gamma 90.000000
_cell_volume 2878.663849
_symmetry_space_group_name_H-M "P M M N"
_symmetry_group_IT_number 59
_space_group.IT_coordinate_system_code '2'
_symmetry_cell_setting 'orthorhombic'
loop_
_space_group_symop_operation_xyz
x,y,z
1/2-x,1/2-y,z
1/2+x,-y,-z
-x,1/2+y,-z
-x,-y,-z
1/2+x,1/2+y,-z
1/2-x,y,z
x,1/2-y,z
loop_
_atom_site_type_symbol
_atom_site_label
_atom_site_fract_x
_atom_site_fract_y
_atom_site_fract_z
Si Si1 0.342931 0.947471 0.128270
Si Si2 0.996628 0.445242 0.787129
Si Si3 0.343898 0.554447 0.863476
Si Si4 0.845841 0.441647 0.422207
Si Si5 0.008805 0.942096 0.351909
Si Si6 0.903579 0.054814 0.003580
Si Si7 0.345794 0.441910 0.441454
O O1 0.250000 0.997862 0.148861
O O2 0.344761 0.750000 0.128459
O O3 0.418662 0.003273 0.171346
O O4 0.358394 0.999305 0.058452
O O5 0.993674 0.250000 0.786361
O O6 0.083367 0.495418 0.818891
O O7 0.989978 0.503013 0.717648
O O8 0.250000 0.501699 0.845728
O O9 0.345352 0.750000 0.863729
O O10 0.363739 0.499261 0.932714
O O11 0.750000 0.500306 0.409760
O O12 0.847844 0.250000 0.411601
O O13 0.918765 0.520633 0.382349
O O14 0.863000 0.474515 0.493622
O O15 0.021072 0.750000 0.351056
O O16 0.083694 0.014712 0.392467
O O17 0.900556 0.250000 0.003927
O O18 0.000000 0.000000 0.000000
O O19 0.250000 0.487058 0.422451
O O20 0.347485 0.250000 0.451955
#
# Coordination Sequence:
#
# PCOD9447026 Si02
#       7
#     8   8   8   8   8   8   8
#     4   9  17  32  55  79 104 137 179 224 270 324
#     4  10  22  38  55  79 108 145 189 229 271 320
#     4  10  21  36  55  80 109 143 182 226 280 335
#     4  10  21  38  61  87 114 146 186 232 280 330
#     4  11  23  37  56  82 115 152 190 232 277 329
#     4  10  18  31  55  81 107 138 175 224 278 330
#     4  10  21  38  61  88 117 148 183 226 277 331
#
# _framework density 19.453469999999999
#
# number of rings (size 3 to 8) (size 9 to 14) (size 15 to 20)
#    0.000    2.000    1.429    2.143    0.000    6.000 
#    0.000    4.286    0.000    2.571    0.000    0.000 
#    0.000    0.000    0.000    0.000    0.000    0.000 
#
# Total GULP energy -312739.913464 kJ/mol
# GULP energy per Si atom -5584.641312 kJ/mol
# Density = 1.940919 g / cm^3
# Si number density = 19.453470 Si / 1000 Ang^3
#
#
#
# Elastic Constant Matrix: (Units=GPa)
#
#
# Indices 1 2 3 4 5 6 
#
# 1 110.9536 -9.0314 31.9579 0.0000 0.0000 0.0000
# 2 -9.0314 8.2167 -8.7613 0.0000 0.0000 0.0000
# 3 31.9579 -8.7613 68.9252 0.0000 0.0000 0.0000
# 4 0.0000 0.0000 0.0000 7.4465 0.0000 0.0000
# 5 0.0000 0.0000 0.0000 0.0000 -3.1759 0.0000
# 6 0.0000 0.0000 0.0000 0.0000 0.0000 4.4198
#
#
#
# Elastic Compliance Matrix: (Units=1/GPa)
#
#
# Indices 1 2 3 4 5 6 
#
# 1 0.010792 0.007550 -0.004044 0.000000 0.000000 0.000000
# 2 0.007550 0.146067 0.015066 0.000000 0.000000 0.000000
# 3 -0.004044 0.015066 0.018299 0.000000 0.000000 0.000000
# 4 0.000000 0.000000 0.000000 0.134290 0.000000 0.000000
# 5 0.000000 0.000000 0.000000 0.000000 -0.314871 0.000000
# 6 0.000000 0.000000 0.000000 0.000000 0.000000 0.226253
#
#
# Mechanical properties :
#
#
# Convention : Reuss Voigt Hill
#
# Bulk Modulus (GPa) = 4.71027 24.04733 14.37880
# Shear Modulus (GPa) = 19.64996 13.33345 16.49171
#
# Velocity S-wave (km/s) = 3.18166 2.62086 2.91478
# Velocity P-wave (km/s) = 3.99046 4.64186 4.32843
#
# Compressibility (1/GPa) = 0.21230210
#
# Stress axis : x y z
#
# Youngs Moduli (GPa) = 92.65978 6.84618 54.64854
#
# Poissons Ratio (x) = -0.05169 0.22101
# Poissons Ratio (y) = -0.69958 -0.82336
# Poissons Ratio (z) = 0.37473 -0.10315
#
# Static dielectric constant tensor:
#      x y z
#    x 1.666350 0.000000 0.000000 
#    y 0.000000 1.684860 0.000000 
#    z 0.000000 0.000000 1.662260 
# 
# From -- ./inp_files/29012.got.cif
#   From: 2010.05.17/outbox.cif.g08.bks.cpg/sg59_15_cif.got.tgz:29012.got - 2010.06.03 14:40:33.
