data_PCOD9447445
_publ_section_title
;
Structure prediction by ZEFSAII (Michael W. Deem and Ramdas Pophale) SiO2 
 PCOD9447445
Probable space group: P M M N
;
_chemical_formula_sum "Si O2"
_cell_formula_units_Z 48
_cell_length_a 15.200082
_cell_length_b 9.417322
_cell_length_c 16.161806
_cell_angle_alpha 90.000000
_cell_angle_beta 90.000000
_cell_angle_gamma 90.000000
_cell_volume 2313.466635
_symmetry_space_group_name_H-M "P M M N"
_symmetry_group_IT_number 59
_space_group.IT_coordinate_system_code '2'
_symmetry_cell_setting 'orthorhombic'
loop_
_space_group_symop_operation_xyz
x,y,z
1/2-x,1/2-y,z
1/2+x,-y,-z
-x,1/2+y,-z
-x,-y,-z
1/2+x,1/2+y,-z
1/2-x,y,z
x,1/2-y,z
loop_
_atom_site_type_symbol
_atom_site_label
_atom_site_fract_x
_atom_site_fract_y
_atom_site_fract_z
Si Si1 0.394718 0.587101 0.914959
Si Si2 0.596643 0.911182 0.241976
Si Si3 0.112211 0.910324 0.234977
Si Si4 0.352442 0.422369 0.577594
Si Si5 0.390029 0.413102 0.077175
Si Si6 0.855640 0.588270 0.601097
O O1 0.365813 0.750000 0.919323
O O2 0.366915 0.511399 0.829800
O O3 0.502386 0.588417 0.918344
O O4 0.365564 0.496699 0.994159
O O5 0.633657 0.750000 0.238226
O O6 0.492974 0.900214 0.225488
O O7 0.606176 0.967458 0.335619
O O8 0.147103 0.750000 0.234160
O O9 0.143354 0.004877 0.158167
O O10 0.127665 0.988018 0.321653
O O11 0.250000 0.461827 0.582917
O O12 0.357990 0.250000 0.574600
O O13 0.388636 0.468616 0.488061
O O14 0.361364 0.250000 0.075467
O O15 0.750000 0.598193 0.591803
O O16 0.888253 0.750000 0.615979
#
# Coordination Sequence:
#
# PCOD9447445 Si02
#       6
#     8   8   8   8   8   8
#     4   9  16  26  42  66  95 124 153 188 232 278
#     4   9  17  29  46  70  97 123 154 192 233 277
#     4  10  19  29  44  70 100 124 149 189 239 282
#     4   8  15  30  51  70  89 120 161 197 227 267
#     4   9  16  27  44  65  91 124 158 190 226 273
#     4   9  18  33  51  68  88 120 161 197 229 273
#
# _framework density 20.748083999999999
#
# number of rings (size 3 to 8) (size 9 to 14) (size 15 to 20)
#    0.000    3.000    0.000    2.500    0.000    5.667 
#    0.000    0.833    0.000    2.500    0.000    2.333 
#    0.000    0.000    0.000    0.000    0.000    0.000 
#
# Total GULP energy -267684.944669 kJ/mol
# GULP energy per Si atom -5576.769681 kJ/mol
# Density = 2.070086 g / cm^3
# Si number density = 20.748084 Si / 1000 Ang^3
#
#
#
# Elastic Constant Matrix: (Units=GPa)
#
#
# Indices 1 2 3 4 5 6 
#
# 1 32.4916 6.1814 3.5928 0.0000 0.0000 0.0000
# 2 6.1814 156.1788 125.4257 0.0000 0.0000 0.0000
# 3 3.5928 125.4257 229.1588 0.0000 0.0000 0.0000
# 4 0.0000 0.0000 0.0000 21.8459 0.0000 0.0000
# 5 0.0000 0.0000 0.0000 0.0000 55.2841 0.0000
# 6 0.0000 0.0000 0.0000 0.0000 0.0000 -8.4382
#
#
#
# Elastic Compliance Matrix: (Units=1/GPa)
#
#
# Indices 1 2 3 4 5 6 
#
# 1 0.031025 -0.001494 0.000331 0.000000 0.000000 0.000000
# 2 -0.001494 0.011497 -0.006269 0.000000 0.000000 0.000000
# 3 0.000331 -0.006269 0.007790 0.000000 0.000000 0.000000
# 4 0.000000 0.000000 0.000000 0.045775 0.000000 0.000000
# 5 0.000000 0.000000 0.000000 0.000000 0.018088 0.000000
# 6 0.000000 0.000000 0.000000 0.000000 0.000000 -0.118508
#
#
# Mechanical properties :
#
#
# Convention : Reuss Voigt Hill
#
# Bulk Modulus (GPa) = 28.21055 76.46990 52.34023
# Shear Modulus (GPa) = 223.75278 32.58030 128.16654
#
# Velocity S-wave (km/s) = 10.39600 3.96697 7.86809
# Velocity P-wave (km/s) = 12.55900 7.61045 10.38382
#
# Compressibility (1/GPa) = 0.03544773
#
# Stress axis : x y z
#
# Youngs Moduli (GPa) = 32.23235 86.98170 128.37229
#
# Poissons Ratio (x) = 0.12995 -0.04253
# Poissons Ratio (y) = 0.04815 0.80477
# Poissons Ratio (z) = -0.01068 0.54529
#
# Static dielectric constant tensor:
#      x y z
#    x 1.818140 0.000000 0.000000 
#    y 0.000000 1.717770 0.000000 
#    z 0.000000 0.000000 1.742730 
# 
# From -- ./inp_files/20445.got.cif
#   From: 2010.05.17/outbox.cif.g08.bks.cpg/sg59_11_cif.got.tgz:20445.got - 2010.06.03 14:40:33.
