data_PCOD9447279
_publ_section_title
;
Structure prediction by ZEFSAII (Michael W. Deem and Ramdas Pophale) SiO2 
 PCOD9447279
Probable space group: P M M N
;
_chemical_formula_sum "Si O2"
_cell_formula_units_Z 48
_cell_length_a 21.052760
_cell_length_b 8.613109
_cell_length_c 14.443342
_cell_angle_alpha 90.000000
_cell_angle_beta 90.000000
_cell_angle_gamma 90.000000
_cell_volume 2619.007112
_symmetry_space_group_name_H-M "P M M N"
_symmetry_group_IT_number 59
_space_group.IT_coordinate_system_code '2'
_symmetry_cell_setting 'orthorhombic'
loop_
_space_group_symop_operation_xyz
x,y,z
1/2-x,1/2-y,z
1/2+x,-y,-z
-x,1/2+y,-z
-x,-y,-z
1/2+x,1/2+y,-z
1/2-x,y,z
x,1/2-y,z
loop_
_atom_site_type_symbol
_atom_site_label
_atom_site_fract_x
_atom_site_fract_y
_atom_site_fract_z
Si Si1 0.501130 0.563379 0.395564
Si Si2 0.124860 0.938776 0.287262
Si Si3 0.750000 0.565364 0.391109
Si Si4 0.875444 0.434472 0.292681
Si Si5 0.824975 0.436354 0.907493
Si Si6 0.750000 0.438192 0.597280
Si Si7 0.324442 0.435101 0.891579
O O1 0.500000 0.500000 0.500000
O O2 0.500356 0.750000 0.399379
O O3 0.438749 0.509808 0.338905
O O4 0.563496 0.507656 0.341777
O O5 0.123853 0.750000 0.284867
O O6 0.134870 0.989568 0.181274
O O7 0.187106 0.981829 0.345860
O O8 0.750000 0.750000 0.379306
O O9 0.812508 0.495965 0.343740
O O10 0.750000 0.517717 0.498091
O O11 0.878562 0.250000 0.300271
O O12 0.867027 0.484953 0.186154
O O13 0.750000 0.466279 0.888582
O O14 0.831598 0.250000 0.917576
O O15 0.841652 0.515721 0.004334
O O16 0.750000 0.250000 0.585902
O O17 0.250000 0.480794 0.877738
O O18 0.328316 0.250000 0.881247
#
# Coordination Sequence:
#
# PCOD9447279 Si02
#       7
#     8   8   4   8   8   4   8
#     4  11  23  40  60  85 121 162 203 246 298 354
#     4   9  18  34  59  87 116 154 197 241 288 345
#     4  12  24  38  57  86 117 146 187 248 306 354
#     4  12  24  40  61  85 113 154 202 244 293 353
#     4   9  16  31  57  87 117 150 192 236 285 347
#     4  10  18  34  59  88 117 150 195 242 288 350
#     4  10  20  35  57  87 121 151 185 238 301 353
#
# _framework density 18.327556999999999
#
# number of rings (size 3 to 8) (size 9 to 14) (size 15 to 20)
#    0.000    1.667    1.667    4.250    0.000    2.000 
#    0.000    4.167    0.000    0.000    0.000    0.000 
#    0.000    0.000    0.000    0.000    0.000    0.000 
#
# Total GULP energy -268180.408622 kJ/mol
# GULP energy per Si atom -5587.091846 kJ/mol
# Density = 1.828584 g / cm^3
# Si number density = 18.327557 Si / 1000 Ang^3
#
#
#
# Elastic Constant Matrix: (Units=GPa)
#
#
# Indices 1 2 3 4 5 6 
#
# 1 144.0121 36.6268 84.1857 0.0000 0.0000 0.0000
# 2 36.6268 65.4035 43.2186 0.0000 0.0000 0.0000
# 3 84.1857 43.2186 165.7626 0.0000 0.0000 0.0000
# 4 0.0000 0.0000 0.0000 23.5192 0.0000 0.0000
# 5 0.0000 0.0000 0.0000 0.0000 27.6764 0.0000
# 6 0.0000 0.0000 0.0000 0.0000 0.0000 15.0187
#
#
#
# Elastic Compliance Matrix: (Units=1/GPa)
#
#
# Indices 1 2 3 4 5 6 
#
# 1 0.010280 -0.002787 -0.004494 0.000000 0.000000 0.000000
# 2 -0.002787 0.019228 -0.003598 0.000000 0.000000 0.000000
# 3 -0.004494 -0.003598 0.009253 0.000000 0.000000 0.000000
# 4 0.000000 0.000000 0.000000 0.042518 0.000000 0.000000
# 5 0.000000 0.000000 0.000000 0.000000 0.036132 0.000000
# 6 0.000000 0.000000 0.000000 0.000000 0.000000 0.066584
#
#
# Mechanical properties :
#
#
# Convention : Reuss Voigt Hill
#
# Bulk Modulus (GPa) = 58.81326 78.13783 68.47554
# Shear Modulus (GPa) = 23.64954 27.31934 25.48444
#
# Velocity S-wave (km/s) = 3.59609 3.86504 3.73298
# Velocity P-wave (km/s) = 7.02867 7.91484 7.48488
#
# Compressibility (1/GPa) = 0.01700297
#
# Stress axis : x y z
#
# Youngs Moduli (GPa) = 97.27741 52.00772 108.07099
#
# Poissons Ratio (x) = 0.14495 0.48569
# Poissons Ratio (y) = 0.27113 0.38881
# Poissons Ratio (z) = 0.43718 0.18711
#
# Static dielectric constant tensor:
#      x y z
#    x 1.607710 0.000000 0.000000 
#    y 0.000000 1.624020 0.000000 
#    z 0.000000 0.000000 1.622490 
# 
# From -- ./inp_files/23772.got.cif
#   From: 2010.05.17/outbox.cif.g08.bks.cpg/sg59_12_cif.got.tgz:23772.got - 2010.06.03 14:40:33.
