data_PCOD9447496
_publ_section_title
;
Structure prediction by ZEFSAII (Michael W. Deem and Ramdas Pophale) SiO2 
 PCOD9447496
Probable space group: P M M N
;
_chemical_formula_sum "Si O2"
_cell_formula_units_Z 64
_cell_length_a 29.521482
_cell_length_b 7.834793
_cell_length_c 16.282912
_cell_angle_alpha 90.000000
_cell_angle_beta 90.000000
_cell_angle_gamma 90.000000
_cell_volume 3766.151255
_symmetry_space_group_name_H-M "P M M N"
_symmetry_group_IT_number 59
_space_group.IT_coordinate_system_code '2'
_symmetry_cell_setting 'orthorhombic'
loop_
_space_group_symop_operation_xyz
x,y,z
1/2-x,1/2-y,z
1/2+x,-y,-z
-x,1/2+y,-z
-x,-y,-z
1/2+x,1/2+y,-z
1/2-x,y,z
x,1/2-y,z
loop_
_atom_site_type_symbol
_atom_site_label
_atom_site_fract_x
_atom_site_fract_y
_atom_site_fract_z
Si Si1 0.699350 0.956185 0.096317
Si Si2 0.446797 0.544953 0.498387
Si Si3 0.106540 0.450577 0.830931
Si Si4 0.300046 0.955276 0.094871
Si Si5 0.548459 0.049402 0.324350
Si Si6 0.894718 0.459633 0.842150
Si Si7 0.947354 0.045952 0.006070
Si Si8 0.055480 0.951843 0.319841
O O1 0.750000 0.016294 0.119532
O O2 0.699333 0.750000 0.101030
O O3 0.656693 0.020555 0.148594
O O4 0.692007 0.003236 0.000978
O O5 0.500000 0.500000 0.500000
O O6 0.441147 0.750000 0.495300
O O7 0.430893 0.485328 0.588507
O O8 0.430696 0.477214 0.409755
O O9 0.110891 0.250000 0.815138
O O10 0.081143 0.525479 0.752492
O O11 0.076182 0.474404 0.912399
O O12 0.250000 0.021413 0.117002
O O13 0.298974 0.750000 0.101659
O O14 0.342811 0.015685 0.147045
O O15 0.539656 0.250000 0.334620
O O16 0.498824 0.969918 0.309791
O O17 0.895625 0.250000 0.841867
O O18 0.918693 0.522074 0.759367
O O19 0.921967 0.513460 0.923559
O O20 0.942997 0.250000 0.010410
O O21 0.000000 0.000000 0.000000
O O22 0.065187 0.750000 0.321406
#
# Coordination Sequence:
#
# PCOD9447496 Si02
#       8
#     8   8   8   8   8   8   8   8
#     4   9  18  32  48  65  85 110 145 190 232 268
#     4   8  15  27  44  64  85 113 146 183 225 262
#     4  11  21  32  46  65  88 119 154 186 226 272
#     4   9  16  28  46  65  85 110 142 180 221 262
#     4  10  19  30  44  65  91 117 150 189 224 264
#     4   9  17  28  43  64  87 113 144 176 211 256
#     4  11  21  32  44  62  92 125 155 182 213 257
#     4   9  16  29  47  65  89 119 149 181 220 268
#
# _framework density 16.993476000000001
#
# number of rings (size 3 to 8) (size 9 to 14) (size 15 to 20)
#    0.000    2.500    1.250    1.875    0.000    2.000 
#    0.000    1.250    0.000    0.000    0.000    0.875 
#    0.000    3.000    0.000    0.000    0.000    0.000 
#
# Total GULP energy -356602.916208 kJ/mol
# GULP energy per Si atom -5571.920566 kJ/mol
# Density = 1.695480 g / cm^3
# Si number density = 16.993476 Si / 1000 Ang^3
#
#
#
# Elastic Constant Matrix: (Units=GPa)
#
#
# Indices 1 2 3 4 5 6 
#
# 1 107.6380 -6.5343 69.0374 0.0000 0.0000 0.0000
# 2 -6.5343 18.0155 -2.1391 0.0000 0.0000 0.0000
# 3 69.0374 -2.1391 150.7805 0.0000 0.0000 0.0000
# 4 0.0000 0.0000 0.0000 -39.6718 0.0000 0.0000
# 5 0.0000 0.0000 0.0000 0.0000 8.3089 0.0000
# 6 0.0000 0.0000 0.0000 0.0000 0.0000 9.2125
#
#
#
# Elastic Compliance Matrix: (Units=1/GPa)
#
#
# Indices 1 2 3 4 5 6 
#
# 1 0.013457 0.004156 -0.006102 0.000000 0.000000 0.000000
# 2 0.004156 0.056885 -0.001096 0.000000 0.000000 0.000000
# 3 -0.006102 -0.001096 0.009411 0.000000 0.000000 0.000000
# 4 0.000000 0.000000 0.000000 -0.025207 0.000000 0.000000
# 5 0.000000 0.000000 0.000000 0.000000 0.120353 0.000000
# 6 0.000000 0.000000 0.000000 0.000000 0.000000 0.108548
#
#
# Mechanical properties :
#
#
# Convention : Reuss Voigt Hill
#
# Bulk Modulus (GPa) = 13.57440 44.12911 28.85176
# Shear Modulus (GPa) = 15.91913 9.97458 12.94685
#
# Velocity S-wave (km/s) = 3.06400 2.42536 2.76320
# Velocity P-wave (km/s) = 4.53022 5.81961 5.21492
#
# Compressibility (1/GPa) = 0.07366806
#
# Stress axis : x y z
#
# Youngs Moduli (GPa) = 74.31233 17.57933 106.26193
#
# Poissons Ratio (x) = -0.07306 0.64846
# Poissons Ratio (y) = -0.30886 0.11646
# Poissons Ratio (z) = 0.45349 0.01927
#
# Static dielectric constant tensor:
#      x y z
#    x 1.574780 0.000000 0.000000 
#    y 0.000000 1.619070 0.000000 
#    z 0.000000 0.000000 1.591370 
# 
# From -- ./inp_files/21887.got.cif
#   From: 2010.05.17/outbox.cif.g08.bks.cpg/sg59_11_cif.got.tgz:21887.got - 2010.06.03 14:40:33.
