data_PCOD9447518
_publ_section_title
;
Structure prediction by ZEFSAII (Michael W. Deem and Ramdas Pophale) SiO2 
 PCOD9447518
Probable space group: P M M N
;
_chemical_formula_sum "Si O2"
_cell_formula_units_Z 64
_cell_length_a 29.271651
_cell_length_b 8.968797
_cell_length_c 16.068157
_cell_angle_alpha 90.000000
_cell_angle_beta 90.000000
_cell_angle_gamma 90.000000
_cell_volume 4218.397290
_symmetry_space_group_name_H-M "P M M N"
_symmetry_group_IT_number 59
_space_group.IT_coordinate_system_code '2'
_symmetry_cell_setting 'orthorhombic'
loop_
_space_group_symop_operation_xyz
x,y,z
1/2-x,1/2-y,z
1/2+x,-y,-z
-x,1/2+y,-z
-x,-y,-z
1/2+x,1/2+y,-z
1/2-x,y,z
x,1/2-y,z
loop_
_atom_site_type_symbol
_atom_site_label
_atom_site_fract_x
_atom_site_fract_y
_atom_site_fract_z
Si Si1 0.447824 0.429489 0.325502
Si Si2 0.950022 0.929755 0.001383
Si Si3 0.802044 0.428242 0.902296
Si Si4 0.301693 0.071152 0.915775
Si Si5 0.391258 0.429573 0.160987
Si Si6 0.050375 0.571339 0.494715
Si Si7 0.393975 0.429172 0.833030
Si Si8 0.054966 0.928633 0.679089
O O1 0.447095 0.250000 0.335416
O O2 0.418649 0.469594 0.244464
O O3 0.429548 0.504289 0.410092
O O4 0.501264 0.472795 0.313402
O O5 0.953811 0.750000 0.999936
O O6 0.920793 0.974088 0.920230
O O7 0.923497 0.972439 0.085611
O O8 0.000000 0.000000 0.000000
O O9 0.750000 0.467297 0.876950
O O10 0.805872 0.250000 0.904173
O O11 0.841646 0.497451 0.846143
O O12 0.808558 0.492690 0.995420
O O13 0.250000 0.039217 0.887244
O O14 0.305550 0.250000 0.929331
O O15 0.341757 0.027226 0.852924
O O16 0.386622 0.250000 0.158669
O O17 0.047069 0.750000 0.488560
O O18 0.071371 0.534874 0.585107
O O19 0.000000 0.500000 0.500000
O O20 0.395772 0.250000 0.826399
O O21 0.415376 0.498450 0.750860
O O22 0.056347 0.750000 0.688124
#
# Coordination Sequence:
#
# PCOD9447518 Si02
#       8
#     8   8   8   8   8   8   8   8
#     4   9  18  31  48  69  93 122 157 192 228 272
#     4  10  20  32  43  61  91 125 159 186 218 265
#     4  10  20  32  47  69  93 117 153 199 239 275
#     4   9  17  32  51  66  86 118 153 192 238 278
#     4  10  19  33  49  66  93 126 158 191 229 279
#     4   9  17  30  47  66  91 121 155 193 233 274
#     4  10  19  30  45  67  90 117 156 192 222 268
#     4   9  18  31  46  66  93 125 153 183 228 273
#
# _framework density 15.171639000000001
#
# number of rings (size 3 to 8) (size 9 to 14) (size 15 to 20)
#    0.000    2.500    1.250    2.250    0.000    6.250 
#    0.000    0.000    0.000    0.000    0.000    0.875 
#    0.000    3.000    0.000    0.000    0.000    0.000 
#
# Total GULP energy -356678.068296 kJ/mol
# GULP energy per Si atom -5573.094817 kJ/mol
# Density = 1.513711 g / cm^3
# Si number density = 15.171639 Si / 1000 Ang^3
#
#
#
# Elastic Constant Matrix: (Units=GPa)
#
#
# Indices 1 2 3 4 5 6 
#
# 1 105.0788 31.0809 66.4000 0.0000 0.0000 0.0000
# 2 31.0809 17.1251 38.4940 0.0000 0.0000 0.0000
# 3 66.4000 38.4940 137.5245 0.0000 0.0000 0.0000
# 4 0.0000 0.0000 0.0000 27.2392 0.0000 0.0000
# 5 0.0000 0.0000 0.0000 0.0000 9.7359 0.0000
# 6 0.0000 0.0000 0.0000 0.0000 0.0000 23.2627
#
#
#
# Elastic Compliance Matrix: (Units=1/GPa)
#
#
# Indices 1 2 3 4 5 6 
#
# 1 0.020647 -0.040625 0.001402 0.000000 0.000000 0.000000
# 2 -0.040625 0.237405 -0.046836 0.000000 0.000000 0.000000
# 3 0.001402 -0.046836 0.019704 0.000000 0.000000 0.000000
# 4 0.000000 0.000000 0.000000 0.036712 0.000000 0.000000
# 5 0.000000 0.000000 0.000000 0.000000 0.102712 0.000000
# 6 0.000000 0.000000 0.000000 0.000000 0.000000 0.042987
#
#
# Mechanical properties :
#
#
# Convention : Reuss Voigt Hill
#
# Bulk Modulus (GPa) = 9.46632 59.07536 34.27084
# Shear Modulus (GPa) = 7.49067 20.29779 13.89423
#
# Velocity S-wave (km/s) = 2.22441 3.66167 3.02951
# Velocity P-wave (km/s) = 3.58474 7.54319 5.90551
#
# Compressibility (1/GPa) = 0.10563771
#
# Stress axis : x y z
#
# Youngs Moduli (GPa) = 48.43371 4.21222 50.75082
#
# Poissons Ratio (x) = 0.17112 -0.07117
# Poissons Ratio (y) = 1.96761 2.37698
# Poissons Ratio (z) = -0.06792 0.19729
#
# Static dielectric constant tensor:
#      x y z
#    x 1.498130 0.000000 0.000000 
#    y 0.000000 1.512260 0.000000 
#    z 0.000000 0.000000 1.505380 
# 
# From -- ./inp_files/21805.got.cif
#   From: 2010.05.17/outbox.cif.g08.bks.cpg/sg59_11_cif.got.tgz:21805.got - 2010.06.03 14:40:33.
