data_PCOD9447361
_publ_section_title
;
Structure prediction by ZEFSAII (Michael W. Deem and Ramdas Pophale) SiO2 
 PCOD9447361
Probable space group: P M M N
;
_chemical_formula_sum "Si O2"
_cell_formula_units_Z 64
_cell_length_a 29.246544
_cell_length_b 7.552982
_cell_length_c 16.449405
_cell_angle_alpha 90.000000
_cell_angle_beta 90.000000
_cell_angle_gamma 90.000000
_cell_volume 3633.650871
_symmetry_space_group_name_H-M "P M M N"
_symmetry_group_IT_number 59
_space_group.IT_coordinate_system_code '2'
_symmetry_cell_setting 'orthorhombic'
loop_
_space_group_symop_operation_xyz
x,y,z
1/2-x,1/2-y,z
1/2+x,-y,-z
-x,1/2+y,-z
-x,-y,-z
1/2+x,1/2+y,-z
1/2-x,y,z
x,1/2-y,z
loop_
_atom_site_type_symbol
_atom_site_label
_atom_site_fract_x
_atom_site_fract_y
_atom_site_fract_z
Si Si1 0.698685 0.961630 0.089332
Si Si2 0.445799 0.537995 0.498297
Si Si3 0.103654 0.540849 0.838041
Si Si4 0.300761 0.960216 0.099772
Si Si5 0.557910 0.038690 0.324890
Si Si6 0.895677 0.467447 0.837432
Si Si7 0.946385 0.037834 0.000715
Si Si8 0.050107 0.964056 0.321195
O O1 0.750000 0.026619 0.109399
O O2 0.699500 0.750000 0.091249
O O3 0.657543 0.021706 0.146400
O O4 0.688838 0.016157 0.996115
O O5 0.500000 0.500000 0.500000
O O6 0.439060 0.750000 0.498354
O O7 0.428512 0.468352 0.585380
O O8 0.431379 0.472087 0.409106
O O9 0.093150 0.750000 0.836223
O O10 0.085042 0.466863 0.752943
O O11 0.077632 0.467176 0.917554
O O12 0.250000 0.034979 0.114697
O O13 0.298434 0.750000 0.114017
O O14 0.343387 0.027520 0.151568
O O15 0.565448 0.250000 0.328102
O O16 0.503479 0.011251 0.313181
O O17 0.895852 0.250000 0.836978
O O18 0.920940 0.526394 0.755816
O O19 0.922957 0.526309 0.917833
O O20 0.940091 0.250000 0.000906
O O21 0.000000 0.000000 0.000000
O O22 0.051943 0.750000 0.321983
#
# Coordination Sequence:
#
# PCOD9447361 Si02
#       8
#     8   8   8   8   8   8   8   8
#     4  10  20  32  46  65  86 106 135 179 222 254
#     4   8  14  25  40  59  81 109 140 173 211 243
#     4  10  19  31  45  61  83 115 148 174 206 251
#     4   9  16  29  48  63  79 107 140 173 209 248
#     4   9  17  28  42  61  86 111 143 180 206 239
#     4   9  16  27  41  60  83 107 139 173 200 241
#     4  10  19  29  39  55  82 112 143 171 198 237
#     4   9  16  26  42  61  85 115 142 170 210 252
#
# _framework density 17.613140000000001
#
# number of rings (size 3 to 8) (size 9 to 14) (size 15 to 20)
#    0.000    2.750    1.250    1.125    0.000    1.750 
#    0.000    0.625    0.000    0.000    0.000    0.875 
#    0.000    5.000    0.000    3.375    0.000    3.000 
#
# Total GULP energy -356656.831353 kJ/mol
# GULP energy per Si atom -5572.762990 kJ/mol
# Density = 1.757305 g / cm^3
# Si number density = 17.613140 Si / 1000 Ang^3
#
#
#
# Elastic Constant Matrix: (Units=GPa)
#
#
# Indices 1 2 3 4 5 6 
#
# 1 96.7913 -9.7230 80.2527 0.0000 0.0000 0.0000
# 2 -9.7230 40.7133 5.5205 0.0000 0.0000 0.0000
# 3 80.2527 5.5205 176.7409 0.0000 0.0000 0.0000
# 4 0.0000 0.0000 0.0000 2.9810 0.0000 0.0000
# 5 0.0000 0.0000 0.0000 0.0000 11.2512 0.0000
# 6 0.0000 0.0000 0.0000 0.0000 0.0000 14.8739
#
#
#
# Elastic Compliance Matrix: (Units=1/GPa)
#
#
# Indices 1 2 3 4 5 6 
#
# 1 0.017649 0.005324 -0.008180 0.000000 0.000000 0.000000
# 2 0.005324 0.026272 -0.003238 0.000000 0.000000 0.000000
# 3 -0.008180 -0.003238 0.009473 0.000000 0.000000 0.000000
# 4 0.000000 0.000000 0.000000 0.335461 0.000000 0.000000
# 5 0.000000 0.000000 0.000000 0.000000 0.088879 0.000000
# 6 0.000000 0.000000 0.000000 0.000000 0.000000 0.067232
#
#
# Mechanical properties :
#
#
# Convention : Reuss Voigt Hill
#
# Bulk Modulus (GPa) = 24.26816 51.81620 38.04218
# Shear Modulus (GPa) = 8.75825 21.70091 15.22958
#
# Velocity S-wave (km/s) = 2.23234 3.51392 2.94372
# Velocity P-wave (km/s) = 4.52248 6.77838 5.76191
#
# Compressibility (1/GPa) = 0.04120626
#
# Stress axis : x y z
#
# Youngs Moduli (GPa) = 56.66173 38.06267 105.55846
#
# Poissons Ratio (x) = -0.20264 0.86347
# Poissons Ratio (y) = -0.30166 0.34180
# Poissons Ratio (z) = 0.46349 0.12325
#
# Static dielectric constant tensor:
#      x y z
#    x 1.585580 0.000000 0.000000 
#    y 0.000000 1.643920 0.000000 
#    z 0.000000 0.000000 1.635310 
# 
# From -- ./inp_files/25038.got.cif
#   From: 2010.05.17/outbox.cif.g08.bks.cpg/sg59_13_cif.got.tgz:25038.got - 2010.06.03 14:40:33.
