data_PCOD9447512
_publ_section_title
;
Structure prediction by ZEFSAII (Michael W. Deem and Ramdas Pophale) SiO2 
 PCOD9447512
Probable space group: P M M N
;
_chemical_formula_sum "Si O2"
_cell_formula_units_Z 64
_cell_length_a 8.923188
_cell_length_b 22.325393
_cell_length_c 19.740332
_cell_angle_alpha 90.000000
_cell_angle_beta 90.000000
_cell_angle_gamma 90.000000
_cell_volume 3932.544161
_symmetry_space_group_name_H-M "P M M N"
_symmetry_group_IT_number 59
_space_group.IT_coordinate_system_code '2'
_symmetry_cell_setting 'orthorhombic'
loop_
_space_group_symop_operation_xyz
x,y,z
1/2-x,1/2-y,z
1/2+x,-y,-z
-x,1/2+y,-z
-x,-y,-z
1/2+x,1/2+y,-z
1/2-x,y,z
x,1/2-y,z
loop_
_atom_site_type_symbol
_atom_site_label
_atom_site_fract_x
_atom_site_fract_y
_atom_site_fract_z
Si Si1 0.569717 0.870246 0.660844
Si Si2 0.429463 0.506757 0.318898
Si Si3 0.068356 0.557202 0.459792
Si Si4 0.430664 0.682461 0.529304
Si Si5 0.570761 0.940660 0.033960
Si Si6 0.573152 0.111686 0.087648
Si Si7 0.920736 0.819677 0.804164
Si Si8 0.070322 0.008481 0.828548
O O1 0.750000 0.863165 0.655187
O O2 0.531335 0.940171 0.654238
O O3 0.490836 0.830358 0.604623
O O4 0.525234 0.852314 0.736631
O O5 0.250000 0.508300 0.310772
O O6 0.471798 0.550545 0.380325
O O7 0.499457 0.516501 0.245014
O O8 0.250000 0.552828 0.465439
O O9 0.021398 0.622710 0.487718
O O10 0.000000 0.500000 0.500000
O O11 0.250000 0.682179 0.529127
O O12 0.478177 0.750000 0.507403
O O13 0.750000 0.944081 0.029510
O O14 0.530273 0.942712 0.113430
O O15 0.508301 0.889999 0.984586
O O16 0.500000 0.000000 0.000000
O O17 0.750000 0.107191 0.077132
O O18 0.524243 0.167389 0.132277
O O19 0.527616 0.054730 0.135463
O O20 0.750000 0.840350 0.819089
O O21 0.915542 0.750000 0.788542
O O22 0.250000 0.008043 0.821016
#
# Coordination Sequence:
#
# PCOD9447512 Si02
#       8
#     8   8   8   8   8   8   8   8
#     4  10  19  32  49  70  96 128 166 204 243 291
#     4  10  19  30  48  71  95 126 161 198 245 293
#     4  10  20  34  50  71  98 127 163 204 249 300
#     4  10  21  35  51  71  96 129 166 205 249 297
#     4   9  17  29  45  67  93 120 152 188 229 279
#     4  10  19  30  45  66  92 124 159 195 237 279
#     4  10  20  32  45  63  91 129 166 199 237 282
#     4   9  18  30  45  68  95 122 152 189 236 287
#
# _framework density 16.274450999999999
#
# number of rings (size 3 to 8) (size 9 to 14) (size 15 to 20)
#    0.000    2.250    2.500    1.875    0.000    5.000 
#    0.000    0.000    0.000    0.000    0.000    0.875 
#    0.000    3.000    0.000    0.000    0.000    0.000 
#
# Total GULP energy -356447.793797 kJ/mol
# GULP energy per Si atom -5569.496778 kJ/mol
# Density = 1.623741 g / cm^3
# Si number density = 16.274451 Si / 1000 Ang^3
#
#
#
# Elastic Constant Matrix: (Units=GPa)
#
#
# Indices 1 2 3 4 5 6 
#
# 1 21.8990 15.0125 25.7100 0.0000 0.0000 0.0000
# 2 15.0125 72.0048 39.0836 0.0000 0.0000 0.0000
# 3 25.7100 39.0836 100.3725 0.0000 0.0000 0.0000
# 4 0.0000 0.0000 0.0000 17.9889 0.0000 0.0000
# 5 0.0000 0.0000 0.0000 0.0000 28.3964 0.0000
# 6 0.0000 0.0000 0.0000 0.0000 0.0000 16.4622
#
#
#
# Elastic Compliance Matrix: (Units=1/GPa)
#
#
# Indices 1 2 3 4 5 6 
#
# 1 0.067236 -0.005922 -0.014916 0.000000 0.000000 0.000000
# 2 -0.005922 0.018131 -0.005543 0.000000 0.000000 0.000000
# 3 -0.014916 -0.005543 0.015942 0.000000 0.000000 0.000000
# 4 0.000000 0.000000 0.000000 0.055590 0.000000 0.000000
# 5 0.000000 0.000000 0.000000 0.000000 0.035216 0.000000
# 6 0.000000 0.000000 0.000000 0.000000 0.000000 0.060745
#
#
# Mechanical properties :
#
#
# Convention : Reuss Voigt Hill
#
# Bulk Modulus (GPa) = 20.59872 39.32094 29.95983
# Shear Modulus (GPa) = 15.53735 20.20085 17.86910
#
# Velocity S-wave (km/s) = 3.09319 3.52698 3.31718
# Velocity P-wave (km/s) = 5.04397 6.38746 5.75506
#
# Compressibility (1/GPa) = 0.04854671
#
# Stress axis : x y z
#
# Youngs Moduli (GPa) = 14.87302 55.15277 62.72682
#
# Poissons Ratio (x) = 0.32660 0.93566
# Poissons Ratio (y) = 0.08807 0.34771
# Poissons Ratio (z) = 0.22185 0.30573
#
# Static dielectric constant tensor:
#      x y z
#    x 1.562410 0.000000 0.000000 
#    y 0.000000 1.576760 0.000000 
#    z 0.000000 0.000000 1.560300 
# 
# From -- ./inp_files/26553.got.cif
#   From: 2010.05.17/outbox.cif.g08.bks.cpg/sg59_14_cif.got.tgz:26553.got - 2010.06.03 14:40:33.
