data_PCOD9447060
_publ_section_title
;
Structure prediction by ZEFSAII (Michael W. Deem and Ramdas Pophale) SiO2 
 PCOD9447060
Probable space group: P M M N
;
_chemical_formula_sum "Si O2"
_cell_formula_units_Z 64
_cell_length_a 26.715333
_cell_length_b 8.621289
_cell_length_c 13.402510
_cell_angle_alpha 90.000000
_cell_angle_beta 90.000000
_cell_angle_gamma 90.000000
_cell_volume 3086.874232
_symmetry_space_group_name_H-M "P M M N"
_symmetry_group_IT_number 59
_space_group.IT_coordinate_system_code '2'
_symmetry_cell_setting 'orthorhombic'
loop_
_space_group_symop_operation_xyz
x,y,z
1/2-x,1/2-y,z
1/2+x,-y,-z
-x,1/2+y,-z
-x,-y,-z
1/2+x,1/2+y,-z
1/2-x,y,z
x,1/2-y,z
loop_
_atom_site_type_symbol
_atom_site_label
_atom_site_fract_x
_atom_site_fract_y
_atom_site_fract_z
Si Si1 0.509257 0.438729 0.610790
Si Si2 0.379450 0.063510 0.336475
Si Si3 0.353100 0.432774 0.917385
Si Si4 0.308906 0.923071 0.730286
Si Si5 0.640676 0.436687 0.873228
Si Si6 0.532831 0.078725 0.918659
Si Si7 0.941858 0.924315 0.223213
Si Si8 0.308885 0.436388 0.522245
O O1 0.500000 0.500000 0.500000
O O2 0.508490 0.250000 0.613818
O O3 0.564218 0.494464 0.649975
O O4 0.460158 0.497858 0.673792
O O5 0.383816 0.250000 0.332859
O O6 0.344987 0.019419 0.431223
O O7 0.350409 0.006100 0.236332
O O8 0.358114 0.250000 0.938009
O O9 0.316734 0.469523 0.825920
O O10 0.405097 0.489848 0.862638
O O11 0.335863 0.513590 0.020420
O O12 0.250000 0.910553 0.715400
O O13 0.329495 0.750000 0.748981
O O14 0.328243 0.993398 0.626760
O O15 0.642961 0.250000 0.864286
O O16 0.584257 0.499943 0.892652
O O17 0.546222 0.250000 0.954166
O O18 0.496414 0.090083 0.825907
O O19 0.500000 0.000000 0.000000
O O20 0.921588 0.750000 0.242739
O O21 0.250000 0.480128 0.505586
O O22 0.309799 0.250000 0.531225
#
# Coordination Sequence:
#
# PCOD9447060 Si02
#       8
#     8   8   8   8   8   8   8   8
#     4  11  23  40  56  81 120 161 201 244 296 356
#     4  11  23  39  61  88 118 157 203 251 302 359
#     4  11  22  37  60  88 118 155 199 245 292 350
#     4  10  22  41  64  91 121 149 185 239 301 361
#     4  11  22  37  56  82 119 161 200 244 295 351
#     4  10  18  32  51  74 105 146 189 233 276 324
#     4   9  19  35  53  76 111 151 194 239 281 333
#     4   9  20  41  67  91 115 148 193 244 297 355
#
# _framework density 20.732945999999998
#
# number of rings (size 3 to 8) (size 9 to 14) (size 15 to 20)
#    0.000    1.750    2.500    1.875    1.750    2.250 
#    0.000    2.500    0.000    2.250    0.000    0.000 
#    0.000    0.000    0.000    0.000    0.000    0.000 
#
# Total GULP energy -356292.881836 kJ/mol
# GULP energy per Si atom -5567.076279 kJ/mol
# Density = 2.068576 g / cm^3
# Si number density = 20.732946 Si / 1000 Ang^3
#
#
#
# Elastic Constant Matrix: (Units=GPa)
#
#
# Indices 1 2 3 4 5 6 
#
# 1 35.3472 14.0819 14.6479 0.0000 0.0000 0.0000
# 2 14.0819 49.7146 39.3179 0.0000 0.0000 0.0000
# 3 14.6479 39.3179 156.2716 0.0000 0.0000 0.0000
# 4 0.0000 0.0000 0.0000 34.3710 0.0000 0.0000
# 5 0.0000 0.0000 0.0000 0.0000 31.3378 0.0000
# 6 0.0000 0.0000 0.0000 0.0000 0.0000 19.7370
#
#
#
# Elastic Compliance Matrix: (Units=1/GPa)
#
#
# Indices 1 2 3 4 5 6 
#
# 1 0.031990 -0.008352 -0.000897 0.000000 0.000000 0.000000
# 2 -0.008352 0.027292 -0.006084 0.000000 0.000000 0.000000
# 3 -0.000897 -0.006084 0.008014 0.000000 0.000000 0.000000
# 4 0.000000 0.000000 0.000000 0.029094 0.000000 0.000000
# 5 0.000000 0.000000 0.000000 0.000000 0.031910 0.000000
# 6 0.000000 0.000000 0.000000 0.000000 0.000000 0.050666
#
#
# Mechanical properties :
#
#
# Convention : Reuss Voigt Hill
#
# Bulk Modulus (GPa) = 27.29987 41.93655 34.61821
# Shear Modulus (GPa) = 22.53855 28.64154 25.59004
#
# Velocity S-wave (km/s) = 3.30068 3.72082 3.51703
# Velocity P-wave (km/s) = 5.26516 6.22336 5.76421
#
# Compressibility (1/GPa) = 0.03663020
#
# Stress axis : x y z
#
# Youngs Moduli (GPa) = 31.25999 36.64080 124.78308
#
# Poissons Ratio (x) = 0.30601 0.11196
# Poissons Ratio (y) = 0.26107 0.75916
# Poissons Ratio (z) = 0.02805 0.22292
#
# Static dielectric constant tensor:
#      x y z
#    x 1.844690 0.000000 0.000000 
#    y 0.000000 1.760720 0.000000 
#    z 0.000000 0.000000 1.835610 
# 
# From -- ./inp_files/19241.got.cif
#   From: 2010.05.17/outbox.cif.g08.bks.cpg/sg59_10_cif.got.tgz:19241.got - 2010.06.03 14:40:33.
