data_PCOD9447491
_publ_section_title
;
Structure prediction by ZEFSAII (Michael W. Deem and Ramdas Pophale) SiO2 
 PCOD9447491
Probable space group: P M M N
;
_chemical_formula_sum "Si O2"
_cell_formula_units_Z 56
_cell_length_a 8.518238
_cell_length_b 14.528237
_cell_length_c 20.954271
_cell_angle_alpha 90.000000
_cell_angle_beta 90.000000
_cell_angle_gamma 90.000000
_cell_volume 2593.195399
_symmetry_space_group_name_H-M "P M M N"
_symmetry_group_IT_number 59
_space_group.IT_coordinate_system_code '2'
_symmetry_cell_setting 'orthorhombic'
loop_
_space_group_symop_operation_xyz
x,y,z
1/2-x,1/2-y,z
1/2+x,-y,-z
-x,1/2+y,-z
-x,-y,-z
1/2+x,1/2+y,-z
1/2-x,y,z
x,1/2-y,z
loop_
_atom_site_type_symbol
_atom_site_label
_atom_site_fract_x
_atom_site_fract_y
_atom_site_fract_z
Si Si1 0.561304 0.099634 0.019663
Si Si2 0.561727 0.448097 0.156067
Si Si3 0.425789 0.383084 0.553258
Si Si4 0.440032 0.849722 0.118633
Si Si5 0.072199 0.896814 0.577137
Si Si6 0.062165 0.053925 0.290771
Si Si7 0.066140 0.651816 0.316590
O O1 0.750000 0.102867 0.021649
O O2 0.515803 0.154951 0.956592
O O3 0.509390 0.109610 0.093106
O O4 0.500000 0.000000 0.000000
O O5 0.750000 0.445641 0.159774
O O6 0.489805 0.411861 0.221701
O O7 0.509930 0.555301 0.145785
O O8 0.250000 0.351876 0.568524
O O9 0.424440 0.493758 0.561283
O O10 0.472501 0.357728 0.481501
O O11 0.545747 0.350196 0.606902
O O12 0.250000 0.857739 0.123583
O O13 0.484287 0.750000 0.147135
O O14 0.250000 0.862620 0.575378
O O15 0.003257 0.891549 0.648199
O O16 0.250000 0.051742 0.295983
O O17 0.001495 0.947031 0.294570
O O18 0.250000 0.651820 0.299340
O O19 0.997673 0.750000 0.294756
#
# Coordination Sequence:
#
# PCOD9447491 Si02
#       7
#     8   8   8   8   8   8   8
#     4   8  15  28  45  64  86 113 145 182 222 263
#     4  10  19  30  44  64  92 122 150 182 224 273
#     4   9  16  26  42  63  84 107 138 177 219 258
#     4   9  17  30  48  68  89 115 149 186 222 263
#     4   9  16  27  43  62  84 109 139 178 220 258
#     4  10  19  30  44  63  88 118 152 186 219 260
#     4   9  18  31  44  59  83 116 150 181 215 258
#
# _framework density 21.59498
#
# number of rings (size 3 to 8) (size 9 to 14) (size 15 to 20)
#    0.000    2.857    0.000    1.714    0.000    5.714 
#    0.000    1.429    0.000    0.000    0.000    1.000 
#    0.000    5.714    0.000    0.000    0.000    0.000 
#
# Total GULP energy -311956.111254 kJ/mol
# GULP energy per Si atom -5570.644844 kJ/mol
# Density = 2.154583 g / cm^3
# Si number density = 21.594980 Si / 1000 Ang^3
#
#
#
# Elastic Constant Matrix: (Units=GPa)
#
#
# Indices 1 2 3 4 5 6 
#
# 1 27.6509 -6.6915 11.2091 0.0000 0.0000 0.0000
# 2 -6.6915 32.0704 -11.1735 0.0000 0.0000 0.0000
# 3 11.2091 -11.1735 165.8956 0.0000 0.0000 0.0000
# 4 0.0000 0.0000 0.0000 -11.5303 0.0000 0.0000
# 5 0.0000 0.0000 0.0000 0.0000 28.6897 0.0000
# 6 0.0000 0.0000 0.0000 0.0000 0.0000 -2.8549
#
#
#
# Elastic Compliance Matrix: (Units=1/GPa)
#
#
# Indices 1 2 3 4 5 6 
#
# 1 0.038807 0.007356 -0.002127 0.000000 0.000000 0.000000
# 2 0.007356 0.033325 0.001748 0.000000 0.000000 0.000000
# 3 -0.002127 0.001748 0.006289 0.000000 0.000000 0.000000
# 4 0.000000 0.000000 0.000000 -0.086728 0.000000 0.000000
# 5 0.000000 0.000000 0.000000 0.000000 0.034856 0.000000
# 6 0.000000 0.000000 0.000000 0.000000 0.000000 -0.350271
#
#
# Mechanical properties :
#
#
# Convention : Reuss Voigt Hill
#
# Bulk Modulus (GPa) = 10.82531 23.58945 17.20738
# Shear Modulus (GPa) = -16.29281 18.34574 1.02646
#
# Velocity S-wave (km/s) = -2.74975 2.91784 0.69019
# Velocity P-wave (km/s) = 2.24893 4.72219 2.93610
#
# Compressibility (1/GPa) = 0.09237609
#
# Stress axis : x y z
#
# Youngs Moduli (GPa) = 25.76825 30.00738 159.00075
#
# Poissons Ratio (x) = -0.22074 0.33814
# Poissons Ratio (y) = -0.18956 -0.27785
# Poissons Ratio (z) = 0.05480 -0.05244
#
# Static dielectric constant tensor:
#      x y z
#    x 1.749430 0.000000 0.000000 
#    y 0.000000 1.828910 0.000000 
#    z 0.000000 0.000000 1.813630 
# 
# From -- ./inp_files/26041.got.cif
#   From: 2010.05.17/outbox.cif.g08.bks.cpg/sg59_14_cif.got.tgz:26041.got - 2010.06.03 14:40:33.
