data_PCOD9447832
_publ_section_title
;
Structure prediction by ZEFSAII (Michael W. Deem and Ramdas Pophale) SiO2 
 PCOD9447832
Probable space group: P M M N
;
_chemical_formula_sum "Si O2"
_cell_formula_units_Z 64
_cell_length_a 30.066137
_cell_length_b 9.266151
_cell_length_c 15.188654
_cell_angle_alpha 90.000000
_cell_angle_beta 90.000000
_cell_angle_gamma 90.000000
_cell_volume 4231.518989
_symmetry_space_group_name_H-M "P M M N"
_symmetry_group_IT_number 59
_space_group.IT_coordinate_system_code '2'
_symmetry_cell_setting 'orthorhombic'
loop_
_space_group_symop_operation_xyz
x,y,z
1/2-x,1/2-y,z
1/2+x,-y,-z
-x,1/2+y,-z
-x,-y,-z
1/2+x,1/2+y,-z
1/2-x,y,z
x,1/2-y,z
loop_
_atom_site_type_symbol
_atom_site_label
_atom_site_fract_x
_atom_site_fract_y
_atom_site_fract_z
Si Si1 0.382611 0.922043 0.697925
Si Si2 0.465802 0.579799 0.380723
Si Si3 0.800378 0.577312 0.007432
Si Si4 0.066284 0.080256 0.547614
Si Si5 0.535744 0.423541 0.823258
Si Si6 0.801402 0.579629 0.216705
Si Si7 0.888523 0.423204 0.960921
Si Si8 0.055170 0.922795 0.865565
O O1 0.381269 0.750000 0.687872
O O2 0.417567 0.956024 0.776580
O O3 0.399296 0.997538 0.609426
O O4 0.335658 0.984170 0.729547
O O5 0.455243 0.750000 0.389650
O O6 0.438103 0.488294 0.450988
O O7 0.517641 0.562236 0.407074
O O8 0.459673 0.536355 0.279389
O O9 0.750000 0.533292 0.982110
O O10 0.803556 0.750000 0.995937
O O11 0.805345 0.548553 0.112251
O O12 0.840752 0.498560 0.959623
O O13 0.075915 0.250000 0.543527
O O14 0.529770 0.250000 0.827393
O O15 0.579173 0.460503 0.879983
O O16 0.491950 0.498001 0.862603
O O17 0.750000 0.555110 0.241180
O O18 0.811188 0.750000 0.228689
O O19 0.882586 0.250000 0.962646
O O20 0.914961 0.464229 0.050354
O O21 0.048254 0.750000 0.869597
#
# Coordination Sequence:
#
# PCOD9447832 Si02
#       8
#     8   8   8   8   8   8   8   8
#     4  11  20  30  47  71  99 129 159 195 236 282
#     4   9  18  32  47  67  92 121 157 200 243 279
#     4   9  18  32  49  69  93 123 160 200 240 281
#     4  10  19  31  49  69  91 123 159 195 238 285
#     4  10  20  33  49  67  94 130 166 201 239 283
#     4   9  18  32  49  69  94 125 161 199 237 282
#     4  10  20  33  47  69  97 128 164 199 237 282
#     4  10  20  31  43  66  99 131 165 197 228 272
#
# _framework density 15.124592
#
# number of rings (size 3 to 8) (size 9 to 14) (size 15 to 20)
#    0.000    2.250    2.500    1.875    0.000    3.000 
#    0.000    1.250    0.000    0.000    0.000    0.875 
#    0.000    5.000    0.000    0.000    0.000    0.000 
#
# Total GULP energy -356981.140393 kJ/mol
# GULP energy per Si atom -5577.830319 kJ/mol
# Density = 1.509017 g / cm^3
# Si number density = 15.124592 Si / 1000 Ang^3
#
#
#
# Elastic Constant Matrix: (Units=GPa)
#
#
# Indices 1 2 3 4 5 6 
#
# 1 111.1876 50.7955 50.1988 0.0000 0.0000 0.0000
# 2 50.7955 36.8029 30.5063 0.0000 0.0000 0.0000
# 3 50.1988 30.5063 72.1154 0.0000 0.0000 0.0000
# 4 0.0000 0.0000 0.0000 19.9069 0.0000 0.0000
# 5 0.0000 0.0000 0.0000 0.0000 20.1720 0.0000
# 6 0.0000 0.0000 0.0000 0.0000 0.0000 30.1602
#
#
#
# Elastic Compliance Matrix: (Units=1/GPa)
#
#
# Indices 1 2 3 4 5 6 
#
# 1 0.025201 -0.031172 -0.004356 0.000000 0.000000 0.000000
# 2 -0.031172 0.080403 -0.012313 0.000000 0.000000 0.000000
# 3 -0.004356 -0.012313 0.022107 0.000000 0.000000 0.000000
# 4 0.000000 0.000000 0.000000 0.050234 0.000000 0.000000
# 5 0.000000 0.000000 0.000000 0.000000 0.049574 0.000000
# 6 0.000000 0.000000 0.000000 0.000000 0.000000 0.033156
#
#
# Mechanical properties :
#
#
# Convention : Reuss Voigt Hill
#
# Bulk Modulus (GPa) = 31.22215 53.67856 42.45035
# Shear Modulus (GPa) = 13.62273 19.95486 16.78879
#
# Velocity S-wave (km/s) = 3.00442 3.63625 3.33533
# Velocity P-wave (km/s) = 5.72045 7.29367 6.55443
#
# Compressibility (1/GPa) = 0.03202855
#
# Stress axis : x y z
#
# Youngs Moduli (GPa) = 39.68052 12.43742 45.23363
#
# Poissons Ratio (x) = 0.38770 0.19703
# Poissons Ratio (y) = 1.23693 0.55697
# Poissons Ratio (z) = 0.17284 0.15314
#
# Static dielectric constant tensor:
#      x y z
#    x 1.482140 0.000000 0.000000 
#    y 0.000000 1.499280 0.000000 
#    z 0.000000 0.000000 1.489680 
# 
# From -- ./inp_files/21911.got.cif
#   From: 2010.05.17/outbox.cif.g08.bks.cpg/sg59_11_cif.got.tgz:21911.got - 2010.06.03 14:40:33.
