data_PCOD9447273
_publ_section_title
;
Structure prediction by ZEFSAII (Michael W. Deem and Ramdas Pophale) SiO2 
 PCOD9447273
Probable space group: P M M N
;
_chemical_formula_sum "Si O2"
_cell_formula_units_Z 64
_cell_length_a 8.548618
_cell_length_b 19.523515
_cell_length_c 20.060270
_cell_angle_alpha 90.000000
_cell_angle_beta 90.000000
_cell_angle_gamma 90.000000
_cell_volume 3348.040442
_symmetry_space_group_name_H-M "P M M N"
_symmetry_group_IT_number 59
_space_group.IT_coordinate_system_code '2'
_symmetry_cell_setting 'orthorhombic'
loop_
_space_group_symop_operation_xyz
x,y,z
1/2-x,1/2-y,z
1/2+x,-y,-z
-x,1/2+y,-z
-x,-y,-z
1/2+x,1/2+y,-z
1/2-x,y,z
x,1/2-y,z
loop_
_atom_site_type_symbol
_atom_site_label
_atom_site_fract_x
_atom_site_fract_y
_atom_site_fract_z
Si Si1 0.062809 0.671328 0.123500
Si Si2 0.059472 0.828059 0.718344
Si Si3 0.562969 0.829151 0.977197
Si Si4 0.060871 0.908158 0.850725
Si Si5 0.062926 0.449267 0.787599
Si Si6 0.060629 0.914418 0.588948
Si Si7 0.059202 0.671461 0.458729
Si Si8 0.062858 0.553959 0.361884
O O1 0.250000 0.669075 0.125738
O O2 0.012161 0.750000 0.135446
O O3 0.995118 0.619335 0.177148
O O4 0.006507 0.652407 0.049215
O O5 0.250000 0.827646 0.717733
O O6 0.006233 0.750000 0.711034
O O7 0.011610 0.860285 0.788670
O O8 0.011443 0.874789 0.656266
O O9 0.750000 0.831175 0.981391
O O10 0.515118 0.750000 0.962599
O O11 0.505690 0.878607 0.918939
O O12 0.250000 0.906626 0.854514
O O13 0.011547 0.984910 0.831056
O O14 0.250000 0.450512 0.785531
O O15 0.002521 0.454863 0.712274
O O16 0.250000 0.919087 0.588565
O O17 0.012400 0.869551 0.525335
O O18 0.992584 0.990422 0.592971
O O19 0.250000 0.673457 0.459285
O O20 0.004559 0.750000 0.457605
O O21 0.011378 0.625154 0.395923
O O22 0.250000 0.553641 0.359101
#
# Coordination Sequence:
#
# PCOD9447273 Si02
#       8
#     8   8   8   8   8   8   8   8
#     4  10  22  41  64  88 114 149 192 237 288 344
#     4   9  16  28  51  81 109 142 187 234 278 328
#     4  10  21  37  58  86 119 154 191 234 285 341
#     4  10  20  35  55  81 114 151 191 238 285 338
#     4  11  23  40  61  86 115 150 196 243 288 340
#     4  10  18  34  58  83 111 147 190 237 285 338
#     4   9  19  35  57  85 113 145 192 243 287 339
#     4  11  22  36  56  83 117 155 190 234 293 351
#
# _framework density 19.115658
#
# number of rings (size 3 to 8) (size 9 to 14) (size 15 to 20)
#    0.000    2.000    1.250    2.625    0.000    5.500 
#    0.000    1.875    0.000    4.125    0.000    0.000 
#    0.000    0.000    0.000    0.000    0.000    0.000 
#
# Total GULP energy -357460.563200 kJ/mol
# GULP energy per Si atom -5585.321300 kJ/mol
# Density = 1.907215 g / cm^3
# Si number density = 19.115658 Si / 1000 Ang^3
#
#
#
# Elastic Constant Matrix: (Units=GPa)
#
#
# Indices 1 2 3 4 5 6 
#
# 1 25.7240 25.1118 19.2166 0.0000 0.0000 0.0000
# 2 25.1118 134.8979 64.0567 0.0000 0.0000 0.0000
# 3 19.2166 64.0567 68.4035 0.0000 0.0000 0.0000
# 4 0.0000 0.0000 0.0000 38.2298 0.0000 0.0000
# 5 0.0000 0.0000 0.0000 0.0000 14.0541 0.0000
# 6 0.0000 0.0000 0.0000 0.0000 0.0000 25.5109
#
#
#
# Elastic Compliance Matrix: (Units=1/GPa)
#
#
# Indices 1 2 3 4 5 6 
#
# 1 0.050892 -0.004835 -0.009770 0.000000 0.000000 0.000000
# 2 -0.004835 0.013808 -0.011573 0.000000 0.000000 0.000000
# 3 -0.009770 -0.011573 0.028201 0.000000 0.000000 0.000000
# 4 0.000000 0.000000 0.000000 0.026158 0.000000 0.000000
# 5 0.000000 0.000000 0.000000 0.000000 0.071153 0.000000
# 6 0.000000 0.000000 0.000000 0.000000 0.000000 0.039199
#
#
# Mechanical properties :
#
#
# Convention : Reuss Voigt Hill
#
# Bulk Modulus (GPa) = 24.66250 49.53284 37.09767
# Shear Modulus (GPa) = 16.93300 23.60164 20.26732
#
# Velocity S-wave (km/s) = 2.97950 3.51761 3.25968
# Velocity P-wave (km/s) = 4.97657 6.51663 5.79797
#
# Compressibility (1/GPa) = 0.04054739
#
# Stress axis : x y z
#
# Youngs Moduli (GPa) = 19.64942 72.42014 35.45961
#
# Poissons Ratio (x) = 0.35012 0.34644
# Poissons Ratio (y) = 0.09500 0.41036
# Poissons Ratio (z) = 0.19197 0.83810
#
# Static dielectric constant tensor:
#      x y z
#    x 1.654950 0.000000 0.000000 
#    y 0.000000 1.665130 0.000000 
#    z 0.000000 0.000000 1.631220 
# 
# From -- ./inp_files/29375.got.cif
#   From: 2010.05.17/outbox.cif.g08.bks.cpg/sg59_15_cif.got.tgz:29375.got - 2010.06.03 14:40:33.
