data_PCOD9447244
_publ_section_title
;
Structure prediction by ZEFSAII (Michael W. Deem and Ramdas Pophale) SiO2 
 PCOD9447244
Probable space group: P M M N
;
_chemical_formula_sum "Si O2"
_cell_formula_units_Z 48
_cell_length_a 8.793557
_cell_length_b 10.223107
_cell_length_c 29.963552
_cell_angle_alpha 90.000000
_cell_angle_beta 90.000000
_cell_angle_gamma 90.000000
_cell_volume 2693.647641
_symmetry_space_group_name_H-M "P M M N"
_symmetry_group_IT_number 59
_space_group.IT_coordinate_system_code '2'
_symmetry_cell_setting 'orthorhombic'
loop_
_space_group_symop_operation_xyz
x,y,z
1/2-x,1/2-y,z
1/2+x,-y,-z
-x,1/2+y,-z
-x,-y,-z
1/2+x,1/2+y,-z
1/2-x,y,z
x,1/2-y,z
loop_
_atom_site_type_symbol
_atom_site_label
_atom_site_fract_x
_atom_site_fract_y
_atom_site_fract_z
Si Si1 0.067882 0.903193 0.963225
Si Si2 0.565949 0.250000 0.534354
Si Si3 0.433982 0.899350 0.297259
Si Si4 0.567983 0.097191 0.225410
Si Si5 0.434064 0.250000 0.435357
Si Si6 0.924126 0.908481 0.868766
Si Si7 0.065126 0.974230 0.397214
O O1 0.250000 0.908488 0.964310
O O2 0.022745 0.750000 0.970427
O O3 0.009281 0.944754 0.914234
O O4 0.000000 0.000000 0.000000
O O5 0.750000 0.250000 0.530672
O O6 0.495496 0.250000 0.485548
O O7 0.518678 0.124755 0.563706
O O8 0.250000 0.908155 0.295831
O O9 0.476211 0.750000 0.285835
O O10 0.483252 0.929004 0.348154
O O11 0.502270 0.004461 0.263578
O O12 0.750000 0.091963 0.225097
O O13 0.522818 0.250000 0.232334
O O14 0.505468 0.053099 0.177110
O O15 0.250000 0.250000 0.436985
O O16 0.483949 0.380182 0.409635
O O17 0.750000 0.954421 0.869508
O O18 0.923044 0.750000 0.868382
O O19 0.250000 0.971384 0.396623
#
# Coordination Sequence:
#
# PCOD9447244 Si02
#       7
#     8   4   8   8   4   8   8
#     4  10  20  34  54  81 114 151 189 231 278 326
#     4  10  18  34  54  72 100 136 168 204 255 312
#     4  10  20  36  57  79 103 137 180 221 264 319
#     4  10  21  36  55  81 111 140 173 219 272 325
#     4  10  20  32  50  78 104 128 168 214 253 302
#     4   9  17  32  55  81 108 142 184 227 272 324
#     4   9  18  33  53  75 100 132 170 211 256 308
#
# _framework density 17.819701999999999
#
# number of rings (size 3 to 8) (size 9 to 14) (size 15 to 20)
#    0.000    2.333    0.833    2.000    1.167    4.333 
#    0.000    2.500    0.000    5.000    0.000    0.000 
#    0.000    0.000    0.000    0.000    0.000    0.000 
#
# Total GULP energy -267791.887563 kJ/mol
# GULP energy per Si atom -5578.997658 kJ/mol
# Density = 1.777914 g / cm^3
# Si number density = 17.819702 Si / 1000 Ang^3
#
#
#
# Elastic Constant Matrix: (Units=GPa)
#
#
# Indices 1 2 3 4 5 6 
#
# 1 39.7509 32.7657 35.6414 0.0000 0.0000 0.0000
# 2 32.7657 110.2147 61.5381 0.0000 0.0000 0.0000
# 3 35.6414 61.5381 128.3175 0.0000 0.0000 0.0000
# 4 0.0000 0.0000 0.0000 39.7562 0.0000 0.0000
# 5 0.0000 0.0000 0.0000 0.0000 35.6885 0.0000
# 6 0.0000 0.0000 0.0000 0.0000 0.0000 17.3661
#
#
#
# Elastic Compliance Matrix: (Units=1/GPa)
#
#
# Indices 1 2 3 4 5 6 
#
# 1 0.037303 -0.007244 -0.006887 0.000000 0.000000 0.000000
# 2 -0.007244 0.013798 -0.004605 0.000000 0.000000 0.000000
# 3 -0.006887 -0.004605 0.011915 0.000000 0.000000 0.000000
# 4 0.000000 0.000000 0.000000 0.025153 0.000000 0.000000
# 5 0.000000 0.000000 0.000000 0.000000 0.028020 0.000000
# 6 0.000000 0.000000 0.000000 0.000000 0.000000 0.057583
#
#
# Mechanical properties :
#
#
# Convention : Reuss Voigt Hill
#
# Bulk Modulus (GPa) = 39.15005 59.79705 49.47355
# Shear Modulus (GPa) = 22.75210 28.45137 25.60174
#
# Velocity S-wave (km/s) = 3.57710 4.00011 3.79451
# Velocity P-wave (km/s) = 6.25129 7.41378 6.85721
#
# Compressibility (1/GPa) = 0.02554275
#
# Stress axis : x y z
#
# Youngs Moduli (GPa) = 26.80742 72.47373 83.93081
#
# Poissons Ratio (x) = 0.52503 0.57803
# Poissons Ratio (y) = 0.19421 0.38650
# Poissons Ratio (z) = 0.18462 0.33374
#
# Static dielectric constant tensor:
#      x y z
#    x 1.604440 0.000000 0.000000 
#    y 0.000000 1.606400 0.000000 
#    z 0.000000 0.000000 1.577510 
# 
# From -- ./inp_files/33008.got.cif
#   From: 2010.05.17/outbox.cif.g08.bks.cpg/sg59_17_cif.got.tgz:33008.got - 2010.06.03 14:40:33.
