data_PCOD9447192
_publ_section_title
;
Structure prediction by ZEFSAII (Michael W. Deem and Ramdas Pophale) SiO2 
 PCOD9447192
Probable space group: P M M N
;
_chemical_formula_sum "Si O2"
_cell_formula_units_Z 56
_cell_length_a 21.718267
_cell_length_b 9.193880
_cell_length_c 17.063456
_cell_angle_alpha 90.000000
_cell_angle_beta 90.000000
_cell_angle_gamma 90.000000
_cell_volume 3407.147976
_symmetry_space_group_name_H-M "P M M N"
_symmetry_group_IT_number 59
_space_group.IT_coordinate_system_code '2'
_symmetry_cell_setting 'orthorhombic'
loop_
_space_group_symop_operation_xyz
x,y,z
1/2-x,1/2-y,z
1/2+x,-y,-z
-x,1/2+y,-z
-x,-y,-z
1/2+x,1/2+y,-z
1/2-x,y,z
x,1/2-y,z
loop_
_atom_site_type_symbol
_atom_site_label
_atom_site_fract_x
_atom_site_fract_y
_atom_site_fract_z
Si Si1 0.405068 0.578139 0.477938
Si Si2 0.016167 0.077789 0.798024
Si Si3 0.968498 0.577310 0.383411
Si Si4 0.323372 0.417182 0.360835
Si Si5 0.555772 0.074567 0.048292
Si Si6 0.630232 0.422169 0.793388
Si Si7 0.681287 0.426622 0.960955
O O1 0.396370 0.750000 0.483705
O O2 0.422303 0.510670 0.561576
O O3 0.463666 0.551521 0.420162
O O4 0.348390 0.501417 0.436180
O O5 0.029292 0.250000 0.809870
O O6 0.942554 0.059744 0.807830
O O7 0.032137 0.039646 0.708234
O O8 0.049330 0.981375 0.862994
O O9 0.956755 0.750000 0.390547
O O10 0.250000 0.422127 0.357557
O O11 0.343941 0.250000 0.364588
O O12 0.349633 0.491606 0.282917
O O13 0.550172 0.250000 0.042769
O O14 0.622230 0.030386 0.012642
O O15 0.500000 0.000000 0.000000
O O16 0.641100 0.250000 0.780070
O O17 0.666796 0.468238 0.871105
O O18 0.750000 0.476521 0.984221
O O19 0.681895 0.250000 0.962515
#
# Coordination Sequence:
#
# PCOD9447192 Si02
#       7
#     8   8   8   8   8   8   8
#     4  10  19  33  53  76 100 132 176 212 248 306
#     4  10  19  34  54  79 109 137 172 214 262 318
#     4   9  18  33  52  75 104 133 162 211 266 307
#     4  11  23  35  48  73 110 145 175 211 259 313
#     4  11  21  34  53  78 107 139 179 224 271 319
#     4  10  18  33  54  76 103 138 179 215 256 317
#     4   9  18  33  53  75 102 139 180 220 261 310
#
# _framework density 16.436035
#
# number of rings (size 3 to 8) (size 9 to 14) (size 15 to 20)
#    0.000    2.000    2.857    1.714    0.000    3.429 
#    0.000    0.000    0.000    3.429    0.000    4.000 
#    0.000    0.000    0.000    0.000    0.000    0.000 
#
# Total GULP energy -312434.551230 kJ/mol
# GULP energy per Si atom -5579.188415 kJ/mol
# Density = 1.639863 g / cm^3
# Si number density = 16.436035 Si / 1000 Ang^3
#
#
#
# Elastic Constant Matrix: (Units=GPa)
#
#
# Indices 1 2 3 4 5 6 
#
# 1 81.9197 36.3123 48.2014 0.0000 0.0000 0.0000
# 2 36.3123 41.0853 43.0565 0.0000 0.0000 0.0000
# 3 48.2014 43.0565 105.8999 0.0000 0.0000 0.0000
# 4 0.0000 0.0000 0.0000 32.9362 0.0000 0.0000
# 5 0.0000 0.0000 0.0000 0.0000 21.5309 0.0000
# 6 0.0000 0.0000 0.0000 0.0000 0.0000 18.4141
#
#
#
# Elastic Compliance Matrix: (Units=1/GPa)
#
#
# Indices 1 2 3 4 5 6 
#
# 1 0.020776 -0.014728 -0.003469 0.000000 0.000000 0.000000
# 2 -0.014728 0.052849 -0.014784 0.000000 0.000000 0.000000
# 3 -0.003469 -0.014784 0.017032 0.000000 0.000000 0.000000
# 4 0.000000 0.000000 0.000000 0.030362 0.000000 0.000000
# 5 0.000000 0.000000 0.000000 0.000000 0.046445 0.000000
# 6 0.000000 0.000000 0.000000 0.000000 0.000000 0.054306
#
#
# Mechanical properties :
#
#
# Convention : Reuss Voigt Hill
#
# Bulk Modulus (GPa) = 40.48934 53.78281 47.13608
# Shear Modulus (GPa) = 16.89396 21.33189 19.11293
#
# Velocity S-wave (km/s) = 3.20951 3.60651 3.41378
# Velocity P-wave (km/s) = 6.19859 7.08068 6.65427
#
# Compressibility (1/GPa) = 0.02469786
#
# Stress axis : x y z
#
# Youngs Moduli (GPa) = 48.13187 18.92171 58.71132
#
# Poissons Ratio (x) = 0.27867 0.20365
# Poissons Ratio (y) = 0.70886 0.86799
# Poissons Ratio (z) = 0.16695 0.27974
#
# Static dielectric constant tensor:
#      x y z
#    x 1.550280 0.000000 0.000000 
#    y 0.000000 1.537760 0.000000 
#    z 0.000000 0.000000 1.541450 
# 
# From -- ./inp_files/24254.got.cif
#   From: 2010.05.17/outbox.cif.g08.bks.cpg/sg59_13_cif.got.tgz:24254.got - 2010.06.03 14:40:33.
