data_PCOD9447451
_publ_section_title
;
Structure prediction by ZEFSAII (Michael W. Deem and Ramdas Pophale) SiO2 
 PCOD9447451
Probable space group: P M M N
;
_chemical_formula_sum "Si O2"
_cell_formula_units_Z 48
_cell_length_a 9.173031
_cell_length_b 14.071459
_cell_length_c 24.136635
_cell_angle_alpha 90.000000
_cell_angle_beta 90.000000
_cell_angle_gamma 90.000000
_cell_volume 3115.506874
_symmetry_space_group_name_H-M "P M M N"
_symmetry_group_IT_number 59
_space_group.IT_coordinate_system_code '2'
_symmetry_cell_setting 'orthorhombic'
loop_
_space_group_symop_operation_xyz
x,y,z
1/2-x,1/2-y,z
1/2+x,-y,-z
-x,1/2+y,-z
-x,-y,-z
1/2+x,1/2+y,-z
1/2-x,y,z
x,1/2-y,z
loop_
_atom_site_type_symbol
_atom_site_label
_atom_site_fract_x
_atom_site_fract_y
_atom_site_fract_z
Si Si1 0.076180 0.043883 0.084996
Si Si2 0.576322 0.970313 0.586599
Si Si3 0.075409 0.638767 0.813344
Si Si4 0.924000 0.358423 0.981816
Si Si5 0.575531 0.860239 0.473130
Si Si6 0.575293 0.361161 0.315088
O O1 0.250000 0.055177 0.086779
O O2 0.006179 0.073456 0.142904
O O3 0.042610 0.936224 0.065292
O O4 0.008712 0.110232 0.036944
O O5 0.750000 0.978091 0.591767
O O6 0.544119 0.899447 0.534942
O O7 0.506715 0.927147 0.641657
O O8 0.507014 0.070707 0.569055
O O9 0.250000 0.629109 0.819804
O O10 0.039829 0.750000 0.823834
O O11 0.039670 0.618138 0.749172
O O12 0.750000 0.364507 0.992950
O O13 0.958323 0.250000 0.966709
O O14 0.750000 0.868650 0.464827
O O15 0.534720 0.750000 0.468236
O O16 0.750000 0.371208 0.321450
O O17 0.539588 0.250000 0.325281
#
# Coordination Sequence:
#
# PCOD9447451 Si02
#       6
#     8   8   8   8   8   8
#     4  10  19  29  45  70  93 114 148 191 227 261
#     4  10  19  30  47  72  98 121 150 191 235 274
#     4   9  18  32  48  66  91 123 153 181 221 273
#     4   9  18  32  47  63  89 124 152 176 218 274
#     4   9  18  32  48  67  94 127 158 187 224 273
#     4   9  18  32  49  68  91 122 157 188 223 274
#
# _framework density 15.406802000000001
#
# number of rings (size 3 to 8) (size 9 to 14) (size 15 to 20)
#    0.000    2.667    0.000    3.000    0.000    6.000 
#    0.000    1.667    0.000    1.000    0.000    4.667 
#    0.000    0.000    0.000    0.000    0.000    0.000 
#
# Total GULP energy -267643.273685 kJ/mol
# GULP energy per Si atom -5575.901535 kJ/mol
# Density = 1.537174 g / cm^3
# Si number density = 15.406802 Si / 1000 Ang^3
#
#
#
# Elastic Constant Matrix: (Units=GPa)
#
#
# Indices 1 2 3 4 5 6 
#
# 1 40.2527 58.0481 56.4487 0.0000 0.0000 0.0000
# 2 58.0481 137.7460 84.6245 0.0000 0.0000 0.0000
# 3 56.4487 84.6245 113.3638 0.0000 0.0000 0.0000
# 4 0.0000 0.0000 0.0000 21.7441 0.0000 0.0000
# 5 0.0000 0.0000 0.0000 0.0000 30.1387 0.0000
# 6 0.0000 0.0000 0.0000 0.0000 0.0000 24.1428
#
#
#
# Elastic Compliance Matrix: (Units=1/GPa)
#
#
# Indices 1 2 3 4 5 6 
#
# 1 0.114282 -0.024381 -0.038706 0.000000 0.000000 0.000000
# 2 -0.024381 0.018611 -0.001752 0.000000 0.000000 0.000000
# 3 -0.038706 -0.001752 0.029403 0.000000 0.000000 0.000000
# 4 0.000000 0.000000 0.000000 0.045990 0.000000 0.000000
# 5 0.000000 0.000000 0.000000 0.000000 0.033180 0.000000
# 6 0.000000 0.000000 0.000000 0.000000 0.000000 0.041420
#
#
# Mechanical properties :
#
#
# Convention : Reuss Voigt Hill
#
# Bulk Modulus (GPa) = 30.65892 76.62279 53.64086
# Shear Modulus (GPa) = 11.80819 21.35453 16.58136
#
# Velocity S-wave (km/s) = 2.77145 3.72700 3.28416
# Velocity P-wave (km/s) = 5.49400 8.26812 7.01947
#
# Compressibility (1/GPa) = 0.03261693
#
# Stress axis : x y z
#
# Youngs Moduli (GPa) = 8.75031 53.73232 34.01070
#
# Poissons Ratio (x) = 1.31004 1.31641
# Poissons Ratio (y) = 0.21334 0.05960
# Poissons Ratio (z) = 0.33869 0.09416
#
# Static dielectric constant tensor:
#      x y z
#    x 1.507900 0.000000 0.000000 
#    y 0.000000 1.503350 0.000000 
#    z 0.000000 0.000000 1.488990 
# 
# From -- ./inp_files/28834.got.cif
#   From: 2010.05.17/outbox.cif.g08.bks.cpg/sg59_15_cif.got.tgz:28834.got - 2010.06.03 14:40:33.
