data_PCOD9447085
_publ_section_title
;
Structure prediction by ZEFSAII (Michael W. Deem and Ramdas Pophale) SiO2 
 PCOD9447085
Probable space group: P M M N
;
_chemical_formula_sum "Si O2"
_cell_formula_units_Z 64
_cell_length_a 13.949339
_cell_length_b 23.232559
_cell_length_c 10.588326
_cell_angle_alpha 90.000000
_cell_angle_beta 90.000000
_cell_angle_gamma 90.000000
_cell_volume 3431.452422
_symmetry_space_group_name_H-M "P M M N"
_symmetry_group_IT_number 59
_space_group.IT_coordinate_system_code '2'
_symmetry_cell_setting 'orthorhombic'
loop_
_space_group_symop_operation_xyz
x,y,z
1/2-x,1/2-y,z
1/2+x,-y,-z
-x,1/2+y,-z
-x,-y,-z
1/2+x,1/2+y,-z
1/2-x,y,z
x,1/2-y,z
loop_
_atom_site_type_symbol
_atom_site_label
_atom_site_fract_x
_atom_site_fract_y
_atom_site_fract_z
Si Si1 0.952640 0.184112 0.718634
Si Si2 0.133007 0.993501 0.632324
Si Si3 0.366727 0.000511 0.128194
Si Si4 0.365761 0.931608 0.376371
Si Si5 0.860343 0.617084 0.274916
Si Si6 0.549745 0.185089 0.017919
Si Si7 0.865326 0.428840 0.115601
Si Si8 0.360282 0.121172 0.021437
O O1 0.932979 0.250000 0.681779
O O2 0.899038 0.133879 0.643404
O O3 0.065179 0.168472 0.706575
O O4 0.928001 0.177970 0.868128
O O5 0.250000 0.992989 0.633122
O O6 0.101575 0.961972 0.505101
O O7 0.101025 0.958649 0.756009
O O8 0.108462 0.060733 0.647410
O O9 0.250000 0.999343 0.127175
O O10 0.398102 0.969455 0.255914
O O11 0.390915 0.067220 0.107302
O O12 0.399573 0.963910 0.007399
O O13 0.250000 0.931917 0.376484
O O14 0.750000 0.631566 0.304524
O O15 0.863134 0.601148 0.125525
O O16 0.573080 0.250000 0.054144
O O17 0.603626 0.136627 0.096576
O O18 0.436669 0.171814 0.032907
O O19 0.750000 0.431771 0.115685
O O20 0.250000 0.136919 0.048497
#
# Coordination Sequence:
#
# PCOD9447085 Si02
#       8
#     8   8   8   8   8   8   8   8
#     4  10  21  34  49  73 103 138 179 210 243 302
#     4   9  18  33  54  79 105 133 166 208 262 313
#     4   9  16  29  51  78 102 127 163 203 254 308
#     4  10  20  34  52  78 109 136 166 210 257 304
#     4   9  17  32  53  76 103 132 166 213 261 303
#     4  10  21  33  48  74 102 136 180 212 246 300
#     4  10  18  32  53  76 103 133 166 207 253 302
#     4   9  17  31  52  76 103 133 166 211 261 307
#
# _framework density 18.650994000000001
#
# number of rings (size 3 to 8) (size 9 to 14) (size 15 to 20)
#    0.000    2.500    2.500    0.000    0.000    3.000 
#    0.000    4.375    0.000    2.250    0.000    0.000 
#    0.000    7.000    0.000    0.000    0.000    0.000 
#
# Total GULP energy -357227.487935 kJ/mol
# GULP energy per Si atom -5581.679499 kJ/mol
# Density = 1.860854 g / cm^3
# Si number density = 18.650994 Si / 1000 Ang^3
#
#
#
# Elastic Constant Matrix: (Units=GPa)
#
#
# Indices 1 2 3 4 5 6 
#
# 1 41.8961 -4.3622 9.0908 0.0000 0.0000 0.0000
# 2 -4.3622 75.1662 26.1177 0.0000 0.0000 0.0000
# 3 9.0908 26.1177 82.9017 0.0000 0.0000 0.0000
# 4 0.0000 0.0000 0.0000 19.4323 0.0000 0.0000
# 5 0.0000 0.0000 0.0000 0.0000 10.1258 0.0000
# 6 0.0000 0.0000 0.0000 0.0000 0.0000 20.5506
#
#
#
# Elastic Compliance Matrix: (Units=1/GPa)
#
#
# Indices 1 2 3 4 5 6 
#
# 1 0.024926 0.002691 -0.003581 0.000000 0.000000 0.000000
# 2 0.002691 0.015230 -0.005093 0.000000 0.000000 0.000000
# 3 -0.003581 -0.005093 0.014060 0.000000 0.000000 0.000000
# 4 0.000000 0.000000 0.000000 0.051461 0.000000 0.000000
# 5 0.000000 0.000000 0.000000 0.000000 0.098758 0.000000
# 6 0.000000 0.000000 0.000000 0.000000 0.000000 0.048660
#
#
# Mechanical properties :
#
#
# Convention : Reuss Voigt Hill
#
# Bulk Modulus (GPa) = 23.66945 29.07298 26.37121
# Shear Modulus (GPa) = 17.91192 21.29624 19.60408
#
# Velocity S-wave (km/s) = 3.10235 3.38276 3.24559
# Velocity P-wave (km/s) = 5.05480 5.55690 5.31179
#
# Compressibility (1/GPa) = 0.04224856
#
# Stress axis : x y z
#
# Youngs Moduli (GPa) = 40.11912 65.66122 71.12513
#
# Poissons Ratio (x) = -0.17668 0.25470
# Poissons Ratio (y) = -0.10795 0.36225
# Poissons Ratio (z) = 0.14367 0.33442
#
# Static dielectric constant tensor:
#      x y z
#    x 1.701200 0.000000 0.000000 
#    y 0.000000 1.609550 0.000000 
#    z 0.000000 0.000000 1.626930 
# 
# From -- ./inp_files/9589.got.cif
#   From: 2010.05.17/outbox.cif.g08.bks.cpg/sg59_5_cif.got.tgz:9589.got - 2010.06.03 14:40:33.
