data_PCOD9447887
_publ_section_title
;
Structure prediction by ZEFSAII (Michael W. Deem and Ramdas Pophale) SiO2 
 PCOD9447887
Probable space group: P M M N
;
_chemical_formula_sum "Si O2"
_cell_formula_units_Z 64
_cell_length_a 9.580857
_cell_length_b 33.767386
_cell_length_c 10.661353
_cell_angle_alpha 90.000000
_cell_angle_beta 90.000000
_cell_angle_gamma 90.000000
_cell_volume 3449.166216
_symmetry_space_group_name_H-M "P M M N"
_symmetry_group_IT_number 59
_space_group.IT_coordinate_system_code '2'
_symmetry_cell_setting 'orthorhombic'
loop_
_space_group_symop_operation_xyz
x,y,z
1/2-x,1/2-y,z
1/2+x,-y,-z
-x,1/2+y,-z
-x,-y,-z
1/2+x,1/2+y,-z
1/2-x,y,z
x,1/2-y,z
loop_
_atom_site_type_symbol
_atom_site_label
_atom_site_fract_x
_atom_site_fract_y
_atom_site_fract_z
Si Si1 0.588484 0.065514 0.938929
Si Si2 0.585433 0.633850 0.686895
Si Si3 0.587918 0.585528 0.445131
Si Si4 0.411869 0.367207 0.816909
Si Si5 0.912732 0.203557 0.895382
Si Si6 0.084041 0.704344 0.806167
Si Si7 0.410134 0.980948 0.326173
Si Si8 0.913522 0.946661 0.827590
O O1 0.750000 0.073880 0.967820
O O2 0.512282 0.045048 0.055311
O O3 0.501925 0.105063 0.908629
O O4 0.584155 0.039909 0.811572
O O5 0.750000 0.643358 0.673182
O O6 0.535898 0.612875 0.558579
O O7 0.500655 0.672135 0.728396
O O8 0.572820 0.599050 0.789661
O O9 0.750000 0.575961 0.471861
O O10 0.581870 0.611892 0.318736
O O11 0.505756 0.545222 0.415846
O O12 0.250000 0.365498 0.855550
O O13 0.484060 0.324604 0.820027
O O14 0.750000 0.193177 0.872340
O O15 0.930471 0.250000 0.866762
O O16 0.939443 0.198547 0.044519
O O17 0.250000 0.699905 0.785300
O O18 0.046418 0.750000 0.776612
O O19 0.250000 0.979812 0.369874
O O20 0.449700 0.025827 0.291682
O O21 0.750000 0.954728 0.857222
#
# Coordination Sequence:
#
# PCOD9447887 Si02
#       8
#     8   8   8   8   8   8   8   8
#     4  10  19  31  49  73 101 132 166 204 252 308
#     4  10  21  36  53  74 101 134 171 210 250 292
#     4   9  20  37  52  69  98 135 173 211 249 290
#     4  10  19  32  51  72  97 131 168 206 248 295
#     4   9  18  33  53  78 107 132 156 196 250 305
#     4   9  19  36  56  78 104 131 159 197 246 297
#     4   9  19  34  51  73 101 133 168 209 255 299
#     4  10  20  33  50  75 105 132 165 211 255 298
#
# _framework density 18.555209000000001
#
# number of rings (size 3 to 8) (size 9 to 14) (size 15 to 20)
#    0.000    2.500    0.000    2.625    0.000    6.000 
#    0.000    1.875    0.000    3.750    0.000    0.000 
#    0.000    0.000    0.000    0.000    0.000    0.000 
#
# Total GULP energy -357216.225876 kJ/mol
# GULP energy per Si atom -5581.503529 kJ/mol
# Density = 1.851298 g / cm^3
# Si number density = 18.555209 Si / 1000 Ang^3
#
#
#
# Elastic Constant Matrix: (Units=GPa)
#
#
# Indices 1 2 3 4 5 6 
#
# 1 69.1563 42.1809 27.0245 0.0000 0.0000 0.0000
# 2 42.1809 86.1539 8.4757 0.0000 0.0000 0.0000
# 3 27.0245 8.4757 41.2680 0.0000 0.0000 0.0000
# 4 0.0000 0.0000 0.0000 28.0399 0.0000 0.0000
# 5 0.0000 0.0000 0.0000 0.0000 20.1791 0.0000
# 6 0.0000 0.0000 0.0000 0.0000 0.0000 34.1735
#
#
#
# Elastic Compliance Matrix: (Units=1/GPa)
#
#
# Indices 1 2 3 4 5 6 
#
# 1 0.028119 -0.012202 -0.015908 0.000000 0.000000 0.000000
# 2 -0.012202 0.017141 0.004470 0.000000 0.000000 0.000000
# 3 -0.015908 0.004470 0.033731 0.000000 0.000000 0.000000
# 4 0.000000 0.000000 0.000000 0.035664 0.000000 0.000000
# 5 0.000000 0.000000 0.000000 0.000000 0.049556 0.000000
# 6 0.000000 0.000000 0.000000 0.000000 0.000000 0.029262
#
#
# Mechanical properties :
#
#
# Convention : Reuss Voigt Hill
#
# Bulk Modulus (GPa) = 31.53385 39.10450 35.31918
# Shear Modulus (GPa) = 19.89470 24.40495 22.14983
#
# Velocity S-wave (km/s) = 3.27798 3.63059 3.45878
# Velocity P-wave (km/s) = 5.59986 6.22056 5.91835
#
# Compressibility (1/GPa) = 0.03171195
#
# Stress axis : x y z
#
# Youngs Moduli (GPa) = 35.56356 58.33812 29.64635
#
# Poissons Ratio (x) = 0.71184 0.47160
# Poissons Ratio (y) = 0.43394 -0.13252
# Poissons Ratio (z) = 0.56573 -0.26077
#
# Static dielectric constant tensor:
#      x y z
#    x 1.618480 0.000000 0.000000 
#    y 0.000000 1.651100 0.000000 
#    z 0.000000 0.000000 1.648440 
# 
# From -- ./inp_files/15061.got.cif
#   From: 2010.05.17/outbox.cif.g08.bks.cpg/sg59_8_cif.got.tgz:15061.got - 2010.06.03 14:40:33.
