data_PCOD9447763
_publ_section_title
;
Structure prediction by ZEFSAII (Michael W. Deem and Ramdas Pophale) SiO2 
 PCOD9447763
Probable space group: P M M N
;
_chemical_formula_sum "Si O2"
_cell_formula_units_Z 58
_cell_length_a 33.340505
_cell_length_b 7.547437
_cell_length_c 10.980026
_cell_angle_alpha 90.000000
_cell_angle_beta 90.000000
_cell_angle_gamma 90.000000
_cell_volume 2762.962807
_symmetry_space_group_name_H-M "P M M N"
_symmetry_group_IT_number 59
_space_group.IT_coordinate_system_code '2'
_symmetry_cell_setting 'orthorhombic'
loop_
_space_group_symop_operation_xyz
x,y,z
1/2-x,1/2-y,z
1/2+x,-y,-z
-x,1/2+y,-z
-x,-y,-z
1/2+x,1/2+y,-z
1/2-x,y,z
x,1/2-y,z
loop_
_atom_site_type_symbol
_atom_site_label
_atom_site_fract_x
_atom_site_fract_y
_atom_site_fract_z
Si Si1 0.047343 0.464888 0.262639
Si Si2 0.126261 0.966541 0.619486
Si Si3 0.372092 0.041422 0.151942
Si Si4 0.750000 0.750000 0.630747
Si Si5 0.473217 0.538063 0.881424
Si Si6 0.454676 0.554130 0.525545
Si Si7 0.381577 0.536742 0.884672
Si Si8 0.679506 0.044966 0.614954
O O1 0.046598 0.250000 0.274247
O O2 0.081178 0.514694 0.164985
O O3 0.061945 0.547300 0.388172
O O4 0.002695 0.525404 0.226663
O O5 0.124655 0.750000 0.616158
O O6 0.080588 0.035237 0.601170
O O7 0.138375 0.018932 0.756578
O O8 0.153407 0.013633 0.503911
O O9 0.370644 0.250000 0.175960
O O10 0.346438 0.957359 0.260021
O O11 0.360619 0.012211 0.011544
O O12 0.784911 0.593823 0.629923
O O13 0.470432 0.750000 0.870696
O O14 0.427924 0.469334 0.885914
O O15 0.500000 0.500000 0.000000
O O16 0.500000 0.500000 0.500000
O O17 0.458098 0.750000 0.577176
O O18 0.383218 0.750000 0.883214
O O19 0.692096 0.250000 0.594139
#
# Coordination Sequence:
#
# PCOD9447763 Si02
#       8
#     8   8   8   2   8   8   8   8
#     4  10  20  33  51  74 114 163 216 279 327 366
#     4   9  20  39  62  88 125 172 223 268 321 400
#     4  11  21  37  60  93 128 165 214 272 324 393
#     4  12  26  48  76 116 140 156 214 278 336 418
#     4  10  19  31  47  71 114 169 226 279 322 364
#     4  11  21  34  52  78 116 164 219 272 320 374
#     4  10  20  35  57  84 122 174 229 277 323 387
#     4  11  23  45  76 104 136 172 208 265 340 408
#
# _framework density 20.991956999999999
#
# number of rings (size 3 to 8) (size 9 to 14) (size 15 to 20)
#    0.000    1.655    3.448    1.862    0.000    3.310 
#    2.483    1.379    0.000    1.655    0.000    2.897 
#    0.000    0.000    0.000    0.000    0.000    0.000 
#
# Total GULP energy -323015.637776 kJ/mol
# GULP energy per Si atom -5569.235134 kJ/mol
# Density = 2.094418 g / cm^3
# Si number density = 20.991957 Si / 1000 Ang^3
#
#
#
# Elastic Constant Matrix: (Units=GPa)
#
#
# Indices 1 2 3 4 5 6 
#
# 1 98.4858 31.5074 37.2553 0.0000 0.0000 0.0000
# 2 31.5074 79.4976 3.2491 0.0000 0.0000 0.0000
# 3 37.2553 3.2491 152.0109 0.0000 0.0000 0.0000
# 4 0.0000 0.0000 0.0000 9.0143 0.0000 0.0000
# 5 0.0000 0.0000 0.0000 0.0000 -2.8056 0.0000
# 6 0.0000 0.0000 0.0000 0.0000 0.0000 27.2948
#
#
#
# Elastic Compliance Matrix: (Units=1/GPa)
#
#
# Indices 1 2 3 4 5 6 
#
# 1 0.012906 -0.004990 -0.003056 0.000000 0.000000 0.000000
# 2 -0.004990 0.014520 0.000913 0.000000 0.000000 0.000000
# 3 -0.003056 0.000913 0.007308 0.000000 0.000000 0.000000
# 4 0.000000 0.000000 0.000000 0.110935 0.000000 0.000000
# 5 0.000000 0.000000 0.000000 0.000000 -0.356426 0.000000
# 6 0.000000 0.000000 0.000000 0.000000 0.000000 0.036637
#
#
# Mechanical properties :
#
#
# Convention : Reuss Voigt Hill
#
# Bulk Modulus (GPa) = 48.86198 52.66867 50.76532
# Shear Modulus (GPa) = -32.67336 23.89953 -4.38691
#
# Velocity S-wave (km/s) = -3.94949 3.37784 -1.44718
# Velocity P-wave (km/s) = 1.59030 6.35275 4.63069
#
# Compressibility (1/GPa) = 0.02046581
#
# Stress axis : x y z
#
# Youngs Moduli (GPa) = 77.48058 68.87284 136.83519
#
# Poissons Ratio (x) = 0.34370 0.41824
# Poissons Ratio (y) = 0.38665 -0.12489
# Poissons Ratio (z) = 0.23682 -0.06286
#
# Static dielectric constant tensor:
#      x y z
#    x 1.733340 0.000000 0.000000 
#    y 0.000000 1.822100 0.000000 
#    z 0.000000 0.000000 1.847690 
# 
# From -- ./inp_files/19165.got.cif
#   From: 2010.05.17/outbox.cif.g08.bks.cpg/sg59_10_cif.got.tgz:19165.got - 2010.06.03 14:40:33.
