data_PCOD9447734
_publ_section_title
;
Structure prediction by ZEFSAII (Michael W. Deem and Ramdas Pophale) SiO2 
 PCOD9447734
Probable space group: P M M N
;
_chemical_formula_sum "Si O2"
_cell_formula_units_Z 48
_cell_length_a 19.535296
_cell_length_b 9.215031
_cell_length_c 16.640120
_cell_angle_alpha 90.000000
_cell_angle_beta 90.000000
_cell_angle_gamma 90.000000
_cell_volume 2995.527083
_symmetry_space_group_name_H-M "P M M N"
_symmetry_group_IT_number 59
_space_group.IT_coordinate_system_code '2'
_symmetry_cell_setting 'orthorhombic'
loop_
_space_group_symop_operation_xyz
x,y,z
1/2-x,1/2-y,z
1/2+x,-y,-z
-x,1/2+y,-z
-x,-y,-z
1/2+x,1/2+y,-z
1/2-x,y,z
x,1/2-y,z
loop_
_atom_site_type_symbol
_atom_site_label
_atom_site_fract_x
_atom_site_fract_y
_atom_site_fract_z
Si Si1 0.981611 0.583369 0.260474
Si Si2 0.526691 0.924777 0.580353
Si Si3 0.360941 0.915093 0.199375
Si Si4 0.823856 0.577445 0.641352
Si Si5 0.058971 0.917828 0.892670
Si Si6 0.100190 0.417355 0.047343
O O1 0.959902 0.750000 0.274543
O O2 0.938523 0.503021 0.191444
O O3 0.987962 0.491982 0.342325
O O4 0.058778 0.589251 0.224614
O O5 0.519103 0.750000 0.577998
O O6 0.607532 0.960004 0.592817
O O7 0.500000 0.000000 0.500000
O O8 0.337186 0.750000 0.190893
O O9 0.326748 0.996607 0.273587
O O10 0.357163 0.001940 0.116317
O O11 0.750000 0.545958 0.602359
O O12 0.827702 0.750000 0.656321
O O13 0.078986 0.750000 0.884064
O O14 0.979181 0.918346 0.921843
O O15 0.099930 0.998235 0.963223
O O16 0.120342 0.250000 0.038274
#
# Coordination Sequence:
#
# PCOD9447734 Si02
#       6
#     8   8   8   8   8   8
#     4   9  16  26  39  56  80 110 143 177 217 266
#     4  10  19  31  47  66  89 117 149 187 233 283
#     4   9  16  25  38  57  81 109 141 177 215 255
#     4   9  18  32  48  65  87 117 151 185 223 271
#     4   9  15  22  33  51  76 106 140 176 212 249
#     4   9  15  22  33  50  75 108 142 173 206 246
#
# _framework density 16.023892
#
# number of rings (size 3 to 8) (size 9 to 14) (size 15 to 20)
#    0.000    2.833    0.000    2.500    0.000    9.000 
#    0.000    0.000    0.000    0.000    0.000    0.000 
#    0.000    1.333    0.000    8.000    0.000   12.000 
#
# Total GULP energy -267334.604296 kJ/mol
# GULP energy per Si atom -5569.470923 kJ/mol
# Density = 1.598742 g / cm^3
# Si number density = 16.023892 Si / 1000 Ang^3
#
#
#
# Elastic Constant Matrix: (Units=GPa)
#
#
# Indices 1 2 3 4 5 6 
#
# 1 40.9165 34.0944 39.8420 0.0000 0.0000 0.0000
# 2 34.0944 112.2645 80.5967 0.0000 0.0000 0.0000
# 3 39.8420 80.5967 135.3255 0.0000 0.0000 0.0000
# 4 0.0000 0.0000 0.0000 32.5976 0.0000 0.0000
# 5 0.0000 0.0000 0.0000 0.0000 7.4956 0.0000
# 6 0.0000 0.0000 0.0000 0.0000 0.0000 7.4999
#
#
#
# Elastic Compliance Matrix: (Units=1/GPa)
#
#
# Indices 1 2 3 4 5 6 
#
# 1 0.036345 -0.005862 -0.007209 0.000000 0.000000 0.000000
# 2 -0.005862 0.016507 -0.008105 0.000000 0.000000 0.000000
# 3 -0.007209 -0.008105 0.014339 0.000000 0.000000 0.000000
# 4 0.000000 0.000000 0.000000 0.030677 0.000000 0.000000
# 5 0.000000 0.000000 0.000000 0.000000 0.133411 0.000000
# 6 0.000000 0.000000 0.000000 0.000000 0.000000 0.133334
#
#
# Mechanical properties :
#
#
# Convention : Reuss Voigt Hill
#
# Bulk Modulus (GPa) = 40.26119 66.39697 53.32908
# Shear Modulus (GPa) = 12.04109 18.45019 15.24564
#
# Velocity S-wave (km/s) = 2.74423 3.39694 3.08788
# Velocity P-wave (km/s) = 5.93475 7.54399 6.78723
#
# Compressibility (1/GPa) = 0.02483782
#
# Stress axis : x y z
#
# Youngs Moduli (GPa) = 27.51442 60.58168 69.73894
#
# Poissons Ratio (x) = 0.35515 0.50275
# Poissons Ratio (y) = 0.16130 0.56524
# Poissons Ratio (z) = 0.19835 0.49102
#
# Static dielectric constant tensor:
#      x y z
#    x 1.553830 0.000000 0.000000 
#    y 0.000000 1.540700 0.000000 
#    z 0.000000 0.000000 1.511370 
# 
# From -- ./inp_files/21248.got.cif
#   From: 2010.05.17/outbox.cif.g08.bks.cpg/sg59_11_cif.got.tgz:21248.got - 2010.06.03 14:40:33.
