data_PCOD9447339
_publ_section_title
;
Structure prediction by ZEFSAII (Michael W. Deem and Ramdas Pophale) SiO2 
 PCOD9447339
Probable space group: P M M N
;
_chemical_formula_sum "Si O2"
_cell_formula_units_Z 64
_cell_length_a 25.712157
_cell_length_b 9.009057
_cell_length_c 18.989462
_cell_angle_alpha 90.000000
_cell_angle_beta 90.000000
_cell_angle_gamma 90.000000
_cell_volume 4398.762426
_symmetry_space_group_name_H-M "P M M N"
_symmetry_group_IT_number 59
_space_group.IT_coordinate_system_code '2'
_symmetry_cell_setting 'orthorhombic'
loop_
_space_group_symop_operation_xyz
x,y,z
1/2-x,1/2-y,z
1/2+x,-y,-z
-x,1/2+y,-z
-x,-y,-z
1/2+x,1/2+y,-z
1/2-x,y,z
x,1/2-y,z
loop_
_atom_site_type_symbol
_atom_site_label
_atom_site_fract_x
_atom_site_fract_y
_atom_site_fract_z
Si Si1 0.545786 0.579530 0.092185
Si Si2 0.924573 0.419391 0.957273
Si Si3 0.007410 0.927123 0.612658
Si Si4 0.810764 0.424210 0.729225
Si Si5 0.398053 0.074502 0.181248
Si Si6 0.580355 0.071550 0.519545
Si Si7 0.496372 0.071231 0.761827
Si Si8 0.692289 0.429741 0.563837
O O1 0.563707 0.750000 0.088620
O O2 0.485470 0.578782 0.066202
O O3 0.542078 0.530815 0.173435
O O4 0.576644 0.480714 0.036487
O O5 0.906551 0.250000 0.952877
O O6 0.896331 0.519865 0.899531
O O7 0.002742 0.750000 0.621309
O O8 0.052184 0.957741 0.554767
O O9 0.954417 0.992575 0.579080
O O10 0.018488 0.004378 0.686811
O O11 0.750000 0.438828 0.747372
O O12 0.825239 0.250000 0.736847
O O13 0.847385 0.523309 0.776879
O O14 0.815776 0.463118 0.646573
O O15 0.405698 0.250000 0.184258
O O16 0.447311 0.993494 0.217245
O O17 0.578310 0.250000 0.531625
O O18 0.640402 0.022278 0.523251
O O19 0.499317 0.250000 0.759428
O O20 0.750000 0.484664 0.542642
O O21 0.694180 0.250000 0.558688
#
# Coordination Sequence:
#
# PCOD9447339 Si02
#       8
#     8   8   8   8   8   8   8   8
#     4   8  15  26  39  56  77 102 133 167 200 234
#     4   9  16  26  40  57  79 107 135 162 197 239
#     4  10  19  28  40  61  86 112 142 174 211 254
#     4   9  17  29  44  61  82 109 141 175 210 249
#     4  11  20  28  41  60  83 110 141 176 208 244
#     4   9  17  29  44  61  84 112 140 173 211 254
#     4  10  19  30  43  58  80 111 143 173 208 250
#     4   8  14  26  45  64  79 102 138 175 209 246
#
# _framework density 14.549547
#
# number of rings (size 3 to 8) (size 9 to 14) (size 15 to 20)
#    0.000    2.750    0.000    4.500    0.000    5.250 
#    0.000    0.000    0.000    1.125    0.000    0.000 
#    0.000    1.000    0.000    9.250    0.000    2.875 
#
# Total GULP energy -356489.537170 kJ/mol
# GULP energy per Si atom -5570.149018 kJ/mol
# Density = 1.451643 g / cm^3
# Si number density = 14.549547 Si / 1000 Ang^3
#
#
#
# Elastic Constant Matrix: (Units=GPa)
#
#
# Indices 1 2 3 4 5 6 
#
# 1 68.4066 21.8736 33.1948 0.0000 0.0000 0.0000
# 2 21.8736 50.0793 37.4639 0.0000 0.0000 0.0000
# 3 33.1948 37.4639 92.6253 0.0000 0.0000 0.0000
# 4 0.0000 0.0000 0.0000 23.5356 0.0000 0.0000
# 5 0.0000 0.0000 0.0000 0.0000 12.8312 0.0000
# 6 0.0000 0.0000 0.0000 0.0000 0.0000 13.9037
#
#
#
# Elastic Compliance Matrix: (Units=1/GPa)
#
#
# Indices 1 2 3 4 5 6 
#
# 1 0.018360 -0.004441 -0.004784 0.000000 0.000000 0.000000
# 2 -0.004441 0.029706 -0.010424 0.000000 0.000000 0.000000
# 3 -0.004784 -0.010424 0.016727 0.000000 0.000000 0.000000
# 4 0.000000 0.000000 0.000000 0.042489 0.000000 0.000000
# 5 0.000000 0.000000 0.000000 0.000000 0.077935 0.000000
# 6 0.000000 0.000000 0.000000 0.000000 0.000000 0.071923
#
#
# Mechanical properties :
#
#
# Convention : Reuss Voigt Hill
#
# Bulk Modulus (GPa) = 39.22128 44.01954 41.62041
# Shear Modulus (GPa) = 16.39701 17.95935 17.17818
#
# Velocity S-wave (km/s) = 3.36069 3.51715 3.43981
# Velocity P-wave (km/s) = 6.48649 6.84211 6.66667
#
# Compressibility (1/GPa) = 0.02549637
#
# Stress axis : x y z
#
# Youngs Moduli (GPa) = 54.46728 33.66358 59.78524
#
# Poissons Ratio (x) = 0.14948 0.28599
# Poissons Ratio (y) = 0.24186 0.62318
# Poissons Ratio (z) = 0.26055 0.35090
#
# Static dielectric constant tensor:
#      x y z
#    x 1.471190 0.000000 0.000000 
#    y 0.000000 1.490710 0.000000 
#    z 0.000000 0.000000 1.487330 
# 
# From -- ./inp_files/28507.got.cif
#   From: 2010.05.17/outbox.cif.g08.bks.cpg/sg59_15_cif.got.tgz:28507.got - 2010.06.03 14:40:33.
