data_PCOD9447915
_publ_section_title
;
Structure prediction by ZEFSAII (Michael W. Deem and Ramdas Pophale) SiO2 
 PCOD9447915
Probable space group: P M M N
;
_chemical_formula_sum "Si O2"
_cell_formula_units_Z 64
_cell_length_a 7.402859
_cell_length_b 19.096805
_cell_length_c 20.624069
_cell_angle_alpha 90.000000
_cell_angle_beta 90.000000
_cell_angle_gamma 90.000000
_cell_volume 2915.644326
_symmetry_space_group_name_H-M "P M M N"
_symmetry_group_IT_number 59
_space_group.IT_coordinate_system_code '2'
_symmetry_cell_setting 'orthorhombic'
loop_
_space_group_symop_operation_xyz
x,y,z
1/2-x,1/2-y,z
1/2+x,-y,-z
-x,1/2+y,-z
-x,-y,-z
1/2+x,1/2+y,-z
1/2-x,y,z
x,1/2-y,z
loop_
_atom_site_type_symbol
_atom_site_label
_atom_site_fract_x
_atom_site_fract_y
_atom_site_fract_z
Si Si1 0.029615 0.669038 0.100673
Si Si2 0.469019 0.830018 0.697448
Si Si3 0.529996 0.331167 0.044470
Si Si4 0.032052 0.907941 0.827312
Si Si5 0.962306 0.433381 0.787949
Si Si6 0.957993 0.931502 0.579070
Si Si7 0.965467 0.671451 0.470599
Si Si8 0.033259 0.572381 0.358364
O O1 0.250000 0.667077 0.100347
O O2 0.978226 0.750000 0.110711
O O3 0.963443 0.618930 0.157672
O O4 0.972450 0.647633 0.027958
O O5 0.250000 0.831698 0.695275
O O6 0.526194 0.750000 0.687078
O O7 0.526136 0.858880 0.767579
O O8 0.537116 0.881532 0.641828
O O9 0.750000 0.332435 0.044848
O O10 0.478192 0.250000 0.054863
O O11 0.467477 0.378991 0.103660
O O12 0.250000 0.905503 0.828268
O O13 0.979266 0.987151 0.812038
O O14 0.750000 0.416522 0.782778
O O15 0.037106 0.427289 0.715096
O O16 0.750000 0.945753 0.560758
O O17 0.040179 0.886214 0.520784
O O18 0.038539 0.005630 0.600983
O O19 0.750000 0.674840 0.481684
O O20 0.036389 0.750000 0.480251
O O21 0.996194 0.642069 0.398792
O O22 0.250000 0.562913 0.354272
#
# Coordination Sequence:
#
# PCOD9447915 Si02
#       8
#     8   8   8   8   8   8   8   8
#     4   8  15  29  50  74  99 132 174 218 260 299
#     4  10  20  32  49  76 106 137 174 213 252 298
#     4   8  14  27  48  73 101 135 176 216 253 298
#     4  10  19  31  49  74 105 138 171 210 256 304
#     4  10  20  34  52  77 106 133 170 215 256 306
#     4  10  20  37  57  78 105 138 172 207 257 315
#     4  10  22  38  56  79 105 134 171 215 262 313
#     4  10  21  36  55  78 105 139 176 214 257 308
#
# _framework density 21.950551000000001
#
# number of rings (size 3 to 8) (size 9 to 14) (size 15 to 20)
#    0.000    2.500    1.250    1.875    0.000    5.000 
#    0.000    1.250    0.000    1.500    0.000    1.750 
#    0.000    0.000    0.000    0.000    0.000    0.000 
#
# Total GULP energy -357537.138407 kJ/mol
# GULP energy per Si atom -5586.517788 kJ/mol
# Density = 2.190059 g / cm^3
# Si number density = 21.950551 Si / 1000 Ang^3
#
#
#
# Elastic Constant Matrix: (Units=GPa)
#
#
# Indices 1 2 3 4 5 6 
#
# 1 71.5679 -6.7893 4.9865 0.0000 0.0000 0.0000
# 2 -6.7893 45.5990 49.7061 0.0000 0.0000 0.0000
# 3 4.9865 49.7061 147.7899 0.0000 0.0000 0.0000
# 4 0.0000 0.0000 0.0000 46.9685 0.0000 0.0000
# 5 0.0000 0.0000 0.0000 0.0000 76.9151 0.0000
# 6 0.0000 0.0000 0.0000 0.0000 0.0000 -30.5413
#
#
#
# Elastic Compliance Matrix: (Units=1/GPa)
#
#
# Indices 1 2 3 4 5 6 
#
# 1 0.014510 0.004254 -0.001920 0.000000 0.000000 0.000000
# 2 0.004254 0.035871 -0.012208 0.000000 0.000000 0.000000
# 3 -0.001920 -0.012208 0.010937 0.000000 0.000000 0.000000
# 4 0.000000 0.000000 0.000000 0.021291 0.000000 0.000000
# 5 0.000000 0.000000 0.000000 0.000000 0.013001 0.000000
# 6 0.000000 0.000000 0.000000 0.000000 0.000000 -0.032743
#
#
# Mechanical properties :
#
#
# Convention : Reuss Voigt Hill
#
# Bulk Modulus (GPa) = 24.05643 40.08484 32.07064
# Shear Modulus (GPa) = 51.82749 33.13868 42.48309
#
# Velocity S-wave (km/s) = 4.86439 3.88970 4.40409
# Velocity P-wave (km/s) = 6.52172 6.20275 6.36423
#
# Compressibility (1/GPa) = 0.04156893
#
# Stress axis : x y z
#
# Youngs Moduli (GPa) = 68.91783 27.87746 91.43194
#
# Poissons Ratio (x) = -0.11858 0.17556
# Poissons Ratio (y) = -0.29314 1.11621
# Poissons Ratio (z) = 0.13233 0.34033
#
# Static dielectric constant tensor:
#      x y z
#    x 1.829040 0.000000 0.000000 
#    y 0.000000 1.753050 0.000000 
#    z 0.000000 0.000000 1.788790 
# 
# From -- ./inp_files/29372.got.cif
#   From: 2010.05.17/outbox.cif.g08.bks.cpg/sg59_15_cif.got.tgz:29372.got - 2010.06.03 14:40:33.
