data_PCOD9447289
_publ_section_title
;
Structure prediction by ZEFSAII (Michael W. Deem and Ramdas Pophale) SiO2 
 PCOD9447289
Probable space group: P M M N
;
_chemical_formula_sum "Si O2"
_cell_formula_units_Z 44
_cell_length_a 11.505433
_cell_length_b 13.747919
_cell_length_c 14.765424
_cell_angle_alpha 90.000000
_cell_angle_beta 90.000000
_cell_angle_gamma 90.000000
_cell_volume 2335.532177
_symmetry_space_group_name_H-M "P M M N"
_symmetry_group_IT_number 59
_space_group.IT_coordinate_system_code '2'
_symmetry_cell_setting 'orthorhombic'
loop_
_space_group_symop_operation_xyz
x,y,z
1/2-x,1/2-y,z
1/2+x,-y,-z
-x,1/2+y,-z
-x,-y,-z
1/2+x,1/2+y,-z
1/2-x,y,z
x,1/2-y,z
loop_
_atom_site_type_symbol
_atom_site_label
_atom_site_fract_x
_atom_site_fract_y
_atom_site_fract_z
Si Si1 0.250000 0.132825 0.178056
Si Si2 0.250000 0.514952 0.326746
Si Si3 0.946652 0.491556 0.901323
Si Si4 0.614035 0.141281 0.399642
Si Si5 0.613853 0.540303 0.268957
Si Si6 0.452165 0.861798 0.404488
Si Si7 0.250000 0.861342 0.143507
O O1 0.250000 0.250000 0.172885
O O2 0.250000 0.092049 0.282428
O O3 0.137097 0.081652 0.130216
O O4 0.137941 0.552723 0.379414
O O5 0.250000 0.581820 0.237544
O O6 0.863103 0.398287 0.906691
O O7 0.040342 0.470502 0.822757
O O8 0.000000 0.500000 0.000000
O O9 0.750000 0.135904 0.431218
O O10 0.596108 0.250000 0.363192
O O11 0.599860 0.060315 0.324335
O O12 0.532842 0.128729 0.487496
O O13 0.750000 0.557179 0.251801
O O14 0.559608 0.619842 0.337539
O O15 0.408840 0.750000 0.390577
O O16 0.250000 0.750000 0.161023
#
# Coordination Sequence:
#
# PCOD9447289 Si02
#       7
#     4   4   8   8   8   8   4
#     4  10  22  42  66  91 122 156 202 257 314 364
#     4  10  18  34  62  90 111 149 201 256 300 342
#     4  10  23  41  64  87 120 157 201 249 306 368
#     4   9  19  35  58  86 117 159 209 251 301 369
#     4  11  23  37  56  86 126 164 198 252 312 371
#     4  11  19  35  61  88 118 159 209 254 297 355
#     4  10  20  38  64  89 109 143 205 257 294 346
#
# _framework density 18.839390000000002
#
# number of rings (size 3 to 8) (size 9 to 14) (size 15 to 20)
#    0.000    2.000    4.545    1.364    2.545    1.818 
#    0.000    0.000    0.000    0.000    0.000    0.000 
#    0.000    0.000    0.000    0.000    0.000    0.000 
#
# Total GULP energy -245221.174584 kJ/mol
# GULP energy per Si atom -5573.208513 kJ/mol
# Density = 1.879651 g / cm^3
# Si number density = 18.839390 Si / 1000 Ang^3
#
#
#
# Elastic Constant Matrix: (Units=GPa)
#
#
# Indices 1 2 3 4 5 6 
#
# 1 102.9321 13.9709 39.4336 0.0000 0.0000 0.0000
# 2 13.9709 84.3705 14.6350 0.0000 0.0000 0.0000
# 3 39.4336 14.6350 91.1834 0.0000 0.0000 0.0000
# 4 0.0000 0.0000 0.0000 10.7129 0.0000 0.0000
# 5 0.0000 0.0000 0.0000 0.0000 323.7275 0.0000
# 6 0.0000 0.0000 0.0000 0.0000 0.0000 -151.7192
#
#
#
# Elastic Compliance Matrix: (Units=1/GPa)
#
#
# Indices 1 2 3 4 5 6 
#
# 1 0.011742 -0.001094 -0.004902 0.000000 0.000000 0.000000
# 2 -0.001094 0.012294 -0.001500 0.000000 0.000000 0.000000
# 3 -0.004902 -0.001500 0.013328 0.000000 0.000000 0.000000
# 4 0.000000 0.000000 0.000000 0.093345 0.000000 0.000000
# 5 0.000000 0.000000 0.000000 0.000000 0.003089 0.000000
# 6 0.000000 0.000000 0.000000 0.000000 0.000000 -0.006591
#
#
# Mechanical properties :
#
#
# Convention : Reuss Voigt Hill
#
# Bulk Modulus (GPa) = 44.70145 46.06279 45.38212
# Shear Modulus (GPa) = 33.41003 50.57402 41.99202
#
# Velocity S-wave (km/s) = 4.21576 5.18682 4.72630
# Velocity P-wave (km/s) = 6.89028 7.77008 7.34337
#
# Compressibility (1/GPa) = 0.02237064
#
# Stress axis : x y z
#
# Youngs Moduli (GPa) = 85.16654 81.34161 75.03150
#
# Poissons Ratio (x) = 0.08898 0.36783
# Poissons Ratio (y) = 0.09317 0.11255
# Poissons Ratio (z) = 0.41751 0.12202
#
# Static dielectric constant tensor:
#      x y z
#    x 1.706960 0.000000 0.000000 
#    y 0.000000 1.687880 0.000000 
#    z 0.000000 0.000000 1.659540 
# 
# From -- ./inp_files/22338.got.cif
#   From: 2010.05.17/outbox.cif.g08.bks.cpg/sg59_12_cif.got.tgz:22338.got - 2010.06.03 14:40:33.
