data_PCOD9447425
_publ_section_title
;
Structure prediction by ZEFSAII (Michael W. Deem and Ramdas Pophale) SiO2 
 PCOD9447425
Probable space group: P M M N
;
_chemical_formula_sum "Si O2"
_cell_formula_units_Z 48
_cell_length_a 7.758194
_cell_length_b 14.314846
_cell_length_c 24.569996
_cell_angle_alpha 90.000000
_cell_angle_beta 90.000000
_cell_angle_gamma 90.000000
_cell_volume 2728.678703
_symmetry_space_group_name_H-M "P M M N"
_symmetry_group_IT_number 59
_space_group.IT_coordinate_system_code '2'
_symmetry_cell_setting 'orthorhombic'
loop_
_space_group_symop_operation_xyz
x,y,z
1/2-x,1/2-y,z
1/2+x,-y,-z
-x,1/2+y,-z
-x,-y,-z
1/2+x,1/2+y,-z
1/2-x,y,z
x,1/2-y,z
loop_
_atom_site_type_symbol
_atom_site_label
_atom_site_fract_x
_atom_site_fract_y
_atom_site_fract_z
Si Si1 0.039593 0.641963 0.190463
Si Si2 0.957471 0.144493 0.022869
Si Si3 0.047160 0.647049 0.528719
Si Si4 0.541882 0.357155 0.687189
Si Si5 0.457185 0.535758 0.084585
Si Si6 0.453922 0.044155 0.577597
O O1 0.250000 0.640020 0.190519
O O2 0.990812 0.750000 0.180035
O O3 0.984227 0.616724 0.251727
O O4 0.978722 0.575591 0.141924
O O5 0.750000 0.148405 0.019337
O O6 0.021329 0.250000 0.030394
O O7 0.021317 0.098749 0.966163
O O8 0.001015 0.070882 0.070008
O O9 0.250000 0.652559 0.541668
O O10 0.971457 0.750000 0.537753
O O11 0.976039 0.558955 0.562671
O O12 0.031071 0.617138 0.465612
O O13 0.750000 0.356769 0.687338
O O14 0.485293 0.250000 0.676833
O O15 0.484040 0.423694 0.638852
O O16 0.250000 0.544265 0.085083
O O17 0.250000 0.043460 0.566863
#
# Coordination Sequence:
#
# PCOD9447425 Si02
#       6
#     8   8   8   8   8   8
#     4   8  14  26  45  66  85 109 143 177 208 248
#     4   9  17  28  42  62  89 117 141 170 214 263
#     4   9  18  32  47  62  84 115 145 171 205 251
#     4   9  17  29  45  64  87 115 142 169 208 257
#     4   9  16  27  45  66  85 109 144 182 213 245
#     4  10  19  29  44  67  90 111 139 176 212 246
#
# _framework density 17.590933
#
# number of rings (size 3 to 8) (size 9 to 14) (size 15 to 20)
#    0.000    3.000    0.000    2.500    0.000    5.667 
#    0.000    0.833    0.000    3.500    0.000    4.667 
#    0.000    0.000    0.000    0.000    0.000    0.000 
#
# Total GULP energy -267494.215275 kJ/mol
# GULP energy per Si atom -5572.796152 kJ/mol
# Density = 1.755089 g / cm^3
# Si number density = 17.590933 Si / 1000 Ang^3
#
#
#
# Elastic Constant Matrix: (Units=GPa)
#
#
# Indices 1 2 3 4 5 6 
#
# 1 22.4848 0.5055 -2.6005 0.0000 0.0000 0.0000
# 2 0.5055 138.3358 81.4149 0.0000 0.0000 0.0000
# 3 -2.6005 81.4149 126.6870 0.0000 0.0000 0.0000
# 4 0.0000 0.0000 0.0000 23.6070 0.0000 0.0000
# 5 0.0000 0.0000 0.0000 0.0000 16.6526 0.0000
# 6 0.0000 0.0000 0.0000 0.0000 0.0000 15.0804
#
#
#
# Elastic Compliance Matrix: (Units=1/GPa)
#
#
# Indices 1 2 3 4 5 6 
#
# 1 0.044690 -0.001131 0.001644 0.000000 0.000000 0.000000
# 2 -0.001131 0.011655 -0.007513 0.000000 0.000000 0.000000
# 3 0.001644 -0.007513 0.012755 0.000000 0.000000 0.000000
# 4 0.000000 0.000000 0.000000 0.042360 0.000000 0.000000
# 5 0.000000 0.000000 0.000000 0.000000 0.060051 0.000000
# 6 0.000000 0.000000 0.000000 0.000000 0.000000 0.066311
#
#
# Mechanical properties :
#
#
# Convention : Reuss Voigt Hill
#
# Bulk Modulus (GPa) = 18.14869 49.57193 33.86031
# Shear Modulus (GPa) = 18.50561 24.94719 21.72640
#
# Velocity S-wave (km/s) = 3.24697 3.76996 3.51820
# Velocity P-wave (km/s) = 4.93929 6.86962 5.98282
#
# Compressibility (1/GPa) = 0.05510039
#
# Stress axis : x y z
#
# Youngs Moduli (GPa) = 22.37639 85.80364 78.39830
#
# Poissons Ratio (x) = 0.09704 -0.12890
# Poissons Ratio (y) = 0.02531 0.58900
# Poissons Ratio (z) = -0.03679 0.64464
#
# Static dielectric constant tensor:
#      x y z
#    x 1.658230 0.000000 0.000000 
#    y 0.000000 1.609610 0.000000 
#    z 0.000000 0.000000 1.587130 
# 
# From -- ./inp_files/31272.got.cif
#   From: 2010.05.17/outbox.cif.g08.bks.cpg/sg59_16_cif.got.tgz:31272.got - 2010.06.03 14:40:33.
