data_PCOD9447490
_publ_section_title
;
Structure prediction by ZEFSAII (Michael W. Deem and Ramdas Pophale) SiO2 
 PCOD9447490
Probable space group: P M M N
;
_chemical_formula_sum "Si O2"
_cell_formula_units_Z 64
_cell_length_a 15.208917
_cell_length_b 7.517298
_cell_length_c 22.811409
_cell_angle_alpha 90.000000
_cell_angle_beta 90.000000
_cell_angle_gamma 90.000000
_cell_volume 2608.027509
_symmetry_space_group_name_H-M "P M M N"
_symmetry_group_IT_number 59
_space_group.IT_coordinate_system_code '2'
_symmetry_cell_setting 'orthorhombic'
loop_
_space_group_symop_operation_xyz
x,y,z
1/2-x,1/2-y,z
1/2+x,-y,-z
-x,1/2+y,-z
-x,-y,-z
1/2+x,1/2+y,-z
1/2-x,y,z
x,1/2-y,z
loop_
_atom_site_type_symbol
_atom_site_label
_atom_site_fract_x
_atom_site_fract_y
_atom_site_fract_z
Si Si1 0.354888 0.547559 0.123569
Si Si2 0.348914 0.460830 0.873808
Si Si3 0.118681 0.950314 0.250261
Si Si4 0.351261 0.963744 0.999657
Si Si5 0.388374 0.543688 0.626569
Si Si6 0.097730 0.532423 0.374694
Si Si7 0.422198 0.541973 0.747778
Si Si8 0.605089 0.036446 0.498883
O O1 0.250000 0.560518 0.114976
O O2 0.391673 0.750000 0.128878
O O3 0.364923 0.460609 0.187331
O O4 0.388617 0.469240 0.061960
O O5 0.250000 0.534896 0.877903
O O6 0.345650 0.250000 0.867628
O O7 0.386939 0.529833 0.813259
O O8 0.393507 0.496171 0.936757
O O9 0.155458 0.750000 0.246981
O O10 0.142366 0.027494 0.313907
O O11 0.013692 0.941124 0.253197
O O12 0.250000 0.031622 0.995545
O O13 0.348585 0.750000 0.005070
O O14 0.361408 0.750000 0.624838
O O15 0.495519 0.529115 0.625706
O O16 0.365045 0.476662 0.691876
O O17 0.360526 0.465023 0.563603
O O18 0.097312 0.750000 0.373280
O O19 0.137345 0.475261 0.437215
O O20 0.440142 0.750000 0.736330
O O21 0.617239 0.250000 0.497715
O O22 0.500000 0.000000 0.500000
#
# Coordination Sequence:
#
# PCOD9447490 Si02
#       8
#     8   8   8   8   8   8   8   8
#     4   8  14  26  46  69  89 112 144 178 210 248
#     4  10  20  33  49  68  87 107 135 174 217 258
#     4   9  16  27  43  64  91 119 145 176 215 255
#     4   8  14  27  47  67  85 107 138 175 211 248
#     4   8  14  23  35  52  76 107 139 172 207 243
#     4   8  13  20  33  54  79 108 138 170 209 248
#     4  10  19  30  44  63  88 117 146 175 212 258
#     4   8  12  19  31  49  74 103 136 171 206 242
#
# _framework density 24.539618000000001
#
# number of rings (size 3 to 8) (size 9 to 14) (size 15 to 20)
#    0.000    3.375    0.000    1.500    0.000    1.250 
#    0.000    1.250    0.000    1.125    0.000    0.875 
#    0.000    5.000    0.000    0.000    0.000    1.250 
#
# Total GULP energy -356297.083045 kJ/mol
# GULP energy per Si atom -5567.141923 kJ/mol
# Density = 2.448377 g / cm^3
# Si number density = 24.539618 Si / 1000 Ang^3
#
#
#
# Elastic Constant Matrix: (Units=GPa)
#
#
# Indices 1 2 3 4 5 6 
#
# 1 46.2804 -0.1449 27.0855 0.0000 0.0000 0.0000
# 2 -0.1449 82.4980 14.0713 0.0000 0.0000 0.0000
# 3 27.0855 14.0713 341.2983 0.0000 0.0000 0.0000
# 4 0.0000 0.0000 0.0000 -9.8669 0.0000 0.0000
# 5 0.0000 0.0000 0.0000 0.0000 24.4813 0.0000
# 6 0.0000 0.0000 0.0000 0.0000 0.0000 -8.6115
#
#
#
# Elastic Compliance Matrix: (Units=1/GPa)
#
#
# Indices 1 2 3 4 5 6 
#
# 1 0.022670 0.000349 -0.001813 0.000000 0.000000 0.000000
# 2 0.000349 0.012213 -0.000531 0.000000 0.000000 0.000000
# 3 -0.001813 -0.000531 0.003096 0.000000 0.000000 0.000000
# 4 0.000000 0.000000 0.000000 -0.101349 0.000000 0.000000
# 5 0.000000 0.000000 0.000000 0.000000 0.040848 0.000000
# 6 0.000000 0.000000 0.000000 0.000000 0.000000 -0.116124
#
#
# Mechanical properties :
#
#
# Convention : Reuss Voigt Hill
#
# Bulk Modulus (GPa) = 29.42280 61.34452 45.38366
# Shear Modulus (GPa) = -40.54259 29.80489 -5.36885
#
# Velocity S-wave (km/s) = -4.06905 3.48884 -1.48074
# Velocity P-wave (km/s) = 3.17179 6.42509 3.95104
#
# Compressibility (1/GPa) = 0.03398725
#
# Stress axis : x y z
#
# Youngs Moduli (GPa) = 44.11141 81.88175 323.01739
#
# Poissons Ratio (x) = -0.02859 0.58579
# Poissons Ratio (y) = -0.01540 0.17159
# Poissons Ratio (z) = 0.08000 0.04350
#
# Static dielectric constant tensor:
#      x y z
#    x 1.956510 0.000000 0.000000 
#    y 0.000000 1.928680 0.000000 
#    z 0.000000 0.000000 2.116400 
# 
# From -- ./inp_files/31083.got.cif
#   From: 2010.05.17/outbox.cif.g08.bks.cpg/sg59_16_cif.got.tgz:31083.got - 2010.06.03 14:40:33.
