data_PCOD9447536
_publ_section_title
;
Structure prediction by ZEFSAII (Michael W. Deem and Ramdas Pophale) SiO2 
 PCOD9447536
Probable space group: P M M N
;
_chemical_formula_sum "Si O2"
_cell_formula_units_Z 64
_cell_length_a 30.837668
_cell_length_b 7.808596
_cell_length_c 15.428099
_cell_angle_alpha 90.000000
_cell_angle_beta 90.000000
_cell_angle_gamma 90.000000
_cell_volume 3715.069129
_symmetry_space_group_name_H-M "P M M N"
_symmetry_group_IT_number 59
_space_group.IT_coordinate_system_code '2'
_symmetry_cell_setting 'orthorhombic'
loop_
_space_group_symop_operation_xyz
x,y,z
1/2-x,1/2-y,z
1/2+x,-y,-z
-x,1/2+y,-z
-x,-y,-z
1/2+x,1/2+y,-z
1/2-x,y,z
x,1/2-y,z
loop_
_atom_site_type_symbol
_atom_site_label
_atom_site_fract_x
_atom_site_fract_y
_atom_site_fract_z
Si Si1 0.434679 0.452030 0.946586
Si Si2 0.613128 0.050017 0.217271
Si Si3 0.957020 0.549230 0.682179
Si Si4 0.551614 0.551647 0.369539
Si Si5 0.470360 0.458578 0.124443
Si Si6 0.297381 0.957230 0.707826
Si Si7 0.107314 0.039268 0.464999
Si Si8 0.297764 0.454514 0.505221
O O1 0.426876 0.250000 0.948969
O O2 0.399817 0.531732 0.882434
O O3 0.481464 0.484731 0.902396
O O4 0.439318 0.514636 0.045496
O O5 0.611227 0.250000 0.240646
O O6 0.660948 0.983003 0.239177
O O7 0.578110 0.962544 0.279997
O O8 0.947124 0.750000 0.691599
O O9 0.958676 0.477556 0.779808
O O10 0.921167 0.479457 0.616355
O O11 0.004984 0.534594 0.641315
O O12 0.542619 0.750000 0.388160
O O13 0.582283 0.485589 0.447035
O O14 0.470994 0.250000 0.125324
O O15 0.250000 0.016437 0.738756
O O16 0.297221 0.750000 0.709572
O O17 0.301983 0.013291 0.608146
O O18 0.107924 0.250000 0.466263
O O19 0.157312 0.980677 0.464343
O O20 0.250000 0.522919 0.478807
O O21 0.296740 0.250000 0.491279
#
# Coordination Sequence:
#
# PCOD9447536 Si02
#       8
#     8   8   8   8   8   8   8   8
#     4  10  19  30  46  66  89 115 147 189 228 266
#     4  11  20  30  46  67  91 121 152 182 224 276
#     4  10  19  32  47  62  88 123 156 187 222 263
#     4  11  20  30  43  64  93 122 155 186 215 257
#     4   9  18  31  46  65  87 116 152 187 225 264
#     4   9  18  31  46  65  89 116 148 186 225 267
#     4   9  18  30  44  65  91 120 152 185 220 263
#     4   9  16  28  46  66  89 116 147 183 223 265
#
# _framework density 17.227135000000001
#
# number of rings (size 3 to 8) (size 9 to 14) (size 15 to 20)
#    0.000    2.250    2.500    1.500    0.000    1.000 
#    0.000    1.250    0.000    0.000    0.000    0.875 
#    0.000    3.000    0.000    0.000    0.000    0.000 
#
# Total GULP energy -356834.909686 kJ/mol
# GULP energy per Si atom -5575.545464 kJ/mol
# Density = 1.718793 g / cm^3
# Si number density = 17.227135 Si / 1000 Ang^3
#
#
#
# Elastic Constant Matrix: (Units=GPa)
#
#
# Indices 1 2 3 4 5 6 
#
# 1 136.8696 -4.1298 57.7477 0.0000 0.0000 0.0000
# 2 -4.1298 17.1148 0.0522 0.0000 0.0000 0.0000
# 3 57.7477 0.0522 86.9384 0.0000 0.0000 0.0000
# 4 0.0000 0.0000 0.0000 9.3593 0.0000 0.0000
# 5 0.0000 0.0000 0.0000 0.0000 20.2185 0.0000
# 6 0.0000 0.0000 0.0000 0.0000 0.0000 4.8184
#
#
#
# Elastic Compliance Matrix: (Units=1/GPa)
#
#
# Indices 1 2 3 4 5 6 
#
# 1 0.010257 0.002496 -0.006814 0.000000 0.000000 0.000000
# 2 0.002496 0.059036 -0.001693 0.000000 0.000000 0.000000
# 3 -0.006814 -0.001693 0.016030 0.000000 0.000000 0.000000
# 4 0.000000 0.000000 0.000000 0.106845 0.000000 0.000000
# 5 0.000000 0.000000 0.000000 0.000000 0.049460 0.000000
# 6 0.000000 0.000000 0.000000 0.000000 0.000000 0.207538
#
#
# Mechanical properties :
#
#
# Convention : Reuss Voigt Hill
#
# Bulk Modulus (GPa) = 13.64270 38.69587 26.16929
# Shear Modulus (GPa) = 10.29605 19.36274 14.82940
#
# Velocity S-wave (km/s) = 2.44737 3.35620 2.93715
# Velocity P-wave (km/s) = 3.99032 6.12615 5.16974
#
# Compressibility (1/GPa) = 0.07329926
#
# Stress axis : x y z
#
# Youngs Moduli (GPa) = 97.49813 16.93868 62.38405
#
# Poissons Ratio (x) = -0.04227 0.42510
# Poissons Ratio (y) = -0.24332 0.10562
# Poissons Ratio (z) = 0.66438 0.02868
#
# Static dielectric constant tensor:
#      x y z
#    x 1.597220 0.000000 0.000000 
#    y 0.000000 1.623550 0.000000 
#    z 0.000000 0.000000 1.584610 
# 
# From -- ./inp_files/21930.got.cif
#   From: 2010.05.17/outbox.cif.g08.bks.cpg/sg59_11_cif.got.tgz:21930.got - 2010.06.03 14:40:33.
