data_PCOD9447086
_publ_section_title
;
Structure prediction by ZEFSAII (Michael W. Deem and Ramdas Pophale) SiO2 
 PCOD9447086
Probable space group: P M M N
;
_chemical_formula_sum "Si O2"
_cell_formula_units_Z 52
_cell_length_a 9.433108
_cell_length_b 14.435644
_cell_length_c 22.079804
_cell_angle_alpha 90.000000
_cell_angle_beta 90.000000
_cell_angle_gamma 90.000000
_cell_volume 3006.672905
_symmetry_space_group_name_H-M "P M M N"
_symmetry_group_IT_number 59
_space_group.IT_coordinate_system_code '2'
_symmetry_cell_setting 'orthorhombic'
loop_
_space_group_symop_operation_xyz
x,y,z
1/2-x,1/2-y,z
1/2+x,-y,-z
-x,1/2+y,-z
-x,-y,-z
1/2+x,1/2+y,-z
1/2-x,y,z
x,1/2-y,z
loop_
_atom_site_type_symbol
_atom_site_label
_atom_site_fract_x
_atom_site_fract_y
_atom_site_fract_z
Si Si1 0.082554 0.750000 0.000345
Si Si2 0.087827 0.250000 0.733605
Si Si3 0.416590 0.859170 0.490240
Si Si4 0.582532 0.503685 0.404138
Si Si5 0.405250 0.960932 0.153919
Si Si6 0.515668 0.250000 0.866401
Si Si7 0.083732 0.948836 0.947112
Si Si8 0.416055 0.935793 0.293191
O O1 0.250000 0.750000 0.020690
O O2 0.986617 0.750000 0.061275
O O3 0.061112 0.840605 0.960130
O O4 0.250000 0.250000 0.712622
O O5 0.087530 0.250000 0.807691
O O6 0.002071 0.160602 0.710830
O O7 0.250000 0.871339 0.473157
O O8 0.445150 0.750000 0.494254
O O9 0.435764 0.913108 0.553761
O O10 0.516670 0.911000 0.442421
O O11 0.750000 0.516722 0.393237
O O12 0.493689 0.501473 0.342536
O O13 0.250000 0.993613 0.133799
O O14 0.409949 0.849712 0.142953
O O15 0.421909 0.975887 0.225329
O O16 0.523287 0.012109 0.115340
O O17 0.250000 0.968116 0.951532
O O18 0.000000 0.000000 0.000000
O O19 0.250000 0.920172 0.307810
#
# Coordination Sequence:
#
# PCOD9447086 Si02
#       8
#     4   4   8   8   8   4   8   8
#     4  10  20  36  54  74 104 141 173 208 263 333
#     4  10  21  34  49  78 111 139 180 226 266 315
#     4   9  19  36  57  80 111 148 182 220 268 320
#     4  10  20  34  55  84 112 141 182 228 265 309
#     4  10  20  36  56  78 104 140 179 216 263 320
#     4  10  18  32  53  76 109 142 167 208 265 330
#     4  11  22  36  55  78 104 137 176 218 267 319
#     4  10  21  36  55  76 108 149 181 214 270 332
#
# _framework density 17.294864
#
# number of rings (size 3 to 8) (size 9 to 14) (size 15 to 20)
#    0.000    2.000    1.538    2.308    1.077    6.462 
#    0.000    1.538    1.692    0.000    0.000    0.000 
#    0.000    0.000    0.000    0.000    0.000    0.000 
#
# Total GULP energy -289908.774368 kJ/mol
# GULP energy per Si atom -5575.168738 kJ/mol
# Density = 1.725550 g / cm^3
# Si number density = 17.294864 Si / 1000 Ang^3
#
#
#
# Elastic Constant Matrix: (Units=GPa)
#
#
# Indices 1 2 3 4 5 6 
#
# 1 115.0001 45.5926 50.1633 0.0000 0.0000 0.0000
# 2 45.5926 85.6724 32.6225 0.0000 0.0000 0.0000
# 3 50.1633 32.6225 87.0071 0.0000 0.0000 0.0000
# 4 0.0000 0.0000 0.0000 13.3614 0.0000 0.0000
# 5 0.0000 0.0000 0.0000 0.0000 27.6693 0.0000
# 6 0.0000 0.0000 0.0000 0.0000 0.0000 11.2085
#
#
#
# Elastic Compliance Matrix: (Units=1/GPa)
#
#
# Indices 1 2 3 4 5 6 
#
# 1 0.013104 -0.004779 -0.005763 0.000000 0.000000 0.000000
# 2 -0.004779 0.015359 -0.003003 0.000000 0.000000 0.000000
# 3 -0.005763 -0.003003 0.015942 0.000000 0.000000 0.000000
# 4 0.000000 0.000000 0.000000 0.074842 0.000000 0.000000
# 5 0.000000 0.000000 0.000000 0.000000 0.036141 0.000000
# 6 0.000000 0.000000 0.000000 0.000000 0.000000 0.089218
#
#
# Mechanical properties :
#
#
# Convention : Reuss Voigt Hill
#
# Bulk Modulus (GPa) = 57.75657 60.49295 59.12476
# Shear Modulus (GPa) = 18.01994 21.06794 19.54394
#
# Velocity S-wave (km/s) = 3.23139 3.49400 3.36526
# Velocity P-wave (km/s) = 6.88405 7.16455 7.02570
#
# Compressibility (1/GPa) = 0.01731405
#
# Stress axis : x y z
#
# Youngs Moduli (GPa) = 76.31040 65.10668 62.72653
#
# Poissons Ratio (x) = 0.31116 0.36151
# Poissons Ratio (y) = 0.36471 0.18839
# Poissons Ratio (z) = 0.43980 0.19554
#
# Static dielectric constant tensor:
#      x y z
#    x 1.589960 0.000000 0.000000 
#    y 0.000000 0.606210 0.000000 
#    z 0.000000 0.000000 1.600490 
# 
# From -- ./inp_files/28944.got.cif
#   From: 2010.05.17/outbox.cif.g08.bks.cpg/sg59_15_cif.got.tgz:28944.got - 2010.06.03 14:40:33.
