data_PCOD9447442
_publ_section_title
;
Structure prediction by ZEFSAII (Michael W. Deem and Ramdas Pophale) SiO2 
 PCOD9447442
Probable space group: P M M N
;
_chemical_formula_sum "Si O2"
_cell_formula_units_Z 40
_cell_length_a 18.919795
_cell_length_b 7.520750
_cell_length_c 14.176574
_cell_angle_alpha 90.000000
_cell_angle_beta 90.000000
_cell_angle_gamma 90.000000
_cell_volume 2017.199575
_symmetry_space_group_name_H-M "P M M N"
_symmetry_group_IT_number 59
_space_group.IT_coordinate_system_code '2'
_symmetry_cell_setting 'orthorhombic'
loop_
_space_group_symop_operation_xyz
x,y,z
1/2-x,1/2-y,z
1/2+x,-y,-z
-x,1/2+y,-z
-x,-y,-z
1/2+x,1/2+y,-z
1/2-x,y,z
x,1/2-y,z
loop_
_atom_site_type_symbol
_atom_site_label
_atom_site_fract_x
_atom_site_fract_y
_atom_site_fract_z
Si Si1 0.170401 0.461364 0.079895
Si Si2 0.955466 0.036171 0.792286
Si Si3 0.170773 0.033306 0.696085
Si Si4 0.028853 0.462767 0.603274
Si Si5 0.403967 0.033456 0.890861
O O1 0.250000 0.532181 0.087859
O O2 0.176147 0.250000 0.065322
O O3 0.121212 0.487344 0.170453
O O4 0.128634 0.532740 0.988376
O O5 0.958645 0.250000 0.791255
O O6 0.978512 0.972431 0.688480
O O7 0.016718 0.973788 0.864925
O O8 0.250000 0.970476 0.676482
O O9 0.172401 0.250000 0.693348
O O10 0.145147 0.985659 0.801602
O O11 0.108432 0.973181 0.625980
O O12 0.031490 0.250000 0.612620
O O13 0.000000 0.500000 0.500000
O O14 0.405777 0.250000 0.894045
#
# Coordination Sequence:
#
# PCOD9447442 Si02
#       5
#     8   8   8   8   8
#     4  10  19  29  44  69  97 123 153 188 223 259
#     4   9  18  32  48  66  90 122 156 185 222 277
#     4   8  13  24  45  71  93 112 141 185 231 270
#     4   9  18  32  50  70  90 116 151 188 228 273
#     4   8  14  26  45  68  93 119 148 184 225 269
#
# _framework density 19.829471000000002
#
# number of rings (size 3 to 8) (size 9 to 14) (size 15 to 20)
#    0.000    3.200    0.000    3.600    0.000    3.600 
#    0.000    1.000    0.000    5.400    0.000    0.000 
#    0.000    0.000    0.000    0.000    0.000    0.000 
#
# Total GULP energy -223062.923243 kJ/mol
# GULP energy per Si atom -5576.573081 kJ/mol
# Density = 1.978434 g / cm^3
# Si number density = 19.829471 Si / 1000 Ang^3
#
#
#
# Elastic Constant Matrix: (Units=GPa)
#
#
# Indices 1 2 3 4 5 6 
#
# 1 151.2481 -0.0060 89.9966 0.0000 0.0000 0.0000
# 2 -0.0060 48.1320 -2.0367 0.0000 0.0000 0.0000
# 3 89.9966 -2.0367 116.7819 0.0000 0.0000 0.0000
# 4 0.0000 0.0000 0.0000 13.8113 0.0000 0.0000
# 5 0.0000 0.0000 0.0000 0.0000 19.0708 0.0000
# 6 0.0000 0.0000 0.0000 0.0000 0.0000 12.2361
#
#
#
# Elastic Compliance Matrix: (Units=1/GPa)
#
#
# Indices 1 2 3 4 5 6 
#
# 1 0.012219 -0.000397 -0.009423 0.000000 0.000000 0.000000
# 2 -0.000397 0.020804 0.000669 0.000000 0.000000 0.000000
# 3 -0.009423 0.000669 0.015836 0.000000 0.000000 0.000000
# 4 0.000000 0.000000 0.000000 0.072404 0.000000 0.000000
# 5 0.000000 0.000000 0.000000 0.000000 0.052436 0.000000
# 6 0.000000 0.000000 0.000000 0.000000 0.000000 0.081725
#
#
# Mechanical properties :
#
#
# Convention : Reuss Voigt Hill
#
# Bulk Modulus (GPa) = 32.72592 54.67443 43.70018
# Shear Modulus (GPa) = 17.61100 24.23751 20.92426
#
# Velocity S-wave (km/s) = 2.98337 3.49993 3.25192
# Velocity P-wave (km/s) = 5.32981 6.63060 6.01547
#
# Compressibility (1/GPa) = 0.03055682
#
# Stress axis : x y z
#
# Youngs Moduli (GPa) = 81.84237 48.06661 63.14562
#
# Poissons Ratio (x) = 0.01909 0.59502
# Poissons Ratio (y) = 0.03251 -0.04224
# Poissons Ratio (z) = 0.77121 -0.03215
#
# Static dielectric constant tensor:
#      x y z
#    x 1.707250 0.000000 0.000000 
#    y 0.000000 1.777070 0.000000 
#    z 0.000000 0.000000 1.678110 
# 
# From -- ./inp_files/14071.got.cif
#   From: 2010.05.17/outbox.cif.g08.bks.cpg/sg59_8_cif.got.tgz:14071.got - 2010.06.03 14:40:33.
