data_PCOD9447743
_publ_section_title
;
Structure prediction by ZEFSAII (Michael W. Deem and Ramdas Pophale) SiO2 
 PCOD9447743
Probable space group: P M M N
;
_chemical_formula_sum "Si O2"
_cell_formula_units_Z 64
_cell_length_a 20.234360
_cell_length_b 7.467619
_cell_length_c 21.073210
_cell_angle_alpha 90.000000
_cell_angle_beta 90.000000
_cell_angle_gamma 90.000000
_cell_volume 3184.214528
_symmetry_space_group_name_H-M "P M M N"
_symmetry_group_IT_number 59
_space_group.IT_coordinate_system_code '2'
_symmetry_cell_setting 'orthorhombic'
loop_
_space_group_symop_operation_xyz
x,y,z
1/2-x,1/2-y,z
1/2+x,-y,-z
-x,1/2+y,-z
-x,-y,-z
1/2+x,1/2+y,-z
1/2-x,y,z
x,1/2-y,z
loop_
_atom_site_type_symbol
_atom_site_label
_atom_site_fract_x
_atom_site_fract_y
_atom_site_fract_z
Si Si1 0.953552 0.037479 0.092842
Si Si2 0.405834 0.034793 0.039199
Si Si3 0.826536 0.530536 0.610492
Si Si4 0.324118 0.031393 0.156297
Si Si5 0.330339 0.043765 0.528789
Si Si6 0.583357 0.968673 0.727512
Si Si7 0.175202 0.464278 0.665955
Si Si8 0.061123 0.535089 0.765045
O O1 0.962450 0.250000 0.099788
O O2 0.934769 0.968087 0.162254
O O3 0.024248 0.966344 0.067749
O O4 0.903148 0.010806 0.034872
O O5 0.407329 0.250000 0.042238
O O6 0.348988 0.974272 0.086943
O O7 0.750000 0.478437 0.622748
O O8 0.826260 0.750000 0.609165
O O9 0.847361 0.466865 0.540122
O O10 0.876267 0.473546 0.665506
O O11 0.250000 0.971828 0.170346
O O12 0.323717 0.250000 0.157092
O O13 0.376019 0.976473 0.209951
O O14 0.250000 0.045810 0.529715
O O15 0.353617 0.250000 0.527689
O O16 0.349077 0.964482 0.597111
O O17 0.583164 0.750000 0.726629
O O18 0.507712 0.028665 0.734003
O O19 0.250000 0.529933 0.678680
O O20 0.179961 0.250000 0.658045
O O21 0.124044 0.495801 0.721907
O O22 0.056543 0.750000 0.767949
#
# Coordination Sequence:
#
# PCOD9447743 Si02
#       8
#     8   8   8   8   8   8   8   8
#     4   9  17  30  46  63  87 119 150 182 222 267
#     4   9  16  28  46  67  88 113 151 191 221 257
#     4   8  12  19  36  63  92 122 155 187 220 261
#     4   9  15  24  41  65  93 122 150 184 225 264
#     4   7  11  22  40  61  85 114 149 188 227 266
#     4   9  15  24  38  62  96 127 151 179 219 268
#     4   9  18  33  51  68  87 114 151 195 237 274
#     4  10  19  31  47  68  96 124 149 183 227 276
#
# _framework density 20.099149000000001
#
# number of rings (size 3 to 8) (size 9 to 14) (size 15 to 20)
#    0.000    3.250    1.250    1.875    0.000    2.250 
#    0.000    1.250    0.000    2.625    0.000    0.000 
#    0.000    2.500    0.000    0.250    0.000    0.000 
#
# Total GULP energy -356643.722404 kJ/mol
# GULP energy per Si atom -5572.558163 kJ/mol
# Density = 2.005340 g / cm^3
# Si number density = 20.099149 Si / 1000 Ang^3
#
#
#
# Elastic Constant Matrix: (Units=GPa)
#
#
# Indices 1 2 3 4 5 6 
#
# 1 104.9811 1.7894 87.9428 0.0000 0.0000 0.0000
# 2 1.7894 56.8407 4.6389 0.0000 0.0000 0.0000
# 3 87.9428 4.6389 202.1923 0.0000 0.0000 0.0000
# 4 0.0000 0.0000 0.0000 -16.1572 0.0000 0.0000
# 5 0.0000 0.0000 0.0000 0.0000 29.9465 0.0000
# 6 0.0000 0.0000 0.0000 0.0000 0.0000 3.1780
#
#
#
# Elastic Compliance Matrix: (Units=1/GPa)
#
#
# Indices 1 2 3 4 5 6 
#
# 1 0.014986 0.000060 -0.006519 0.000000 0.000000 0.000000
# 2 0.000060 0.017626 -0.000431 0.000000 0.000000 0.000000
# 3 -0.006519 -0.000431 0.007791 0.000000 0.000000 0.000000
# 4 0.000000 0.000000 0.000000 -0.061892 0.000000 0.000000
# 5 0.000000 0.000000 0.000000 0.000000 0.033393 0.000000
# 6 0.000000 0.000000 0.000000 0.000000 0.000000 0.314665
#
#
# Mechanical properties :
#
#
# Convention : Reuss Voigt Hill
#
# Bulk Modulus (GPa) = 37.56027 61.41735 49.48881
# Shear Modulus (GPa) = 14.31746 21.36964 17.84355
#
# Velocity S-wave (km/s) = 2.67187 3.26423 2.98279
# Velocity P-wave (km/s) = 5.31475 6.69555 6.04471
#
# Compressibility (1/GPa) = 0.02662388
#
# Stress axis : x y z
#
# Youngs Moduli (GPa) = 66.72980 56.73350 128.34895
#
# Poissons Ratio (x) = -0.00342 0.83676
# Poissons Ratio (y) = -0.00402 0.05527
# Poissons Ratio (z) = 0.43504 0.02443
#
# Static dielectric constant tensor:
#      x y z
#    x 1.674110 0.000000 0.000000 
#    y 0.000000 1.800570 0.000000 
#    z 0.000000 0.000000 1.741240 
# 
# From -- ./inp_files/27972.got.cif
#   From: 2010.05.17/outbox.cif.g08.bks.cpg/sg59_14_cif.got.tgz:27972.got - 2010.06.03 14:40:33.
