data_PCOD9447424
_publ_section_title
;
Structure prediction by ZEFSAII (Michael W. Deem and Ramdas Pophale) SiO2 
 PCOD9447424
Probable space group: P M M N
;
_chemical_formula_sum "Si O2"
_cell_formula_units_Z 48
_cell_length_a 14.330181
_cell_length_b 7.667545
_cell_length_c 24.565746
_cell_angle_alpha 90.000000
_cell_angle_beta 90.000000
_cell_angle_gamma 90.000000
_cell_volume 2699.218032
_symmetry_space_group_name_H-M "P M M N"
_symmetry_group_IT_number 59
_space_group.IT_coordinate_system_code '2'
_symmetry_cell_setting 'orthorhombic'
loop_
_space_group_symop_operation_xyz
x,y,z
1/2-x,1/2-y,z
1/2+x,-y,-z
-x,1/2+y,-z
-x,-y,-z
1/2+x,1/2+y,-z
1/2-x,y,z
x,1/2-y,z
loop_
_atom_site_type_symbol
_atom_site_label
_atom_site_fract_x
_atom_site_fract_y
_atom_site_fract_z
Si Si1 0.852781 0.045688 0.029254
Si Si2 0.142256 0.963038 0.309330
Si Si3 0.455753 0.455789 0.077012
Si Si4 0.856789 0.460434 0.813162
Si Si5 0.145094 0.460207 0.523392
Si Si6 0.035211 0.959442 0.414509
O O1 0.750000 0.968417 0.037871
O O2 0.847050 0.250000 0.043426
O O3 0.941303 0.972522 0.062479
O O4 0.882432 0.033607 0.965977
O O5 0.250000 0.013959 0.319611
O O6 0.140901 0.750000 0.309903
O O7 0.117003 0.017891 0.247947
O O8 0.075169 0.025550 0.357374
O O9 0.456915 0.250000 0.065450
O O10 0.423579 0.483004 0.138411
O O11 0.750000 0.518856 0.823655
O O12 0.855762 0.250000 0.812865
O O13 0.250000 0.525928 0.532007
O O14 0.147343 0.250000 0.527843
O O15 0.107792 0.502584 0.463071
O O16 0.065451 0.525686 0.564955
O O17 0.027893 0.750000 0.410134
#
# Coordination Sequence:
#
# PCOD9447424 Si02
#       6
#     8   8   8   8   8   8
#     4   9  18  32  47  62  84 115 143 165 199 248
#     4   8  14  25  42  62  80 103 140 177 202 234
#     4  10  19  29  44  67  89 108 136 174 208 239
#     4   9  17  29  44  61  84 114 141 166 204 251
#     4   9  17  27  39  60  89 113 132 164 213 256
#     4   9  16  27  44  62  80 108 144 174 200 240
#
# _framework density 17.782927999999998
#
# number of rings (size 3 to 8) (size 9 to 14) (size 15 to 20)
#    0.000    3.000    0.000    2.500    0.000    4.333 
#    0.000    0.833    0.000    2.000    0.000    2.333 
#    0.000    0.000    0.000    0.000    0.000    0.000 
#
# Total GULP energy -267508.544858 kJ/mol
# GULP energy per Si atom -5573.094685 kJ/mol
# Density = 1.774245 g / cm^3
# Si number density = 17.782928 Si / 1000 Ang^3
#
#
#
# Elastic Constant Matrix: (Units=GPa)
#
#
# Indices 1 2 3 4 5 6 
#
# 1 138.7483 2.4785 82.8345 0.0000 0.0000 0.0000
# 2 2.4785 31.4498 -4.3412 0.0000 0.0000 0.0000
# 3 82.8345 -4.3412 136.7711 0.0000 0.0000 0.0000
# 4 0.0000 0.0000 0.0000 17.0399 0.0000 0.0000
# 5 0.0000 0.0000 0.0000 0.0000 22.4533 0.0000
# 6 0.0000 0.0000 0.0000 0.0000 0.0000 8.6372
#
#
#
# Elastic Compliance Matrix: (Units=1/GPa)
#
#
# Indices 1 2 3 4 5 6 
#
# 1 0.011396 -0.001859 -0.006961 0.000000 0.000000 0.000000
# 2 -0.001859 0.032240 0.002149 0.000000 0.000000 0.000000
# 3 -0.006961 0.002149 0.011596 0.000000 0.000000 0.000000
# 4 0.000000 0.000000 0.000000 0.058686 0.000000 0.000000
# 5 0.000000 0.000000 0.000000 0.000000 0.044537 0.000000
# 6 0.000000 0.000000 0.000000 0.000000 0.000000 0.115779
#
#
# Mechanical properties :
#
#
# Convention : Reuss Voigt Hill
#
# Bulk Modulus (GPa) = 23.87200 52.10141 37.98671
# Shear Modulus (GPa) = 16.58162 24.69256 20.63709
#
# Velocity S-wave (km/s) = 3.05691 3.73037 3.41031
# Velocity P-wave (km/s) = 5.09047 6.92217 6.07574
#
# Compressibility (1/GPa) = 0.04189008
#
# Stress axis : x y z
#
# Youngs Moduli (GPa) = 87.74695 31.01746 86.23896
#
# Poissons Ratio (x) = 0.05766 0.60032
# Poissons Ratio (y) = 0.16312 -0.18535
# Poissons Ratio (z) = 0.61082 -0.06666
#
# Static dielectric constant tensor:
#      x y z
#    x 1.628310 0.000000 0.000000 
#    y 0.000000 1.667470 0.000000 
#    z 0.000000 0.000000 1.587100 
# 
# From -- ./inp_files/28822.got.cif
#   From: 2010.05.17/outbox.cif.g08.bks.cpg/sg59_15_cif.got.tgz:28822.got - 2010.06.03 14:40:33.
