data_PCOD9447754
_publ_section_title
;
Structure prediction by ZEFSAII (Michael W. Deem and Ramdas Pophale) SiO2 
 PCOD9447754
Probable space group: P M M N
;
_chemical_formula_sum "Si O2"
_cell_formula_units_Z 48
_cell_length_a 7.699169
_cell_length_b 26.460384
_cell_length_c 12.110417
_cell_angle_alpha 90.000000
_cell_angle_beta 90.000000
_cell_angle_gamma 90.000000
_cell_volume 2467.170098
_symmetry_space_group_name_H-M "P M M N"
_symmetry_group_IT_number 59
_space_group.IT_coordinate_system_code '2'
_symmetry_cell_setting 'orthorhombic'
loop_
_space_group_symop_operation_xyz
x,y,z
1/2-x,1/2-y,z
1/2+x,-y,-z
-x,1/2+y,-z
-x,-y,-z
1/2+x,1/2+y,-z
1/2-x,y,z
x,1/2-y,z
loop_
_atom_site_type_symbol
_atom_site_label
_atom_site_fract_x
_atom_site_fract_y
_atom_site_fract_z
Si Si1 0.456780 0.440353 0.501106
Si Si2 0.041664 0.806949 0.128985
Si Si3 0.543376 0.096917 0.741803
Si Si4 0.963121 0.901588 0.734796
Si Si5 0.040552 0.307210 0.124257
Si Si6 0.041329 0.000884 0.128564
O O1 0.500000 0.500000 0.500000
O O2 0.250000 0.436779 0.499840
O O3 0.518629 0.414103 0.613061
O O4 0.521882 0.413621 0.389421
O O5 0.250000 0.804194 0.141864
O O6 0.972388 0.750000 0.146740
O O7 0.973633 0.850256 0.210621
O O8 0.005967 0.821243 0.001639
O O9 0.750000 0.098075 0.762155
O O10 0.472535 0.048912 0.809714
O O11 0.750000 0.901048 0.734204
O O12 0.021208 0.849152 0.789377
O O13 0.020077 0.948225 0.811714
O O14 0.250000 0.306085 0.130315
O O15 0.976549 0.250000 0.144217
O O16 0.250000 0.000775 0.140620
O O17 0.000000 0.000000 0.000000
#
# Coordination Sequence:
#
# PCOD9447754 Si02
#       6
#     8   8   8   8   8   8
#     4  11  21  36  55  74 100 137 176 213 258 310
#     4   9  18  33  53  76 105 138 168 206 257 305
#     4  10  20  35  52  73 103 136 172 212 256 304
#     4   9  18  33  50  70 101 132 161 204 255 297
#     4   9  17  31  53  77 101 132 168 205 249 304
#     4  10  19  31  47  70 100 129 159 204 254 301
#
# _framework density 19.455490000000001
#
# number of rings (size 3 to 8) (size 9 to 14) (size 15 to 20)
#    0.000    2.333    1.667    1.500    0.000    1.333 
#    0.000    2.500    0.000    1.000    0.000    0.000 
#    0.000    0.000    0.000    0.000    0.000    0.000 
#
# Total GULP energy -267910.443639 kJ/mol
# GULP energy per Si atom -5581.467576 kJ/mol
# Density = 1.941121 g / cm^3
# Si number density = 19.455490 Si / 1000 Ang^3
#
#
#
# Elastic Constant Matrix: (Units=GPa)
#
#
# Indices 1 2 3 4 5 6 
#
# 1 27.7459 4.7577 -12.8523 0.0000 0.0000 0.0000
# 2 4.7577 166.3512 120.7813 0.0000 0.0000 0.0000
# 3 -12.8523 120.7813 177.2498 0.0000 0.0000 0.0000
# 4 0.0000 0.0000 0.0000 25.2189 0.0000 0.0000
# 5 0.0000 0.0000 0.0000 0.0000 25.4660 0.0000
# 6 0.0000 0.0000 0.0000 0.0000 0.0000 1.2076
#
#
#
# Elastic Compliance Matrix: (Units=1/GPa)
#
#
# Indices 1 2 3 4 5 6 
#
# 1 0.040583 -0.006526 0.007390 0.000000 0.000000 0.000000
# 2 -0.006526 0.012947 -0.009296 0.000000 0.000000 0.000000
# 3 0.007390 -0.009296 0.012512 0.000000 0.000000 0.000000
# 4 0.000000 0.000000 0.000000 0.039653 0.000000 0.000000
# 5 0.000000 0.000000 0.000000 0.000000 0.039268 0.000000
# 6 0.000000 0.000000 0.000000 0.000000 0.000000 0.828118
#
#
# Mechanical properties :
#
#
# Convention : Reuss Voigt Hill
#
# Bulk Modulus (GPa) = 20.33417 66.30226 43.31821
# Shear Modulus (GPa) = 4.96851 27.62251 16.29551
#
# Velocity S-wave (km/s) = 1.59979 3.77208 2.89724
# Velocity P-wave (km/s) = 3.72649 7.28865 5.78840
#
# Compressibility (1/GPa) = 0.04917831
#
# Stress axis : x y z
#
# Youngs Moduli (GPa) = 24.64061 77.23626 79.92428
#
# Poissons Ratio (x) = 0.50405 -0.59061
# Poissons Ratio (y) = 0.16081 0.74295
# Poissons Ratio (z) = -0.18208 0.71797
#
# Static dielectric constant tensor:
#      x y z
#    x 1.721170 0.000000 0.000000 
#    y 0.000000 1.686830 0.000000 
#    z 0.000000 0.000000 1.633630 
# 
# From -- ./inp_files/7710.got.cif
#   From: 2010.05.17/outbox.cif.g08.bks.cpg/sg59_4_cif.got.tgz:7710.got - 2010.06.03 14:40:33.
