data_PCOD9447597
_publ_section_title
;
Structure prediction by ZEFSAII (Michael W. Deem and Ramdas Pophale) SiO2 
 PCOD9447597
Probable space group: P M M N
;
_chemical_formula_sum "Si O2"
_cell_formula_units_Z 64
_cell_length_a 15.222011
_cell_length_b 7.985231
_cell_length_c 28.748382
_cell_angle_alpha 90.000000
_cell_angle_beta 90.000000
_cell_angle_gamma 90.000000
_cell_volume 3494.402461
_symmetry_space_group_name_H-M "P M M N"
_symmetry_group_IT_number 59
_space_group.IT_coordinate_system_code '2'
_symmetry_cell_setting 'orthorhombic'
loop_
_space_group_symop_operation_xyz
x,y,z
1/2-x,1/2-y,z
1/2+x,-y,-z
-x,1/2+y,-z
-x,-y,-z
1/2+x,1/2+y,-z
1/2-x,y,z
x,1/2-y,z
loop_
_atom_site_type_symbol
_atom_site_label
_atom_site_fract_x
_atom_site_fract_y
_atom_site_fract_z
Si Si1 0.151706 0.450188 0.076696
Si Si2 0.348645 0.951174 0.424762
Si Si3 0.348896 0.451876 0.803030
Si Si4 0.350842 0.952450 0.971321
Si Si5 0.027949 0.548354 0.886782
Si Si6 0.149107 0.954283 0.530238
Si Si7 0.027734 0.551373 0.613458
Si Si8 0.651307 0.548308 0.303063
O O1 0.250000 0.519680 0.084666
O O2 0.156760 0.250000 0.083050
O O3 0.127925 0.482419 0.022742
O O4 0.071787 0.514840 0.108054
O O5 0.250000 0.010907 0.413023
O O6 0.345053 0.750000 0.426657
O O7 0.370271 0.010401 0.477475
O O8 0.426912 0.998268 0.390679
O O9 0.250000 0.509233 0.816330
O O10 0.347372 0.250000 0.802555
O O11 0.421121 0.506055 0.839858
O O12 0.365743 0.508358 0.749961
O O13 0.250000 0.001268 0.960830
O O14 0.354281 0.750000 0.972865
O O15 0.415288 0.013017 0.930965
O O16 0.025191 0.750000 0.890271
O O17 0.250000 0.001051 0.541238
O O18 0.146281 0.750000 0.530146
O O19 0.082163 0.018142 0.569042
O O20 0.030080 0.750000 0.609752
O O21 0.078675 0.503521 0.660085
O O22 0.750000 0.489957 0.316507
O O23 0.653507 0.750000 0.302284
#
# Coordination Sequence:
#
# PCOD9447597 Si02
#       8
#     8   8   8   8   8   8   8   8
#     4   9  18  31  45  64  93 128 163 195 226 266
#     4   9  18  33  50  66  92 134 174 203 235 278
#     4   9  19  35  53  73  96 121 151 190 234 280
#     4   9  17  28  42  64  94 124 155 193 235 278
#     4  10  19  30  47  70  95 124 157 194 238 283
#     4   8  15  28  45  68  99 131 162 196 235 282
#     4  11  20  29  48  76 102 127 158 200 245 287
#     4   9  19  36  54  72  97 126 155 190 234 288
#
# _framework density 18.315006
#
# number of rings (size 3 to 8) (size 9 to 14) (size 15 to 20)
#    0.000    2.750    0.000    3.375    0.000    3.250 
#    0.000    3.125    0.000    2.250    0.000    3.500 
#    0.000    0.000    0.000    0.000    0.000    0.000 
#
# Total GULP energy -356945.317638 kJ/mol
# GULP energy per Si atom -5577.270588 kJ/mol
# Density = 1.827332 g / cm^3
# Si number density = 18.315006 Si / 1000 Ang^3
#
#
#
# Elastic Constant Matrix: (Units=GPa)
#
#
# Indices 1 2 3 4 5 6 
#
# 1 156.4086 13.5386 105.6755 0.0000 0.0000 0.0000
# 2 13.5386 12.1965 6.0175 0.0000 0.0000 0.0000
# 3 105.6755 6.0175 97.4234 0.0000 0.0000 0.0000
# 4 0.0000 0.0000 0.0000 18.8628 0.0000 0.0000
# 5 0.0000 0.0000 0.0000 0.0000 31.7453 0.0000
# 6 0.0000 0.0000 0.0000 0.0000 0.0000 14.5808
#
#
#
# Elastic Compliance Matrix: (Units=1/GPa)
#
#
# Indices 1 2 3 4 5 6 
#
# 1 0.026578 -0.015759 -0.027856 0.000000 0.000000 0.000000
# 2 -0.015759 0.093912 0.011294 0.000000 0.000000 0.000000
# 3 -0.027856 0.011294 0.039783 0.000000 0.000000 0.000000
# 4 0.000000 0.000000 0.000000 0.053014 0.000000 0.000000
# 5 0.000000 0.000000 0.000000 0.000000 0.031501 0.000000
# 6 0.000000 0.000000 0.000000 0.000000 0.000000 0.068583
#
#
# Mechanical properties :
#
#
# Convention : Reuss Voigt Hill
#
# Bulk Modulus (GPa) = 10.45707 57.38797 33.92252
# Shear Modulus (GPa) = 12.19835 22.42426 17.31130
#
# Velocity S-wave (km/s) = 2.58356 3.50289 3.07774
# Velocity P-wave (km/s) = 3.82383 6.91102 5.58497
#
# Compressibility (1/GPa) = 0.09562909
#
# Stress axis : x y z
#
# Youngs Moduli (GPa) = 37.62469 10.64826 25.13663
#
# Poissons Ratio (x) = 0.16781 0.70021
# Poissons Ratio (y) = 0.59294 -0.28388
# Poissons Ratio (z) = 1.04808 -0.12026
#
# Static dielectric constant tensor:
#      x y z
#    x 1.663150 0.000000 0.000000 
#    y 0.000000 1.647160 0.000000 
#    z 0.000000 0.000000 1.610520 
# 
# From -- ./inp_files/33308.got.cif
#   From: 2010.05.17/outbox.cif.g08.bks.cpg/sg59_17_cif.got.tgz:33308.got - 2010.06.03 14:40:33.
