data_PCOD9447224
_publ_section_title
;
Structure prediction by ZEFSAII (Michael W. Deem and Ramdas Pophale) SiO2 
 PCOD9447224
Probable space group: P M M N
;
_chemical_formula_sum "Si O2"
_cell_formula_units_Z 64
_cell_length_a 16.097991
_cell_length_b 7.691612
_cell_length_c 24.496656
_cell_angle_alpha 90.000000
_cell_angle_beta 90.000000
_cell_angle_gamma 90.000000
_cell_volume 3033.163716
_symmetry_space_group_name_H-M "P M M N"
_symmetry_group_IT_number 59
_space_group.IT_coordinate_system_code '2'
_symmetry_cell_setting 'orthorhombic'
loop_
_space_group_symop_operation_xyz
x,y,z
1/2-x,1/2-y,z
1/2+x,-y,-z
-x,1/2+y,-z
-x,-y,-z
1/2+x,1/2+y,-z
1/2-x,y,z
x,1/2-y,z
loop_
_atom_site_type_symbol
_atom_site_label
_atom_site_fract_x
_atom_site_fract_y
_atom_site_fract_z
Si Si1 0.159551 0.546434 0.873494
Si Si2 0.157780 0.041804 0.364626
Si Si3 0.084726 0.038823 0.249749
Si Si4 0.499387 0.044292 0.563542
Si Si5 0.890931 0.546839 0.246339
Si Si6 0.498550 0.040690 0.063633
Si Si7 0.157343 0.037520 0.133495
Si Si8 0.842420 0.536984 0.366746
O O1 0.250000 0.468828 0.885937
O O2 0.162984 0.750000 0.888157
O O3 0.143170 0.536525 0.808757
O O4 0.080469 0.471623 0.905444
O O5 0.250000 0.976041 0.378868
O O6 0.163389 0.250000 0.360196
O O7 0.128528 0.977443 0.305144
O O8 0.085149 0.006884 0.407544
O O9 0.082041 0.250000 0.250476
O O10 0.132833 0.986748 0.195076
O O11 0.990253 0.975136 0.247659
O O12 0.493409 0.250000 0.568284
O O13 0.418669 0.973494 0.595923
O O14 0.500000 0.000000 0.500000
O O15 0.869659 0.750000 0.242980
O O16 0.856604 0.480203 0.304112
O O17 0.498304 0.250000 0.070184
O O18 0.414898 0.976792 0.093027
O O19 0.500000 0.000000 0.000000
O O20 0.250000 0.978950 0.119426
O O21 0.157787 0.250000 0.132512
O O22 0.750000 0.485795 0.385281
O O23 0.844621 0.750000 0.366451
#
# Coordination Sequence:
#
# PCOD9447224 Si02
#       8
#     8   8   8   8   8   8   8   8
#     4  10  21  38  58  81 111 148 186 225 276 334
#     4  10  21  37  60  89 118 151 190 233 285 345
#     4  10  18  33  58  85 115 147 183 227 278 338
#     4  11  23  40  60  83 113 152 196 243 288 335
#     4  11  20  33  57  87 117 146 181 226 280 339
#     4  10  21  37  55  78 107 144 186 230 275 325
#     4   9  17  32  56  82 107 139 180 225 272 324
#     4   9  19  36  57  81 111 147 183 224 281 339
#
# _framework density 21.100079999999998
#
# number of rings (size 3 to 8) (size 9 to 14) (size 15 to 20)
#    0.000    2.000    2.500    1.500    0.000    4.000 
#    0.000    1.250    0.000    5.250    0.000    0.000 
#    0.000    0.000    0.000    0.000    0.000    0.000 
#
# Total GULP energy -357529.347275 kJ/mol
# GULP energy per Si atom -5586.396051 kJ/mol
# Density = 2.105205 g / cm^3
# Si number density = 21.100080 Si / 1000 Ang^3
#
#
#
# Elastic Constant Matrix: (Units=GPa)
#
#
# Indices 1 2 3 4 5 6 
#
# 1 226.5921 3.0876 102.4552 0.0000 0.0000 0.0000
# 2 3.0876 34.3361 -4.8627 0.0000 0.0000 0.0000
# 3 102.4552 -4.8627 154.7844 0.0000 0.0000 0.0000
# 4 0.0000 0.0000 0.0000 19.5068 0.0000 0.0000
# 5 0.0000 0.0000 0.0000 0.0000 1.8706 0.0000
# 6 0.0000 0.0000 0.0000 0.0000 0.0000 9.9371
#
#
#
# Elastic Compliance Matrix: (Units=1/GPa)
#
#
# Indices 1 2 3 4 5 6 
#
# 1 0.006345 -0.001170 -0.004236 0.000000 0.000000 0.000000
# 2 -0.001170 0.029470 0.001701 0.000000 0.000000 0.000000
# 3 -0.004236 0.001701 0.009318 0.000000 0.000000 0.000000
# 4 0.000000 0.000000 0.000000 0.051264 0.000000 0.000000
# 5 0.000000 0.000000 0.000000 0.000000 0.534598 0.000000
# 6 0.000000 0.000000 0.000000 0.000000 0.000000 0.100632
#
#
# Mechanical properties :
#
#
# Convention : Reuss Voigt Hill
#
# Bulk Modulus (GPa) = 26.51101 68.56364 47.53733
# Shear Modulus (GPa) = 6.65236 27.26507 16.95871
#
# Velocity S-wave (km/s) = 1.77753 3.59859 2.83808
# Velocity P-wave (km/s) = 4.09933 7.05914 5.77217
#
# Compressibility (1/GPa) = 0.03772017
#
# Stress axis : x y z
#
# Youngs Moduli (GPa) = 157.61137 33.93285 107.31634
#
# Poissons Ratio (x) = 0.03972 0.45464
# Poissons Ratio (y) = 0.18448 -0.18250
# Poissons Ratio (z) = 0.66772 -0.05771
#
# Static dielectric constant tensor:
#      x y z
#    x 1.768490 0.000000 0.000000 
#    y 0.000000 1.844750 0.000000 
#    z 0.000000 0.000000 1.698050 
# 
# From -- ./inp_files/31444.got.cif
#   From: 2010.05.17/outbox.cif.g08.bks.cpg/sg59_16_cif.got.tgz:31444.got - 2010.06.03 14:40:33.
