data_PCOD9447889
_publ_section_title
;
Structure prediction by ZEFSAII (Michael W. Deem and Ramdas Pophale) SiO2 
 PCOD9447889
Probable space group: P M M N
;
_chemical_formula_sum "Si O2"
_cell_formula_units_Z 64
_cell_length_a 20.447662
_cell_length_b 8.577253
_cell_length_c 20.809222
_cell_angle_alpha 90.000000
_cell_angle_beta 90.000000
_cell_angle_gamma 90.000000
_cell_volume 3649.620619
_symmetry_space_group_name_H-M "P M M N"
_symmetry_group_IT_number 59
_space_group.IT_coordinate_system_code '2'
_symmetry_cell_setting 'orthorhombic'
loop_
_space_group_symop_operation_xyz
x,y,z
1/2-x,1/2-y,z
1/2+x,-y,-z
-x,1/2+y,-z
-x,-y,-z
1/2+x,1/2+y,-z
1/2-x,y,z
x,1/2-y,z
loop_
_atom_site_type_symbol
_atom_site_label
_atom_site_fract_x
_atom_site_fract_y
_atom_site_fract_z
Si Si1 0.175124 0.559952 0.927311
Si Si2 0.071800 0.938685 0.821098
Si Si3 0.324889 0.939985 0.073150
Si Si4 0.426725 0.562855 0.180860
Si Si5 0.424832 0.436698 0.322380
Si Si6 0.325236 0.436261 0.568830
Si Si7 0.075532 0.562269 0.674062
Si Si8 0.325480 0.563383 0.427846
O O1 0.250000 0.512040 0.914064
O O2 0.174603 0.750000 0.926525
O O3 0.124082 0.507209 0.873696
O O4 0.158103 0.511837 0.000218
O O5 0.068574 0.750000 0.822788
O O6 0.090406 0.982499 0.747989
O O7 0.999555 0.003011 0.833970
O O8 0.250000 0.987911 0.086329
O O9 0.325450 0.750000 0.073553
O O10 0.375546 0.992707 0.127036
O O11 0.426766 0.750000 0.181428
O O12 0.409009 0.503260 0.251933
O O13 0.423671 0.250000 0.318856
O O14 0.499889 0.483646 0.338146
O O15 0.374488 0.494668 0.375570
O O16 0.250000 0.483657 0.583324
O O17 0.327025 0.250000 0.563404
O O18 0.374596 0.490489 0.623674
O O19 0.342775 0.508120 0.499658
O O20 0.079454 0.750000 0.669584
O O21 0.250000 0.514083 0.415879
O O22 0.328031 0.750000 0.425200
#
# Coordination Sequence:
#
# PCOD9447889 Si02
#       8
#     8   8   8   8   8   8   8   8
#     4   8  14  27  48  72  97 128 168 211 252 295
#     4   9  18  32  50  73 100 129 165 209 252 297
#     4   8  15  28  46  70  99 129 165 209 251 294
#     4  10  19  31  49  73 101 133 167 205 252 304
#     4  10  21  37  55  76 103 134 170 212 254 297
#     4  10  21  36  54  77 104 134 168 206 249 297
#     4   9  19  34  51  73 101 133 169 209 253 300
#     4  10  21  37  57  80 105 134 168 205 247 298
#
# _framework density 17.536069999999999
#
# number of rings (size 3 to 8) (size 9 to 14) (size 15 to 20)
#    0.000    2.750    0.000    3.000    0.000    6.000 
#    0.000    2.500    0.000    2.250    0.000    3.500 
#    0.000    0.000    0.000    0.000    0.000    0.000 
#
# Total GULP energy -356907.536670 kJ/mol
# GULP energy per Si atom -5576.680260 kJ/mol
# Density = 1.749616 g / cm^3
# Si number density = 17.536070 Si / 1000 Ang^3
#
#
#
# Elastic Constant Matrix: (Units=GPa)
#
#
# Indices 1 2 3 4 5 6 
#
# 1 126.8581 29.9249 135.1884 0.0000 0.0000 0.0000
# 2 29.9249 22.6090 35.1620 0.0000 0.0000 0.0000
# 3 135.1884 35.1620 171.5084 0.0000 0.0000 0.0000
# 4 0.0000 0.0000 0.0000 19.7912 0.0000 0.0000
# 5 0.0000 0.0000 0.0000 0.0000 44.6006 0.0000
# 6 0.0000 0.0000 0.0000 0.0000 0.0000 24.2698
#
#
#
# Elastic Compliance Matrix: (Units=1/GPa)
#
#
# Indices 1 2 3 4 5 6 
#
# 1 0.050047 -0.007179 -0.037977 0.000000 0.000000 0.000000
# 2 -0.007179 0.065964 -0.007865 0.000000 0.000000 0.000000
# 3 -0.037977 -0.007865 0.037377 0.000000 0.000000 0.000000
# 4 0.000000 0.000000 0.000000 0.050527 0.000000 0.000000
# 5 0.000000 0.000000 0.000000 0.000000 0.022421 0.000000
# 6 0.000000 0.000000 0.000000 0.000000 0.000000 0.041204
#
#
# Mechanical properties :
#
#
# Convention : Reuss Voigt Hill
#
# Bulk Modulus (GPa) = 21.12067 80.16958 50.64513
# Shear Modulus (GPa) = 12.84147 25.77899 19.31023
#
# Velocity S-wave (km/s) = 2.70902 3.83829 3.32199
# Velocity P-wave (km/s) = 4.67497 8.09070 6.60738
#
# Compressibility (1/GPa) = 0.04734698
#
# Stress axis : x y z
#
# Youngs Moduli (GPa) = 19.98138 15.15979 26.75412
#
# Poissons Ratio (x) = 0.10883 1.01603
# Poissons Ratio (y) = 0.14344 0.21042
# Poissons Ratio (z) = 0.75882 0.11923
#
# Static dielectric constant tensor:
#      x y z
#    x 1.583890 0.000000 0.000000 
#    y 0.000000 1.597500 0.000000 
#    z 0.000000 0.000000 1.576080 
# 
# From -- ./inp_files/26259.got.cif
#   From: 2010.05.17/outbox.cif.g08.bks.cpg/sg59_14_cif.got.tgz:26259.got - 2010.06.03 14:40:33.
