data_PCOD9447768
_publ_section_title
;
Structure prediction by ZEFSAII (Michael W. Deem and Ramdas Pophale) SiO2 
 PCOD9447768
Probable space group: P M M N
;
_chemical_formula_sum "Si O2"
_cell_formula_units_Z 56
_cell_length_a 8.777207
_cell_length_b 14.686539
_cell_length_c 21.485192
_cell_angle_alpha 90.000000
_cell_angle_beta 90.000000
_cell_angle_gamma 90.000000
_cell_volume 2769.587196
_symmetry_space_group_name_H-M "P M M N"
_symmetry_group_IT_number 59
_space_group.IT_coordinate_system_code '2'
_symmetry_cell_setting 'orthorhombic'
loop_
_space_group_symop_operation_xyz
x,y,z
1/2-x,1/2-y,z
1/2+x,-y,-z
-x,1/2+y,-z
-x,-y,-z
1/2+x,1/2+y,-z
1/2-x,y,z
x,1/2-y,z
loop_
_atom_site_type_symbol
_atom_site_label
_atom_site_fract_x
_atom_site_fract_y
_atom_site_fract_z
Si Si1 0.078277 0.107790 0.350621
Si Si2 0.931844 0.467763 0.093650
Si Si3 0.069262 0.150408 0.731066
Si Si4 0.925779 0.854640 0.515861
Si Si5 0.933554 0.356226 0.968916
Si Si6 0.080115 0.600613 0.392201
Si Si7 0.066772 0.039727 0.225036
O O1 0.250000 0.146719 0.346985
O O2 0.006647 0.144428 0.414300
O O3 0.009951 0.105294 0.281502
O O4 0.090123 0.001269 0.366506
O O5 0.750000 0.472096 0.099427
O O6 0.993081 0.569153 0.077109
O O7 0.005117 0.434997 0.157765
O O8 0.969153 0.398700 0.037112
O O9 0.250000 0.140488 0.739105
O O10 0.021935 0.250000 0.755799
O O11 0.028813 0.148464 0.657551
O O12 0.987457 0.063840 0.761456
O O13 0.750000 0.888496 0.519290
O O14 0.920818 0.750000 0.495532
O O15 0.017730 0.903601 0.461928
O O16 0.750000 0.359116 0.961312
O O17 0.980988 0.250000 0.962592
O O18 0.250000 0.640450 0.391375
O O19 0.250000 0.041833 0.226917
#
# Coordination Sequence:
#
# PCOD9447768 Si02
#       7
#     8   8   8   8   8   8   8
#     4   8  17  33  49  67  91 123 164 203 242 293
#     4  10  20  35  57  85 115 145 179 220 263 308
#     4  10  20  33  49  71  99 130 168 214 262 313
#     4  10  19  31  48  68  91 120 157 205 256 301
#     4   9  19  37  60  85 114 148 183 218 258 305
#     4  10  19  31  48  68  93 125 160 203 255 312
#     4  10  20  35  54  74 101 138 175 210 252 305
#
# _framework density 20.219619999999999
#
# number of rings (size 3 to 8) (size 9 to 14) (size 15 to 20)
#    0.000    2.429    0.000    3.429    0.000    4.571 
#    0.000    4.286    0.000    0.857    0.000    0.000 
#    0.000    0.000    0.000    0.000    0.000    0.000 
#
# Total GULP energy -312095.530415 kJ/mol
# GULP energy per Si atom -5573.134472 kJ/mol
# Density = 2.017360 g / cm^3
# Si number density = 20.219620 Si / 1000 Ang^3
#
#
#
# Elastic Constant Matrix: (Units=GPa)
#
#
# Indices 1 2 3 4 5 6 
#
# 1 31.2910 1.8876 17.8179 0.0000 0.0000 0.0000
# 2 1.8876 45.7579 -14.5876 0.0000 0.0000 0.0000
# 3 17.8179 -14.5876 107.8557 0.0000 0.0000 0.0000
# 4 0.0000 0.0000 0.0000 11.8908 0.0000 0.0000
# 5 0.0000 0.0000 0.0000 0.0000 30.0828 0.0000
# 6 0.0000 0.0000 0.0000 0.0000 0.0000 9.0210
#
#
#
# Elastic Compliance Matrix: (Units=1/GPa)
#
#
# Indices 1 2 3 4 5 6 
#
# 1 0.035809 -0.003515 -0.006391 0.000000 0.000000 0.000000
# 2 -0.003515 0.023184 0.003716 0.000000 0.000000 0.000000
# 3 -0.006391 0.003716 0.010830 0.000000 0.000000 0.000000
# 4 0.000000 0.000000 0.000000 0.084098 0.000000 0.000000
# 5 0.000000 0.000000 0.000000 0.000000 0.033242 0.000000
# 6 0.000000 0.000000 0.000000 0.000000 0.000000 0.110853
#
#
# Mechanical properties :
#
#
# Convention : Reuss Voigt Hill
#
# Bulk Modulus (GPa) = 17.40818 21.68228 19.54523
# Shear Modulus (GPa) = 15.17252 22.18470 18.67861
#
# Velocity S-wave (km/s) = 2.74229 3.31597 3.04268
# Velocity P-wave (km/s) = 4.31916 5.04059 4.69376
#
# Compressibility (1/GPa) = 0.05744425
#
# Stress axis : x y z
#
# Youngs Moduli (GPa) = 27.92561 43.13342 92.33517
#
# Poissons Ratio (x) = 0.15160 0.59013
# Poissons Ratio (y) = 0.09815 -0.34314
# Poissons Ratio (z) = 0.17848 -0.16030
#
# Static dielectric constant tensor:
#      x y z
#    x 1.703340 0.000000 0.000000 
#    y 0.000000 1.737130 0.000000 
#    z 0.000000 0.000000 1.758320 
# 
# From -- ./inp_files/29072.got.cif
#   From: 2010.05.17/outbox.cif.g08.bks.cpg/sg59_15_cif.got.tgz:29072.got - 2010.06.03 14:40:33.
