data_PCOD9447142
_publ_section_title
;
Structure prediction by ZEFSAII (Michael W. Deem and Ramdas Pophale) SiO2 
 PCOD9447142
Probable space group: P M M N
;
_chemical_formula_sum "Si O2"
_cell_formula_units_Z 48
_cell_length_a 17.958627
_cell_length_b 7.415273
_cell_length_c 16.742183
_cell_angle_alpha 90.000000
_cell_angle_beta 90.000000
_cell_angle_gamma 90.000000
_cell_volume 2229.525067
_symmetry_space_group_name_H-M "P M M N"
_symmetry_group_IT_number 59
_space_group.IT_coordinate_system_code '2'
_symmetry_cell_setting 'orthorhombic'
loop_
_space_group_symop_operation_xyz
x,y,z
1/2-x,1/2-y,z
1/2+x,-y,-z
-x,1/2+y,-z
-x,-y,-z
1/2+x,1/2+y,-z
1/2-x,y,z
x,1/2-y,z
loop_
_atom_site_type_symbol
_atom_site_label
_atom_site_fract_x
_atom_site_fract_y
_atom_site_fract_z
Si Si1 0.052285 0.958244 0.125272
Si Si2 0.250000 0.042521 0.681721
Si Si3 0.401957 0.470639 0.601651
Si Si4 0.397258 0.969500 0.958042
Si Si5 0.547540 0.036567 0.696282
Si Si6 0.835651 0.966670 0.563798
Si Si7 0.750000 0.468147 0.133410
O O1 0.076303 0.750000 0.132850
O O2 0.054771 0.038449 0.213927
O O3 0.097555 0.034282 0.049655
O O4 0.967992 0.965600 0.092415
O O5 0.250000 0.250000 0.653736
O O6 0.172264 0.968462 0.648735
O O7 0.250000 0.034731 0.776512
O O8 0.404881 0.250000 0.602017
O O9 0.477053 0.534408 0.645149
O O10 0.386832 0.528324 0.510544
O O11 0.401099 0.750000 0.959197
O O12 0.322957 0.025556 0.913849
O O13 0.533223 0.250000 0.705674
O O14 0.622170 0.013595 0.645072
O O15 0.750000 0.031480 0.558087
O O16 0.832319 0.750000 0.558745
O O17 0.750000 0.250000 0.136672
#
# Coordination Sequence:
#
# PCOD9447142 Si02
#       7
#     8   4   8   8   8   8   4
#     4   9  18  34  53  76 101 131 171 212 251 297
#     4  10  18  32  56  79 102 134 170 213 256 298
#     4   9  17  32  54  77 102 133 169 209 256 306
#     4   9  18  33  52  72 102 138 167 203 254 306
#     4  10  20  33  52  80 105 129 171 218 254 297
#     4  10  20  36  54  72 100 139 175 206 252 310
#     4  10  20  32  46  73 106 134 164 201 252 310
#
# _framework density 21.529247000000002
#
# number of rings (size 3 to 8) (size 9 to 14) (size 15 to 20)
#    0.000    2.500    0.833    1.500    0.000    3.000 
#    1.500    1.667    0.000    0.000    0.000    0.000 
#    0.000    0.000    0.000    0.000    0.000    0.000 
#
# Total GULP energy -267962.642423 kJ/mol
# GULP energy per Si atom -5582.555050 kJ/mol
# Density = 2.148025 g / cm^3
# Si number density = 21.529247 Si / 1000 Ang^3
#
#
#
# Elastic Constant Matrix: (Units=GPa)
#
#
# Indices 1 2 3 4 5 6 
#
# 1 29.7759 -12.4110 34.9594 0.0000 0.0000 0.0000
# 2 -12.4110 68.1359 -5.1821 0.0000 0.0000 0.0000
# 3 34.9594 -5.1821 191.1111 0.0000 0.0000 0.0000
# 4 0.0000 0.0000 0.0000 -0.8877 0.0000 0.0000
# 5 0.0000 0.0000 0.0000 0.0000 36.4775 0.0000
# 6 0.0000 0.0000 0.0000 0.0000 0.0000 -1.3899
#
#
#
# Elastic Compliance Matrix: (Units=1/GPa)
#
#
# Indices 1 2 3 4 5 6 
#
# 1 0.046624 0.007860 -0.008316 0.000000 0.000000 0.000000
# 2 0.007860 0.016032 -0.001003 0.000000 0.000000 0.000000
# 3 -0.008316 -0.001003 0.006727 0.000000 0.000000 0.000000
# 4 0.000000 0.000000 0.000000 -1.126497 0.000000 0.000000
# 5 0.000000 0.000000 0.000000 0.000000 0.027414 0.000000
# 6 0.000000 0.000000 0.000000 0.000000 0.000000 -0.719462
#
#
# Mechanical properties :
#
#
# Convention : Reuss Voigt Hill
#
# Bulk Modulus (GPa) = 15.04554 35.97281 25.50918
# Shear Modulus (GPa) = -2.90008 24.95041 11.02517
#
# Velocity S-wave (km/s) = -1.16188 3.40797 2.26542
# Velocity P-wave (km/s) = 2.28115 5.67721 4.32634
#
# Compressibility (1/GPa) = 0.06646488
#
# Stress axis : x y z
#
# Youngs Moduli (GPa) = 21.44834 62.37534 148.66559
#
# Poissons Ratio (x) = -0.49027 1.23624
# Poissons Ratio (y) = -0.16859 0.14913
# Poissons Ratio (z) = 0.17836 0.06257
#
# Static dielectric constant tensor:
#      x y z
#    x 1.732790 0.000000 0.000000 
#    y 0.000000 1.827050 0.000000 
#    z 0.000000 0.000000 1.769860 
# 
# From -- ./inp_files/23698.got.cif
#   From: 2010.05.17/outbox.cif.g08.bks.cpg/sg59_12_cif.got.tgz:23698.got - 2010.06.03 14:40:33.
