data_PCOD9447300
_publ_section_title
;
Structure prediction by ZEFSAII (Michael W. Deem and Ramdas Pophale) SiO2 
 PCOD9447300
Probable space group: P M M N
;
_chemical_formula_sum "Si O2"
_cell_formula_units_Z 36
_cell_length_a 14.501201
_cell_length_b 21.662459
_cell_length_c 4.934194
_cell_angle_alpha 90.000000
_cell_angle_beta 90.000000
_cell_angle_gamma 90.000000
_cell_volume 1549.986612
_symmetry_space_group_name_H-M "P M M N"
_symmetry_group_IT_number 59
_space_group.IT_coordinate_system_code '2'
_symmetry_cell_setting 'orthorhombic'
loop_
_space_group_symop_operation_xyz
x,y,z
1/2-x,1/2-y,z
1/2+x,-y,-z
-x,1/2+y,-z
-x,-y,-z
1/2+x,1/2+y,-z
1/2-x,y,z
x,1/2-y,z
loop_
_atom_site_type_symbol
_atom_site_label
_atom_site_fract_x
_atom_site_fract_y
_atom_site_fract_z
Si Si1 0.850264 0.359918 0.318182
Si Si2 0.884809 0.441385 0.826616
Si Si3 0.411960 0.401488 0.803542
Si Si4 0.750000 0.530376 0.513342
Si Si5 0.446583 0.319731 0.295071
O O1 0.750000 0.330299 0.278289
O O2 0.857493 0.385065 0.623624
O O3 0.854815 0.420359 0.125404
O O4 0.942632 0.323132 0.247455
O O5 0.830664 0.499030 0.710191
O O6 0.995337 0.442702 0.814159
O O7 0.329446 0.439728 0.683534
O O8 0.399553 0.368084 0.091493
O O9 0.430386 0.345185 0.594951
O O10 0.414205 0.250000 0.259427
#
# Coordination Sequence:
#
# PCOD9447300 Si02
#       5
#     8   8   8   4   8
#     4  10  18  35  58  89 115 150 193 231 288 364
#     4  10  21  36  58  85 125 151 182 238 291 339
#     4  10  24  39  60  92 114 151 202 235 285 359
#     4  12  22  40  63  86 121 160 190 234 292 348
#     4  10  22  42  61  81 120 154 193 253 292 322
#
# _framework density 23.226006000000002
#
# number of rings (size 3 to 8) (size 9 to 14) (size 15 to 20)
#    0.000    1.778    2.222    1.333    0.000    4.889 
#    0.000   10.000    0.000    8.000    0.000    0.000 
#    0.000    0.000    0.000    0.000    0.000    0.000 
#
# Total GULP energy -200422.980914 kJ/mol
# GULP energy per Si atom -5567.305025 kJ/mol
# Density = 2.317314 g / cm^3
# Si number density = 23.226006 Si / 1000 Ang^3
#
#
#
# Elastic Constant Matrix: (Units=GPa)
#
#
# Indices 1 2 3 4 5 6 
#
# 1 85.0237 13.8268 -21.3342 0.0000 0.0000 0.0000
# 2 13.8268 94.5343 14.8355 0.0000 0.0000 0.0000
# 3 -21.3342 14.8355 65.3451 0.0000 0.0000 0.0000
# 4 0.0000 0.0000 0.0000 22.8567 0.0000 0.0000
# 5 0.0000 0.0000 0.0000 0.0000 -14.6769 0.0000
# 6 0.0000 0.0000 0.0000 0.0000 0.0000 -26.8559
#
#
#
# Elastic Compliance Matrix: (Units=1/GPa)
#
#
# Indices 1 2 3 4 5 6 
#
# 1 0.013471 -0.002759 0.005024 0.000000 0.000000 0.000000
# 2 -0.002759 0.011534 -0.003519 0.000000 0.000000 0.000000
# 3 0.005024 -0.003519 0.017743 0.000000 0.000000 0.000000
# 4 0.000000 0.000000 0.000000 0.043751 0.000000 0.000000
# 5 0.000000 0.000000 0.000000 0.000000 -0.068134 0.000000
# 6 0.000000 0.000000 0.000000 0.000000 0.000000 -0.037236
#
#
# Mechanical properties :
#
#
# Convention : Reuss Voigt Hill
#
# Bulk Modulus (GPa) = 24.85086 28.83993 26.84540
# Shear Modulus (GPa) = -1694.39323 12.10311 -841.14506
#
# Velocity S-wave (km/s) = -27.03901 2.28524 -19.05106
# Velocity P-wave (km/s) = 31.04976 4.40535 21.73339
#
# Compressibility (1/GPa) = 0.04024005
#
# Stress axis : x y z
#
# Youngs Moduli (GPa) = 74.23485 86.70054 56.36113
#
# Poissons Ratio (x) = 0.23918 -0.28318
# Poissons Ratio (y) = 0.20479 0.19835
# Poissons Ratio (z) = -0.37298 0.30512
#
# Static dielectric constant tensor:
#      x y z
#    x 1.867560 0.000000 0.000000 
#    y 0.000000 1.878900 0.000000 
#    z 0.000000 0.000000 1.838730 
# 
# From -- ./inp_files/1921.got.cif
#   From: 2010.05.17/outbox.cif.g08.bks.cpg/sg59_1_cif.got.tgz:1921.got - 2010.06.03 14:40:33.
