data_PCOD9447475
_publ_section_title
;
Structure prediction by ZEFSAII (Michael W. Deem and Ramdas Pophale) SiO2 
 PCOD9447475
Probable space group: P M M N
;
_chemical_formula_sum "Si O2"
_cell_formula_units_Z 48
_cell_length_a 18.664116
_cell_length_b 7.534682
_cell_length_c 17.205581
_cell_angle_alpha 90.000000
_cell_angle_beta 90.000000
_cell_angle_gamma 90.000000
_cell_volume 2419.589522
_symmetry_space_group_name_H-M "P M M N"
_symmetry_group_IT_number 59
_space_group.IT_coordinate_system_code '2'
_symmetry_cell_setting 'orthorhombic'
loop_
_space_group_symop_operation_xyz
x,y,z
1/2-x,1/2-y,z
1/2+x,-y,-z
-x,1/2+y,-z
-x,-y,-z
1/2+x,1/2+y,-z
1/2-x,y,z
x,1/2-y,z
loop_
_atom_site_type_symbol
_atom_site_label
_atom_site_fract_x
_atom_site_fract_y
_atom_site_fract_z
Si Si1 0.832535 0.032031 0.141304
Si Si2 0.556115 0.456397 0.265158
Si Si3 0.024121 0.036619 0.412997
Si Si4 0.915928 0.037512 0.988617
Si Si5 0.092604 0.536802 0.184104
Si Si6 0.670924 0.960866 0.659655
O O1 0.750000 0.979739 0.144576
O O2 0.835017 0.250000 0.141346
O O3 0.879001 0.968340 0.214825
O O4 0.870758 0.971165 0.061896
O O5 0.573686 0.250000 0.278465
O O6 0.531667 0.532994 0.348078
O O7 0.484563 0.466748 0.212433
O O8 0.026568 0.250000 0.403080
O O9 0.103521 0.969087 0.390167
O O10 0.000000 0.000000 0.500000
O O11 0.907214 0.250000 0.987955
O O12 0.892727 0.972908 0.903249
O O13 0.000000 0.000000 0.000000
O O14 0.087894 0.750000 0.183139
O O15 0.149270 0.485996 0.250185
O O16 0.750000 0.034730 0.643819
O O17 0.674040 0.750000 0.645430
#
# Coordination Sequence:
#
# PCOD9447475 Si02
#       6
#     8   8   8   8   8   8
#     4   9  17  30  49  71  95 128 169 209 245 284
#     4   9  17  32  52  70  93 130 170 204 241 299
#     4   9  18  32  52  77  99 124 161 201 243 297
#     4  10  19  30  48  72  99 134 171 207 246 295
#     4  10  19  29  47  76 102 129 165 207 251 294
#     4   9  19  36  55  74 100 135 171 205 247 303
#
# _framework density 19.838076000000001
#
# number of rings (size 3 to 8) (size 9 to 14) (size 15 to 20)
#    0.000    2.667    1.667    1.500    0.000    4.333 
#    0.000    2.500    0.000    3.000    0.000    0.000 
#    0.000    0.000    0.000    0.000    0.000    0.000 
#
# Total GULP energy -267714.081645 kJ/mol
# GULP energy per Si atom -5577.376701 kJ/mol
# Density = 1.979292 g / cm^3
# Si number density = 19.838076 Si / 1000 Ang^3
#
#
#
# Elastic Constant Matrix: (Units=GPa)
#
#
# Indices 1 2 3 4 5 6 
#
# 1 158.1031 -2.7652 108.5646 0.0000 0.0000 0.0000
# 2 -2.7652 47.0728 1.1942 0.0000 0.0000 0.0000
# 3 108.5646 1.1942 189.4609 0.0000 0.0000 0.0000
# 4 0.0000 0.0000 0.0000 14.4950 0.0000 0.0000
# 5 0.0000 0.0000 0.0000 0.0000 19.9360 0.0000
# 6 0.0000 0.0000 0.0000 0.0000 0.0000 7.7444
#
#
#
# Elastic Compliance Matrix: (Units=1/GPa)
#
#
# Indices 1 2 3 4 5 6 
#
# 1 0.010456 0.000766 -0.005996 0.000000 0.000000 0.000000
# 2 0.000766 0.021303 -0.000573 0.000000 0.000000 0.000000
# 3 -0.005996 -0.000573 0.008718 0.000000 0.000000 0.000000
# 4 0.000000 0.000000 0.000000 0.068989 0.000000 0.000000
# 5 0.000000 0.000000 0.000000 0.000000 0.050161 0.000000
# 6 0.000000 0.000000 0.000000 0.000000 0.000000 0.129126
#
#
# Mechanical properties :
#
#
# Convention : Reuss Voigt Hill
#
# Bulk Modulus (GPa) = 34.63779 67.62489 51.13134
# Shear Modulus (GPa) = 16.12993 27.61129 21.87061
#
# Velocity S-wave (km/s) = 2.85455 3.73477 3.32393
# Velocity P-wave (km/s) = 5.32567 7.26364 6.36880
#
# Compressibility (1/GPa) = 0.02887020
#
# Stress axis : x y z
#
# Youngs Moduli (GPa) = 95.64069 46.94119 114.70943
#
# Poissons Ratio (x) = -0.03597 0.68782
# Poissons Ratio (y) = -0.07329 0.06577
# Poissons Ratio (z) = 0.57348 0.02692
#
# Static dielectric constant tensor:
#      x y z
#    x 1.669730 0.000000 0.000000 
#    y 0.000000 1.753560 0.000000 
#    z 0.000000 0.000000 1.707000 
# 
# From -- ./inp_files/25746.got.cif
#   From: 2010.05.17/outbox.cif.g08.bks.cpg/sg59_13_cif.got.tgz:25746.got - 2010.06.03 14:40:33.
