data_PCOD9447855
_publ_section_title
;
Structure prediction by ZEFSAII (Michael W. Deem and Ramdas Pophale) SiO2 
 PCOD9447855
Probable space group: P M M N
;
_chemical_formula_sum "Si O2"
_cell_formula_units_Z 64
_cell_length_a 22.167383
_cell_length_b 8.696911
_cell_length_c 18.102905
_cell_angle_alpha 90.000000
_cell_angle_beta 90.000000
_cell_angle_gamma 90.000000
_cell_volume 3490.018451
_symmetry_space_group_name_H-M "P M M N"
_symmetry_group_IT_number 59
_space_group.IT_coordinate_system_code '2'
_symmetry_cell_setting 'orthorhombic'
loop_
_space_group_symop_operation_xyz
x,y,z
1/2-x,1/2-y,z
1/2+x,-y,-z
-x,1/2+y,-z
-x,-y,-z
1/2+x,1/2+y,-z
1/2-x,y,z
x,1/2-y,z
loop_
_atom_site_type_symbol
_atom_site_label
_atom_site_fract_x
_atom_site_fract_y
_atom_site_fract_z
Si Si1 0.443997 0.434360 0.456086
Si Si2 0.683981 0.565608 0.038363
Si Si3 0.683895 0.434452 0.205858
Si Si4 0.059761 0.567222 0.963233
Si Si5 0.185854 0.066215 0.459808
Si Si6 0.059133 0.932904 0.292088
Si Si7 0.938563 0.566276 0.201477
Si Si8 0.683792 0.932558 0.718827
O O1 0.500000 0.500000 0.500000
O O2 0.444294 0.250000 0.459752
O O3 0.378876 0.492047 0.486511
O O4 0.447167 0.485215 0.371018
O O5 0.750000 0.527769 0.004906
O O6 0.678961 0.750000 0.041937
O O7 0.685483 0.498718 0.121824
O O8 0.622825 0.498144 0.004133
O O9 0.750000 0.472600 0.238775
O O10 0.678203 0.250000 0.203568
O O11 0.623338 0.507338 0.239310
O O12 0.060339 0.750000 0.968607
O O13 0.058057 0.514466 0.877975
O O14 0.000000 0.500000 0.000000
O O15 0.250000 0.001540 0.486972
O O16 0.186807 0.250000 0.473202
O O17 0.184981 0.047821 0.370577
O O18 0.061638 0.750000 0.303383
O O19 0.999659 0.968905 0.245107
O O20 0.122441 0.986399 0.256044
O O21 0.934345 0.750000 0.191462
O O22 0.750000 0.985633 0.746100
O O23 0.679294 0.750000 0.732900
#
# Coordination Sequence:
#
# PCOD9447855 Si02
#       8
#     8   8   8   8   8   8   8   8
#     4  10  19  31  49  71  97 127 159 197 239 287
#     4   9  16  27  45  69  96 124 156 195 237 282
#     4   9  16  26  43  68  94 120 155 198 240 281
#     4  11  21  33  51  73  99 129 162 200 242 289
#     4   7  11  22  41  64  87 113 148 188 227 268
#     4  10  20  32  48  72 100 128 160 199 240 283
#     4  10  20  33  49  71  99 129 162 199 239 286
#     4   8  14  26  45  68  93 122 157 195 235 280
#
# _framework density 18.338011000000002
#
# number of rings (size 3 to 8) (size 9 to 14) (size 15 to 20)
#    0.000    2.750    0.000    6.000    0.000    3.750 
#    0.000    0.000    0.000    2.625    0.000    5.250 
#    0.000    0.000    0.000    0.000    0.000    0.000 
#
# Total GULP energy -356284.777754 kJ/mol
# GULP energy per Si atom -5566.949652 kJ/mol
# Density = 1.829627 g / cm^3
# Si number density = 18.338011 Si / 1000 Ang^3
#
#
#
# Elastic Constant Matrix: (Units=GPa)
#
#
# Indices 1 2 3 4 5 6 
#
# 1 245.7656 71.5709 33.3280 0.0000 0.0000 0.0000
# 2 71.5709 72.4084 13.6931 0.0000 0.0000 0.0000
# 3 33.3280 13.6931 8.8049 0.0000 0.0000 0.0000
# 4 0.0000 0.0000 0.0000 15.5888 0.0000 0.0000
# 5 0.0000 0.0000 0.0000 0.0000 22.7464 0.0000
# 6 0.0000 0.0000 0.0000 0.0000 0.0000 35.0493
#
#
#
# Elastic Compliance Matrix: (Units=1/GPa)
#
#
# Indices 1 2 3 4 5 6 
#
# 1 0.008929 -0.003449 -0.028436 0.000000 0.000000 0.000000
# 2 -0.003449 0.020896 -0.019444 0.000000 0.000000 0.000000
# 3 -0.028436 -0.019444 0.251445 0.000000 0.000000 0.000000
# 4 0.000000 0.000000 0.000000 0.064149 0.000000 0.000000
# 5 0.000000 0.000000 0.000000 0.000000 0.043963 0.000000
# 6 0.000000 0.000000 0.000000 0.000000 0.000000 0.028531
#
#
# Mechanical properties :
#
#
# Convention : Reuss Voigt Hill
#
# Bulk Modulus (GPa) = 5.59867 62.68477 34.14172
# Shear Modulus (GPa) = 8.61910 28.56935 18.59422
#
# Velocity S-wave (km/s) = 2.17033 3.95135 3.18775
# Velocity P-wave (km/s) = 3.05616 7.42123 5.67516
#
# Compressibility (1/GPa) = 0.17861401
#
# Stress axis : x y z
#
# Youngs Moduli (GPa) = 111.99025 47.85548 3.97702
#
# Poissons Ratio (x) = 0.16503 0.11309
# Poissons Ratio (y) = 0.38621 0.07733
# Poissons Ratio (z) = 3.18453 0.93049
#
# Static dielectric constant tensor:
#      x y z
#    x 1.732820 0.000000 0.000000 
#    y 0.000000 1.612900 0.000000 
#    z 0.000000 0.000000 1.617290 
# 
# From -- ./inp_files/30947.got.cif
#   From: 2010.05.17/outbox.cif.g08.bks.cpg/sg59_16_cif.got.tgz:30947.got - 2010.06.03 14:40:33.
