data_PCOD9447587
_publ_section_title
;
Structure prediction by ZEFSAII (Michael W. Deem and Ramdas Pophale) SiO2 
 PCOD9447587
Probable space group: P M M N
;
_chemical_formula_sum "Si O2"
_cell_formula_units_Z 64
_cell_length_a 30.934393
_cell_length_b 8.932811
_cell_length_c 14.740756
_cell_angle_alpha 90.000000
_cell_angle_beta 90.000000
_cell_angle_gamma 90.000000
_cell_volume 4073.329115
_symmetry_space_group_name_H-M "P M M N"
_symmetry_group_IT_number 59
_space_group.IT_coordinate_system_code '2'
_symmetry_cell_setting 'orthorhombic'
loop_
_space_group_symop_operation_xyz
x,y,z
1/2-x,1/2-y,z
1/2+x,-y,-z
-x,1/2+y,-z
-x,-y,-z
1/2+x,1/2+y,-z
1/2-x,y,z
x,1/2-y,z
loop_
_atom_site_type_symbol
_atom_site_label
_atom_site_fract_x
_atom_site_fract_y
_atom_site_fract_z
Si Si1 0.380543 0.925884 0.931784
Si Si2 0.458261 0.428213 0.449041
Si Si3 0.540761 0.068837 0.946129
Si Si4 0.200984 0.430056 0.850226
Si Si5 0.881996 0.423430 0.439978
Si Si6 0.065899 0.919564 0.747003
Si Si7 0.022963 0.925987 0.260577
Si Si8 0.699931 0.569985 0.360615
O O1 0.372304 0.750000 0.946787
O O2 0.406593 0.941170 0.837388
O O3 0.335375 0.007700 0.916582
O O4 0.414158 0.979597 0.008046
O O5 0.500000 0.500000 0.500000
O O6 0.461931 0.250000 0.455679
O O7 0.414467 0.486318 0.495714
O O8 0.458835 0.481630 0.344950
O O9 0.537797 0.250000 0.954512
O O10 0.539142 0.031007 0.839758
O O11 0.500000 0.000000 0.000000
O O12 0.250000 0.477754 0.872492
O O13 0.199872 0.250000 0.851499
O O14 0.192377 0.475186 0.745041
O O15 0.879785 0.250000 0.468342
O O16 0.904256 0.428694 0.340861
O O17 0.834740 0.492846 0.425464
O O18 0.047088 0.750000 0.749862
O O19 0.028080 0.039206 0.740673
O O20 0.030901 0.750000 0.274834
O O21 0.750000 0.534726 0.381606
O O22 0.694905 0.750000 0.364992
#
# Coordination Sequence:
#
# PCOD9447587 Si02
#       8
#     8   8   8   8   8   8   8   8
#     4  10  19  32  48  71 101 134 170 206 243 291
#     4  12  24  37  53  73  99 133 171 211 254 303
#     4  10  21  34  50  73 101 134 172 209 249 295
#     4   9  18  31  47  70 100 132 167 206 246 293
#     4  11  21  33  50  75 103 134 170 209 251 297
#     4  10  19  30  47  70 102 136 168 206 246 292
#     4  11  22  35  51  72  99 134 173 213 253 296
#     4   9  18  32  49  71 102 137 170 206 249 298
#
# _framework density 15.711963000000001
#
# number of rings (size 3 to 8) (size 9 to 14) (size 15 to 20)
#    0.000    1.750    3.750    2.625    0.000    2.500 
#    0.000    1.250    0.000    0.000    0.000    0.875 
#    0.000    5.000    0.000    0.000    0.000    0.000 
#
# Total GULP energy -357069.422432 kJ/mol
# GULP energy per Si atom -5579.209725 kJ/mol
# Density = 1.567620 g / cm^3
# Si number density = 15.711963 Si / 1000 Ang^3
#
#
#
# Elastic Constant Matrix: (Units=GPa)
#
#
# Indices 1 2 3 4 5 6 
#
# 1 122.4962 51.8449 52.3179 0.0000 0.0000 0.0000
# 2 51.8449 66.3725 45.7401 0.0000 0.0000 0.0000
# 3 52.3179 45.7401 90.6796 0.0000 0.0000 0.0000
# 4 0.0000 0.0000 0.0000 20.7388 0.0000 0.0000
# 5 0.0000 0.0000 0.0000 0.0000 20.6044 0.0000
# 6 0.0000 0.0000 0.0000 0.0000 0.0000 27.0564
#
#
#
# Elastic Compliance Matrix: (Units=1/GPa)
#
#
# Indices 1 2 3 4 5 6 
#
# 1 0.012929 -0.007600 -0.003626 0.000000 0.000000 0.000000
# 2 -0.007600 0.027562 -0.009518 0.000000 0.000000 0.000000
# 3 -0.003626 -0.009518 0.017921 0.000000 0.000000 0.000000
# 4 0.000000 0.000000 0.000000 0.048219 0.000000 0.000000
# 5 0.000000 0.000000 0.000000 0.000000 0.048533 0.000000
# 6 0.000000 0.000000 0.000000 0.000000 0.000000 0.036960
#
#
# Mechanical properties :
#
#
# Convention : Reuss Voigt Hill
#
# Bulk Modulus (GPa) = 59.08696 64.37269 61.72982
# Shear Modulus (GPa) = 20.89843 22.32296 21.61070
#
# Velocity S-wave (km/s) = 3.65101 3.77339 3.71270
# Velocity P-wave (km/s) = 7.44722 7.74881 7.59951
#
# Compressibility (1/GPa) = 0.01692421
#
# Stress axis : x y z
#
# Youngs Moduli (GPa) = 77.34713 36.28132 55.80186
#
# Poissons Ratio (x) = 0.27575 0.20231
# Poissons Ratio (y) = 0.58787 0.53111
# Poissons Ratio (z) = 0.28043 0.34532
#
# Static dielectric constant tensor:
#      x y z
#    x 1.515140 0.000000 0.000000 
#    y 0.000000 1.540180 0.000000 
#    z 0.000000 0.000000 1.522830 
# 
# From -- ./inp_files/25055.got.cif
#   From: 2010.05.17/outbox.cif.g08.bks.cpg/sg59_13_cif.got.tgz:25055.got - 2010.06.03 14:40:33.
