data_PCOD9447031
_publ_section_title
;
Structure prediction by ZEFSAII (Michael W. Deem and Ramdas Pophale) SiO2 
 PCOD9447031
Probable space group: P M M N
;
_chemical_formula_sum "Si O2"
_cell_formula_units_Z 64
_cell_length_a 8.181256
_cell_length_b 15.683468
_cell_length_c 24.953677
_cell_angle_alpha 90.000000
_cell_angle_beta 90.000000
_cell_angle_gamma 90.000000
_cell_volume 3201.817941
_symmetry_space_group_name_H-M "P M M N"
_symmetry_group_IT_number 59
_space_group.IT_coordinate_system_code '2'
_symmetry_cell_setting 'orthorhombic'
loop_
_space_group_symop_operation_xyz
x,y,z
1/2-x,1/2-y,z
1/2+x,-y,-z
-x,1/2+y,-z
-x,-y,-z
1/2+x,1/2+y,-z
1/2-x,y,z
x,1/2-y,z
loop_
_atom_site_type_symbol
_atom_site_label
_atom_site_fract_x
_atom_site_fract_y
_atom_site_fract_z
Si Si1 0.556463 0.511147 0.189734
Si Si2 0.050323 0.156495 0.611386
Si Si3 0.553372 0.347824 0.894044
Si Si4 0.052887 0.006029 0.688888
Si Si5 0.562370 0.353483 0.010584
Si Si6 0.057787 0.347856 0.126836
Si Si7 0.947224 0.902310 0.504539
Si Si8 0.947737 0.655171 0.621889
O O1 0.750000 0.523497 0.191783
O O2 0.488054 0.585666 0.152003
O O3 0.491220 0.514654 0.250473
O O4 0.521668 0.418741 0.164213
O O5 0.250000 0.153578 0.611010
O O6 0.001177 0.250000 0.630496
O O7 0.996767 0.143007 0.549963
O O8 0.992396 0.081065 0.649734
O O9 0.750000 0.343832 0.899119
O O10 0.496103 0.250000 0.884102
O O11 0.493216 0.379676 0.952672
O O12 0.250000 0.011515 0.690319
O O13 0.007420 0.916792 0.662050
O O14 0.750000 0.382983 0.016416
O O15 0.565268 0.250000 0.007494
O O16 0.468554 0.374526 0.064815
O O17 0.250000 0.346619 0.137998
O O18 0.994954 0.250000 0.133004
O O19 0.750000 0.897294 0.505078
O O20 0.004778 0.864759 0.561117
O O21 0.000000 0.000000 0.500000
O O22 0.750000 0.653145 0.621266
O O23 0.000479 0.750000 0.637365
#
# Coordination Sequence:
#
# PCOD9447031 Si02
#       8
#     8   8   8   8   8   8   8   8
#     4  11  24  38  55  80 110 147 191 236 278 326
#     4   9  17  32  56  81 106 139 177 217 264 320
#     4   9  19  37  60  85 114 148 183 222 274 333
#     4  10  22  39  56  78 106 141 188 233 273 317
#     4   8  15  31  56  84 113 143 176 219 273 332
#     4  10  21  37  58  83 110 143 184 230 281 336
#     4  10  18  31  55  83 112 144 175 214 267 324
#     4  10  21  36  56  83 112 143 180 222 273 331
#
# _framework density 19.988644000000001
#
# number of rings (size 3 to 8) (size 9 to 14) (size 15 to 20)
#    0.000    2.375    1.250    1.875    0.000    5.750 
#    0.000    5.000    0.000    2.250    0.000    0.000 
#    0.000    0.000    0.000    0.000    0.000    0.000 
#
# Total GULP energy -357167.441122 kJ/mol
# GULP energy per Si atom -5580.741268 kJ/mol
# Density = 1.994315 g / cm^3
# Si number density = 19.988644 Si / 1000 Ang^3
#
#
#
# Elastic Constant Matrix: (Units=GPa)
#
#
# Indices 1 2 3 4 5 6 
#
# 1 7.4298 -6.8762 -2.5090 0.0000 0.0000 0.0000
# 2 -6.8762 85.0305 20.1124 0.0000 0.0000 0.0000
# 3 -2.5090 20.1124 92.7710 0.0000 0.0000 0.0000
# 4 0.0000 0.0000 0.0000 -76.2567 0.0000 0.0000
# 5 0.0000 0.0000 0.0000 0.0000 0.2315 0.0000
# 6 0.0000 0.0000 0.0000 0.0000 0.0000 14.0648
#
#
#
# Elastic Compliance Matrix: (Units=1/GPa)
#
#
# Indices 1 2 3 4 5 6 
#
# 1 0.145669 0.011434 0.001461 0.000000 0.000000 0.000000
# 2 0.011434 0.013294 -0.002573 0.000000 0.000000 0.000000
# 3 0.001461 -0.002573 0.011377 0.000000 0.000000 0.000000
# 4 0.000000 0.000000 0.000000 -0.013114 0.000000 0.000000
# 5 0.000000 0.000000 0.000000 0.000000 4.320045 0.000000
# 6 0.000000 0.000000 0.000000 0.000000 0.000000 0.071099
#
#
# Mechanical properties :
#
#
# Convention : Reuss Voigt Hill
#
# Bulk Modulus (GPa) = 5.23606 22.96507 14.10057
# Shear Modulus (GPa) = 1.08900 -0.75848 0.16526
#
# Velocity S-wave (km/s) = 0.73891 -0.61667 0.28785
# Velocity P-wave (km/s) = 1.83117 3.31767 2.67957
#
# Compressibility (1/GPa) = 0.19098334
#
# Stress axis : x y z
#
# Youngs Moduli (GPa) = 6.86490 75.22364 87.90039
#
# Poissons Ratio (x) = -0.86013 -0.12840
# Poissons Ratio (y) = -0.07850 0.22615
# Poissons Ratio (z) = -0.01003 0.19353
#
# Static dielectric constant tensor:
#      x y z
#    x 1.709350 0.000000 0.000000 
#    y 0.000000 1.693950 0.000000 
#    z 0.000000 0.000000 1.711870 
# 
# From -- ./inp_files/31530.got.cif
#   From: 2010.05.17/outbox.cif.g08.bks.cpg/sg59_16_cif.got.tgz:31530.got - 2010.06.03 14:40:33.
