data_PCOD9447419
_publ_section_title
;
Structure prediction by ZEFSAII (Michael W. Deem and Ramdas Pophale) SiO2 
 PCOD9447419
Probable space group: P M M N
;
_chemical_formula_sum "Si O2"
_cell_formula_units_Z 56
_cell_length_a 14.002149
_cell_length_b 9.126505
_cell_length_c 29.754454
_cell_angle_alpha 90.000000
_cell_angle_beta 90.000000
_cell_angle_gamma 90.000000
_cell_volume 3802.341995
_symmetry_space_group_name_H-M "P M M N"
_symmetry_group_IT_number 59
_space_group.IT_coordinate_system_code '2'
_symmetry_cell_setting 'orthorhombic'
loop_
_space_group_symop_operation_xyz
x,y,z
1/2-x,1/2-y,z
1/2+x,-y,-z
-x,1/2+y,-z
-x,-y,-z
1/2+x,1/2+y,-z
1/2-x,y,z
x,1/2-y,z
loop_
_atom_site_type_symbol
_atom_site_label
_atom_site_fract_x
_atom_site_fract_y
_atom_site_fract_z
Si Si1 0.033349 0.073891 0.431087
Si Si2 0.358905 0.075545 0.983376
Si Si3 0.362828 0.074276 0.339498
Si Si4 0.136054 0.075573 0.155349
Si Si5 0.140602 0.426202 0.522925
Si Si6 0.048460 0.924692 0.068835
Si Si7 0.865991 0.081412 0.752356
O O1 0.022899 0.250000 0.430857
O O2 0.078728 0.029727 0.383654
O O3 0.103919 0.036880 0.472595
O O4 0.932974 0.999904 0.442850
O O5 0.250000 0.043331 0.970156
O O6 0.365450 0.250000 0.993397
O O7 0.439025 0.044052 0.945897
O O8 0.387910 0.987265 0.027934
O O9 0.250000 0.042971 0.346507
O O10 0.371240 0.250000 0.333870
O O11 0.395674 0.994890 0.294071
O O12 0.250000 0.047301 0.149434
O O13 0.122673 0.250000 0.155628
O O14 0.080157 0.001985 0.114449
O O15 0.106001 0.006710 0.203040
O O16 0.250000 0.471860 0.529034
O O17 0.135525 0.250000 0.527214
O O18 0.060540 0.750000 0.072492
O O19 0.750000 0.079768 0.751842
O O20 0.897083 0.250000 0.754641
#
# Coordination Sequence:
#
# PCOD9447419 Si02
#       7
#     8   8   8   8   8   8   8
#     4   9  17  28  43  63  85 112 146 178 210 251
#     4   9  18  32  46  61  86 118 147 175 210 253
#     4   9  16  27  43  62  86 115 143 171 208 255
#     4  10  19  30  44  62  87 118 146 172 208 255
#     4   9  17  29  43  60  85 115 145 178 214 251
#     4  10  19  29  44  66  88 112 145 181 214 248
#     4   9  17  28  42  62  87 112 140 175 211 248
#
# _framework density 14.727765
#
# number of rings (size 3 to 8) (size 9 to 14) (size 15 to 20)
#    0.000    2.714    0.000    2.143    0.000    7.714 
#    0.000    0.000    0.000    2.571    0.000    1.000 
#    0.000    5.714    0.000    0.000    0.000    0.000 
#
# Total GULP energy -312097.963796 kJ/mol
# GULP energy per Si atom -5573.177925 kJ/mol
# Density = 1.469424 g / cm^3
# Si number density = 14.727765 Si / 1000 Ang^3
#
#
#
# Elastic Constant Matrix: (Units=GPa)
#
#
# Indices 1 2 3 4 5 6 
#
# 1 95.5851 45.9202 66.5122 0.0000 0.0000 0.0000
# 2 45.9202 51.5836 66.1928 0.0000 0.0000 0.0000
# 3 66.5122 66.1928 151.6083 0.0000 0.0000 0.0000
# 4 0.0000 0.0000 0.0000 28.4206 0.0000 0.0000
# 5 0.0000 0.0000 0.0000 0.0000 23.1619 0.0000
# 6 0.0000 0.0000 0.0000 0.0000 0.0000 20.7604
#
#
#
# Elastic Compliance Matrix: (Units=1/GPa)
#
#
# Indices 1 2 3 4 5 6 
#
# 1 0.018572 -0.013821 -0.002114 0.000000 0.000000 0.000000
# 2 -0.013821 0.054370 -0.017675 0.000000 0.000000 0.000000
# 3 -0.002114 -0.017675 0.015240 0.000000 0.000000 0.000000
# 4 0.000000 0.000000 0.000000 0.035186 0.000000 0.000000
# 5 0.000000 0.000000 0.000000 0.000000 0.043174 0.000000
# 6 0.000000 0.000000 0.000000 0.000000 0.000000 0.048169
#
#
# Mechanical properties :
#
#
# Convention : Reuss Voigt Hill
#
# Bulk Modulus (GPa) = 47.70149 72.89193 60.29671
# Shear Modulus (GPa) = 17.30594 22.47870 19.89232
#
# Velocity S-wave (km/s) = 3.43163 3.91100 3.67913
# Velocity P-wave (km/s) = 6.93978 8.36630 7.68620
#
# Compressibility (1/GPa) = 0.02096370
#
# Stress axis : x y z
#
# Youngs Moduli (GPa) = 53.84322 18.39245 65.61671
#
# Poissons Ratio (x) = 0.25421 0.13868
# Poissons Ratio (y) = 0.74418 1.15976
# Poissons Ratio (z) = 0.11380 0.32508
#
# Static dielectric constant tensor:
#      x y z
#    x 1.472830 0.000000 0.000000 
#    y 0.000000 1.492230 0.000000 
#    z 0.000000 0.000000 1.468600 
# 
# From -- ./inp_files/33306.got.cif
#   From: 2010.05.17/outbox.cif.g08.bks.cpg/sg59_17_cif.got.tgz:33306.got - 2010.06.03 14:40:33.
