data_PCOD9447048
_publ_section_title
;
Structure prediction by ZEFSAII (Michael W. Deem and Ramdas Pophale) SiO2 
 PCOD9447048
Probable space group: P M M N
;
_chemical_formula_sum "Si O2"
_cell_formula_units_Z 64
_cell_length_a 23.911415
_cell_length_b 8.635846
_cell_length_c 19.814317
_cell_angle_alpha 90.000000
_cell_angle_beta 90.000000
_cell_angle_gamma 90.000000
_cell_volume 4091.563285
_symmetry_space_group_name_H-M "P M M N"
_symmetry_group_IT_number 59
_space_group.IT_coordinate_system_code '2'
_symmetry_cell_setting 'orthorhombic'
loop_
_space_group_symop_operation_xyz
x,y,z
1/2-x,1/2-y,z
1/2+x,-y,-z
-x,1/2+y,-z
-x,-y,-z
1/2+x,1/2+y,-z
1/2-x,y,z
x,1/2-y,z
loop_
_atom_site_type_symbol
_atom_site_label
_atom_site_fract_x
_atom_site_fract_y
_atom_site_fract_z
Si Si1 0.814240 0.063022 0.108915
Si Si2 0.131499 0.937290 0.748441
Si Si3 0.498983 0.561498 0.748122
Si Si4 0.911729 0.434738 0.476594
Si Si5 0.980096 0.937231 0.896316
Si Si6 0.814046 0.935378 0.387738
Si Si7 0.912998 0.935397 0.024833
Si Si8 0.973808 0.563161 0.600914
O O1 0.750000 0.013204 0.102640
O O2 0.815884 0.250000 0.107290
O O3 0.839428 0.014960 0.181575
O O4 0.854514 0.999750 0.050925
O O5 0.132992 0.750000 0.744851
O O6 0.066377 0.984483 0.747873
O O7 0.163136 0.002525 0.683655
O O8 0.499501 0.750000 0.747144
O O9 0.525897 0.511724 0.818917
O O10 0.527585 0.510916 0.678559
O O11 0.907508 0.250000 0.475455
O O12 0.856067 0.505710 0.445231
O O13 0.928166 0.492213 0.550963
O O14 0.964998 0.478426 0.429346
O O15 0.983809 0.750000 0.896872
O O16 0.931926 0.982504 0.949267
O O17 0.038196 0.000848 0.926273
O O18 0.750000 0.986831 0.397894
O O19 0.815205 0.750000 0.386549
O O20 0.912754 0.750000 0.028196
O O21 0.969480 0.750000 0.598305
#
# Coordination Sequence:
#
# PCOD9447048 Si02
#       8
#     8   8   8   8   8   8   8   8
#     4  10  20  33  49  66  90 130 170 199 232 278
#     4  10  18  32  50  68  91 125 168 199 224 271
#     4   9  15  28  50  71  92 123 158 192 229 278
#     4  10  19  32  49  70  93 123 160 193 229 277
#     4   9  17  31  49  67  93 126 160 195 236 285
#     4  11  23  35  47  67  97 130 161 197 238 273
#     4  10  19  29  45  70  95 123 157 200 245 277
#     4   9  17  30  48  70  94 120 152 192 240 280
#
# _framework density 15.641944000000001
#
# number of rings (size 3 to 8) (size 9 to 14) (size 15 to 20)
#    0.000    2.250    2.500    1.500    0.000    3.250 
#    0.000    0.625    0.000    0.000    0.000    0.875 
#    0.000    3.000    0.000    0.000    0.000    0.000 
#
# Total GULP energy -356925.332768 kJ/mol
# GULP energy per Si atom -5576.958324 kJ/mol
# Density = 1.560634 g / cm^3
# Si number density = 15.641944 Si / 1000 Ang^3
#
#
#
# Elastic Constant Matrix: (Units=GPa)
#
#
# Indices 1 2 3 4 5 6 
#
# 1 97.3187 21.0287 74.8479 0.0000 0.0000 0.0000
# 2 21.0287 10.6336 24.8268 0.0000 0.0000 0.0000
# 3 74.8479 24.8268 155.1874 0.0000 0.0000 0.0000
# 4 0.0000 0.0000 0.0000 22.3492 0.0000 0.0000
# 5 0.0000 0.0000 0.0000 0.0000 19.8769 0.0000
# 6 0.0000 0.0000 0.0000 0.0000 0.0000 20.8054
#
#
#
# Elastic Compliance Matrix: (Units=1/GPa)
#
#
# Indices 1 2 3 4 5 6 
#
# 1 0.020445 -0.027788 -0.005415 0.000000 0.000000 0.000000
# 2 -0.027788 0.187877 -0.016654 0.000000 0.000000 0.000000
# 3 -0.005415 -0.016654 0.011720 0.000000 0.000000 0.000000
# 4 0.000000 0.000000 0.000000 0.044744 0.000000 0.000000
# 5 0.000000 0.000000 0.000000 0.000000 0.050310 0.000000
# 6 0.000000 0.000000 0.000000 0.000000 0.000000 0.048064
#
#
# Mechanical properties :
#
#
# Convention : Reuss Voigt Hill
#
# Bulk Modulus (GPa) = 8.31066 56.06073 32.18570
# Shear Modulus (GPa) = 9.94069 22.10206 16.02137
#
# Velocity S-wave (km/s) = 2.52368 3.76307 3.20387
# Velocity P-wave (km/s) = 3.71706 7.40261 5.85727
#
# Compressibility (1/GPa) = 0.12032734
#
# Stress axis : x y z
#
# Youngs Moduli (GPa) = 48.91244 5.32263 85.32477
#
# Poissons Ratio (x) = 0.14790 0.46205
# Poissons Ratio (y) = 1.35917 1.42102
# Poissons Ratio (z) = 0.26487 0.08864
#
# Static dielectric constant tensor:
#      x y z
#    x 1.498660 0.000000 0.000000 
#    y 0.000000 1.530890 0.000000 
#    z 0.000000 0.000000 1.532610 
# 
# From -- ./inp_files/28458.got.cif
#   From: 2010.05.17/outbox.cif.g08.bks.cpg/sg59_15_cif.got.tgz:28458.got - 2010.06.03 14:40:33.
