data_PCOD9447206
_publ_section_title
;
Structure prediction by ZEFSAII (Michael W. Deem and Ramdas Pophale) SiO2 
 PCOD9447206
Probable space group: P M M N
;
_chemical_formula_sum "Si O2"
_cell_formula_units_Z 64
_cell_length_a 8.741046
_cell_length_b 20.372586
_cell_length_c 20.637418
_cell_angle_alpha 90.000000
_cell_angle_beta 90.000000
_cell_angle_gamma 90.000000
_cell_volume 3675.064166
_symmetry_space_group_name_H-M "P M M N"
_symmetry_group_IT_number 59
_space_group.IT_coordinate_system_code '2'
_symmetry_cell_setting 'orthorhombic'
loop_
_space_group_symop_operation_xyz
x,y,z
1/2-x,1/2-y,z
1/2+x,-y,-z
-x,1/2+y,-z
-x,-y,-z
1/2+x,1/2+y,-z
1/2-x,y,z
x,1/2-y,z
loop_
_atom_site_type_symbol
_atom_site_label
_atom_site_fract_x
_atom_site_fract_y
_atom_site_fract_z
Si Si1 0.933048 0.674136 0.831029
Si Si2 0.434339 0.567519 0.229845
Si Si3 0.431891 0.927183 0.727605
Si Si4 0.568037 0.941675 0.589070
Si Si5 0.566291 0.409711 0.545763
Si Si6 0.563369 0.175591 0.666640
Si Si7 0.432242 0.907673 0.945082
Si Si8 0.433482 0.550052 0.084629
O O1 0.750000 0.669987 0.827234
O O2 0.979367 0.750000 0.823815
O O3 0.003037 0.628031 0.775499
O O4 0.987003 0.645182 0.899870
O O5 0.250000 0.561420 0.236443
O O6 0.504983 0.498057 0.250067
O O7 0.486122 0.625565 0.277195
O O8 0.468799 0.580333 0.154419
O O9 0.250000 0.927337 0.731132
O O10 0.486919 0.917438 0.653894
O O11 0.750000 0.936326 0.596812
O O12 0.513248 0.906118 0.523739
O O13 0.531052 0.018907 0.577050
O O14 0.750000 0.407234 0.536893
O O15 0.519422 0.354795 0.597303
O O16 0.750000 0.176008 0.667871
O O17 0.510651 0.250000 0.675409
O O18 0.250000 0.901092 0.938339
O O19 0.483220 0.980087 0.921491
O O20 0.472663 0.907083 0.021457
O O21 0.250000 0.537876 0.081914
#
# Coordination Sequence:
#
# PCOD9447206 Si02
#       8
#     8   8   8   8   8   8   8   8
#     4  11  24  41  59  79 108 149 189 229 286 348
#     4  10  18  33  55  81 112 148 187 229 274 324
#     4  12  23  35  56  85 112 142 183 232 283 332
#     4  10  19  33  54  79 107 141 179 226 279 327
#     4   9  17  31  51  79 108 139 181 228 273 322
#     4   9  17  31  53  80 110 145 184 225 273 326
#     4  10  19  32  52  82 111 142 182 228 275 322
#     4   9  18  31  52  80 113 146 180 225 273 319
#
# _framework density 17.414662
#
# number of rings (size 3 to 8) (size 9 to 14) (size 15 to 20)
#    0.000    2.000    2.500    2.250    0.000    2.000 
#    0.000    1.250    0.000    6.000    0.000    0.000 
#    0.000    0.000    0.000    0.000    0.000    0.000 
#
# Total GULP energy -357179.038662 kJ/mol
# GULP energy per Si atom -5580.922479 kJ/mol
# Density = 1.737503 g / cm^3
# Si number density = 17.414662 Si / 1000 Ang^3
#
#
#
# Elastic Constant Matrix: (Units=GPa)
#
#
# Indices 1 2 3 4 5 6 
#
# 1 36.0198 38.7046 46.3754 0.0000 0.0000 0.0000
# 2 38.7046 129.6817 90.1795 0.0000 0.0000 0.0000
# 3 46.3754 90.1795 159.6789 0.0000 0.0000 0.0000
# 4 0.0000 0.0000 0.0000 24.0645 0.0000 0.0000
# 5 0.0000 0.0000 0.0000 0.0000 27.2548 0.0000
# 6 0.0000 0.0000 0.0000 0.0000 0.0000 13.2734
#
#
#
# Elastic Compliance Matrix: (Units=1/GPa)
#
#
# Indices 1 2 3 4 5 6 
#
# 1 0.048632 -0.007728 -0.009760 0.000000 0.000000 0.000000
# 2 -0.007728 0.013926 -0.005620 0.000000 0.000000 0.000000
# 3 -0.009760 -0.005620 0.012271 0.000000 0.000000 0.000000
# 4 0.000000 0.000000 0.000000 0.041555 0.000000 0.000000
# 5 0.000000 0.000000 0.000000 0.000000 0.036691 0.000000
# 6 0.000000 0.000000 0.000000 0.000000 0.000000 0.075339
#
#
# Mechanical properties :
#
#
# Convention : Reuss Voigt Hill
#
# Bulk Modulus (GPa) = 34.94878 75.09994 55.02436
# Shear Modulus (GPa) = 17.59524 22.92658 20.26091
#
# Velocity S-wave (km/s) = 3.18208 3.63231 3.41462
# Velocity P-wave (km/s) = 5.79767 7.79806 6.87105
#
# Compressibility (1/GPa) = 0.02861330
#
# Stress axis : x y z
#
# Youngs Moduli (GPa) = 20.56253 71.80818 81.49098
#
# Poissons Ratio (x) = 0.55491 0.79535
# Poissons Ratio (y) = 0.15890 0.45801
# Poissons Ratio (z) = 0.20069 0.40359
#
# Static dielectric constant tensor:
#      x y z
#    x 1.584450 0.000000 0.000000 
#    y 0.000000 1.564860 0.000000 
#    z 0.000000 0.000000 1.602710 
# 
# From -- ./inp_files/29572.got.cif
#   From: 2010.05.17/outbox.cif.g08.bks.cpg/sg59_15_cif.got.tgz:29572.got - 2010.06.03 14:40:33.
