data_PCOD9447920
_publ_section_title
;
Structure prediction by ZEFSAII (Michael W. Deem and Ramdas Pophale) SiO2 
 PCOD9447920
Probable space group: P M M N
;
_chemical_formula_sum "Si O2"
_cell_formula_units_Z 48
_cell_length_a 19.607095
_cell_length_b 9.030851
_cell_length_c 15.552991
_cell_angle_alpha 90.000000
_cell_angle_beta 90.000000
_cell_angle_gamma 90.000000
_cell_volume 2753.948729
_symmetry_space_group_name_H-M "P M M N"
_symmetry_group_IT_number 59
_space_group.IT_coordinate_system_code '2'
_symmetry_cell_setting 'orthorhombic'
loop_
_space_group_symop_operation_xyz
x,y,z
1/2-x,1/2-y,z
1/2+x,-y,-z
-x,1/2+y,-z
-x,-y,-z
1/2+x,1/2+y,-z
1/2-x,y,z
x,1/2-y,z
loop_
_atom_site_type_symbol
_atom_site_label
_atom_site_fract_x
_atom_site_fract_y
_atom_site_fract_z
Si Si1 0.907626 0.579094 0.428165
Si Si2 0.111745 0.923000 0.747272
Si Si3 0.072111 0.579020 0.398197
Si Si4 0.948217 0.576833 0.777306
Si Si5 0.169283 0.078130 0.913644
Si Si6 0.567149 0.426758 0.958206
O O1 0.885795 0.750000 0.429091
O O2 0.877685 0.491588 0.347008
O O3 0.895395 0.499918 0.519080
O O4 0.989995 0.578179 0.414259
O O5 0.130333 0.750000 0.749363
O O6 0.030653 0.933379 0.768089
O O7 0.150296 0.013863 0.820384
O O8 0.093110 0.750000 0.391300
O O9 0.082629 0.491225 0.309752
O O10 0.931118 0.750000 0.786359
O O11 0.927183 0.486183 0.861271
O O12 0.250000 0.070966 0.926513
O O13 0.147225 0.250000 0.919220
O O14 0.129645 0.982547 0.984116
O O15 0.561302 0.250000 0.960303
O O16 0.500000 0.500000 0.000000
#
# Coordination Sequence:
#
# PCOD9447920 Si02
#       6
#     8   8   8   8   8   8
#     4   9  16  26  42  65  98 136 171 210 256 309
#     4  10  19  31  50  74 102 138 176 217 264 319
#     4   9  16  26  41  66 100 135 171 212 258 310
#     4  10  19  31  49  75 105 138 176 219 268 321
#     4  11  24  40  57  78 107 142 181 226 275 329
#     4  12  23  36  56  80 107 141 181 227 275 328
#
# _framework density 17.42952
#
# number of rings (size 3 to 8) (size 9 to 14) (size 15 to 20)
#    0.000    1.833    1.667    4.000    0.000    6.667 
#    0.000    0.000    0.000    0.000    0.000    1.167 
#    0.000    9.333    0.000    0.000    0.000    0.000 
#
# Total GULP energy -267991.968116 kJ/mol
# GULP energy per Si atom -5583.166002 kJ/mol
# Density = 1.738985 g / cm^3
# Si number density = 17.429520 Si / 1000 Ang^3
#
#
#
# Elastic Constant Matrix: (Units=GPa)
#
#
# Indices 1 2 3 4 5 6 
#
# 1 22.9049 32.8404 29.6220 0.0000 0.0000 0.0000
# 2 32.8404 183.6367 93.6843 0.0000 0.0000 0.0000
# 3 29.6220 93.6843 168.8033 0.0000 0.0000 0.0000
# 4 0.0000 0.0000 0.0000 39.6434 0.0000 0.0000
# 5 0.0000 0.0000 0.0000 0.0000 9.2978 0.0000
# 6 0.0000 0.0000 0.0000 0.0000 0.0000 15.8394
#
#
#
# Elastic Compliance Matrix: (Units=1/GPa)
#
#
# Indices 1 2 3 4 5 6 
#
# 1 0.063842 -0.007954 -0.006789 0.000000 0.000000 0.000000
# 2 -0.007954 0.008587 -0.003370 0.000000 0.000000 0.000000
# 3 -0.006789 -0.003370 0.008986 0.000000 0.000000 0.000000
# 4 0.000000 0.000000 0.000000 0.025225 0.000000 0.000000
# 5 0.000000 0.000000 0.000000 0.000000 0.107552 0.000000
# 6 0.000000 0.000000 0.000000 0.000000 0.000000 0.063134
#
#
# Mechanical properties :
#
#
# Convention : Reuss Voigt Hill
#
# Bulk Modulus (GPa) = 22.12884 76.40424 49.26654
# Shear Modulus (GPa) = 15.21536 27.56934 21.39235
#
# Velocity S-wave (km/s) = 2.95780 3.98145 3.50718
# Velocity P-wave (km/s) = 4.93848 8.06643 6.68789
#
# Compressibility (1/GPa) = 0.04518990
#
# Stress axis : x y z
#
# Youngs Moduli (GPa) = 15.66355 116.45222 111.28703
#
# Poissons Ratio (x) = 0.92623 0.75553
# Poissons Ratio (y) = 0.12458 0.37505
# Poissons Ratio (z) = 0.10634 0.39245
#
# Static dielectric constant tensor:
#      x y z
#    x 1.570110 0.000000 0.000000 
#    y 0.000000 1.584180 0.000000 
#    z 0.000000 0.000000 1.578270 
# 
# From -- ./inp_files/20461.got.cif
#   From: 2010.05.17/outbox.cif.g08.bks.cpg/sg59_11_cif.got.tgz:20461.got - 2010.06.03 14:40:33.
