data_PCOD9447278
_publ_section_title
;
Structure prediction by ZEFSAII (Michael W. Deem and Ramdas Pophale) SiO2 
 PCOD9447278
Probable space group: P M M N
;
_chemical_formula_sum "Si O2"
_cell_formula_units_Z 56
_cell_length_a 20.798685
_cell_length_b 15.734797
_cell_length_c 9.728724
_cell_angle_alpha 90.000000
_cell_angle_beta 90.000000
_cell_angle_gamma 90.000000
_cell_volume 3183.852242
_symmetry_space_group_name_H-M "P M M N"
_symmetry_group_IT_number 59
_space_group.IT_coordinate_system_code '2'
_symmetry_cell_setting 'orthorhombic'
loop_
_space_group_symop_operation_xyz
x,y,z
1/2-x,1/2-y,z
1/2+x,-y,-z
-x,1/2+y,-z
-x,-y,-z
1/2+x,1/2+y,-z
1/2-x,y,z
x,1/2-y,z
loop_
_atom_site_type_symbol
_atom_site_label
_atom_site_fract_x
_atom_site_fract_y
_atom_site_fract_z
Si Si1 0.586406 0.901680 0.152512
Si Si2 0.821259 0.750000 0.216198
Si Si3 0.674264 0.561616 0.605199
Si Si4 0.600593 0.524050 0.855838
Si Si5 0.484541 0.651228 0.771984
Si Si6 0.822626 0.750000 0.544599
Si Si7 0.433686 0.519649 0.580653
Si Si8 0.946200 0.343176 0.918139
O O1 0.641801 0.833981 0.173755
O O2 0.521140 0.850980 0.120713
O O3 0.575041 0.958545 0.286786
O O4 0.602464 0.955263 0.016821
O O5 0.750000 0.750000 0.158881
O O6 0.819240 0.750000 0.380786
O O7 0.750000 0.556722 0.566686
O O8 0.662773 0.542222 0.765065
O O9 0.649513 0.658781 0.584259
O O10 0.627256 0.500631 0.516934
O O11 0.543864 0.585336 0.795832
O O12 0.584689 0.424556 0.846873
O O13 0.504230 0.750000 0.751561
O O14 0.443338 0.613079 0.646480
O O15 0.445510 0.648579 0.915945
O O16 0.750000 0.750000 0.603132
O O17 0.500000 0.500000 0.500000
O O18 0.921414 0.250000 0.879391
#
# Coordination Sequence:
#
# PCOD9447278 Si02
#       8
#     8   4   8   8   8   4   8   8
#     4  11  20  35  57  82 120 156 191 244 292 346
#     4  11  22  35  55  87 119 161 207 238 284 363
#     4  11  24  39  58  84 122 162 193 241 305 361
#     4  11  21  37  59  86 121 156 198 241 300 363
#     4  10  20  34  58  90 120 150 197 249 297 347
#     4   9  20  37  55  79 117 161 197 230 286 361
#     4  12  21  37  59  87 117 154 200 247 293 353
#     4  10  18  34  59  88 117 150 189 251 307 341
#
# _framework density 17.588756
#
# number of rings (size 3 to 8) (size 9 to 14) (size 15 to 20)
#    0.000    1.286    6.429    0.857    2.000    0.571 
#    1.286    1.429    0.000    1.714    0.000    2.000 
#    0.000    0.000    0.000    0.000    0.000    0.000 
#
# Total GULP energy -312157.274905 kJ/mol
# GULP energy per Si atom -5574.237052 kJ/mol
# Density = 1.754872 g / cm^3
# Si number density = 17.588756 Si / 1000 Ang^3
#
#
#
# Elastic Constant Matrix: (Units=GPa)
#
#
# Indices 1 2 3 4 5 6 
#
# 1 69.8321 33.7583 31.3917 0.0000 0.0000 0.0000
# 2 33.7583 135.5355 32.7650 0.0000 0.0000 0.0000
# 3 31.3917 32.7650 72.8141 0.0000 0.0000 0.0000
# 4 0.0000 0.0000 0.0000 -33.9724 0.0000 0.0000
# 5 0.0000 0.0000 0.0000 0.0000 21.3065 0.0000
# 6 0.0000 0.0000 0.0000 0.0000 0.0000 -51.2995
#
#
#
# Elastic Compliance Matrix: (Units=1/GPa)
#
#
# Indices 1 2 3 4 5 6 
#
# 1 0.018830 -0.003060 -0.006741 0.000000 0.000000 0.000000
# 2 -0.003060 0.008776 -0.002630 0.000000 0.000000 0.000000
# 3 -0.006741 -0.002630 0.017823 0.000000 0.000000 0.000000
# 4 0.000000 0.000000 0.000000 -0.029436 0.000000 0.000000
# 5 0.000000 0.000000 0.000000 0.000000 0.046934 0.000000
# 6 0.000000 0.000000 0.000000 0.000000 0.000000 -0.019493
#
#
# Mechanical properties :
#
#
# Convention : Reuss Voigt Hill
#
# Bulk Modulus (GPa) = 48.62134 52.66796 50.64465
# Shear Modulus (GPa) = 66.53254 -0.77529 32.87862
#
# Velocity S-wave (km/s) = 6.15702 -0.66464 4.32823
# Velocity P-wave (km/s) = 8.84582 5.42403 7.33719
#
# Compressibility (1/GPa) = 0.02056710
#
# Stress axis : x y z
#
# Youngs Moduli (GPa) = 53.10753 113.94553 56.10726
#
# Poissons Ratio (x) = 0.34872 0.37821
# Poissons Ratio (y) = 0.16253 0.14754
# Poissons Ratio (z) = 0.35799 0.29964
#
# Static dielectric constant tensor:
#      x y z
#    x 1.598700 0.000000 0.000000 
#    y 0.000000 1.597750 0.000000 
#    z 0.000000 0.000000 1.619580 
# 
# From -- ./inp_files/11472.got.cif
#   From: 2010.05.17/outbox.cif.g08.bks.cpg/sg59_6_cif.got.tgz:11472.got - 2010.06.03 14:40:33.
