data_PCOD9447328
_publ_section_title
;
Structure prediction by ZEFSAII (Michael W. Deem and Ramdas Pophale) SiO2 
 PCOD9447328
Probable space group: P M M N
;
_chemical_formula_sum "Si O2"
_cell_formula_units_Z 32
_cell_length_a 5.528437
_cell_length_b 21.519899
_cell_length_c 11.245115
_cell_angle_alpha 90.000000
_cell_angle_beta 90.000000
_cell_angle_gamma 90.000000
_cell_volume 1337.847141
_symmetry_space_group_name_H-M "P M M N"
_symmetry_group_IT_number 59
_space_group.IT_coordinate_system_code '2'
_symmetry_cell_setting 'orthorhombic'
loop_
_space_group_symop_operation_xyz
x,y,z
1/2-x,1/2-y,z
1/2+x,-y,-z
-x,1/2+y,-z
-x,-y,-z
1/2+x,1/2+y,-z
1/2-x,y,z
x,1/2-y,z
loop_
_atom_site_type_symbol
_atom_site_label
_atom_site_fract_x
_atom_site_fract_y
_atom_site_fract_z
Si Si1 0.250000 0.547253 0.954259
Si Si2 0.250000 0.086390 0.049706
Si Si3 0.250000 0.042002 0.355554
Si Si4 0.250000 0.180498 0.415705
Si Si5 0.250000 0.638137 0.483869
Si Si6 0.250000 0.887176 0.212822
Si Si7 0.750000 0.009267 0.380834
Si Si8 0.750000 0.677341 0.144775
O O1 0.488905 0.575264 0.895193
O O2 0.250000 0.567796 0.095058
O O3 0.250000 0.472531 0.955764
O O4 0.250000 0.153062 0.990549
O O5 0.250000 0.116579 0.336360
O O6 0.493151 0.005802 0.316335
O O7 0.250000 0.033866 0.501463
O O8 0.250000 0.250000 0.360155
O O9 0.499733 0.174457 0.491033
O O10 0.250000 0.607217 0.355188
O O11 0.250000 0.580076 0.573726
O O12 0.502270 0.850253 0.195398
O O13 0.750000 0.750000 0.157400
#
# Coordination Sequence:
#
# PCOD9447328 Si02
#       8
#     4   4   4   4   4   4   4   4
#     4   8  14  25  39  52  66  87 117 152 184 207
#     4   8  14  25  39  52  66  87 117 152 184 207
#     4   8  14  25  39  52  66  87 117 152 184 207
#     4  10  19  28  38  53  74 100 126 149 174 209
#     4  10  19  28  38  53  74 100 126 149 174 209
#     4  10  19  28  38  53  74 100 126 149 174 209
#     4   8  14  25  39  52  66  87 117 152 184 207
#     4  10  19  28  38  53  74 100 126 149 174 209
#
# _framework density 23.919024
#
# number of rings (size 3 to 8) (size 9 to 14) (size 15 to 20)
#    0.000    3.000    0.000    1.500    0.000    3.000 
#    0.000    0.000    0.000    0.000    0.000    0.000 
#    0.000    1.000    0.000    0.000    0.000  190.000 
#
# Total GULP energy -178364.413236 kJ/mol
# GULP energy per Si atom -5573.887914 kJ/mol
# Density = 2.386458 g / cm^3
# Si number density = 23.919024 Si / 1000 Ang^3
#
#
#
# Elastic Constant Matrix: (Units=GPa)
#
#
# Indices 1 2 3 4 5 6 
#
# 1 249.4403 25.5759 9.8846 0.0000 0.0000 0.0000
# 2 25.5759 76.2444 -20.0134 0.0000 0.0000 0.0000
# 3 9.8846 -20.0134 55.1175 0.0000 0.0000 0.0000
# 4 0.0000 0.0000 0.0000 7.5914 0.0000 0.0000
# 5 0.0000 0.0000 0.0000 0.0000 4.5222 0.0000
# 6 0.0000 0.0000 0.0000 0.0000 0.0000 45.4923
#
#
#
# Elastic Compliance Matrix: (Units=1/GPa)
#
#
# Indices 1 2 3 4 5 6 
#
# 1 0.004249 -0.001797 -0.001414 0.000000 0.000000 0.000000
# 2 -0.001797 0.015257 0.005862 0.000000 0.000000 0.000000
# 3 -0.001414 0.005862 0.020525 0.000000 0.000000 0.000000
# 4 0.000000 0.000000 0.000000 0.131728 0.000000 0.000000
# 5 0.000000 0.000000 0.000000 0.000000 0.221130 0.000000
# 6 0.000000 0.000000 0.000000 0.000000 0.000000 0.021982
#
#
# Mechanical properties :
#
#
# Convention : Reuss Voigt Hill
#
# Bulk Modulus (GPa) = 22.05858 45.74404 33.90131
# Shear Modulus (GPa) = 11.77356 35.87819 23.82588
#
# Velocity S-wave (km/s) = 2.22102 3.87717 3.15954
# Velocity P-wave (km/s) = 3.97737 6.26173 5.24541
#
# Compressibility (1/GPa) = 0.04533384
#
# Stress axis : x y z
#
# Youngs Moduli (GPa) = 235.33610 65.54303 48.72034
#
# Poissons Ratio (x) = 0.11776 0.06891
# Poissons Ratio (y) = 0.42282 -0.28561
# Poissons Ratio (z) = 0.33287 -0.38422
#
# Static dielectric constant tensor:
#      x y z
#    x 2.101220 0.000000 0.000000 
#    y 0.000000 1.892290 0.000000 
#    z 0.000000 0.000000 1.915140 
# 
# From -- ./inp_files/1134.got.cif
#   From: 2010.05.17/outbox.cif.g08.bks.cpg/sg59_1_cif.got.tgz:1134.got - 2010.06.03 14:40:33.
