data_PCOD9447326
_publ_section_title
;
Structure prediction by ZEFSAII (Michael W. Deem and Ramdas Pophale) SiO2 
 PCOD9447326
Probable space group: P M M N
;
_chemical_formula_sum "Si O2"
_cell_formula_units_Z 56
_cell_length_a 7.749014
_cell_length_b 27.869844
_cell_length_c 14.970578
_cell_angle_alpha 90.000000
_cell_angle_beta 90.000000
_cell_angle_gamma 90.000000
_cell_volume 3233.103083
_symmetry_space_group_name_H-M "P M M N"
_symmetry_group_IT_number 59
_space_group.IT_coordinate_system_code '2'
_symmetry_cell_setting 'orthorhombic'
loop_
_space_group_symop_operation_xyz
x,y,z
1/2-x,1/2-y,z
1/2+x,-y,-z
-x,1/2+y,-z
-x,-y,-z
1/2+x,1/2+y,-z
1/2-x,y,z
x,1/2-y,z
loop_
_atom_site_type_symbol
_atom_site_label
_atom_site_fract_x
_atom_site_fract_y
_atom_site_fract_z
Si Si1 0.547884 0.928489 0.565835
Si Si2 0.949131 0.379955 0.975044
Si Si3 0.541082 0.439590 0.818465
Si Si4 0.455980 0.034524 0.619857
Si Si5 0.954662 0.696327 0.878057
Si Si6 0.958219 0.956787 0.882628
Si Si7 0.539673 0.621906 0.734883
O O1 0.750000 0.917059 0.555736
O O2 0.477033 0.935645 0.465976
O O3 0.474379 0.889938 0.635732
O O4 0.533409 0.981102 0.611520
O O5 0.750000 0.367222 0.963555
O O6 0.025781 0.337725 0.035433
O O7 0.963509 0.428561 0.034025
O O8 0.022436 0.395230 0.878723
O O9 0.750000 0.439777 0.823308
O O10 0.493000 0.441677 0.714821
O O11 0.481101 0.489613 0.863207
O O12 0.250000 0.028830 0.610203
O O13 0.750000 0.700282 0.863817
O O14 0.025396 0.750000 0.888906
O O15 0.024327 0.667401 0.791720
O O16 0.750000 0.956774 0.893653
O O17 0.999268 0.923983 0.796902
O O18 0.750000 0.624858 0.730735
#
# Coordination Sequence:
#
# PCOD9447326 Si02
#       7
#     8   8   8   8   8   8   8
#     4   9  16  29  43  59  88 122 151 184 225 261
#     4  10  20  30  44  66  89 115 148 187 228 266
#     4  10  19  31  43  58  88 127 156 182 220 263
#     4  10  19  26  40  64  88 119 158 192 217 249
#     4   9  18  33  51  69  88 113 145 180 223 279
#     4   9  16  28  44  60  85 123 154 179 215 259
#     4   8  13  25  46  64  83 115 148 176 215 265
#
# _framework density 17.320820000000001
#
# number of rings (size 3 to 8) (size 9 to 14) (size 15 to 20)
#    0.000    2.714    1.429    2.143    0.000    2.571 
#    0.000    0.000    0.000    0.000    0.000    1.000 
#    0.000    3.429    0.000    0.000    0.000    0.000 
#
# Total GULP energy -311952.925781 kJ/mol
# GULP energy per Si atom -5570.587960 kJ/mol
# Density = 1.728140 g / cm^3
# Si number density = 17.320820 Si / 1000 Ang^3
#
#
#
# Elastic Constant Matrix: (Units=GPa)
#
#
# Indices 1 2 3 4 5 6 
#
# 1 19.9138 3.2761 -11.8900 0.0000 0.0000 0.0000
# 2 3.2761 96.9435 64.9465 0.0000 0.0000 0.0000
# 3 -11.8900 64.9465 122.6512 0.0000 0.0000 0.0000
# 4 0.0000 0.0000 0.0000 8.9753 0.0000 0.0000
# 5 0.0000 0.0000 0.0000 0.0000 15.6178 0.0000
# 6 0.0000 0.0000 0.0000 0.0000 0.0000 8.5509
#
#
#
# Elastic Compliance Matrix: (Units=1/GPa)
#
#
# Indices 1 2 3 4 5 6 
#
# 1 0.057815 -0.008847 0.010289 0.000000 0.000000 0.000000
# 2 -0.008847 0.017340 -0.010040 0.000000 0.000000 0.000000
# 3 0.010289 -0.010040 0.014467 0.000000 0.000000 0.000000
# 4 0.000000 0.000000 0.000000 0.111416 0.000000 0.000000
# 5 0.000000 0.000000 0.000000 0.000000 0.064030 0.000000
# 6 0.000000 0.000000 0.000000 0.000000 0.000000 0.116947
#
#
# Mechanical properties :
#
#
# Convention : Reuss Voigt Hill
#
# Bulk Modulus (GPa) = 13.80685 39.13043 26.46864
# Shear Modulus (GPa) = 11.81048 18.84053 15.32550
#
# Velocity S-wave (km/s) = 2.61409 3.30167 2.97779
# Velocity P-wave (km/s) = 4.13519 6.09715 5.20937
#
# Compressibility (1/GPa) = 0.07242784
#
# Stress axis : x y z
#
# Youngs Moduli (GPa) = 17.29643 57.66916 69.12315
#
# Poissons Ratio (x) = 0.51021 -0.71124
# Poissons Ratio (y) = 0.15302 0.69398
# Poissons Ratio (z) = -0.17797 0.57898
#
# Static dielectric constant tensor:
#      x y z
#    x 1.627700 0.000000 0.000000 
#    y 0.000000 1.579370 0.000000 
#    z 0.000000 0.000000 1.633370 
# 
# From -- ./inp_files/21767.got.cif
#   From: 2010.05.17/outbox.cif.g08.bks.cpg/sg59_11_cif.got.tgz:21767.got - 2010.06.03 14:40:33.
