data_PCOD9447848
_publ_section_title
;
Structure prediction by ZEFSAII (Michael W. Deem and Ramdas Pophale) SiO2 
 PCOD9447848
Probable space group: P M M N
;
_chemical_formula_sum "Si O2"
_cell_formula_units_Z 56
_cell_length_a 9.133912
_cell_length_b 18.835806
_cell_length_c 19.231212
_cell_angle_alpha 90.000000
_cell_angle_beta 90.000000
_cell_angle_gamma 90.000000
_cell_volume 3308.626069
_symmetry_space_group_name_H-M "P M M N"
_symmetry_group_IT_number 59
_space_group.IT_coordinate_system_code '2'
_symmetry_cell_setting 'orthorhombic'
loop_
_space_group_symop_operation_xyz
x,y,z
1/2-x,1/2-y,z
1/2+x,-y,-z
-x,1/2+y,-z
-x,-y,-z
1/2+x,1/2+y,-z
1/2-x,y,z
x,1/2-y,z
loop_
_atom_site_type_symbol
_atom_site_label
_atom_site_fract_x
_atom_site_fract_y
_atom_site_fract_z
Si Si1 0.924824 0.089356 0.399804
Si Si2 0.923323 0.325954 0.129185
Si Si3 0.575125 0.931536 0.344830
Si Si4 0.083630 0.132640 0.265212
Si Si5 0.425706 0.520304 0.927812
Si Si6 0.073998 0.167019 0.528000
Si Si7 0.417441 0.529395 0.208633
O O1 0.750000 0.095217 0.403080
O O2 0.988964 0.133453 0.334865
O O3 0.996951 0.120093 0.469045
O O4 0.961058 0.006549 0.383405
O O5 0.750000 0.330723 0.144295
O O6 0.951323 0.250000 0.093766
O O7 0.960840 0.396714 0.087192
O O8 0.009184 0.327692 0.201491
O O9 0.750000 0.932935 0.332335
O O10 0.539795 0.867934 0.397359
O O11 0.493648 0.927830 0.271079
O O12 0.250000 0.155577 0.278161
O O13 0.086211 0.050913 0.238967
O O14 0.250000 0.512093 0.930253
O O15 0.491980 0.476249 0.862847
O O16 0.500000 0.500000 0.000000
O O17 0.250000 0.162088 0.518689
O O18 0.032759 0.250000 0.523838
O O19 0.250000 0.551761 0.195972
#
# Coordination Sequence:
#
# PCOD9447848 Si02
#       7
#     8   8   8   8   8   8   8
#     4  10  19  31  49  71  95 125 162 203 244 289
#     4   9  18  32  49  70  98 132 165 195 233 283
#     4   9  18  33  52  72  94 123 161 203 246 291
#     4   9  17  29  46  69  96 124 155 192 234 283
#     4  10  19  32  52  77 105 133 161 197 239 282
#     4  10  21  35  49  67  94 127 162 204 254 300
#     4   9  17  30  50  75  98 121 154 194 235 282
#
# _framework density 16.925454999999999
#
# number of rings (size 3 to 8) (size 9 to 14) (size 15 to 20)
#    0.000    2.571    0.000    2.143    0.000    6.286 
#    0.000    0.000    0.000    0.857    0.000    0.000 
#    0.000    0.000    0.000    0.000    0.000    0.000 
#
# Total GULP energy -312148.906739 kJ/mol
# GULP energy per Si atom -5574.087620 kJ/mol
# Density = 1.688693 g / cm^3
# Si number density = 16.925455 Si / 1000 Ang^3
#
#
#
# Elastic Constant Matrix: (Units=GPa)
#
#
# Indices 1 2 3 4 5 6 
#
# 1 54.5536 26.1930 56.1529 0.0000 0.0000 0.0000
# 2 26.1930 41.8901 29.2261 0.0000 0.0000 0.0000
# 3 56.1529 29.2261 122.0069 0.0000 0.0000 0.0000
# 4 0.0000 0.0000 0.0000 9.9187 0.0000 0.0000
# 5 0.0000 0.0000 0.0000 0.0000 34.5022 0.0000
# 6 0.0000 0.0000 0.0000 0.0000 0.0000 13.1976
#
#
#
# Elastic Compliance Matrix: (Units=1/GPa)
#
#
# Indices 1 2 3 4 5 6 
#
# 1 0.041569 -0.015181 -0.015495 0.000000 0.000000 0.000000
# 2 -0.015181 0.034207 -0.001207 0.000000 0.000000 0.000000
# 3 -0.015495 -0.001207 0.015617 0.000000 0.000000 0.000000
# 4 0.000000 0.000000 0.000000 0.100820 0.000000 0.000000
# 5 0.000000 0.000000 0.000000 0.000000 0.028984 0.000000
# 6 0.000000 0.000000 0.000000 0.000000 0.000000 0.075771
#
#
# Mechanical properties :
#
#
# Convention : Reuss Voigt Hill
#
# Bulk Modulus (GPa) = 36.19838 49.06608 42.63223
# Shear Modulus (GPa) = 13.51557 18.64895 16.08226
#
# Velocity S-wave (km/s) = 2.82890 3.32298 3.08585
# Velocity P-wave (km/s) = 5.66601 6.61630 6.15951
#
# Compressibility (1/GPa) = 0.02762554
#
# Stress axis : x y z
#
# Youngs Moduli (GPa) = 24.05619 29.23412 64.03274
#
# Poissons Ratio (x) = 0.44382 0.99221
# Poissons Ratio (y) = 0.36521 0.07728
# Poissons Ratio (z) = 0.37276 0.03528
#
# Static dielectric constant tensor:
#      x y z
#    x 1.571810 0.000000 0.000000 
#    y 0.000000 1.592360 0.000000 
#    z 0.000000 0.000000 1.541040 
# 
# From -- ./inp_files/21081.got.cif
#   From: 2010.05.17/outbox.cif.g08.bks.cpg/sg59_11_cif.got.tgz:21081.got - 2010.06.03 14:40:33.
