data_PCOD9447246
_publ_section_title
;
Structure prediction by ZEFSAII (Michael W. Deem and Ramdas Pophale) SiO2 
 PCOD9447246
Probable space group: P M M N
;
_chemical_formula_sum "Si O2"
_cell_formula_units_Z 40
_cell_length_a 8.421904
_cell_length_b 10.391176
_cell_length_c 24.401674
_cell_angle_alpha 90.000000
_cell_angle_beta 90.000000
_cell_angle_gamma 90.000000
_cell_volume 2135.475574
_symmetry_space_group_name_H-M "P M M N"
_symmetry_group_IT_number 59
_space_group.IT_coordinate_system_code '2'
_symmetry_cell_setting 'orthorhombic'
loop_
_space_group_symop_operation_xyz
x,y,z
1/2-x,1/2-y,z
1/2+x,-y,-z
-x,1/2+y,-z
-x,-y,-z
1/2+x,1/2+y,-z
1/2-x,y,z
x,1/2-y,z
loop_
_atom_site_type_symbol
_atom_site_label
_atom_site_fract_x
_atom_site_fract_y
_atom_site_fract_z
Si Si1 0.558044 0.395933 0.747087
Si Si2 0.440128 0.103178 0.043602
Si Si3 0.559938 0.103428 0.166010
Si Si4 0.058347 0.250000 0.420241
Si Si5 0.557898 0.250000 0.544453
Si Si6 0.943764 0.477521 0.625331
O O1 0.750000 0.396305 0.747002
O O2 0.505567 0.250000 0.759684
O O3 0.501106 0.500002 0.790733
O O4 0.505113 0.433943 0.685710
O O5 0.250000 0.101540 0.044095
O O6 0.492691 0.250000 0.030387
O O7 0.500915 0.073488 0.104708
O O8 0.500000 0.000000 0.000000
O O9 0.750000 0.102412 0.166085
O O10 0.505950 0.250000 0.179203
O O11 0.250000 0.250000 0.418113
O O12 0.002256 0.379947 0.390688
O O13 0.007908 0.250000 0.483425
O O14 0.750000 0.250000 0.541785
O O15 0.507469 0.125023 0.579225
O O16 0.750000 0.476857 0.625756
#
# Coordination Sequence:
#
# PCOD9447246 Si02
#       6
#     8   8   8   4   4   8
#     4  10  20  36  58  82 107 142 189 235 279 333
#     4  10  21  38  61  89 119 154 194 233 276 327
#     4  10  22  39  58  83 116 151 187 232 282 331
#     4  10  20  32  50  78 104 132 175 220 267 328
#     4  10  18  34  54  72 102 138 171 216 271 328
#     4   9  18  33  53  76 102 135 177 222 270 326
#
# _framework density 18.731190999999999
#
# number of rings (size 3 to 8) (size 9 to 14) (size 15 to 20)
#    0.000    2.200    1.000    1.800    1.400    3.600 
#    0.000    2.000    0.000    0.000    0.000    0.000 
#    0.000    0.000    0.000    0.000    0.000    0.000 
#
# Total GULP energy -223337.934281 kJ/mol
# GULP energy per Si atom -5583.448357 kJ/mol
# Density = 1.868856 g / cm^3
# Si number density = 18.731191 Si / 1000 Ang^3
#
#
#
# Elastic Constant Matrix: (Units=GPa)
#
#
# Indices 1 2 3 4 5 6 
#
# 1 18.0258 25.2088 21.3357 0.0000 0.0000 0.0000
# 2 25.2088 171.5245 103.5986 0.0000 0.0000 0.0000
# 3 21.3357 103.5986 132.4739 0.0000 0.0000 0.0000
# 4 0.0000 0.0000 0.0000 43.6310 0.0000 0.0000
# 5 0.0000 0.0000 0.0000 0.0000 33.1840 0.0000
# 6 0.0000 0.0000 0.0000 0.0000 0.0000 19.5953
#
#
#
# Elastic Compliance Matrix: (Units=1/GPa)
#
#
# Indices 1 2 3 4 5 6 
#
# 1 0.072533 -0.006831 -0.006340 0.000000 0.000000 0.000000
# 2 -0.006831 0.011692 -0.008043 0.000000 0.000000 0.000000
# 3 -0.006340 -0.008043 0.014860 0.000000 0.000000 0.000000
# 4 0.000000 0.000000 0.000000 0.022919 0.000000 0.000000
# 5 0.000000 0.000000 0.000000 0.000000 0.030135 0.000000
# 6 0.000000 0.000000 0.000000 0.000000 0.000000 0.051033
#
#
# Mechanical properties :
#
#
# Convention : Reuss Voigt Hill
#
# Bulk Modulus (GPa) = 17.65023 69.14560 43.39792
# Shear Modulus (GPa) = 18.90461 30.74082 24.82271
#
# Velocity S-wave (km/s) = 3.18033 4.05551 3.64429
# Velocity P-wave (km/s) = 4.78846 7.67622 6.39741
#
# Compressibility (1/GPa) = 0.05665648
#
# Stress axis : x y z
#
# Youngs Moduli (GPa) = 13.78687 85.52759 67.29500
#
# Poissons Ratio (x) = 0.58423 0.42664
# Poissons Ratio (y) = 0.09418 0.54128
# Poissons Ratio (z) = 0.08741 0.68794
#
# Static dielectric constant tensor:
#      x y z
#    x 1.646980 0.000000 0.000000 
#    y 0.000000 1.650860 0.000000 
#    z 0.000000 0.000000 1.598840 
# 
# From -- ./inp_files/32418.got.cif
#   From: 2010.05.17/outbox.cif.g08.bks.cpg/sg59_17_cif.got.tgz:32418.got - 2010.06.03 14:40:33.
