data_PCOD9447255
_publ_section_title
;
Structure prediction by ZEFSAII (Michael W. Deem and Ramdas Pophale) SiO2 
 PCOD9447255
Probable space group: P M M N
;
_chemical_formula_sum "Si O2"
_cell_formula_units_Z 56
_cell_length_a 21.665072
_cell_length_b 9.014145
_cell_length_c 17.283746
_cell_angle_alpha 90.000000
_cell_angle_beta 90.000000
_cell_angle_gamma 90.000000
_cell_volume 3375.379060
_symmetry_space_group_name_H-M "P M M N"
_symmetry_group_IT_number 59
_space_group.IT_coordinate_system_code '2'
_symmetry_cell_setting 'orthorhombic'
loop_
_space_group_symop_operation_xyz
x,y,z
1/2-x,1/2-y,z
1/2+x,-y,-z
-x,1/2+y,-z
-x,-y,-z
1/2+x,1/2+y,-z
1/2-x,y,z
x,1/2-y,z
loop_
_atom_site_type_symbol
_atom_site_label
_atom_site_fract_x
_atom_site_fract_y
_atom_site_fract_z
Si Si1 0.176625 0.418797 0.359490
Si Si2 0.820709 0.071257 0.962529
Si Si3 0.559994 0.929567 0.042514
Si Si4 0.032196 0.072109 0.617986
Si Si5 0.371514 0.572198 0.205001
Si Si6 0.485992 0.429628 0.792076
Si Si7 0.906559 0.074234 0.523769
O O1 0.250000 0.418314 0.358854
O O2 0.153498 0.250000 0.362628
O O3 0.153507 0.495205 0.281250
O O4 0.151491 0.506013 0.433218
O O5 0.750000 0.030704 0.983349
O O6 0.827131 0.250000 0.971763
O O7 0.832736 0.038282 0.871782
O O8 0.876003 0.991342 0.008172
O O9 0.557279 0.750000 0.035389
O O10 0.553669 0.971393 0.133268
O O11 0.500000 0.000000 0.000000
O O12 0.040636 0.250000 0.616606
O O13 0.034168 0.019178 0.706752
O O14 0.964772 0.041587 0.580855
O O15 0.079401 0.996770 0.559143
O O16 0.370027 0.750000 0.216582
O O17 0.442843 0.527388 0.193217
O O18 0.485495 0.250000 0.788805
O O19 0.901882 0.250000 0.516757
#
# Coordination Sequence:
#
# PCOD9447255 Si02
#       7
#     8   8   8   8   8   8   8
#     4  11  23  35  48  73 109 143 175 214 258 306
#     4  10  21  37  56  78 109 148 186 226 275 329
#     4  11  21  35  56  81 110 144 185 230 273 324
#     4   9  17  32  52  74 101 131 163 211 261 301
#     4  10  18  34  55  76 104 142 182 215 260 322
#     4   9  17  32  54  78 106 138 175 217 263 318
#     4  10  19  32  52  76 100 133 172 207 250 308
#
# _framework density 16.590727999999999
#
# number of rings (size 3 to 8) (size 9 to 14) (size 15 to 20)
#    0.000    2.000    2.857    1.714    0.000    3.143 
#    0.000    1.429    0.000    0.857    0.000    2.000 
#    0.000    0.000    0.000    0.000    0.000    0.000 
#
# Total GULP energy -312353.629383 kJ/mol
# GULP energy per Si atom -5577.743382 kJ/mol
# Density = 1.655297 g / cm^3
# Si number density = 16.590728 Si / 1000 Ang^3
#
#
#
# Elastic Constant Matrix: (Units=GPa)
#
#
# Indices 1 2 3 4 5 6 
#
# 1 91.6643 32.0321 53.3586 0.0000 0.0000 0.0000
# 2 32.0321 23.1166 34.2971 0.0000 0.0000 0.0000
# 3 53.3586 34.2971 124.3931 0.0000 0.0000 0.0000
# 4 0.0000 0.0000 0.0000 26.9837 0.0000 0.0000
# 5 0.0000 0.0000 0.0000 0.0000 20.7443 0.0000
# 6 0.0000 0.0000 0.0000 0.0000 0.0000 24.0685
#
#
#
# Elastic Compliance Matrix: (Units=1/GPa)
#
#
# Indices 1 2 3 4 5 6 
#
# 1 0.021361 -0.027083 -0.001695 0.000000 0.000000 0.000000
# 2 -0.027083 0.107544 -0.018034 0.000000 0.000000 0.000000
# 3 -0.001695 -0.018034 0.013738 0.000000 0.000000 0.000000
# 4 0.000000 0.000000 0.000000 0.037059 0.000000 0.000000
# 5 0.000000 0.000000 0.000000 0.000000 0.048206 0.000000
# 6 0.000000 0.000000 0.000000 0.000000 0.000000 0.041548
#
#
# Mechanical properties :
#
#
# Convention : Reuss Voigt Hill
#
# Bulk Modulus (GPa) = 20.40088 53.17217 36.78652
# Shear Modulus (GPa) = 13.17796 22.32505 17.75150
#
# Velocity S-wave (km/s) = 2.82138 3.67227 3.27458
# Velocity P-wave (km/s) = 4.78924 7.07811 6.04303
#
# Compressibility (1/GPa) = 0.04901750
#
# Stress axis : x y z
#
# Youngs Moduli (GPa) = 46.81531 9.29851 72.78822
#
# Poissons Ratio (x) = 0.25184 0.12340
# Poissons Ratio (y) = 1.26792 1.31267
# Poissons Ratio (z) = 0.07937 0.16769
#
# Static dielectric constant tensor:
#      x y z
#    x 1.548690 0.000000 0.000000 
#    y 0.000000 1.560420 0.000000 
#    z 0.000000 0.000000 1.556630 
# 
# From -- ./inp_files/28062.got.cif
#   From: 2010.05.17/outbox.cif.g08.bks.cpg/sg59_15_cif.got.tgz:28062.got - 2010.06.03 14:40:33.
