data_PCOD9447305
_publ_section_title
;
Structure prediction by ZEFSAII (Michael W. Deem and Ramdas Pophale) SiO2 
 PCOD9447305
Probable space group: P M M N
;
_chemical_formula_sum "Si O2"
_cell_formula_units_Z 64
_cell_length_a 31.607634
_cell_length_b 8.762163
_cell_length_c 12.244301
_cell_angle_alpha 90.000000
_cell_angle_beta 90.000000
_cell_angle_gamma 90.000000
_cell_volume 3391.074359
_symmetry_space_group_name_H-M "P M M N"
_symmetry_group_IT_number 59
_space_group.IT_coordinate_system_code '2'
_symmetry_cell_setting 'orthorhombic'
loop_
_space_group_symop_operation_xyz
x,y,z
1/2-x,1/2-y,z
1/2+x,-y,-z
-x,1/2+y,-z
-x,-y,-z
1/2+x,1/2+y,-z
1/2-x,y,z
x,1/2-y,z
loop_
_atom_site_type_symbol
_atom_site_label
_atom_site_fract_x
_atom_site_fract_y
_atom_site_fract_z
Si Si1 0.203256 0.935903 0.995605
Si Si2 0.124843 0.934251 0.387478
Si Si3 0.954966 0.065983 0.467581
Si Si4 0.546663 0.569549 0.010079
Si Si5 0.121364 0.565083 0.134126
Si Si6 0.296949 0.068032 0.520798
Si Si7 0.579620 0.429631 0.231313
Si Si8 0.180801 0.929680 0.751058
O O1 0.250000 0.983307 0.034389
O O2 0.202222 0.750000 0.996093
O O3 0.197295 0.981958 0.869194
O O4 0.163444 0.985681 0.068310
O O5 0.125897 0.750000 0.391693
O O6 0.082589 0.984740 0.451400
O O7 0.123905 0.980152 0.260812
O O8 0.165879 0.994615 0.450074
O O9 0.956536 0.250000 0.472163
O O10 0.942481 0.024083 0.344031
O O11 0.000000 0.000000 0.500000
O O12 0.544655 0.750000 0.995459
O O13 0.579674 0.499164 0.923765
O O14 0.500000 0.500000 0.000000
O O15 0.564301 0.526506 0.129345
O O16 0.119656 0.750000 0.128543
O O17 0.250000 0.020036 0.483562
O O18 0.299997 0.250000 0.513430
O O19 0.302304 0.018303 0.646693
O O20 0.570517 0.250000 0.209758
O O21 0.629982 0.442320 0.246265
O O22 0.191508 0.750000 0.738529
#
# Coordination Sequence:
#
# PCOD9447305 Si02
#       8
#     8   8   8   8   8   8   8   8
#     4   9  17  31  56  89 119 150 190 239 295 348
#     4  10  22  41  63  86 115 158 205 247 293 355
#     4  10  22  39  59  88 120 152 197 246 297 355
#     4  12  26  42  63  90 122 159 202 246 297 358
#     4  10  21  40  63  88 122 156 197 251 297 349
#     4  11  24  39  57  86 124 161 200 250 304 356
#     4  10  20  39  64  89 120 156 196 247 300 350
#     4  10  18  35  62  87 118 156 198 246 295 352
#
# _framework density 18.873073999999999
#
# number of rings (size 3 to 8) (size 9 to 14) (size 15 to 20)
#    0.000    1.750    2.500    1.875    1.750    4.000 
#    0.000    1.250    0.000    0.375    0.000    0.000 
#    0.000    0.000    0.000    0.000    0.000    0.000 
#
# Total GULP energy -357550.633502 kJ/mol
# GULP energy per Si atom -5586.728648 kJ/mol
# Density = 1.883012 g / cm^3
# Si number density = 18.873074 Si / 1000 Ang^3
#
#
#
# Elastic Constant Matrix: (Units=GPa)
#
#
# Indices 1 2 3 4 5 6 
#
# 1 156.4032 30.2762 75.5775 0.0000 0.0000 0.0000
# 2 30.2762 20.1303 30.8132 0.0000 0.0000 0.0000
# 3 75.5775 30.8132 136.7344 0.0000 0.0000 0.0000
# 4 0.0000 0.0000 0.0000 15.0023 0.0000 0.0000
# 5 0.0000 0.0000 0.0000 0.0000 51.1222 0.0000
# 6 0.0000 0.0000 0.0000 0.0000 0.0000 25.1706
#
#
#
# Elastic Compliance Matrix: (Units=1/GPa)
#
#
# Indices 1 2 3 4 5 6 
#
# 1 0.009869 -0.009913 -0.003221 0.000000 0.000000 0.000000
# 2 -0.009913 0.085791 -0.013854 0.000000 0.000000 0.000000
# 3 -0.003221 -0.013854 0.012216 0.000000 0.000000 0.000000
# 4 0.000000 0.000000 0.000000 0.066657 0.000000 0.000000
# 5 0.000000 0.000000 0.000000 0.000000 0.019561 0.000000
# 6 0.000000 0.000000 0.000000 0.000000 0.000000 0.039729
#
#
# Mechanical properties :
#
#
# Convention : Reuss Voigt Hill
#
# Bulk Modulus (GPa) = 18.55271 65.17798 41.86535
# Shear Modulus (GPa) = 16.35241 30.03243 23.19242
#
# Velocity S-wave (km/s) = 2.94673 3.99342 3.50932
# Velocity P-wave (km/s) = 4.62917 7.47483 6.21700
#
# Compressibility (1/GPa) = 0.05390047
#
# Stress axis : x y z
#
# Youngs Moduli (GPa) = 101.32588 11.65619 81.86047
#
# Poissons Ratio (x) = 0.11554 0.26368
# Poissons Ratio (y) = 1.00442 1.13410
# Poissons Ratio (z) = 0.32639 0.16149
#
# Static dielectric constant tensor:
#      x y z
#    x 1.641410 0.000000 0.000000 
#    y 0.000000 1.639660 0.000000 
#    z 0.000000 0.000000 1.634230 
# 
# From -- ./inp_files/19205.got.cif
#   From: 2010.05.17/outbox.cif.g08.bks.cpg/sg59_10_cif.got.tgz:19205.got - 2010.06.03 14:40:33.
