data_PCOD9447335
_publ_section_title
;
Structure prediction by ZEFSAII (Michael W. Deem and Ramdas Pophale) SiO2 
 PCOD9447335
Probable space group: P M M N
;
_chemical_formula_sum "Si O2"
_cell_formula_units_Z 64
_cell_length_a 9.296793
_cell_length_b 24.937011
_cell_length_c 18.432449
_cell_angle_alpha 90.000000
_cell_angle_beta 90.000000
_cell_angle_gamma 90.000000
_cell_volume 4273.272608
_symmetry_space_group_name_H-M "P M M N"
_symmetry_group_IT_number 59
_space_group.IT_coordinate_system_code '2'
_symmetry_cell_setting 'orthorhombic'
loop_
_space_group_symop_operation_xyz
x,y,z
1/2-x,1/2-y,z
1/2+x,-y,-z
-x,1/2+y,-z
-x,-y,-z
1/2+x,1/2+y,-z
1/2-x,y,z
x,1/2-y,z
loop_
_atom_site_type_symbol
_atom_site_label
_atom_site_fract_x
_atom_site_fract_y
_atom_site_fract_z
Si Si1 0.915687 0.921681 0.459400
Si Si2 0.583412 0.812699 0.215380
Si Si3 0.579185 0.811424 0.042497
Si Si4 0.083764 0.954482 0.596821
Si Si5 0.581651 0.083616 0.983806
Si Si6 0.918886 0.999694 0.115096
Si Si7 0.916438 0.110601 0.678343
Si Si8 0.081939 0.011874 0.264497
O O1 0.750000 0.906012 0.469571
O O2 0.003686 0.921290 0.534196
O O3 0.992592 0.888926 0.395673
O O4 0.916255 0.983729 0.431800
O O5 0.750000 0.828199 0.228009
O O6 0.567400 0.750000 0.234182
O O7 0.556522 0.817136 0.129292
O O8 0.481332 0.849394 0.262794
O O9 0.750000 0.818628 0.029306
O O10 0.541793 0.750000 0.022660
O O11 0.487623 0.858115 0.005992
O O12 0.250000 0.938674 0.606019
O O13 0.996966 0.955122 0.672005
O O14 0.750000 0.087427 0.964455
O O15 0.495149 0.051833 0.921216
O O16 0.569642 0.047138 0.055767
O O17 0.750000 0.988656 0.128026
O O18 0.998883 0.015451 0.188706
O O19 0.750000 0.122231 0.663327
O O20 0.924730 0.050367 0.710465
O O21 0.250000 0.026376 0.257797
#
# Coordination Sequence:
#
# PCOD9447335 Si02
#       8
#     8   8   8   8   8   8   8   8
#     4   9  16  26  40  57  79 109 141 170 202 240
#     4   9  18  31  44  59  81 109 141 176 213 253
#     4   9  18  32  49  67  87 114 147 182 222 267
#     4   9  16  26  40  58  82 110 138 170 206 242
#     4  10  20  32  46  65  88 115 148 185 224 266
#     4  10  20  32  45  62  87 119 151 183 222 267
#     4  10  19  28  40  60  84 110 142 178 213 252
#     4  10  19  29  42  62  86 112 145 180 214 256
#
# _framework density 14.976811
#
# number of rings (size 3 to 8) (size 9 to 14) (size 15 to 20)
#    0.000    2.500    0.000    3.750    0.000    9.000 
#    0.000    1.250    0.000    0.000    0.000    0.000 
#    0.000    1.000    0.000    7.250    0.000    6.125 
#
# Total GULP energy -356866.821741 kJ/mol
# GULP energy per Si atom -5576.044090 kJ/mol
# Density = 1.494272 g / cm^3
# Si number density = 14.976811 Si / 1000 Ang^3
#
#
#
# Elastic Constant Matrix: (Units=GPa)
#
#
# Indices 1 2 3 4 5 6 
#
# 1 120.9727 34.1288 46.8009 0.0000 0.0000 0.0000
# 2 34.1288 48.7825 4.6354 0.0000 0.0000 0.0000
# 3 46.8009 4.6354 58.5529 0.0000 0.0000 0.0000
# 4 0.0000 0.0000 0.0000 15.6084 0.0000 0.0000
# 5 0.0000 0.0000 0.0000 0.0000 28.6294 0.0000
# 6 0.0000 0.0000 0.0000 0.0000 0.0000 21.7643
#
#
#
# Elastic Compliance Matrix: (Units=1/GPa)
#
#
# Indices 1 2 3 4 5 6 
#
# 1 0.015517 -0.009750 -0.011630 0.000000 0.000000 0.000000
# 2 -0.009750 0.026782 0.005673 0.000000 0.000000 0.000000
# 3 -0.011630 0.005673 0.025926 0.000000 0.000000 0.000000
# 4 0.000000 0.000000 0.000000 0.064068 0.000000 0.000000
# 5 0.000000 0.000000 0.000000 0.000000 0.034929 0.000000
# 6 0.000000 0.000000 0.000000 0.000000 0.000000 0.045947
#
#
# Mechanical properties :
#
#
# Convention : Reuss Voigt Hill
#
# Bulk Modulus (GPa) = 27.16758 44.38203 35.77480
# Shear Modulus (GPa) = 19.46644 22.71663 21.09153
#
# Velocity S-wave (km/s) = 3.60915 3.89882 3.75678
# Velocity P-wave (km/s) = 5.96213 7.06866 6.53884
#
# Compressibility (1/GPa) = 0.03680858
#
# Stress axis : x y z
#
# Youngs Moduli (GPa) = 64.44718 37.33907 38.57204
#
# Poissons Ratio (x) = 0.36407 0.44861
# Poissons Ratio (y) = 0.62839 -0.21883
# Poissons Ratio (z) = 0.74955 -0.21183
#
# Static dielectric constant tensor:
#      x y z
#    x 1.503570 0.000000 0.000000 
#    y 0.000000 1.479580 0.000000 
#    z 0.000000 0.000000 1.482050 
# 
# From -- ./inp_files/26440.got.cif
#   From: 2010.05.17/outbox.cif.g08.bks.cpg/sg59_14_cif.got.tgz:26440.got - 2010.06.03 14:40:33.
