data_PCOD9447556
_publ_section_title
;
Structure prediction by ZEFSAII (Michael W. Deem and Ramdas Pophale) SiO2 
 PCOD9447556
Probable space group: P M M N
;
_chemical_formula_sum "Si O2"
_cell_formula_units_Z 64
_cell_length_a 9.357279
_cell_length_b 18.220294
_cell_length_c 23.200500
_cell_angle_alpha 90.000000
_cell_angle_beta 90.000000
_cell_angle_gamma 90.000000
_cell_volume 3955.508333
_symmetry_space_group_name_H-M "P M M N"
_symmetry_group_IT_number 59
_space_group.IT_coordinate_system_code '2'
_symmetry_cell_setting 'orthorhombic'
loop_
_space_group_symop_operation_xyz
x,y,z
1/2-x,1/2-y,z
1/2+x,-y,-z
-x,1/2+y,-z
-x,-y,-z
1/2+x,1/2+y,-z
1/2-x,y,z
x,1/2-y,z
loop_
_atom_site_type_symbol
_atom_site_label
_atom_site_fract_x
_atom_site_fract_y
_atom_site_fract_z
Si Si1 0.412363 0.110370 0.482891
Si Si2 0.086790 0.548191 0.418518
Si Si3 0.080029 0.016081 0.814936
Si Si4 0.086272 0.610528 0.020802
Si Si5 0.079432 0.975216 0.682823
Si Si6 0.913901 0.949402 0.918688
Si Si7 0.920044 0.830907 0.127556
Si Si8 0.921344 0.667476 0.638751
O O1 0.250000 0.127836 0.500504
O O2 0.514704 0.105289 0.537624
O O3 0.455653 0.161452 0.429540
O O4 0.410265 0.029453 0.453225
O O5 0.250000 0.566859 0.404183
O O6 0.992905 0.531228 0.362322
O O7 0.250000 0.006317 0.825575
O O8 0.044008 0.100403 0.831495
O O9 0.052122 0.998909 0.748442
O O10 0.992542 0.964571 0.858477
O O11 0.250000 0.633609 0.012749
O O12 0.001923 0.603549 0.960937
O O13 0.088113 0.528629 0.048905
O O14 0.003749 0.658480 0.067864
O O15 0.250000 0.972227 0.673120
O O16 0.008524 0.896029 0.670449
O O17 0.750000 0.926001 0.911313
O O18 0.750000 0.835546 0.116087
O O19 0.950445 0.750000 0.151837
O O20 0.750000 0.653211 0.643508
O O21 0.950105 0.750000 0.659240
#
# Coordination Sequence:
#
# PCOD9447556 Si02
#       8
#     8   8   8   8   8   8   8   8
#     4   8  14  25  42  64  88 112 140 177 223 273
#     4   9  16  26  42  64  89 116 146 183 225 267
#     4   9  18  31  46  67  94 123 158 199 238 275
#     4   9  16  26  42  65  92 117 141 176 224 273
#     4  10  19  30  46  68  94 125 161 198 234 276
#     4   9  16  26  43  66  89 115 147 182 221 267
#     4   9  17  30  48  68  91 120 154 193 236 282
#     4   9  18  32  49  69  93 120 151 191 239 288
#
# _framework density 16.179969
#
# number of rings (size 3 to 8) (size 9 to 14) (size 15 to 20)
#    0.000    3.000    0.000    2.250    0.000    7.500 
#    0.000    0.000    0.000    1.500    0.000    7.000 
#    0.000    0.000    0.000    0.000    0.000    0.000 
#
# Total GULP energy -356360.720634 kJ/mol
# GULP energy per Si atom -5568.136260 kJ/mol
# Density = 1.614314 g / cm^3
# Si number density = 16.179969 Si / 1000 Ang^3
#
#
#
# Elastic Constant Matrix: (Units=GPa)
#
#
# Indices 1 2 3 4 5 6 
#
# 1 89.6038 36.1164 77.6011 0.0000 0.0000 0.0000
# 2 36.1164 54.4152 39.1211 0.0000 0.0000 0.0000
# 3 77.6011 39.1211 117.1946 0.0000 0.0000 0.0000
# 4 0.0000 0.0000 0.0000 12.2592 0.0000 0.0000
# 5 0.0000 0.0000 0.0000 0.0000 27.3968 0.0000
# 6 0.0000 0.0000 0.0000 0.0000 0.0000 14.3815
#
#
#
# Elastic Compliance Matrix: (Units=1/GPa)
#
#
# Indices 1 2 3 4 5 6 
#
# 1 0.028013 -0.006917 -0.016240 0.000000 0.000000 0.000000
# 2 -0.006917 0.025888 -0.004062 0.000000 0.000000 0.000000
# 3 -0.016240 -0.004062 0.020642 0.000000 0.000000 0.000000
# 4 0.000000 0.000000 0.000000 0.081571 0.000000 0.000000
# 5 0.000000 0.000000 0.000000 0.000000 0.036501 0.000000
# 6 0.000000 0.000000 0.000000 0.000000 0.000000 0.069534
#
#
# Mechanical properties :
#
#
# Convention : Reuss Voigt Hill
#
# Bulk Modulus (GPa) = 49.73683 62.98788 56.36235
# Shear Modulus (GPa) = 15.46611 18.03251 16.74931
#
# Velocity S-wave (km/s) = 3.09509 3.34203 3.22092
# Velocity P-wave (km/s) = 6.60146 7.34209 6.98160
#
# Compressibility (1/GPa) = 0.02010583
#
# Stress axis : x y z
#
# Youngs Moduli (GPa) = 35.69809 38.62744 48.44536
#
# Poissons Ratio (x) = 0.26720 0.78674
# Poissons Ratio (y) = 0.24693 0.19676
# Poissons Ratio (z) = 0.57973 0.15689
#
# Static dielectric constant tensor:
#      x y z
#    x 1.549680 0.000000 0.000000 
#    y 0.000000 1.555250 0.000000 
#    z 0.000000 0.000000 1.523080 
# 
# From -- ./inp_files/29805.got.cif
#   From: 2010.05.17/outbox.cif.g08.bks.cpg/sg59_15_cif.got.tgz:29805.got - 2010.06.03 14:40:33.
