data_PCOD9447446
_publ_section_title
;
Structure prediction by ZEFSAII (Michael W. Deem and Ramdas Pophale) SiO2 
 PCOD9447446
Probable space group: P M M N
;
_chemical_formula_sum "Si O2"
_cell_formula_units_Z 56
_cell_length_a 18.279355
_cell_length_b 9.096160
_cell_length_c 19.546513
_cell_angle_alpha 90.000000
_cell_angle_beta 90.000000
_cell_angle_gamma 90.000000
_cell_volume 3250.036593
_symmetry_space_group_name_H-M "P M M N"
_symmetry_group_IT_number 59
_space_group.IT_coordinate_system_code '2'
_symmetry_cell_setting 'orthorhombic'
loop_
_space_group_symop_operation_xyz
x,y,z
1/2-x,1/2-y,z
1/2+x,-y,-z
-x,1/2+y,-z
-x,-y,-z
1/2+x,1/2+y,-z
1/2-x,y,z
x,1/2-y,z
loop_
_atom_site_type_symbol
_atom_site_label
_atom_site_fract_x
_atom_site_fract_y
_atom_site_fract_z
Si Si1 0.165719 0.572787 0.300663
Si Si2 0.029194 0.573120 0.931189
Si Si3 0.166120 0.075037 0.861630
Si Si4 0.661429 0.579524 0.409680
Si Si5 0.839054 0.080356 0.547606
Si Si6 0.111005 0.923696 0.726692
Si Si7 0.952164 0.577385 0.790156
O O1 0.250000 0.525183 0.291456
O O2 0.165247 0.750000 0.301266
O O3 0.139287 0.526361 0.376799
O O4 0.113228 0.512987 0.242475
O O5 0.033886 0.750000 0.936832
O O6 0.975137 0.538684 0.867527
O O7 0.107521 0.507051 0.909179
O O8 0.000000 0.500000 0.000000
O O9 0.250000 0.050874 0.882874
O O10 0.151858 0.250000 0.861351
O O11 0.154825 0.010948 0.785339
O O12 0.750000 0.569615 0.406770
O O13 0.641055 0.750000 0.402553
O O14 0.637786 0.516218 0.483239
O O15 0.629787 0.485873 0.347400
O O16 0.750000 0.081121 0.548744
O O17 0.862308 0.250000 0.538463
O O18 0.127513 0.750000 0.731298
O O19 0.025812 0.944075 0.745650
O O20 0.933960 0.750000 0.788571
#
# Coordination Sequence:
#
# PCOD9447446 Si02
#       7
#     8   8   8   8   8   8   8
#     4   9  18  33  54  78 100 126 166 212 255 303
#     4  10  21  38  59  82 109 141 175 210 253 306
#     4  10  20  34  54  81 110 139 174 215 256 302
#     4  10  19  29  44  70 100 130 170 215 256 302
#     4   8  15  29  47  67  94 128 165 207 255 302
#     4  10  20  33  49  71 102 138 174 211 253 304
#     4   9  20  36  53  76 102 129 164 204 248 301
#
# _framework density 17.230575000000002
#
# number of rings (size 3 to 8) (size 9 to 14) (size 15 to 20)
#    0.000    2.571    0.000    3.857    0.000    8.000 
#    0.000    2.857    0.000    0.857    0.000    0.000 
#    0.000    0.000    0.000    0.000    0.000    0.000 
#
# Total GULP energy -312332.462822 kJ/mol
# GULP energy per Si atom -5577.365408 kJ/mol
# Density = 1.719136 g / cm^3
# Si number density = 17.230575 Si / 1000 Ang^3
#
#
#
# Elastic Constant Matrix: (Units=GPa)
#
#
# Indices 1 2 3 4 5 6 
#
# 1 60.0928 51.1069 70.8281 0.0000 0.0000 0.0000
# 2 51.1069 78.4636 69.3346 0.0000 0.0000 0.0000
# 3 70.8281 69.3346 140.3768 0.0000 0.0000 0.0000
# 4 0.0000 0.0000 0.0000 34.1068 0.0000 0.0000
# 5 0.0000 0.0000 0.0000 0.0000 17.7770 0.0000
# 6 0.0000 0.0000 0.0000 0.0000 0.0000 27.7128
#
#
#
# Elastic Compliance Matrix: (Units=1/GPa)
#
#
# Indices 1 2 3 4 5 6 
#
# 1 0.054122 -0.019735 -0.017560 0.000000 0.000000 0.000000
# 2 -0.019735 0.029811 -0.004767 0.000000 0.000000 0.000000
# 3 -0.017560 -0.004767 0.018338 0.000000 0.000000 0.000000
# 4 0.000000 0.000000 0.000000 0.029320 0.000000 0.000000
# 5 0.000000 0.000000 0.000000 0.000000 0.056252 0.000000
# 6 0.000000 0.000000 0.000000 0.000000 0.000000 0.036084
#
#
# Mechanical properties :
#
#
# Convention : Reuss Voigt Hill
#
# Bulk Modulus (GPa) = 55.10414 73.49694 64.30054
# Shear Modulus (GPa) = 15.91839 21.76358 18.84098
#
# Velocity S-wave (km/s) = 3.04278 3.55784 3.31034
# Velocity P-wave (km/s) = 6.66292 7.72173 7.21179
#
# Compressibility (1/GPa) = 0.01814746
#
# Stress axis : x y z
#
# Youngs Moduli (GPa) = 18.47666 33.54418 54.53076
#
# Poissons Ratio (x) = 0.66200 0.95757
# Poissons Ratio (y) = 0.36464 0.25994
# Poissons Ratio (z) = 0.32445 0.15990
#
# Static dielectric constant tensor:
#      x y z
#    x 1.575080 0.000000 0.000000 
#    y 0.000000 1.573520 0.000000 
#    z 0.000000 0.000000 1.570980 
# 
# From -- ./inp_files/30403.got.cif
#   From: 2010.05.17/outbox.cif.g08.bks.cpg/sg59_16_cif.got.tgz:30403.got - 2010.06.03 14:40:33.
