data_PCOD9447717
_publ_section_title
;
Structure prediction by ZEFSAII (Michael W. Deem and Ramdas Pophale) SiO2 
 PCOD9447717
Probable space group: P M M N
;
_chemical_formula_sum "Si O2"
_cell_formula_units_Z 56
_cell_length_a 8.898984
_cell_length_b 24.707353
_cell_length_c 15.195218
_cell_angle_alpha 90.000000
_cell_angle_beta 90.000000
_cell_angle_gamma 90.000000
_cell_volume 3340.977733
_symmetry_space_group_name_H-M "P M M N"
_symmetry_group_IT_number 59
_space_group.IT_coordinate_system_code '2'
_symmetry_cell_setting 'orthorhombic'
loop_
_space_group_symop_operation_xyz
x,y,z
1/2-x,1/2-y,z
1/2+x,-y,-z
-x,1/2+y,-z
-x,-y,-z
1/2+x,1/2+y,-z
1/2-x,y,z
x,1/2-y,z
loop_
_atom_site_type_symbol
_atom_site_label
_atom_site_fract_x
_atom_site_fract_y
_atom_site_fract_z
Si Si1 0.572666 0.931130 0.875435
Si Si2 0.425705 0.750000 0.800049
Si Si3 0.426132 0.351164 0.287645
Si Si4 0.570153 0.363887 0.966096
Si Si5 0.430150 0.426814 0.441133
Si Si6 0.929100 0.750000 0.992235
Si Si7 0.929092 0.537501 0.370406
Si Si8 0.430923 0.949882 0.181609
O O1 0.750000 0.931216 0.899095
O O2 0.559080 0.900022 0.782547
O O3 0.520991 0.992923 0.862274
O O4 0.484175 0.897568 0.948662
O O5 0.250000 0.750000 0.821619
O O6 0.471988 0.802596 0.745148
O O7 0.519468 0.750000 0.890315
O O8 0.250000 0.334641 0.286613
O O9 0.465464 0.374417 0.383278
O O10 0.750000 0.357886 0.969423
O O11 0.529229 0.400146 0.881536
O O12 0.494816 0.305041 0.966868
O O13 0.250000 0.435854 0.433069
O O14 0.466926 0.425545 0.544539
O O15 0.512018 0.478210 0.398170
O O16 0.750000 0.750000 0.997206
O O17 0.750000 0.536199 0.360698
O O18 0.002171 0.554374 0.278814
O O19 0.250000 0.952540 0.188451
#
# Coordination Sequence:
#
# PCOD9447717 Si02
#       8
#     8   4   8   8   8   4   8   8
#     4  10  19  33  54  78 109 148 179 209 260 324
#     4  12  24  36  54  79 108 135 178 229 266 312
#     4  10  19  34  56  77 106 145 180 212 261 324
#     4  11  23  37  56  79 106 140 181 228 271 312
#     4   9  18  34  53  76 108 142 174 213 262 315
#     4  12  24  40  58  75 102 141 182 223 270 320
#     4  10  19  30  52  82 108 138 177 218 258 309
#     4  10  21  37  54  77 112 149 178 215 270 323
#
# _framework density 16.761559999999999
#
# number of rings (size 3 to 8) (size 9 to 14) (size 15 to 20)
#    0.000    1.714    2.857    2.571    0.000    2.857 
#    0.000    0.000    0.000    0.857    0.000    1.000 
#    0.000    0.000    0.000    0.000    0.000    0.000 
#
# Total GULP energy -312637.779207 kJ/mol
# GULP energy per Si atom -5582.817486 kJ/mol
# Density = 1.672341 g / cm^3
# Si number density = 16.761560 Si / 1000 Ang^3
#
#
#
# Elastic Constant Matrix: (Units=GPa)
#
#
# Indices 1 2 3 4 5 6 
#
# 1 50.7208 50.2454 40.3937 0.0000 0.0000 0.0000
# 2 50.2454 120.4227 64.0917 0.0000 0.0000 0.0000
# 3 40.3937 64.0917 103.0316 0.0000 0.0000 0.0000
# 4 0.0000 0.0000 0.0000 10.5288 0.0000 0.0000
# 5 0.0000 0.0000 0.0000 0.0000 27.7423 0.0000
# 6 0.0000 0.0000 0.0000 0.0000 0.0000 24.8467
#
#
#
# Elastic Compliance Matrix: (Units=1/GPa)
#
#
# Indices 1 2 3 4 5 6 
#
# 1 0.036966 -0.011527 -0.007322 0.000000 0.000000 0.000000
# 2 -0.011527 0.016008 -0.005439 0.000000 0.000000 0.000000
# 3 -0.007322 -0.005439 0.015960 0.000000 0.000000 0.000000
# 4 0.000000 0.000000 0.000000 0.094978 0.000000 0.000000
# 5 0.000000 0.000000 0.000000 0.000000 0.036046 0.000000
# 6 0.000000 0.000000 0.000000 0.000000 0.000000 0.040247
#
#
# Mechanical properties :
#
#
# Convention : Reuss Voigt Hill
#
# Bulk Modulus (GPa) = 49.12058 64.84852 56.98455
# Shear Modulus (GPa) = 16.91667 20.58649 18.75158
#
# Velocity S-wave (km/s) = 3.18032 3.50837 3.34836
# Velocity P-wave (km/s) = 6.54638 7.42862 7.00141
#
# Compressibility (1/GPa) = 0.02035807
#
# Stress axis : x y z
#
# Youngs Moduli (GPa) = 27.05208 62.46778 62.65718
#
# Poissons Ratio (x) = 0.72004 0.45879
# Poissons Ratio (y) = 0.31182 0.34080
# Poissons Ratio (z) = 0.19808 0.33977
#
# Static dielectric constant tensor:
#      x y z
#    x 1.565530 0.000000 0.000000 
#    y 0.000000 1.552460 0.000000 
#    z 0.000000 0.000000 1.559900 
# 
# From -- ./inp_files/21119.got.cif
#   From: 2010.05.17/outbox.cif.g08.bks.cpg/sg59_11_cif.got.tgz:21119.got - 2010.06.03 14:40:33.
