data_PCOD9447427
_publ_section_title
;
Structure prediction by ZEFSAII (Michael W. Deem and Ramdas Pophale) SiO2 
 PCOD9447427
Probable space group: P M M N
;
_chemical_formula_sum "Si O2"
_cell_formula_units_Z 64
_cell_length_a 14.132352
_cell_length_b 9.016156
_cell_length_c 32.268135
_cell_angle_alpha 90.000000
_cell_angle_beta 90.000000
_cell_angle_gamma 90.000000
_cell_volume 4111.589314
_symmetry_space_group_name_H-M "P M M N"
_symmetry_group_IT_number 59
_space_group.IT_coordinate_system_code '2'
_symmetry_cell_setting 'orthorhombic'
loop_
_space_group_symop_operation_xyz
x,y,z
1/2-x,1/2-y,z
1/2+x,-y,-z
-x,1/2+y,-z
-x,-y,-z
1/2+x,1/2+y,-z
1/2-x,y,z
x,1/2-y,z
loop_
_atom_site_type_symbol
_atom_site_label
_atom_site_fract_x
_atom_site_fract_y
_atom_site_fract_z
Si Si1 0.862022 0.927072 0.142921
Si Si2 0.531248 0.572105 0.398133
Si Si3 0.858119 0.572342 0.984263
Si Si4 0.136244 0.577411 0.524821
Si Si5 0.135109 0.579427 0.771287
Si Si6 0.545912 0.427185 0.063441
Si Si7 0.861428 0.573738 0.562800
Si Si8 0.860927 0.927768 0.314003
O O1 0.750000 0.963044 0.137149
O O2 0.870897 0.750000 0.142404
O O3 0.892493 0.990668 0.187527
O O4 0.920909 0.998871 0.105855
O O5 0.531009 0.750000 0.401914
O O6 0.590538 0.501393 0.435782
O O7 0.426694 0.506589 0.403739
O O8 0.579254 0.532048 0.354494
O O9 0.750000 0.535689 0.973086
O O10 0.863091 0.750000 0.991798
O O11 0.937710 0.537607 0.949904
O O12 0.889570 0.489524 0.026067
O O13 0.250000 0.572372 0.528977
O O14 0.107305 0.750000 0.522344
O O15 0.112501 0.493522 0.482165
O O16 0.250000 0.576370 0.770602
O O17 0.104846 0.750000 0.773886
O O18 0.105328 0.505532 0.728090
O O19 0.555717 0.250000 0.066076
O O20 0.750000 0.546239 0.569233
O O21 0.877282 0.750000 0.562849
O O22 0.750000 0.965741 0.320902
O O23 0.865701 0.750000 0.308507
#
# Coordination Sequence:
#
# PCOD9447427 Si02
#       8
#     8   8   8   8   8   8   8   8
#     4  10  19  30  45  65  92 125 155 184 223 271
#     4  11  21  32  49  71  95 123 154 187 224 270
#     4   9  18  32  46  61  88 125 158 189 231 278
#     4  10  20  33  49  69  94 123 154 188 225 267
#     4   9  17  29  46  68  93 120 150 185 222 261
#     4  10  19  29  44  67  91 117 155 198 232 266
#     4  10  21  36  51  66  88 119 155 195 234 270
#     4   9  18  32  48  68  96 126 151 176 215 270
#
# _framework density 15.565758000000001
#
# number of rings (size 3 to 8) (size 9 to 14) (size 15 to 20)
#    0.000    2.250    0.000    3.375    0.000    7.500 
#    0.000    1.250    0.000    0.000    0.000    0.875 
#    0.000    5.000    0.000    0.000    0.000    0.000 
#
# Total GULP energy -357105.519492 kJ/mol
# GULP energy per Si atom -5579.773742 kJ/mol
# Density = 1.553033 g / cm^3
# Si number density = 15.565758 Si / 1000 Ang^3
#
#
#
# Elastic Constant Matrix: (Units=GPa)
#
#
# Indices 1 2 3 4 5 6 
#
# 1 80.1307 44.5929 64.4150 0.0000 0.0000 0.0000
# 2 44.5929 72.5161 69.2190 0.0000 0.0000 0.0000
# 3 64.4150 69.2190 144.0599 0.0000 0.0000 0.0000
# 4 0.0000 0.0000 0.0000 30.9018 0.0000 0.0000
# 5 0.0000 0.0000 0.0000 0.0000 24.5833 0.0000
# 6 0.0000 0.0000 0.0000 0.0000 0.0000 22.4155
#
#
#
# Elastic Compliance Matrix: (Units=1/GPa)
#
#
# Indices 1 2 3 4 5 6 
#
# 1 0.021465 -0.007459 -0.006014 0.000000 0.000000 0.000000
# 2 -0.007459 0.028065 -0.010150 0.000000 0.000000 0.000000
# 3 -0.006014 -0.010150 0.014507 0.000000 0.000000 0.000000
# 4 0.000000 0.000000 0.000000 0.032361 0.000000 0.000000
# 5 0.000000 0.000000 0.000000 0.000000 0.040678 0.000000
# 6 0.000000 0.000000 0.000000 0.000000 0.000000 0.044612
#
#
# Mechanical properties :
#
#
# Convention : Reuss Voigt Hill
#
# Bulk Modulus (GPa) = 59.55167 72.57341 66.06254
# Shear Modulus (GPa) = 21.31914 23.47877 22.39896
#
# Velocity S-wave (km/s) = 3.70485 3.88797 3.79752
# Velocity P-wave (km/s) = 7.52611 8.17803 7.85883
#
# Compressibility (1/GPa) = 0.01679214
#
# Stress axis : x y z
#
# Youngs Moduli (GPa) = 46.58736 35.63128 68.93066
#
# Poissons Ratio (x) = 0.26579 0.41453
# Poissons Ratio (y) = 0.34751 0.69962
# Poissons Ratio (z) = 0.28017 0.36164
#
# Static dielectric constant tensor:
#      x y z
#    x 1.527450 0.000000 0.000000 
#    y 0.000000 1.616950 0.000000 
#    z 0.000000 0.000000 1.490420 
# 
# From -- ./inp_files/33321.got.cif
#   From: 2010.05.17/outbox.cif.g08.bks.cpg/sg59_17_cif.got.tgz:33321.got - 2010.06.03 14:40:33.
