data_PCOD9447172
_publ_section_title
;
Structure prediction by ZEFSAII (Michael W. Deem and Ramdas Pophale) SiO2 
 PCOD9447172
Probable space group: P M M N
;
_chemical_formula_sum "Si O2"
_cell_formula_units_Z 64
_cell_length_a 31.673252
_cell_length_b 7.832344
_cell_length_c 12.191578
_cell_angle_alpha 90.000000
_cell_angle_beta 90.000000
_cell_angle_gamma 90.000000
_cell_volume 3024.435530
_symmetry_space_group_name_H-M "P M M N"
_symmetry_group_IT_number 59
_space_group.IT_coordinate_system_code '2'
_symmetry_cell_setting 'orthorhombic'
loop_
_space_group_symop_operation_xyz
x,y,z
1/2-x,1/2-y,z
1/2+x,-y,-z
-x,1/2+y,-z
-x,-y,-z
1/2+x,1/2+y,-z
1/2-x,y,z
x,1/2-y,z
loop_
_atom_site_type_symbol
_atom_site_label
_atom_site_fract_x
_atom_site_fract_y
_atom_site_fract_z
Si Si1 0.298307 0.957122 0.752221
Si Si2 0.125417 0.452191 0.596793
Si Si3 0.296334 0.958617 0.219803
Si Si4 0.569776 0.546799 0.000711
Si Si5 0.332594 0.956393 0.989134
Si Si6 0.621393 0.051415 0.652490
Si Si7 0.463012 0.050358 0.229147
Si Si8 0.052984 0.450305 0.757845
O O1 0.250000 0.011723 0.734737
O O2 0.298911 0.750000 0.751839
O O3 0.314711 0.014550 0.872097
O O4 0.330945 0.018691 0.660846
O O5 0.119101 0.250000 0.580339
O O6 0.124780 0.534665 0.477626
O O7 0.087713 0.521269 0.674551
O O8 0.250000 0.016646 0.256163
O O9 0.296196 0.750000 0.224630
O O10 0.336009 0.018549 0.291286
O O11 0.304703 0.007046 0.093495
O O12 0.561790 0.750000 0.000158
O O13 0.619842 0.518343 0.991996
O O14 0.556168 0.475480 0.118952
O O15 0.546940 0.476547 0.892402
O O16 0.333461 0.750000 0.986835
O O17 0.618357 0.250000 0.683585
O O18 0.579066 0.968498 0.699461
O O19 0.472443 0.250000 0.219096
O O20 0.504814 0.967646 0.279204
O O21 0.063524 0.250000 0.768236
#
# Coordination Sequence:
#
# PCOD9447172 Si02
#       8
#     8   8   8   8   8   8   8   8
#     4  10  21  37  60  91 123 155 194 240 289 345
#     4  11  24  42  62  84 115 156 200 248 295 344
#     4   9  18  34  58  88 118 150 190 236 287 340
#     4  10  20  36  58  87 122 154 186 235 294 352
#     4  10  18  32  59  90 119 152 191 236 286 345
#     4  11  23  40  62  86 116 156 199 246 296 349
#     4  11  23  38  61  90 120 152 191 241 295 353
#     4  10  22  40  61  85 117 155 194 238 294 354
#
# _framework density 21.160972999999998
#
# number of rings (size 3 to 8) (size 9 to 14) (size 15 to 20)
#    0.000    1.750    2.500    1.875    0.000    4.750 
#    0.000    1.250    0.000    3.750    0.000    0.000 
#    0.000    0.000    0.000    0.000    0.000    0.000 
#
# Total GULP energy -357627.581607 kJ/mol
# GULP energy per Si atom -5587.930963 kJ/mol
# Density = 2.111281 g / cm^3
# Si number density = 21.160973 Si / 1000 Ang^3
#
#
#
# Elastic Constant Matrix: (Units=GPa)
#
#
# Indices 1 2 3 4 5 6 
#
# 1 116.6726 -17.5069 26.6207 0.0000 0.0000 0.0000
# 2 -17.5069 25.6723 -9.0604 0.0000 0.0000 0.0000
# 3 26.6207 -9.0604 96.3100 0.0000 0.0000 0.0000
# 4 0.0000 0.0000 0.0000 16.2204 0.0000 0.0000
# 5 0.0000 0.0000 0.0000 0.0000 1.7721 0.0000
# 6 0.0000 0.0000 0.0000 0.0000 0.0000 21.8632
#
#
#
# Elastic Compliance Matrix: (Units=1/GPa)
#
#
# Indices 1 2 3 4 5 6 
#
# 1 0.009975 0.006030 -0.002190 0.000000 0.000000 0.000000
# 2 0.006030 0.043935 0.002467 0.000000 0.000000 0.000000
# 3 -0.002190 0.002467 0.011221 0.000000 0.000000 0.000000
# 4 0.000000 0.000000 0.000000 0.061651 0.000000 0.000000
# 5 0.000000 0.000000 0.000000 0.000000 0.564299 0.000000
# 6 0.000000 0.000000 0.000000 0.000000 0.000000 0.045739
#
#
# Mechanical properties :
#
#
# Convention : Reuss Voigt Hill
#
# Bulk Modulus (GPa) = 12.86284 26.52908 19.69596
# Shear Modulus (GPa) = 6.66559 23.87792 15.27175
#
# Velocity S-wave (km/s) = 1.77673 3.36280 2.68935
# Velocity P-wave (km/s) = 3.20949 5.25756 4.35561
#
# Compressibility (1/GPa) = 0.07774330
#
# Stress axis : x y z
#
# Youngs Moduli (GPa) = 100.24613 22.76096 89.12239
#
# Poissons Ratio (x) = -0.13724 0.19518
# Poissons Ratio (y) = -0.60445 -0.21983
# Poissons Ratio (z) = 0.21954 -0.05614
#
# Static dielectric constant tensor:
#      x y z
#    x 1.746250 0.000000 0.000000 
#    y 0.000000 1.788630 0.000000 
#    z 0.000000 0.000000 1.750890 
# 
# From -- ./inp_files/19281.got.cif
#   From: 2010.05.17/outbox.cif.g08.bks.cpg/sg59_10_cif.got.tgz:19281.got - 2010.06.03 14:40:33.
