data_PCOD9447790
_publ_section_title
;
Structure prediction by ZEFSAII (Michael W. Deem and Ramdas Pophale) SiO2 
 PCOD9447790
Probable space group: P M M N
;
_chemical_formula_sum "Si O2"
_cell_formula_units_Z 64
_cell_length_a 8.975050
_cell_length_b 25.144197
_cell_length_c 16.419732
_cell_angle_alpha 90.000000
_cell_angle_beta 90.000000
_cell_angle_gamma 90.000000
_cell_volume 3705.447904
_symmetry_space_group_name_H-M "P M M N"
_symmetry_group_IT_number 59
_space_group.IT_coordinate_system_code '2'
_symmetry_cell_setting 'orthorhombic'
loop_
_space_group_symop_operation_xyz
x,y,z
1/2-x,1/2-y,z
1/2+x,-y,-z
-x,1/2+y,-z
-x,-y,-z
1/2+x,1/2+y,-z
1/2-x,y,z
x,1/2-y,z
loop_
_atom_site_type_symbol
_atom_site_label
_atom_site_fract_x
_atom_site_fract_y
_atom_site_fract_z
Si Si1 0.570572 0.585140 0.779519
Si Si2 0.928957 0.415507 0.547336
Si Si3 0.574204 0.348685 0.981049
Si Si4 0.081328 0.186416 0.818019
Si Si5 0.929683 0.530613 0.610902
Si Si6 0.573629 0.952784 0.952701
Si Si7 0.427680 0.691990 0.841135
Si Si8 0.430614 0.187116 0.632485
O O1 0.750000 0.589020 0.779975
O O2 0.526028 0.556183 0.696810
O O3 0.523790 0.551739 0.858943
O O4 0.505221 0.643632 0.794920
O O5 0.750000 0.409862 0.544379
O O6 0.964652 0.467482 0.603800
O O7 0.992097 0.435915 0.460704
O O8 0.999643 0.359605 0.576971
O O9 0.750000 0.360561 0.979137
O O10 0.521987 0.328133 0.893684
O O11 0.478224 0.399900 0.002368
O O12 0.548019 0.312285 0.061012
O O13 0.250000 0.165198 0.830332
O O14 0.091675 0.250000 0.817067
O O15 0.029388 0.172752 0.726542
O O16 0.750000 0.535182 0.601313
O O17 0.750000 0.957768 0.953614
O O18 0.500000 0.000000 0.000000
O O19 0.250000 0.687719 0.829155
O O20 0.478841 0.750000 0.813178
O O21 0.250000 0.185388 0.626698
O O22 0.472778 0.250000 0.617004
#
# Coordination Sequence:
#
# PCOD9447790 Si02
#       8
#     8   8   8   8   8   8   8   8
#     4   9  19  35  54  75 100 132 171 213 254 302
#     4  10  20  34  56  84 107 131 167 211 257 306
#     4  10  19  31  48  70  97 132 172 211 254 302
#     4   9  18  32  49  71 100 133 170 210 249 293
#     4   9  19  37  57  77 104 135 168 210 259 308
#     4  10  20  34  50  71 100 133 170 210 254 303
#     4   9  18  32  49  71 101 134 168 210 259 306
#     4   9  19  36  55  76 107 144 175 207 256 315
#
# _framework density 17.271865999999999
#
# number of rings (size 3 to 8) (size 9 to 14) (size 15 to 20)
#    0.000    2.625    0.000    2.250    0.000    4.750 
#    0.000    3.125    0.000    0.750    0.000    0.000 
#    0.000    0.000    0.000    0.000    0.000    0.000 
#
# Total GULP energy -356473.985780 kJ/mol
# GULP energy per Si atom -5569.906028 kJ/mol
# Density = 1.723255 g / cm^3
# Si number density = 17.271866 Si / 1000 Ang^3
#
#
#
# Elastic Constant Matrix: (Units=GPa)
#
#
# Indices 1 2 3 4 5 6 
#
# 1 28.4442 34.2187 34.9463 0.0000 0.0000 0.0000
# 2 34.2187 116.0951 82.3624 0.0000 0.0000 0.0000
# 3 34.9463 82.3624 97.4488 0.0000 0.0000 0.0000
# 4 0.0000 0.0000 0.0000 10.8256 0.0000 0.0000
# 5 0.0000 0.0000 0.0000 0.0000 24.1802 0.0000
# 6 0.0000 0.0000 0.0000 0.0000 0.0000 30.1512
#
#
#
# Elastic Compliance Matrix: (Units=1/GPa)
#
#
# Indices 1 2 3 4 5 6 
#
# 1 0.064765 -0.006524 -0.017712 0.000000 0.000000 0.000000
# 2 -0.006524 0.022170 -0.016398 0.000000 0.000000 0.000000
# 3 -0.017712 -0.016398 0.030473 0.000000 0.000000 0.000000
# 4 0.000000 0.000000 0.000000 0.092374 0.000000 0.000000
# 5 0.000000 0.000000 0.000000 0.000000 0.041356 0.000000
# 6 0.000000 0.000000 0.000000 0.000000 0.000000 0.033166
#
#
# Mechanical properties :
#
#
# Convention : Reuss Voigt Hill
#
# Bulk Modulus (GPa) = 27.66970 60.56031 44.11501
# Shear Modulus (GPa) = 13.24084 19.06211 16.15148
#
# Velocity S-wave (km/s) = 2.77178 3.32573 3.06131
# Velocity P-wave (km/s) = 5.12821 7.06303 6.17191
#
# Compressibility (1/GPa) = 0.03614062
#
# Stress axis : x y z
#
# Youngs Moduli (GPa) = 15.44034 45.10562 32.81596
#
# Poissons Ratio (x) = 0.29428 0.58122
# Poissons Ratio (y) = 0.10074 0.53813
# Poissons Ratio (z) = 0.27347 0.73965
#
# Static dielectric constant tensor:
#      x y z
#    x 1.580730 0.000000 0.000000 
#    y 0.000000 1.574700 0.000000 
#    z 0.000000 0.000000 1.589370 
# 
# From -- ./inp_files/21420.got.cif
#   From: 2010.05.17/outbox.cif.g08.bks.cpg/sg59_11_cif.got.tgz:21420.got - 2010.06.03 14:40:33.
