data_PCOD9447347
_publ_section_title
;
Structure prediction by ZEFSAII (Michael W. Deem and Ramdas Pophale) SiO2 
 PCOD9447347
Probable space group: P M M N
;
_chemical_formula_sum "Si O2"
_cell_formula_units_Z 56
_cell_length_a 25.507008
_cell_length_b 7.851235
_cell_length_c 16.834829
_cell_angle_alpha 90.000000
_cell_angle_beta 90.000000
_cell_angle_gamma 90.000000
_cell_volume 3371.368343
_symmetry_space_group_name_H-M "P M M N"
_symmetry_group_IT_number 59
_space_group.IT_coordinate_system_code '2'
_symmetry_cell_setting 'orthorhombic'
loop_
_space_group_symop_operation_xyz
x,y,z
1/2-x,1/2-y,z
1/2+x,-y,-z
-x,1/2+y,-z
-x,-y,-z
1/2+x,1/2+y,-z
1/2-x,y,z
x,1/2-y,z
loop_
_atom_site_type_symbol
_atom_site_label
_atom_site_fract_x
_atom_site_fract_y
_atom_site_fract_z
Si Si1 0.402756 0.952810 0.627249
Si Si2 0.808668 0.458240 0.265385
Si Si3 0.579490 0.952304 0.023648
Si Si4 0.984875 0.952175 0.872846
Si Si5 0.191205 0.544606 0.917721
Si Si6 0.057365 0.452537 0.465850
Si Si7 0.015140 0.459358 0.305448
O O1 0.403475 0.750000 0.638579
O O2 0.353307 0.021075 0.675476
O O3 0.457443 0.015851 0.665024
O O4 0.403020 0.983142 0.532819
O O5 0.750000 0.510701 0.288459
O O6 0.809447 0.250000 0.265689
O O7 0.817476 0.510032 0.173919
O O8 0.572070 0.750000 0.024764
O O9 0.544330 0.022490 0.096211
O O10 0.640789 0.989482 0.032547
O O11 0.553018 0.020922 0.942407
O O12 0.975659 0.750000 0.868479
O O13 0.976050 0.019833 0.784202
O O14 0.250000 0.486905 0.941868
O O15 0.192021 0.750000 0.918299
O O16 0.061718 0.250000 0.464489
O O17 0.055835 0.513126 0.374453
O O18 0.000000 0.500000 0.500000
O O19 0.015016 0.250000 0.304827
#
# Coordination Sequence:
#
# PCOD9447347 Si02
#       7
#     8   8   8   8   8   8   8
#     4   9  15  24  40  60  81 104 130 163 200 232
#     4   8  14  25  42  62  80 104 141 171 188 225
#     4  10  19  28  41  64  89 109 133 172 216 246
#     4   9  17  30  45  59  81 114 145 168 197 247
#     4   9  17  30  47  62  79 110 146 172 198 241
#     4   9  16  26  39  56  78 102 130 161 192 229
#     4   8  14  25  41  57  74 104 140 166 189 227
#
# _framework density 16.610465000000001
#
# number of rings (size 3 to 8) (size 9 to 14) (size 15 to 20)
#    0.000    3.143    0.000    3.429    0.000    3.143 
#    0.000    7.143    0.000    1.286    0.000    1.000 
#    0.000    5.714    0.000    0.000    0.000    0.000 
#
# Total GULP energy -311735.793022 kJ/mol
# GULP energy per Si atom -5566.710590 kJ/mol
# Density = 1.657266 g / cm^3
# Si number density = 16.610465 Si / 1000 Ang^3
#
#
#
# Elastic Constant Matrix: (Units=GPa)
#
#
# Indices 1 2 3 4 5 6 
#
# 1 84.3981 -2.2485 41.9989 0.0000 0.0000 0.0000
# 2 -2.2485 12.2302 -0.6566 0.0000 0.0000 0.0000
# 3 41.9989 -0.6566 106.0996 0.0000 0.0000 0.0000
# 4 0.0000 0.0000 0.0000 13.6884 0.0000 0.0000
# 5 0.0000 0.0000 0.0000 0.0000 25.9929 0.0000
# 6 0.0000 0.0000 0.0000 0.0000 0.0000 15.1464
#
#
#
# Elastic Compliance Matrix: (Units=1/GPa)
#
#
# Indices 1 2 3 4 5 6 
#
# 1 0.014826 0.002411 -0.005854 0.000000 0.000000 0.000000
# 2 0.002411 0.082184 -0.000446 0.000000 0.000000 0.000000
# 3 -0.005854 -0.000446 0.011740 0.000000 0.000000 0.000000
# 4 0.000000 0.000000 0.000000 0.073055 0.000000 0.000000
# 5 0.000000 0.000000 0.000000 0.000000 0.038472 0.000000
# 6 0.000000 0.000000 0.000000 0.000000 0.000000 0.066022
#
#
# Mechanical properties :
#
#
# Convention : Reuss Voigt Hill
#
# Bulk Modulus (GPa) = 9.90363 31.21284 20.55824
# Shear Modulus (GPa) = 15.25630 21.87445 18.56537
#
# Velocity S-wave (km/s) = 3.03392 3.63286 3.34682
# Velocity P-wave (km/s) = 4.27178 6.03562 5.22862
#
# Compressibility (1/GPa) = 0.10097307
#
# Stress axis : x y z
#
# Youngs Moduli (GPa) = 67.44969 12.16776 85.18222
#
# Poissons Ratio (x) = -0.02934 0.49864
# Poissons Ratio (y) = -0.16265 0.03799
# Poissons Ratio (z) = 0.39484 0.00543
#
# Static dielectric constant tensor:
#      x y z
#    x 1.556050 0.000000 0.000000 
#    y 0.000000 1.609520 0.000000 
#    z 0.000000 0.000000 1.593730 
# 
# From -- ./inp_files/28361.got.cif
#   From: 2010.05.17/outbox.cif.g08.bks.cpg/sg59_15_cif.got.tgz:28361.got - 2010.06.03 14:40:33.
