data_PCOD9447413
_publ_section_title
;
Structure prediction by ZEFSAII (Michael W. Deem and Ramdas Pophale) SiO2 
 PCOD9447413
Probable space group: P M M N
;
_chemical_formula_sum "Si O2"
_cell_formula_units_Z 64
_cell_length_a 8.933789
_cell_length_b 18.654894
_cell_length_c 22.249210
_cell_angle_alpha 90.000000
_cell_angle_beta 90.000000
_cell_angle_gamma 90.000000
_cell_volume 3708.028571
_symmetry_space_group_name_H-M "P M M N"
_symmetry_group_IT_number 59
_space_group.IT_coordinate_system_code '2'
_symmetry_cell_setting 'orthorhombic'
loop_
_space_group_symop_operation_xyz
x,y,z
1/2-x,1/2-y,z
1/2+x,-y,-z
-x,1/2+y,-z
-x,-y,-z
1/2+x,1/2+y,-z
1/2-x,y,z
x,1/2-y,z
loop_
_atom_site_type_symbol
_atom_site_label
_atom_site_fract_x
_atom_site_fract_y
_atom_site_fract_z
Si Si1 0.569086 0.670938 0.377466
Si Si2 0.069371 0.476739 0.562920
Si Si3 0.072905 0.835773 0.138702
Si Si4 0.070710 0.405781 0.745457
Si Si5 0.578020 0.662682 0.013964
Si Si6 0.077563 0.662637 0.891220
Si Si7 0.929584 0.540054 0.680833
Si Si8 0.429564 0.332617 0.233615
O O1 0.750000 0.673060 0.381409
O O2 0.510997 0.750000 0.392580
O O3 0.521945 0.604529 0.419018
O O4 0.534360 0.649851 0.308607
O O5 0.250000 0.479588 0.561331
O O6 0.000000 0.500000 0.500000
O O7 0.008182 0.525650 0.617230
O O8 0.250000 0.848189 0.143503
O O9 0.046434 0.750000 0.144468
O O10 0.986743 0.875950 0.191641
O O11 0.014164 0.858246 0.073006
O O12 0.250000 0.415880 0.745913
O O13 0.989720 0.478698 0.725706
O O14 0.750000 0.640128 0.019184
O O15 0.575741 0.750000 0.012439
O O16 0.507260 0.637949 0.951117
O O17 0.250000 0.640644 0.893118
O O18 0.072771 0.750000 0.891875
O O19 0.002172 0.641052 0.828611
O O20 0.750000 0.534450 0.674359
O O21 0.967197 0.615883 0.711204
O O22 0.250000 0.333943 0.226007
O O23 0.475021 0.250000 0.243764
#
# Coordination Sequence:
#
# PCOD9447413 Si02
#       8
#     8   8   8   8   8   8   8   8
#     4   8  15  29  50  75  99 126 166 210 244 280
#     4  10  20  35  56  79 105 138 171 204 245 296
#     4  10  19  29  43  67  99 132 169 214 258 297
#     4  10  19  31  49  72 100 134 169 205 250 306
#     4   9  16  26  41  62  91 128 168 208 251 302
#     4   9  16  26  43  68  96 125 159 204 256 303
#     4  10  20  35  55  77 102 131 164 204 247 294
#     4   9  18  33  53  76 100 128 165 207 250 298
#
# _framework density 17.259846
#
# number of rings (size 3 to 8) (size 9 to 14) (size 15 to 20)
#    0.000    2.625    0.000    3.375    0.000    5.250 
#    0.000    0.625    0.000   12.000    0.000    0.000 
#    0.000    0.000    0.000    0.000    0.000    0.000 
#
# Total GULP energy -356814.892438 kJ/mol
# GULP energy per Si atom -5575.232694 kJ/mol
# Density = 1.722056 g / cm^3
# Si number density = 17.259846 Si / 1000 Ang^3
#
#
#
# Elastic Constant Matrix: (Units=GPa)
#
#
# Indices 1 2 3 4 5 6 
#
# 1 64.6709 33.7157 53.4466 0.0000 0.0000 0.0000
# 2 33.7157 63.5253 66.3024 0.0000 0.0000 0.0000
# 3 53.4466 66.3024 143.3816 0.0000 0.0000 0.0000
# 4 0.0000 0.0000 0.0000 18.0908 0.0000 0.0000
# 5 0.0000 0.0000 0.0000 0.0000 33.6559 0.0000
# 6 0.0000 0.0000 0.0000 0.0000 0.0000 17.9948
#
#
#
# Elastic Compliance Matrix: (Units=1/GPa)
#
#
# Indices 1 2 3 4 5 6 
#
# 1 0.023650 -0.006477 -0.005821 0.000000 0.000000 0.000000
# 2 -0.006477 0.032201 -0.012476 0.000000 0.000000 0.000000
# 3 -0.005821 -0.012476 0.014913 0.000000 0.000000 0.000000
# 4 0.000000 0.000000 0.000000 0.055277 0.000000 0.000000
# 5 0.000000 0.000000 0.000000 0.000000 0.029712 0.000000
# 6 0.000000 0.000000 0.000000 0.000000 0.000000 0.055572
#
#
# Mechanical properties :
#
#
# Convention : Reuss Voigt Hill
#
# Bulk Modulus (GPa) = 47.13232 64.27856 55.70544
# Shear Modulus (GPa) = 18.66061 21.82250 20.24155
#
# Velocity S-wave (km/s) = 3.29166 3.55963 3.42826
# Velocity P-wave (km/s) = 6.46634 7.36323 6.92931
#
# Compressibility (1/GPa) = 0.02121686
#
# Stress axis : x y z
#
# Youngs Moduli (GPa) = 42.28312 31.05527 67.05483
#
# Poissons Ratio (x) = 0.20115 0.39030
# Poissons Ratio (y) = 0.27387 0.83657
# Poissons Ratio (z) = 0.24612 0.38744
#
# Static dielectric constant tensor:
#      x y z
#    x 1.577380 0.000000 0.000000 
#    y 0.000000 1.596720 0.000000 
#    z 0.000000 0.000000 1.560520 
# 
# From -- ./inp_files/29726.got.cif
#   From: 2010.05.17/outbox.cif.g08.bks.cpg/sg59_15_cif.got.tgz:29726.got - 2010.06.03 14:40:33.
