data_PCOD9447450
_publ_section_title
;
Structure prediction by ZEFSAII (Michael W. Deem and Ramdas Pophale) SiO2 
 PCOD9447450
Probable space group: P M M N
;
_chemical_formula_sum "Si O2"
_cell_formula_units_Z 48
_cell_length_a 7.950027
_cell_length_b 26.465914
_cell_length_c 12.540902
_cell_angle_alpha 90.000000
_cell_angle_beta 90.000000
_cell_angle_gamma 90.000000
_cell_volume 2638.665110
_symmetry_space_group_name_H-M "P M M N"
_symmetry_group_IT_number 59
_space_group.IT_coordinate_system_code '2'
_symmetry_cell_setting 'orthorhombic'
loop_
_space_group_symop_operation_xyz
x,y,z
1/2-x,1/2-y,z
1/2+x,-y,-z
-x,1/2+y,-z
-x,-y,-z
1/2+x,1/2+y,-z
1/2-x,y,z
x,1/2-y,z
loop_
_atom_site_type_symbol
_atom_site_label
_atom_site_fract_x
_atom_site_fract_y
_atom_site_fract_z
Si Si1 0.454206 0.942935 0.465531
Si Si2 0.448866 0.193178 0.158869
Si Si3 0.951868 0.388729 0.985709
Si Si4 0.944886 0.077434 0.770499
Si Si5 0.049634 0.614633 0.670272
Si Si6 0.951859 0.470269 0.151113
O O1 0.250000 0.941750 0.463715
O O2 0.519184 0.928408 0.347776
O O3 0.513821 0.903363 0.555324
O O4 0.500000 0.000000 0.500000
O O5 0.250000 0.195927 0.144623
O O6 0.518998 0.250000 0.159261
O O7 0.515006 0.158632 0.062067
O O8 0.481321 0.163605 0.269368
O O9 0.750000 0.394061 0.979671
O O10 0.013464 0.438736 0.048752
O O11 0.018077 0.387403 0.864648
O O12 0.750000 0.092009 0.755252
O O13 0.956338 0.021894 0.822776
O O14 0.250000 0.621482 0.662905
O O15 0.020191 0.567719 0.750110
O O16 0.750000 0.479165 0.143139
#
# Coordination Sequence:
#
# PCOD9447450 Si02
#       6
#     8   8   8   8   8   8
#     4  10  19  31  47  70 103 138 171 202 232 278
#     4  10  21  36  55  77  95 115 155 211 261 302
#     4   9  19  33  47  69  99 128 161 198 241 293
#     4  10  19  29  45  69  99 135 168 196 230 277
#     4   9  18  32  49  72 101 132 166 202 240 287
#     4   9  16  27  43  65  98 133 164 198 231 276
#
# _framework density 18.191016000000001
#
# number of rings (size 3 to 8) (size 9 to 14) (size 15 to 20)
#    0.000    2.500    1.667    2.000    0.000    5.333 
#    0.000    0.000    0.000    1.000    0.000    7.000 
#    0.000    0.000    0.000    0.000    0.000    0.000 
#
# Total GULP energy -267511.074337 kJ/mol
# GULP energy per Si atom -5573.147382 kJ/mol
# Density = 1.814961 g / cm^3
# Si number density = 18.191016 Si / 1000 Ang^3
#
#
#
# Elastic Constant Matrix: (Units=GPa)
#
#
# Indices 1 2 3 4 5 6 
#
# 1 6.7484 2.2163 16.4932 0.0000 0.0000 0.0000
# 2 2.2163 73.4308 47.7385 0.0000 0.0000 0.0000
# 3 16.4932 47.7385 178.2305 0.0000 0.0000 0.0000
# 4 0.0000 0.0000 0.0000 10.2325 0.0000 0.0000
# 5 0.0000 0.0000 0.0000 0.0000 5.4811 0.0000
# 6 0.0000 0.0000 0.0000 0.0000 0.0000 19.8290
#
#
#
# Elastic Compliance Matrix: (Units=1/GPa)
#
#
# Indices 1 2 3 4 5 6 
#
# 1 0.194467 0.007059 -0.019886 0.000000 0.000000 0.000000
# 2 0.007059 0.016746 -0.005139 0.000000 0.000000 0.000000
# 3 -0.019886 -0.005139 0.008827 0.000000 0.000000 0.000000
# 4 0.000000 0.000000 0.000000 0.097728 0.000000 0.000000
# 5 0.000000 0.000000 0.000000 0.000000 0.182444 0.000000
# 6 0.000000 0.000000 0.000000 0.000000 0.000000 0.050431
#
#
# Mechanical properties :
#
#
# Convention : Reuss Voigt Hill
#
# Bulk Modulus (GPa) = 5.43157 43.47840 24.45499
# Shear Modulus (GPa) = 7.71671 19.90598 13.81134
#
# Velocity S-wave (km/s) = 2.06186 3.31157 2.75842
# Velocity P-wave (km/s) = 2.94290 6.21087 4.85981
#
# Compressibility (1/GPa) = 0.18410874
#
# Stress axis : x y z
#
# Youngs Moduli (GPa) = 5.14225 59.71620 113.28459
#
# Poissons Ratio (x) = -0.42154 2.25283
# Poissons Ratio (y) = -0.03630 0.58212
# Poissons Ratio (z) = 0.10226 0.30686
#
# Static dielectric constant tensor:
#      x y z
#    x 1.654060 0.000000 0.000000 
#    y 0.000000 1.609310 0.000000 
#    z 0.000000 0.000000 1.694460 
# 
# From -- ./inp_files/14494.got.cif
#   From: 2010.05.17/outbox.cif.g08.bks.cpg/sg59_8_cif.got.tgz:14494.got - 2010.06.03 14:40:33.
