data_PCOD9447159
_publ_section_title
;
Structure prediction by ZEFSAII (Michael W. Deem and Ramdas Pophale) SiO2 
 PCOD9447159
Probable space group: P M M N
;
_chemical_formula_sum "Si O2"
_cell_formula_units_Z 64
_cell_length_a 18.197012
_cell_length_b 17.963357
_cell_length_c 11.649250
_cell_angle_alpha 90.000000
_cell_angle_beta 90.000000
_cell_angle_gamma 90.000000
_cell_volume 3807.900117
_symmetry_space_group_name_H-M "P M M N"
_symmetry_group_IT_number 59
_space_group.IT_coordinate_system_code '2'
_symmetry_cell_setting 'orthorhombic'
loop_
_space_group_symop_operation_xyz
x,y,z
1/2-x,1/2-y,z
1/2+x,-y,-z
-x,1/2+y,-z
-x,-y,-z
1/2+x,1/2+y,-z
1/2-x,y,z
x,1/2-y,z
loop_
_atom_site_type_symbol
_atom_site_label
_atom_site_fract_x
_atom_site_fract_y
_atom_site_fract_z
Si Si1 0.163272 0.074592 0.141211
Si Si2 0.336092 0.162002 0.904194
Si Si3 0.480963 0.838417 0.463684
Si Si4 0.081513 0.586735 0.799046
Si Si5 0.539631 0.914282 0.236924
Si Si6 0.059637 0.162891 0.295594
Si Si7 0.434726 0.946798 0.048739
Si Si8 0.665747 0.160843 0.401656
O O1 0.250000 0.067111 0.153837
O O2 0.126637 0.114173 0.250006
O O3 0.123572 0.997044 0.115353
O O4 0.147953 0.124305 0.027326
O O5 0.250000 0.148706 0.879505
O O6 0.348317 0.250000 0.911918
O O7 0.387399 0.126433 0.807704
O O8 0.482660 0.750000 0.436497
O O9 0.510249 0.885816 0.357910
O O10 0.533249 0.850491 0.574307
O O11 0.398012 0.857278 0.505714
O O12 0.057337 0.502739 0.763989
O O13 0.143653 0.617026 0.713862
O O14 0.010515 0.638647 0.780069
O O15 0.099935 0.587253 0.933937
O O16 0.477201 0.897312 0.141082
O O17 0.075231 0.250000 0.281694
O O18 0.500000 0.000000 0.000000
O O19 0.750000 0.145365 0.435618
O O20 0.659191 0.250000 0.380523
#
# Coordination Sequence:
#
# PCOD9447159 Si02
#       8
#     8   8   8   8   8   8   8   8
#     4  11  20  34  53  77 107 141 179 220 270 317
#     4  10  20  32  50  79 108 136 175 221 265 317
#     4   9  20  36  56  79 102 140 183 218 260 313
#     4  10  18  32  57  79 103 137 175 220 264 315
#     4  11  19  34  57  74 111 144 177 209 260 322
#     4  10  19  34  52  75 104 134 178 224 262 307
#     4  10  18  34  51  79 109 138 169 217 261 312
#     4   9  19  36  56  79 105 134 177 231 275 309
#
# _framework density 16.807164
#
# number of rings (size 3 to 8) (size 9 to 14) (size 15 to 20)
#    0.000    2.000    5.000    1.875    0.000    3.750 
#    0.000    3.125    0.000    0.750    0.000    1.750 
#    0.000    0.000    0.000    0.000    0.000    0.000 
#
# Total GULP energy -356775.364867 kJ/mol
# GULP energy per Si atom -5574.615076 kJ/mol
# Density = 1.676891 g / cm^3
# Si number density = 16.807164 Si / 1000 Ang^3
#
#
#
# Elastic Constant Matrix: (Units=GPa)
#
#
# Indices 1 2 3 4 5 6 
#
# 1 80.4782 17.8328 36.0291 0.0000 0.0000 0.0000
# 2 17.8328 28.1721 37.6129 0.0000 0.0000 0.0000
# 3 36.0291 37.6129 78.0790 0.0000 0.0000 0.0000
# 4 0.0000 0.0000 0.0000 19.9714 0.0000 0.0000
# 5 0.0000 0.0000 0.0000 0.0000 18.6609 0.0000
# 6 0.0000 0.0000 0.0000 0.0000 0.0000 19.5914
#
#
#
# Elastic Compliance Matrix: (Units=1/GPa)
#
#
# Indices 1 2 3 4 5 6 
#
# 1 0.015667 -0.000743 -0.006871 0.000000 0.000000 0.000000
# 2 -0.000743 0.099509 -0.047594 0.000000 0.000000 0.000000
# 3 -0.006871 -0.047594 0.038905 0.000000 0.000000 0.000000
# 4 0.000000 0.000000 0.000000 0.050072 0.000000 0.000000
# 5 0.000000 0.000000 0.000000 0.000000 0.053588 0.000000
# 6 0.000000 0.000000 0.000000 0.000000 0.000000 0.051043
#
#
# Mechanical properties :
#
#
# Convention : Reuss Voigt Hill
#
# Bulk Modulus (GPa) = 22.90134 41.07542 31.98838
# Shear Modulus (GPa) = 11.52728 17.99505 14.76116
#
# Velocity S-wave (km/s) = 2.62172 3.27567 2.96677
# Velocity P-wave (km/s) = 4.77704 6.22888 5.55063
#
# Compressibility (1/GPa) = 0.04366557
#
# Stress axis : x y z
#
# Youngs Moduli (GPa) = 63.83028 10.04935 25.70334
#
# Poissons Ratio (x) = 0.00746 0.17662
# Poissons Ratio (y) = 0.04741 1.22331
# Poissons Ratio (z) = 0.43861 0.47828
#
# Static dielectric constant tensor:
#      x y z
#    x 1.565600 0.000000 0.000000 
#    y 0.000000 1.573860 0.000000 
#    z 0.000000 0.000000 1.571320 
# 
# From -- ./inp_files/17938.got.cif
#   From: 2010.05.17/outbox.cif.g08.bks.cpg/sg59_9_cif.got.tgz:17938.got - 2010.06.03 14:40:33.
