data_PCOD9447146
_publ_section_title
;
Structure prediction by ZEFSAII (Michael W. Deem and Ramdas Pophale) SiO2 
 PCOD9447146
Probable space group: P M M N
;
_chemical_formula_sum "Si O2"
_cell_formula_units_Z 40
_cell_length_a 7.408260
_cell_length_b 16.616252
_cell_length_c 14.308109
_cell_angle_alpha 90.000000
_cell_angle_beta 90.000000
_cell_angle_gamma 90.000000
_cell_volume 1761.292663
_symmetry_space_group_name_H-M "P M M N"
_symmetry_group_IT_number 59
_space_group.IT_coordinate_system_code '2'
_symmetry_cell_setting 'orthorhombic'
loop_
_space_group_symop_operation_xyz
x,y,z
1/2-x,1/2-y,z
1/2+x,-y,-z
-x,1/2+y,-z
-x,-y,-z
1/2+x,1/2+y,-z
1/2-x,y,z
x,1/2-y,z
loop_
_atom_site_type_symbol
_atom_site_label
_atom_site_fract_x
_atom_site_fract_y
_atom_site_fract_z
Si Si1 0.029082 0.750000 0.122802
Si Si2 0.470710 0.750000 0.906607
Si Si3 0.465492 0.578508 0.436672
Si Si4 0.530465 0.161422 0.386656
Si Si5 0.964941 0.088223 0.774540
Si Si6 0.533611 0.411595 0.200361
O O1 0.250000 0.750000 0.124057
O O2 0.967935 0.668244 0.173960
O O3 0.975948 0.750000 0.014634
O O4 0.250000 0.750000 0.901640
O O5 0.529883 0.833936 0.858129
O O6 0.500000 0.500000 0.500000
O O7 0.250000 0.586197 0.427963
O O8 0.532012 0.646651 0.508212
O O9 0.538621 0.580461 0.331728
O O10 0.750000 0.156806 0.388805
O O11 0.481933 0.250000 0.353760
O O12 0.467131 0.100096 0.307383
O O13 0.750000 0.098160 0.767717
O O14 0.992700 0.003189 0.827210
O O15 0.750000 0.405692 0.201378
#
# Coordination Sequence:
#
# PCOD9447146 Si02
#       6
#     4   4   8   8   8   8
#     4   9  20  38  54  74 107 140 173 215 258 308
#     4   9  18  34  58  82 101 130 175 219 260 308
#     4  10  19  30  48  73 102 135 170 206 249 301
#     4   9  16  27  46  73 100 127 167 212 246 288
#     4  10  21  35  52  76 107 142 173 207 259 314
#     4  10  18  32  56  81 102 131 173 218 259 302
#
# _framework density 22.710594
#
# number of rings (size 3 to 8) (size 9 to 14) (size 15 to 20)
#    0.000    2.400    3.000    0.000    1.400    0.800 
#    0.000    1.000    0.000    3.000    0.000    0.000 
#    0.000    0.000    0.000    0.000    0.000    0.000 
#
# Total GULP energy -223141.519980 kJ/mol
# GULP energy per Si atom -5578.538000 kJ/mol
# Density = 2.265890 g / cm^3
# Si number density = 22.710594 Si / 1000 Ang^3
#
#
#
# Elastic Constant Matrix: (Units=GPa)
#
#
# Indices 1 2 3 4 5 6 
#
# 1 77.8299 -1.5308 7.8810 0.0000 0.0000 0.0000
# 2 -1.5308 201.9930 100.3341 0.0000 0.0000 0.0000
# 3 7.8810 100.3341 155.6399 0.0000 0.0000 0.0000
# 4 0.0000 0.0000 0.0000 28.0903 0.0000 0.0000
# 5 0.0000 0.0000 0.0000 0.0000 0.5393 0.0000
# 6 0.0000 0.0000 0.0000 0.0000 0.0000 18.8003
#
#
#
# Elastic Compliance Matrix: (Units=1/GPa)
#
#
# Indices 1 2 3 4 5 6 
#
# 1 0.012968 0.000624 -0.001059 0.000000 0.000000 0.000000
# 2 0.000624 0.007313 -0.004746 0.000000 0.000000 0.000000
# 3 -0.001059 -0.004746 0.009538 0.000000 0.000000 0.000000
# 4 0.000000 0.000000 0.000000 0.035600 0.000000 0.000000
# 5 0.000000 0.000000 0.000000 0.000000 1.854180 0.000000
# 6 0.000000 0.000000 0.000000 0.000000 0.000000 0.053191
#
#
# Mechanical properties :
#
#
# Convention : Reuss Voigt Hill
#
# Bulk Modulus (GPa) = 51.39337 72.09237 61.74287
# Shear Modulus (GPa) = 2.51302 31.40455 16.95879
#
# Velocity S-wave (km/s) = 1.05306 3.72266 2.73561
# Velocity P-wave (km/s) = 4.91502 7.09157 6.10114
#
# Compressibility (1/GPa) = 0.01945776
#
# Stress axis : x y z
#
# Youngs Moduli (GPa) = 77.11250 136.74754 104.84227
#
# Poissons Ratio (x) = -0.08538 0.11105
# Poissons Ratio (y) = -0.04815 0.49756
# Poissons Ratio (z) = 0.08167 0.64898
#
# Static dielectric constant tensor:
#      x y z
#    x 1.881430 0.000000 0.000000 
#    y 0.000000 1.878780 0.000000 
#    z 0.000000 0.000000 1.833930 
# 
# From -- ./inp_files/19996.got.cif
#   From: 2010.05.17/outbox.cif.g08.bks.cpg/sg59_10_cif.got.tgz:19996.got - 2010.06.03 14:40:33.
