data_PCOD9447995
_publ_section_title
;
Structure prediction by ZEFSAII (Michael W. Deem and Ramdas Pophale) SiO2 
 PCOD9447995
Probable space group: P M M N
;
_chemical_formula_sum "Si O2"
_cell_formula_units_Z 48
_cell_length_a 7.882319
_cell_length_b 7.610301
_cell_length_c 39.768494
_cell_angle_alpha 90.000000
_cell_angle_beta 90.000000
_cell_angle_gamma 90.000000
_cell_volume 2385.585498
_symmetry_space_group_name_H-M "P M M N"
_symmetry_group_IT_number 59
_space_group.IT_coordinate_system_code '2'
_symmetry_cell_setting 'orthorhombic'
loop_
_space_group_symop_operation_xyz
x,y,z
1/2-x,1/2-y,z
1/2+x,-y,-z
-x,1/2+y,-z
-x,-y,-z
1/2+x,1/2+y,-z
1/2-x,y,z
x,1/2-y,z
loop_
_atom_site_type_symbol
_atom_site_label
_atom_site_fract_x
_atom_site_fract_y
_atom_site_fract_z
Si Si1 0.750000 0.465877 0.915761
Si Si2 0.750000 0.037231 0.838902
Si Si3 0.959623 0.250000 0.341816
Si Si4 0.060575 0.539453 0.462548
Si Si5 0.045322 0.750000 0.734761
Si Si6 0.940886 0.961041 0.037889
Si Si7 0.450482 0.459603 0.788648
Si Si8 0.050215 0.052527 0.609511
O O1 0.750000 0.250000 0.915964
O O2 0.750000 0.525015 0.877222
O O3 0.583021 0.524236 0.936060
O O4 0.750000 0.250000 0.840204
O O5 0.580217 0.989166 0.818314
O O6 0.750000 0.250000 0.341962
O O7 0.017923 0.250000 0.303345
O O8 0.018168 0.419151 0.362925
O O9 0.250000 0.470942 0.459574
O O10 0.059199 0.750000 0.460812
O O11 0.000000 0.500000 0.500000
O O12 0.966538 0.481887 0.428727
O O13 0.250000 0.750000 0.732504
O O14 0.001496 0.577658 0.756496
O O15 0.750000 0.028956 0.043305
O O16 0.934791 0.750000 0.041226
O O17 0.000000 0.000000 0.000000
O O18 0.250000 0.491398 0.796441
O O19 0.468569 0.250000 0.782388
O O20 0.250000 0.067130 0.615882
O O21 0.976596 0.250000 0.611473
#
# Coordination Sequence:
#
# PCOD9447995 Si02
#       8
#     4   4   4   8   4   8   8   8
#     4   9  18  32  50  78 106 139 185 231 280 335
#     4   9  18  33  55  81 110 141 183 232 283 339
#     4   9  18  32  54  82 108 139 179 221 264 327
#     4  10  21  35  52  74 101 135 175 220 268 320
#     4   9  18  33  55  85 114 143 183 224 271 335
#     4  10  19  31  51  75 102 141 185 231 281 331
#     4   9  18  33  56  83 111 147 184 227 279 337
#     4   9  18  33  52  75 106 141 176 220 273 318
#
# _framework density 20.120847000000001
#
# number of rings (size 3 to 8) (size 9 to 14) (size 15 to 20)
#    0.000    2.667    0.833    0.500    1.167    2.667 
#    0.000    6.667    7.333    0.000    0.000    0.000 
#    0.000    0.000    0.000    0.000    0.000    0.000 
#
# Total GULP energy -267639.097371 kJ/mol
# GULP energy per Si atom -5575.814529 kJ/mol
# Density = 2.007505 g / cm^3
# Si number density = 20.120847 Si / 1000 Ang^3
#
#
#
# Elastic Constant Matrix: (Units=GPa)
#
#
# Indices 1 2 3 4 5 6 
#
# 1 97.4254 32.9156 70.8374 0.0000 0.0000 0.0000
# 2 32.9156 71.3278 62.4007 0.0000 0.0000 0.0000
# 3 70.8374 62.4007 215.1425 0.0000 0.0000 0.0000
# 4 0.0000 0.0000 0.0000 27.0060 0.0000 0.0000
# 5 0.0000 0.0000 0.0000 0.0000 24.0885 0.0000
# 6 0.0000 0.0000 0.0000 0.0000 0.0000 6.5432
#
#
#
# Elastic Compliance Matrix: (Units=1/GPa)
#
#
# Indices 1 2 3 4 5 6 
#
# 1 0.014040 -0.003263 -0.003676 0.000000 0.000000 0.000000
# 2 -0.003263 0.019545 -0.004595 0.000000 0.000000 0.000000
# 3 -0.003676 -0.004595 0.007191 0.000000 0.000000 0.000000
# 4 0.000000 0.000000 0.000000 0.037029 0.000000 0.000000
# 5 0.000000 0.000000 0.000000 0.000000 0.041514 0.000000
# 6 0.000000 0.000000 0.000000 0.000000 0.000000 0.152831
#
#
# Mechanical properties :
#
#
# Convention : Reuss Voigt Hill
#
# Bulk Modulus (GPa) = 56.46991 79.57814 68.02403
# Shear Modulus (GPa) = 16.60471 26.04365 21.32418
#
# Velocity S-wave (km/s) = 2.87583 3.60163 3.25900
# Velocity P-wave (km/s) = 6.25728 7.54530 6.93127
#
# Compressibility (1/GPa) = 0.01770855
#
# Stress axis : x y z
#
# Youngs Moduli (GPa) = 71.22705 51.16395 139.05883
#
# Poissons Ratio (x) = 0.16693 0.51123
# Poissons Ratio (y) = 0.23239 0.63893
# Poissons Ratio (z) = 0.26186 0.23508
#
# Static dielectric constant tensor:
#      x y z
#    x 1.676870 0.000000 0.000000 
#    y 0.000000 1.739930 0.000000 
#    z 0.000000 0.000000 1.744030 
# 
# From -- ./inp_files/33121.got.cif
#   From: 2010.05.17/outbox.cif.g08.bks.cpg/sg59_17_cif.got.tgz:33121.got - 2010.06.03 14:40:33.
