data_PCOD9447879
_publ_section_title
;
Structure prediction by ZEFSAII (Michael W. Deem and Ramdas Pophale) SiO2 
 PCOD9447879
Probable space group: P M M N
;
_chemical_formula_sum "Si O2"
_cell_formula_units_Z 64
_cell_length_a 20.892018
_cell_length_b 7.884874
_cell_length_c 20.561977
_cell_angle_alpha 90.000000
_cell_angle_beta 90.000000
_cell_angle_gamma 90.000000
_cell_volume 3387.193584
_symmetry_space_group_name_H-M "P M M N"
_symmetry_group_IT_number 59
_space_group.IT_coordinate_system_code '2'
_symmetry_cell_setting 'orthorhombic'
loop_
_space_group_symop_operation_xyz
x,y,z
1/2-x,1/2-y,z
1/2+x,-y,-z
-x,1/2+y,-z
-x,-y,-z
1/2+x,1/2+y,-z
1/2-x,y,z
x,1/2-y,z
loop_
_atom_site_type_symbol
_atom_site_label
_atom_site_fract_x
_atom_site_fract_y
_atom_site_fract_z
Si Si1 0.891408 0.447153 0.809121
Si Si2 0.565126 0.046428 0.312079
Si Si3 0.068893 0.047294 0.970627
Si Si4 0.179185 0.450618 0.065126
Si Si5 0.822870 0.043069 0.555006
Si Si6 0.420295 0.955315 0.334695
Si Si7 0.965916 0.048389 0.169232
Si Si8 0.677195 0.457354 0.405973
O O1 0.874164 0.250000 0.805758
O O2 0.845029 0.530444 0.861119
O O3 0.894240 0.516371 0.735523
O O4 0.964038 0.465269 0.835055
O O5 0.570988 0.250000 0.310901
O O6 0.565493 0.987973 0.236838
O O7 0.622833 0.981148 0.356639
O O8 0.494671 0.004817 0.339512
O O9 0.072111 0.250000 0.970678
O O10 0.072227 0.987032 0.896352
O O11 0.125290 0.978239 0.016624
O O12 0.000000 0.000000 0.000000
O O13 0.250000 0.524004 0.056770
O O14 0.182748 0.250000 0.051831
O O15 0.750000 0.991894 0.571722
O O16 0.823701 0.250000 0.555753
O O17 0.875527 0.984681 0.606604
O O18 0.835982 0.991014 0.480606
O O19 0.418305 0.750000 0.333285
O O20 0.976585 0.250000 0.174309
O O21 0.750000 0.508647 0.389344
O O22 0.676477 0.250000 0.405390
#
# Coordination Sequence:
#
# PCOD9447879 Si02
#       8
#     8   8   8   8   8   8   8   8
#     4  10  19  31  49  72  98 130 167 205 245 291
#     4   9  18  31  48  72 100 128 162 206 249 291
#     4  11  21  34  56  79  99 128 167 207 244 293
#     4  10  22  38  53  72 101 134 164 199 247 299
#     4   8  14  26  45  68  95 128 166 206 247 294
#     4   9  18  30  46  72 102 129 160 201 249 296
#     4  10  19  32  50  73 101 130 162 202 249 299
#     4   8  14  27  48  71  94 126 169 210 248 293
#
# _framework density 18.894698000000002
#
# number of rings (size 3 to 8) (size 9 to 14) (size 15 to 20)
#    0.000    2.625    1.250    1.875    0.000    2.750 
#    0.000    1.875    0.000    1.500    0.000    1.750 
#    0.000    0.000    0.000    0.000    0.000    0.000 
#
# Total GULP energy -356900.588271 kJ/mol
# GULP energy per Si atom -5576.571692 kJ/mol
# Density = 1.885169 g / cm^3
# Si number density = 18.894698 Si / 1000 Ang^3
#
#
#
# Elastic Constant Matrix: (Units=GPa)
#
#
# Indices 1 2 3 4 5 6 
#
# 1 151.0054 0.4237 114.6476 0.0000 0.0000 0.0000
# 2 0.4237 18.5064 2.8188 0.0000 0.0000 0.0000
# 3 114.6476 2.8188 142.2183 0.0000 0.0000 0.0000
# 4 0.0000 0.0000 0.0000 9.1007 0.0000 0.0000
# 5 0.0000 0.0000 0.0000 0.0000 25.3369 0.0000
# 6 0.0000 0.0000 0.0000 0.0000 0.0000 14.0403
#
#
#
# Elastic Compliance Matrix: (Units=1/GPa)
#
#
# Indices 1 2 3 4 5 6 
#
# 1 0.017124 0.001716 -0.013838 0.000000 0.000000 0.000000
# 2 0.001716 0.054371 -0.002461 0.000000 0.000000 0.000000
# 3 -0.013838 -0.002461 0.018236 0.000000 0.000000 0.000000
# 4 0.000000 0.000000 0.000000 0.109882 0.000000 0.000000
# 5 0.000000 0.000000 0.000000 0.000000 0.039468 0.000000
# 6 0.000000 0.000000 0.000000 0.000000 0.000000 0.071223
#
#
# Mechanical properties :
#
#
# Convention : Reuss Voigt Hill
#
# Bulk Modulus (GPa) = 16.51143 60.83447 38.67295
# Shear Modulus (GPa) = 13.90210 22.61826 18.26018
#
# Velocity S-wave (km/s) = 2.71545 3.46362 3.11210
# Velocity P-wave (km/s) = 4.31151 6.94709 5.78149
#
# Compressibility (1/GPa) = 0.06056411
#
# Stress axis : x y z
#
# Youngs Moduli (GPa) = 58.39825 18.39216 54.83752
#
# Poissons Ratio (x) = -0.03156 0.75885
# Poissons Ratio (y) = -0.10020 0.13494
# Poissons Ratio (z) = 0.80812 0.04526
#
# Static dielectric constant tensor:
#      x y z
#    x 1.637690 0.000000 0.000000 
#    y 0.000000 1.691470 0.000000 
#    z 0.000000 0.000000 1.663410 
# 
# From -- ./inp_files/30743.got.cif
#   From: 2010.05.17/outbox.cif.g08.bks.cpg/sg59_16_cif.got.tgz:30743.got - 2010.06.03 14:40:33.
