data_PCOD9447193
_publ_section_title
;
Structure prediction by ZEFSAII (Michael W. Deem and Ramdas Pophale) SiO2 
 PCOD9447193
Probable space group: P M M N
;
_chemical_formula_sum "Si O2"
_cell_formula_units_Z 48
_cell_length_a 31.544503
_cell_length_b 8.869755
_cell_length_c 9.427224
_cell_angle_alpha 90.000000
_cell_angle_beta 90.000000
_cell_angle_gamma 90.000000
_cell_volume 2637.661982
_symmetry_space_group_name_H-M "P M M N"
_symmetry_group_IT_number 59
_space_group.IT_coordinate_system_code '2'
_symmetry_cell_setting 'orthorhombic'
loop_
_space_group_symop_operation_xyz
x,y,z
1/2-x,1/2-y,z
1/2+x,-y,-z
-x,1/2+y,-z
-x,-y,-z
1/2+x,1/2+y,-z
1/2-x,y,z
x,1/2-y,z
loop_
_atom_site_type_symbol
_atom_site_label
_atom_site_fract_x
_atom_site_fract_y
_atom_site_fract_z
Si Si1 0.169730 0.083107 0.005141
Si Si2 0.454109 0.930157 0.975388
Si Si3 0.656988 0.569451 0.521141
Si Si4 0.750000 0.071602 0.489248
Si Si5 0.750000 0.926616 0.187108
Si Si6 0.602586 0.919897 0.247243
Si Si7 0.615590 0.074365 0.787303
O O1 0.173442 0.250000 0.073808
O O2 0.156733 0.957109 0.115584
O O3 0.210675 0.050383 0.914658
O O4 0.133786 0.092171 0.886308
O O5 0.455839 0.750000 0.974461
O O6 0.435019 0.984537 0.823861
O O7 0.423417 0.972185 0.109501
O O8 0.500000 0.000000 0.000000
O O9 0.662429 0.750000 0.514235
O O10 0.704299 0.497991 0.538441
O O11 0.631845 0.522424 0.376805
O O12 0.625644 0.521306 0.647947
O O13 0.750000 0.250000 0.516627
O O14 0.750000 0.032793 0.321838
O O15 0.750000 0.750000 0.236150
O O16 0.587884 0.750000 0.285017
O O17 0.611022 0.250000 0.752166
#
# Coordination Sequence:
#
# PCOD9447193 Si02
#       7
#     8   8   8   4   4   8   8
#     4   9  17  32  54  77 105 144 188 233 276 330
#     4  10  21  38  62  88 116 147 185 234 288 347
#     4  11  22  39  60  83 115 158 199 235 281 343
#     4  12  24  35  54  83 118 156 194 240 286 329
#     4  10  18  33  54  79 108 142 194 240 276 329
#     4   9  18  34  58  83 109 144 189 234 279 335
#     4  10  22  38  55  82 117 148 183 236 293 339
#
# _framework density 18.197935000000001
#
# number of rings (size 3 to 8) (size 9 to 14) (size 15 to 20)
#    0.000    2.000    1.667    2.250    0.000    4.667 
#    0.000    3.333    0.000    0.000    0.000    0.000 
#    0.000    0.000    0.000    0.000    0.000    0.000 
#
# Total GULP energy -267273.019468 kJ/mol
# GULP energy per Si atom -5568.187906 kJ/mol
# Density = 1.815652 g / cm^3
# Si number density = 18.197935 Si / 1000 Ang^3
#
#
#
# Elastic Constant Matrix: (Units=GPa)
#
#
# Indices 1 2 3 4 5 6 
#
# 1 107.9040 49.9983 31.9655 0.0000 0.0000 0.0000
# 2 49.9983 53.3494 33.6466 0.0000 0.0000 0.0000
# 3 31.9655 33.6466 72.7348 0.0000 0.0000 0.0000
# 4 0.0000 0.0000 0.0000 29.1398 0.0000 0.0000
# 5 0.0000 0.0000 0.0000 0.0000 71.6730 0.0000
# 6 0.0000 0.0000 0.0000 0.0000 0.0000 22.9608
#
#
#
# Elastic Compliance Matrix: (Units=1/GPa)
#
#
# Indices 1 2 3 4 5 6 
#
# 1 0.016382 -0.015266 -0.000138 0.000000 0.000000 0.000000
# 2 -0.015266 0.040692 -0.012115 0.000000 0.000000 0.000000
# 3 -0.000138 -0.012115 0.019413 0.000000 0.000000 0.000000
# 4 0.000000 0.000000 0.000000 0.034317 0.000000 0.000000
# 5 0.000000 0.000000 0.000000 0.000000 0.013952 0.000000
# 6 0.000000 0.000000 0.000000 0.000000 0.000000 0.043553
#
#
# Mechanical properties :
#
#
# Convention : Reuss Voigt Hill
#
# Bulk Modulus (GPa) = 46.61904 51.68988 49.15446
# Shear Modulus (GPa) = 21.69231 32.64656 27.16944
#
# Velocity S-wave (km/s) = 3.45631 4.24012 3.86812
# Velocity P-wave (km/s) = 6.44992 7.24137 6.85707
#
# Compressibility (1/GPa) = 0.02145046
#
# Stress axis : x y z
#
# Youngs Moduli (GPa) = 61.04266 24.57477 51.51148
#
# Poissons Ratio (x) = 0.37516 0.00708
# Poissons Ratio (y) = 0.93189 0.62404
# Poissons Ratio (z) = 0.00839 0.29772
#
# Static dielectric constant tensor:
#      x y z
#    x 1.608500 0.000000 0.000000 
#    y 0.000000 1.653250 0.000000 
#    z 0.000000 0.000000 1.624280 
# 
# From -- ./inp_files/6404.got.cif
#   From: 2010.05.17/outbox.cif.g08.bks.cpg/sg59_4_cif.got.tgz:6404.got - 2010.06.03 14:40:33.
