data_PCOD9447609
_publ_section_title
;
Structure prediction by ZEFSAII (Michael W. Deem and Ramdas Pophale) SiO2 
 PCOD9447609
Probable space group: P M M N
;
_chemical_formula_sum "Si O2"
_cell_formula_units_Z 64
_cell_length_a 8.820796
_cell_length_b 23.771989
_cell_length_c 19.630514
_cell_angle_alpha 90.000000
_cell_angle_beta 90.000000
_cell_angle_gamma 90.000000
_cell_volume 4116.280579
_symmetry_space_group_name_H-M "P M M N"
_symmetry_group_IT_number 59
_space_group.IT_coordinate_system_code '2'
_symmetry_cell_setting 'orthorhombic'
loop_
_space_group_symop_operation_xyz
x,y,z
1/2-x,1/2-y,z
1/2+x,-y,-z
-x,1/2+y,-z
-x,-y,-z
1/2+x,1/2+y,-z
1/2-x,y,z
x,1/2-y,z
loop_
_atom_site_type_symbol
_atom_site_label
_atom_site_fract_x
_atom_site_fract_y
_atom_site_fract_z
Si Si1 0.931512 0.983820 0.101779
Si Si2 0.068166 0.917809 0.528513
Si Si3 0.930816 0.496703 0.253961
Si Si4 0.430684 0.410145 0.024632
Si Si5 0.432006 0.685403 0.619944
Si Si6 0.930888 0.871580 0.752991
Si Si7 0.930692 0.476512 0.607301
Si Si8 0.931292 0.315769 0.111600
O O1 0.750000 0.993922 0.095658
O O2 0.966383 0.975433 0.181011
O O3 0.969093 0.932726 0.050972
O O4 0.015595 0.039282 0.074222
O O5 0.250000 0.926498 0.535145
O O6 0.031699 0.856769 0.558139
O O7 0.028682 0.930287 0.450029
O O8 0.986521 0.964593 0.574652
O O9 0.750000 0.490878 0.259861
O O10 0.002470 0.434398 0.252825
O O11 0.993409 0.529151 0.319394
O O12 0.250000 0.403585 0.029962
O O13 0.511239 0.353638 0.049050
O O14 0.250000 0.682128 0.631545
O O15 0.471140 0.750000 0.606233
O O16 0.514027 0.663029 0.687323
O O17 0.750000 0.874204 0.755619
O O18 0.994118 0.841820 0.820664
O O19 0.750000 0.477818 0.615046
O O20 0.750000 0.320669 0.117644
O O21 0.970422 0.250000 0.104939
#
# Coordination Sequence:
#
# PCOD9447609 Si02
#       8
#     8   8   8   8   8   8   8   8
#     4   9  19  33  50  71  98 128 159 197 246 299
#     4   9  18  32  48  67  94 127 160 199 244 288
#     4  11  20  32  50  71  99 133 161 191 240 296
#     4  10  19  32  51  74  96 123 162 207 247 282
#     4  10  20  34  51  69  93 130 168 198 236 287
#     4  12  23  33  47  71  99 129 168 206 236 274
#     4  10  19  30  47  71  96 123 160 202 243 284
#     4  11  23  37  51  68  96 136 172 200 239 291
#
# _framework density 15.548017
#
# number of rings (size 3 to 8) (size 9 to 14) (size 15 to 20)
#    0.000    1.750    2.500    3.000    0.000    4.250 
#    0.000    0.000    0.000    0.000    0.000    0.875 
#    0.000    3.000    0.000    0.000    0.000    0.000 
#
# Total GULP energy -357207.692846 kJ/mol
# GULP energy per Si atom -5581.370201 kJ/mol
# Density = 1.551263 g / cm^3
# Si number density = 15.548017 Si / 1000 Ang^3
#
#
#
# Elastic Constant Matrix: (Units=GPa)
#
#
# Indices 1 2 3 4 5 6 
#
# 1 46.7265 35.9671 51.0144 0.0000 0.0000 0.0000
# 2 35.9671 81.5549 62.4629 0.0000 0.0000 0.0000
# 3 51.0144 62.4629 139.9725 0.0000 0.0000 0.0000
# 4 0.0000 0.0000 0.0000 17.6465 0.0000 0.0000
# 5 0.0000 0.0000 0.0000 0.0000 24.9779 0.0000
# 6 0.0000 0.0000 0.0000 0.0000 0.0000 18.7301
#
#
#
# Elastic Compliance Matrix: (Units=1/GPa)
#
#
# Indices 1 2 3 4 5 6 
#
# 1 0.040182 -0.009882 -0.010235 0.000000 0.000000 0.000000
# 2 -0.009882 0.021059 -0.005796 0.000000 0.000000 0.000000
# 3 -0.010235 -0.005796 0.013461 0.000000 0.000000 0.000000
# 4 0.000000 0.000000 0.000000 0.056669 0.000000 0.000000
# 5 0.000000 0.000000 0.000000 0.000000 0.040035 0.000000
# 6 0.000000 0.000000 0.000000 0.000000 0.000000 0.053390
#
#
# Mechanical properties :
#
#
# Convention : Reuss Voigt Hill
#
# Bulk Modulus (GPa) = 43.71393 63.01584 53.36488
# Shear Modulus (GPa) = 17.59037 20.19150 18.89094
#
# Velocity S-wave (km/s) = 3.36722 3.60759 3.48948
# Velocity P-wave (km/s) = 6.57982 7.61386 7.11564
#
# Compressibility (1/GPa) = 0.02287601
#
# Stress axis : x y z
#
# Youngs Moduli (GPa) = 24.88701 47.48575 74.28925
#
# Poissons Ratio (x) = 0.46925 0.76033
# Poissons Ratio (y) = 0.24593 0.43058
# Poissons Ratio (z) = 0.25471 0.27523
#
# Static dielectric constant tensor:
#      x y z
#    x 1.522060 0.000000 0.000000 
#    y 0.000000 1.494960 0.000000 
#    z 0.000000 0.000000 1.529520 
# 
# From -- ./inp_files/26558.got.cif
#   From: 2010.05.17/outbox.cif.g08.bks.cpg/sg59_14_cif.got.tgz:26558.got - 2010.06.03 14:40:33.
