data_PCOD9447417
_publ_section_title
;
Structure prediction by ZEFSAII (Michael W. Deem and Ramdas Pophale) SiO2 
 PCOD9447417
Probable space group: P M M N
;
_chemical_formula_sum "Si O2"
_cell_formula_units_Z 64
_cell_length_a 8.445714
_cell_length_b 24.131631
_cell_length_c 19.697112
_cell_angle_alpha 90.000000
_cell_angle_beta 90.000000
_cell_angle_gamma 90.000000
_cell_volume 4014.445819
_symmetry_space_group_name_H-M "P M M N"
_symmetry_group_IT_number 59
_space_group.IT_coordinate_system_code '2'
_symmetry_cell_setting 'orthorhombic'
loop_
_space_group_symop_operation_xyz
x,y,z
1/2-x,1/2-y,z
1/2+x,-y,-z
-x,1/2+y,-z
-x,-y,-z
1/2+x,1/2+y,-z
1/2-x,y,z
x,1/2-y,z
loop_
_atom_site_type_symbol
_atom_site_label
_atom_site_fract_x
_atom_site_fract_y
_atom_site_fract_z
Si Si1 0.939215 0.977395 0.897061
Si Si2 0.558778 0.686692 0.108289
Si Si3 0.056931 0.130091 0.751137
Si Si4 0.060555 0.479106 0.392965
Si Si5 0.441553 0.084667 0.524011
Si Si6 0.060836 0.001751 0.752068
Si Si7 0.439156 0.912917 0.022054
Si Si8 0.056584 0.312943 0.610360
O O1 0.750000 0.976478 0.899854
O O2 0.004760 0.930617 0.947401
O O3 0.995375 0.973922 0.819987
O O4 0.994523 0.036747 0.928358
O O5 0.750000 0.687118 0.109307
O O6 0.504325 0.750000 0.100001
O O7 0.505231 0.661426 0.180700
O O8 0.504116 0.644634 0.050221
O O9 0.250000 0.129792 0.751025
O O10 0.004670 0.066118 0.750881
O O11 0.007069 0.161718 0.682942
O O12 0.250000 0.479025 0.389345
O O13 0.009663 0.432938 0.448179
O O14 0.003946 0.537316 0.425213
O O15 0.992058 0.473866 0.317944
O O16 0.250000 0.082520 0.526692
O O17 0.492646 0.144259 0.551778
O O18 0.250000 0.002440 0.755275
O O19 0.250000 0.911744 0.023799
O O20 0.250000 0.312124 0.610736
O O21 0.002181 0.250000 0.601853
#
# Coordination Sequence:
#
# PCOD9447417 Si02
#       8
#     8   8   8   8   8   8   8   8
#     4  10  20  33  50  71  96 124 158 198 244 290
#     4  10  19  31  48  70  97 131 168 200 233 275
#     4   9  16  26  42  66  95 124 157 195 227 268
#     4  10  19  29  44  65  94 124 155 194 239 286
#     4   9  17  30  45  66  91 121 158 197 237 279
#     4  11  19  30  49  70  95 126 160 195 237 288
#     4  10  20  33  49  70  96 127 161 198 241 286
#     4   9  15  25  44  68  91 119 159 200 233 268
#
# _framework density 15.942425
#
# number of rings (size 3 to 8) (size 9 to 14) (size 15 to 20)
#    0.000    2.250    2.500    1.875    0.000    3.250 
#    0.000    0.000    0.000    0.375    0.000    0.875 
#    0.000    5.000    0.000    0.000    0.000    0.000 
#
# Total GULP energy -356975.417955 kJ/mol
# GULP energy per Si atom -5577.740906 kJ/mol
# Density = 1.590614 g / cm^3
# Si number density = 15.942425 Si / 1000 Ang^3
#
#
#
# Elastic Constant Matrix: (Units=GPa)
#
#
# Indices 1 2 3 4 5 6 
#
# 1 13.5833 14.1867 16.5157 0.0000 0.0000 0.0000
# 2 14.1867 103.0247 71.8869 0.0000 0.0000 0.0000
# 3 16.5157 71.8869 132.2418 0.0000 0.0000 0.0000
# 4 0.0000 0.0000 0.0000 20.3936 0.0000 0.0000
# 5 0.0000 0.0000 0.0000 0.0000 21.5727 0.0000
# 6 0.0000 0.0000 0.0000 0.0000 0.0000 15.9943
#
#
#
# Elastic Compliance Matrix: (Units=1/GPa)
#
#
# Indices 1 2 3 4 5 6 
#
# 1 0.090119 -0.007341 -0.007265 0.000000 0.000000 0.000000
# 2 -0.007341 0.016236 -0.007909 0.000000 0.000000 0.000000
# 3 -0.007265 -0.007909 0.012769 0.000000 0.000000 0.000000
# 4 0.000000 0.000000 0.000000 0.049035 0.000000 0.000000
# 5 0.000000 0.000000 0.000000 0.000000 0.046355 0.000000
# 6 0.000000 0.000000 0.000000 0.000000 0.000000 0.062522
#
#
# Mechanical properties :
#
#
# Convention : Reuss Voigt Hill
#
# Bulk Modulus (GPa) = 13.49617 50.44760 31.97188
# Shear Modulus (GPa) = 14.41906 21.34281 17.88093
#
# Velocity S-wave (km/s) = 3.01066 3.66285 3.35265
# Velocity P-wave (km/s) = 4.53535 7.04280 5.92327
#
# Compressibility (1/GPa) = 0.07409512
#
# Stress axis : x y z
#
# Youngs Moduli (GPa) = 11.09641 61.59185 78.31712
#
# Poissons Ratio (x) = 0.45212 0.56894
# Poissons Ratio (y) = 0.08145 0.61942
# Poissons Ratio (z) = 0.08061 0.48714
#
# Static dielectric constant tensor:
#      x y z
#    x 1.546890 0.000000 0.000000 
#    y 0.000000 1.522090 0.000000 
#    z 0.000000 0.000000 1.528120 
# 
# From -- ./inp_files/26478.got.cif
#   From: 2010.05.17/outbox.cif.g08.bks.cpg/sg59_14_cif.got.tgz:26478.got - 2010.06.03 14:40:33.
