data_PCOD9447327
_publ_section_title
;
Structure prediction by ZEFSAII (Michael W. Deem and Ramdas Pophale) SiO2 
 PCOD9447327
Probable space group: P M M N
;
_chemical_formula_sum "Si O2"
_cell_formula_units_Z 64
_cell_length_a 23.425815
_cell_length_b 8.970931
_cell_length_c 17.357671
_cell_angle_alpha 90.000000
_cell_angle_beta 90.000000
_cell_angle_gamma 90.000000
_cell_volume 3647.738340
_symmetry_space_group_name_H-M "P M M N"
_symmetry_group_IT_number 59
_space_group.IT_coordinate_system_code '2'
_symmetry_cell_setting 'orthorhombic'
loop_
_space_group_symop_operation_xyz
x,y,z
1/2-x,1/2-y,z
1/2+x,-y,-z
-x,1/2+y,-z
-x,-y,-z
1/2+x,1/2+y,-z
1/2-x,y,z
x,1/2-y,z
loop_
_atom_site_type_symbol
_atom_site_label
_atom_site_fract_x
_atom_site_fract_y
_atom_site_fract_z
Si Si1 0.072378 0.572952 0.214591
Si Si2 0.314962 0.426592 0.259800
Si Si3 0.507324 0.078017 0.331422
Si Si4 0.185154 0.571757 0.427217
Si Si5 0.106459 0.929931 0.566463
Si Si6 0.396592 0.919962 0.804224
Si Si7 0.006501 0.570905 0.916509
Si Si8 0.184098 0.426406 0.697593
O O1 0.068653 0.750000 0.209777
O O2 0.136909 0.515403 0.214370
O O3 0.043210 0.518375 0.295039
O O4 0.037964 0.498434 0.144353
O O5 0.250000 0.454536 0.233453
O O6 0.325947 0.250000 0.256300
O O7 0.318246 0.482936 0.347922
O O8 0.488842 0.250000 0.342435
O O9 0.542789 0.022938 0.406217
O O10 0.555336 0.078300 0.263551
O O11 0.250000 0.547730 0.459557
O O12 0.180289 0.750000 0.412596
O O13 0.134452 0.527280 0.485178
O O14 0.105973 0.750000 0.570217
O O15 0.150369 0.990876 0.629879
O O16 0.375680 0.750000 0.809350
O O17 0.430876 0.960708 0.880809
O O18 0.346990 0.027343 0.776429
O O19 0.999741 0.750000 0.918040
O O20 0.000000 0.500000 0.000000
O O21 0.250000 0.469738 0.697801
O O22 0.179482 0.250000 0.685792
#
# Coordination Sequence:
#
# PCOD9447327 Si02
#       8
#     8   8   8   8   8   8   8   8
#     4  11  21  34  55  80 105 134 167 203 247 300
#     4  10  21  37  56  76  99 130 168 211 259 305
#     4   8  15  29  47  69  98 130 166 207 249 295
#     4   9  17  30  48  70  96 127 168 218 266 310
#     4   9  17  29  46  67  94 131 171 212 258 304
#     4   8  16  30  47  67  94 128 162 196 233 278
#     4  10  20  35  56  83 109 130 157 194 239 290
#     4  10  19  27  39  64  96 130 169 209 245 284
#
# _framework density 17.545117999999999
#
# number of rings (size 3 to 8) (size 9 to 14) (size 15 to 20)
#    0.000    2.625    0.000    4.125    0.000    7.750 
#    0.000    1.875    0.000    0.750    0.000    3.500 
#    0.000    0.000    0.000    0.000    0.000    0.000 
#
# Total GULP energy -356746.483638 kJ/mol
# GULP energy per Si atom -5574.163807 kJ/mol
# Density = 1.750518 g / cm^3
# Si number density = 17.545118 Si / 1000 Ang^3
#
#
#
# Elastic Constant Matrix: (Units=GPa)
#
#
# Indices 1 2 3 4 5 6 
#
# 1 63.7378 32.3528 16.0461 0.0000 0.0000 0.0000
# 2 32.3528 44.2506 13.7839 0.0000 0.0000 0.0000
# 3 16.0461 13.7839 40.8660 0.0000 0.0000 0.0000
# 4 0.0000 0.0000 0.0000 24.0701 0.0000 0.0000
# 5 0.0000 0.0000 0.0000 0.0000 20.4248 0.0000
# 6 0.0000 0.0000 0.0000 0.0000 0.0000 20.6987
#
#
#
# Elastic Compliance Matrix: (Units=1/GPa)
#
#
# Indices 1 2 3 4 5 6 
#
# 1 0.025569 -0.017394 -0.004173 0.000000 0.000000 0.000000
# 2 -0.017394 0.037085 -0.005679 0.000000 0.000000 0.000000
# 3 -0.004173 -0.005679 0.028024 0.000000 0.000000 0.000000
# 4 0.000000 0.000000 0.000000 0.041545 0.000000 0.000000
# 5 0.000000 0.000000 0.000000 0.000000 0.048960 0.000000
# 6 0.000000 0.000000 0.000000 0.000000 0.000000 0.048312
#
#
# Mechanical properties :
#
#
# Convention : Reuss Voigt Hill
#
# Bulk Modulus (GPa) = 27.63458 30.35779 28.99619
# Shear Modulus (GPa) = 16.88906 18.81681 17.85293
#
# Velocity S-wave (km/s) = 3.10596 3.27843 3.19336
# Velocity P-wave (km/s) = 5.35233 5.62770 5.49174
#
# Compressibility (1/GPa) = 0.03618654
#
# Stress axis : x y z
#
# Youngs Moduli (GPa) = 39.10980 26.96503 35.68366
#
# Poissons Ratio (x) = 0.46904 0.14890
# Poissons Ratio (y) = 0.68029 0.20264
# Poissons Ratio (z) = 0.16319 0.15313
#
# Static dielectric constant tensor:
#      x y z
#    x 1.623740 0.000000 0.000000 
#    y 0.000000 1.583980 0.000000 
#    z 0.000000 0.000000 1.600680 
# 
# From -- ./inp_files/28418.got.cif
#   From: 2010.05.17/outbox.cif.g08.bks.cpg/sg59_15_cif.got.tgz:28418.got - 2010.06.03 14:40:33.
