data_PCOD9447508
_publ_section_title
;
Structure prediction by ZEFSAII (Michael W. Deem and Ramdas Pophale) SiO2 
 PCOD9447508
Probable space group: P M M N
;
_chemical_formula_sum "Si O2"
_cell_formula_units_Z 56
_cell_length_a 8.727704
_cell_length_b 14.592924
_cell_length_c 21.026946
_cell_angle_alpha 90.000000
_cell_angle_beta 90.000000
_cell_angle_gamma 90.000000
_cell_volume 2678.049060
_symmetry_space_group_name_H-M "P M M N"
_symmetry_group_IT_number 59
_space_group.IT_coordinate_system_code '2'
_symmetry_cell_setting 'orthorhombic'
loop_
_space_group_symop_operation_xyz
x,y,z
1/2-x,1/2-y,z
1/2+x,-y,-z
-x,1/2+y,-z
-x,-y,-z
1/2+x,1/2+y,-z
1/2-x,y,z
x,1/2-y,z
loop_
_atom_site_type_symbol
_atom_site_label
_atom_site_fract_x
_atom_site_fract_y
_atom_site_fract_z
Si Si1 0.575253 0.101051 0.423746
Si Si2 0.930359 0.350037 0.680942
Si Si3 0.564711 0.849203 0.117574
Si Si4 0.933690 0.547488 0.844653
Si Si5 0.422201 0.382350 0.551197
Si Si6 0.433247 0.546609 0.712132
Si Si7 0.066032 0.097451 0.020118
O O1 0.750000 0.136021 0.425655
O O2 0.474401 0.141646 0.480214
O O3 0.582293 0.992584 0.440616
O O4 0.515075 0.100974 0.351366
O O5 0.750000 0.359499 0.693828
O O6 0.983151 0.250000 0.704575
O O7 0.961470 0.350395 0.605188
O O8 0.015406 0.440140 0.706024
O O9 0.750000 0.858174 0.123576
O O10 0.519160 0.750000 0.145305
O O11 0.489959 0.942089 0.144287
O O12 0.525598 0.844974 0.042093
O O13 0.750000 0.546668 0.841186
O O14 0.982964 0.607541 0.906438
O O15 0.001868 0.581726 0.778507
O O16 0.250000 0.350622 0.564813
O O17 0.250000 0.548985 0.711733
O O18 0.250000 0.096426 0.021982
O O19 0.000000 0.000000 0.000000
#
# Coordination Sequence:
#
# PCOD9447508 Si02
#       7
#     8   8   8   8   8   8   8
#     4   8  15  27  42  61  83 106 137 178 218 254
#     4  10  20  32  45  62  87 119 151 182 218 261
#     4   9  17  30  48  68  90 117 150 186 222 264
#     4  10  19  30  45  65  92 122 150 184 224 270
#     4   9  16  26  43  64  84 109 140 177 218 256
#     4  10  20  32  46  64  87 117 151 184 218 260
#     4   8  15  28  45  65  87 113 146 183 223 263
#
# _framework density 20.910746
#
# number of rings (size 3 to 8) (size 9 to 14) (size 15 to 20)
#    0.000    2.857    0.000    2.571    0.000    6.571 
#    0.000    0.000    0.000    0.000    0.000    1.000 
#    0.000    3.429    0.000    0.000    0.000    0.000 
#
# Total GULP energy -311979.166203 kJ/mol
# GULP energy per Si atom -5571.056539 kJ/mol
# Density = 2.086315 g / cm^3
# Si number density = 20.910746 Si / 1000 Ang^3
#
#
#
# Elastic Constant Matrix: (Units=GPa)
#
#
# Indices 1 2 3 4 5 6 
#
# 1 22.7530 -4.9053 15.1160 0.0000 0.0000 0.0000
# 2 -4.9053 27.7159 -12.4233 0.0000 0.0000 0.0000
# 3 15.1160 -12.4233 159.0054 0.0000 0.0000 0.0000
# 4 0.0000 0.0000 0.0000 -6.7313 0.0000 0.0000
# 5 0.0000 0.0000 0.0000 0.0000 32.2992 0.0000
# 6 0.0000 0.0000 0.0000 0.0000 0.0000 -9.2138
#
#
#
# Elastic Compliance Matrix: (Units=1/GPa)
#
#
# Indices 1 2 3 4 5 6 
#
# 1 0.048083 0.006696 -0.004048 0.000000 0.000000 0.000000
# 2 0.006696 0.038322 0.002358 0.000000 0.000000 0.000000
# 3 -0.004048 0.002358 0.006858 0.000000 0.000000 0.000000
# 4 0.000000 0.000000 0.000000 -0.148559 0.000000 0.000000
# 5 0.000000 0.000000 0.000000 0.000000 0.030960 0.000000
# 6 0.000000 0.000000 0.000000 0.000000 0.000000 -0.108533
#
#
# Mechanical properties :
#
#
# Convention : Reuss Voigt Hill
#
# Bulk Modulus (GPa) = 9.68300 22.78324 16.23312
# Shear Modulus (GPa) = -46.10211 17.38330 -14.35941
#
# Velocity S-wave (km/s) = -4.70053 2.88637 -2.62334
# Velocity P-wave (km/s) = 4.98189 4.69333 1.18151
#
# Compressibility (1/GPa) = 0.10327376
#
# Stress axis : x y z
#
# Youngs Moduli (GPa) = 20.79739 26.09458 145.81255
#
# Poissons Ratio (x) = -0.17472 0.59024
# Poissons Ratio (y) = -0.13925 -0.34377
# Poissons Ratio (z) = 0.08419 -0.06152
#
# Static dielectric constant tensor:
#      x y z
#    x 1.702520 0.000000 0.000000 
#    y 0.000000 1.755490 0.000000 
#    z 0.000000 0.000000 1.809900 
# 
# From -- ./inp_files/29281.got.cif
#   From: 2010.05.17/outbox.cif.g08.bks.cpg/sg59_15_cif.got.tgz:29281.got - 2010.06.03 14:40:33.
