data_PCOD9447662
_publ_section_title
;
Structure prediction by ZEFSAII (Michael W. Deem and Ramdas Pophale) SiO2 
 PCOD9447662
Probable space group: P M M N
;
_chemical_formula_sum "Si O2"
_cell_formula_units_Z 56
_cell_length_a 14.370973
_cell_length_b 8.697768
_cell_length_c 26.848653
_cell_angle_alpha 90.000000
_cell_angle_beta 90.000000
_cell_angle_gamma 90.000000
_cell_volume 3355.957828
_symmetry_space_group_name_H-M "P M M N"
_symmetry_group_IT_number 59
_space_group.IT_coordinate_system_code '2'
_symmetry_cell_setting 'orthorhombic'
loop_
_space_group_symop_operation_xyz
x,y,z
1/2-x,1/2-y,z
1/2+x,-y,-z
-x,1/2+y,-z
-x,-y,-z
1/2+x,1/2+y,-z
1/2-x,y,z
x,1/2-y,z
loop_
_atom_site_type_symbol
_atom_site_label
_atom_site_fract_x
_atom_site_fract_y
_atom_site_fract_z
Si Si1 0.528223 0.566349 0.629160
Si Si2 0.356415 0.435704 0.980463
Si Si3 0.359793 0.434141 0.578831
Si Si4 0.357853 0.434064 0.170732
Si Si5 0.357804 0.063121 0.467293
Si Si6 0.142524 0.933974 0.279592
Si Si7 0.959908 0.065848 0.923650
O O1 0.535495 0.750000 0.631529
O O2 0.422876 0.515326 0.619551
O O3 0.582727 0.509944 0.579528
O O4 0.575565 0.496221 0.677685
O O5 0.250000 0.482362 0.969822
O O6 0.357976 0.250000 0.984816
O O7 0.434747 0.478685 0.939690
O O8 0.392832 0.505029 0.032382
O O9 0.250000 0.462894 0.584612
O O10 0.373751 0.250000 0.581270
O O11 0.386483 0.488344 0.522709
O O12 0.250000 0.478532 0.159702
O O13 0.362365 0.250000 0.171602
O O14 0.380502 0.498974 0.225305
O O15 0.424700 0.498095 0.128157
O O16 0.250000 0.019910 0.460106
O O17 0.361339 0.250000 0.468206
O O18 0.250000 0.979181 0.290823
O O19 0.138129 0.750000 0.277722
O O20 0.955077 0.250000 0.922012
#
# Coordination Sequence:
#
# PCOD9447662 Si02
#       7
#     8   8   8   8   8   8   8
#     4  11  20  30  49  74 100 128 157 196 245 294
#     4   9  18  32  48  69 101 138 171 202 239 284
#     4   9  18  33  50  67  92 128 167 203 238 281
#     4  10  20  34  52  73  99 130 161 196 242 293
#     4   8  15  28  46  69  97 128 159 191 233 288
#     4  10  21  36  53  74  99 126 159 199 241 289
#     4  10  19  30  48  74 101 131 168 207 244 285
#
# _framework density 16.686741999999999
#
# number of rings (size 3 to 8) (size 9 to 14) (size 15 to 20)
#    0.000    2.429    0.000    3.857    0.000    5.143 
#    0.000    0.714    0.000    2.571    0.000    2.000 
#    0.000    0.000    0.000    0.000    0.000    0.000 
#
# Total GULP energy -312400.440262 kJ/mol
# GULP energy per Si atom -5578.579290 kJ/mol
# Density = 1.664876 g / cm^3
# Si number density = 16.686742 Si / 1000 Ang^3
#
#
#
# Elastic Constant Matrix: (Units=GPa)
#
#
# Indices 1 2 3 4 5 6 
#
# 1 105.5261 36.6114 82.7180 0.0000 0.0000 0.0000
# 2 36.6114 30.3741 42.5730 0.0000 0.0000 0.0000
# 3 82.7180 42.5730 129.7633 0.0000 0.0000 0.0000
# 4 0.0000 0.0000 0.0000 25.9358 0.0000 0.0000
# 5 0.0000 0.0000 0.0000 0.0000 28.8824 0.0000
# 6 0.0000 0.0000 0.0000 0.0000 0.0000 21.1998
#
#
#
# Elastic Compliance Matrix: (Units=1/GPa)
#
#
# Indices 1 2 3 4 5 6 
#
# 1 0.021129 -0.012200 -0.009466 0.000000 0.000000 0.000000
# 2 -0.012200 0.067995 -0.014531 0.000000 0.000000 0.000000
# 3 -0.009466 -0.014531 0.018508 0.000000 0.000000 0.000000
# 4 0.000000 0.000000 0.000000 0.038557 0.000000 0.000000
# 5 0.000000 0.000000 0.000000 0.000000 0.034623 0.000000
# 6 0.000000 0.000000 0.000000 0.000000 0.000000 0.047170
#
#
# Mechanical properties :
#
#
# Convention : Reuss Voigt Hill
#
# Bulk Modulus (GPa) = 28.37870 65.49647 46.93759
# Shear Modulus (GPa) = 16.01932 22.12101 19.07017
#
# Velocity S-wave (km/s) = 3.10175 3.64492 3.38425
# Velocity P-wave (km/s) = 5.46548 7.55313 6.59246
#
# Compressibility (1/GPa) = 0.03523770
#
# Stress axis : x y z
#
# Youngs Moduli (GPa) = 47.32766 14.70696 54.03041
#
# Poissons Ratio (x) = 0.17942 0.51147
# Poissons Ratio (y) = 0.57739 0.78512
# Poissons Ratio (z) = 0.44802 0.21371
#
# Static dielectric constant tensor:
#      x y z
#    x 1.574140 0.000000 0.000000 
#    y 0.000000 1.559230 0.000000 
#    z 0.000000 0.000000 1.536140 
# 
# From -- ./inp_files/30291.got.cif
#   From: 2010.05.17/outbox.cif.g08.bks.cpg/sg59_16_cif.got.tgz:30291.got - 2010.06.03 14:40:33.
