data_PCOD9447658
_publ_section_title
;
Structure prediction by ZEFSAII (Michael W. Deem and Ramdas Pophale) SiO2 
 PCOD9447658
Probable space group: P M M N
;
_chemical_formula_sum "Si O2"
_cell_formula_units_Z 48
_cell_length_a 7.724347
_cell_length_b 15.889655
_cell_length_c 19.241168
_cell_angle_alpha 90.000000
_cell_angle_beta 90.000000
_cell_angle_gamma 90.000000
_cell_volume 2361.607257
_symmetry_space_group_name_H-M "P M M N"
_symmetry_group_IT_number 59
_space_group.IT_coordinate_system_code '2'
_symmetry_cell_setting 'orthorhombic'
loop_
_space_group_symop_operation_xyz
x,y,z
1/2-x,1/2-y,z
1/2+x,-y,-z
-x,1/2+y,-z
-x,-y,-z
1/2+x,1/2+y,-z
1/2-x,y,z
x,1/2-y,z
loop_
_atom_site_type_symbol
_atom_site_label
_atom_site_fract_x
_atom_site_fract_y
_atom_site_fract_z
Si Si1 0.462265 0.840566 0.393131
Si Si2 0.538343 0.154822 0.902802
Si Si3 0.457521 0.487903 0.172276
Si Si4 0.041786 0.655667 0.937885
Si Si5 0.045341 0.590123 0.533938
Si Si6 0.456488 0.484655 0.326513
O O1 0.250000 0.843040 0.392338
O O2 0.514782 0.750000 0.363937
O O3 0.518778 0.847393 0.473979
O O4 0.522843 0.924177 0.353310
O O5 0.750000 0.154603 0.901676
O O6 0.484860 0.250000 0.883619
O O7 0.477419 0.078499 0.854748
O O8 0.484400 0.138556 0.982810
O O9 0.250000 0.495381 0.176756
O O10 0.492225 0.415780 0.116168
O O11 0.523732 0.466410 0.249451
O O12 0.250000 0.657925 0.939911
O O13 0.981089 0.750000 0.918630
O O14 0.250000 0.600004 0.536752
O O15 0.000000 0.500000 0.500000
O O16 0.986305 0.584152 0.613324
O O17 0.250000 0.493123 0.322168
#
# Coordination Sequence:
#
# PCOD9447658 Si02
#       6
#     8   8   8   8   8   8
#     4   8  14  26  45  67  87 109 143 185 222 261
#     4   8  15  29  49  73  99 126 160 203 247 290
#     4  10  19  30  48  74 100 127 160 199 244 293
#     4   9  18  33  51  69  92 126 167 207 246 290
#     4   9  16  28  47  66  86 115 149 184 220 262
#     4   9  18  30  44  66  95 122 148 182 229 284
#
# _framework density 20.325139
#
# number of rings (size 3 to 8) (size 9 to 14) (size 15 to 20)
#    0.000    3.167    0.000    3.000    0.000    1.667 
#    0.000    4.167    0.000   17.000    0.000    4.667 
#    0.000    0.000    0.000    0.000    0.000    0.000 
#
# Total GULP energy -267351.196816 kJ/mol
# GULP energy per Si atom -5569.816600 kJ/mol
# Density = 2.027888 g / cm^3
# Si number density = 20.325139 Si / 1000 Ang^3
#
#
#
# Elastic Constant Matrix: (Units=GPa)
#
#
# Indices 1 2 3 4 5 6 
#
# 1 27.8927 2.8954 10.1522 0.0000 0.0000 0.0000
# 2 2.8954 28.8182 5.1042 0.0000 0.0000 0.0000
# 3 10.1522 5.1042 78.0404 0.0000 0.0000 0.0000
# 4 0.0000 0.0000 0.0000 10.1229 0.0000 0.0000
# 5 0.0000 0.0000 0.0000 0.0000 16.7775 0.0000
# 6 0.0000 0.0000 0.0000 0.0000 0.0000 14.3239
#
#
#
# Elastic Compliance Matrix: (Units=1/GPa)
#
#
# Indices 1 2 3 4 5 6 
#
# 1 0.037883 -0.002968 -0.004734 0.000000 0.000000 0.000000
# 2 -0.002968 0.035339 -0.001925 0.000000 0.000000 0.000000
# 3 -0.004734 -0.001925 0.013556 0.000000 0.000000 0.000000
# 4 0.000000 0.000000 0.000000 0.098786 0.000000 0.000000
# 5 0.000000 0.000000 0.000000 0.000000 0.059604 0.000000
# 6 0.000000 0.000000 0.000000 0.000000 0.000000 0.069813
#
#
# Mechanical properties :
#
#
# Convention : Reuss Voigt Hill
#
# Bulk Modulus (GPa) = 14.80956 19.00609 16.90783
# Shear Modulus (GPa) = 14.01570 16.01816 15.01693
#
# Velocity S-wave (km/s) = 2.62882 2.81035 2.72110
# Velocity P-wave (km/s) = 4.06404 4.46118 4.26723
#
# Compressibility (1/GPa) = 0.06752396
#
# Stress axis : x y z
#
# Youngs Moduli (GPa) = 26.39719 28.29696 73.76998
#
# Poissons Ratio (x) = 0.08398 0.34923
# Poissons Ratio (y) = 0.07834 0.14203
# Poissons Ratio (z) = 0.12497 0.05448
#
# Static dielectric constant tensor:
#      x y z
#    x 1.764640 0.000000 0.000000 
#    y 0.000000 1.716450 0.000000 
#    z 0.000000 0.000000 1.745360 
# 
# From -- ./inp_files/25433.got.cif
#   From: 2010.05.17/outbox.cif.g08.bks.cpg/sg59_13_cif.got.tgz:25433.got - 2010.06.03 14:40:33.
