data_PCOD9447156
_publ_section_title
;
Structure prediction by ZEFSAII (Michael W. Deem and Ramdas Pophale) SiO2 
 PCOD9447156
Probable space group: P M M N
;
_chemical_formula_sum "Si O2"
_cell_formula_units_Z 64
_cell_length_a 18.776909
_cell_length_b 8.851403
_cell_length_c 22.647867
_cell_angle_alpha 90.000000
_cell_angle_beta 90.000000
_cell_angle_gamma 90.000000
_cell_volume 3764.120534
_symmetry_space_group_name_H-M "P M M N"
_symmetry_group_IT_number 59
_space_group.IT_coordinate_system_code '2'
_symmetry_cell_setting 'orthorhombic'
loop_
_space_group_symop_operation_xyz
x,y,z
1/2-x,1/2-y,z
1/2+x,-y,-z
-x,1/2+y,-z
-x,-y,-z
1/2+x,1/2+y,-z
1/2-x,y,z
x,1/2-y,z
loop_
_atom_site_type_symbol
_atom_site_label
_atom_site_fract_x
_atom_site_fract_y
_atom_site_fract_z
Si Si1 0.167624 0.431888 0.731090
Si Si2 0.999394 0.429620 0.935343
Si Si3 0.583693 0.567058 0.387006
Si Si4 0.333073 0.567243 0.501930
Si Si5 0.832444 0.432234 0.730509
Si Si6 0.081042 0.933984 0.384998
Si Si7 0.419412 0.073591 0.165852
Si Si8 0.921280 0.426349 0.166051
O O1 0.250000 0.474531 0.722965
O O2 0.163673 0.250000 0.735545
O O3 0.121404 0.477948 0.674243
O O4 0.135026 0.502192 0.790146
O O5 0.998992 0.250000 0.937789
O O6 0.066249 0.488704 0.896069
O O7 0.932456 0.490206 0.896524
O O8 0.000000 0.500000 0.000000
O O9 0.585547 0.750000 0.390393
O O10 0.627136 0.500323 0.441667
O O11 0.501178 0.518209 0.388223
O O12 0.250000 0.522891 0.500337
O O13 0.335776 0.750000 0.504809
O O14 0.374228 0.519399 0.442460
O O15 0.750000 0.472832 0.721585
O O16 0.836964 0.250000 0.733686
O O17 0.879854 0.483341 0.674896
O O18 0.863323 0.500103 0.790647
O O19 0.081242 0.750000 0.384224
O O20 0.404967 0.250000 0.156161
O O21 0.499031 0.060626 0.194224
O O22 0.907294 0.250000 0.155734
#
# Coordination Sequence:
#
# PCOD9447156 Si02
#       8
#     8   8   8   8   8   8   8   8
#     4  10  20  33  50  74 104 139 177 220 272 325
#     4  10  18  32  56  84 113 143 178 219 259 304
#     4  10  20  34  53  74  99 133 175 221 269 321
#     4  10  20  34  51  72 100 134 172 218 272 326
#     4  10  19  32  53  78 102 135 178 221 269 325
#     4   9  18  33  53  75 100 132 174 221 269 322
#     4   9  19  33  50  77 109 140 176 216 260 308
#     4   9  19  33  51  78 107 138 177 217 260 309
#
# _framework density 17.002644
#
# number of rings (size 3 to 8) (size 9 to 14) (size 15 to 20)
#    0.750    1.625    0.000    3.375    0.000    4.250 
#    0.000    1.250    0.000    2.250    0.000    0.000 
#    0.000    0.000    0.000    0.000    0.000    0.000 
#
# Total GULP energy -356609.817333 kJ/mol
# GULP energy per Si atom -5572.028396 kJ/mol
# Density = 1.696395 g / cm^3
# Si number density = 17.002644 Si / 1000 Ang^3
#
#
#
# Elastic Constant Matrix: (Units=GPa)
#
#
# Indices 1 2 3 4 5 6 
#
# 1 135.6932 46.3391 86.4849 0.0000 0.0000 0.0000
# 2 46.3391 45.5090 49.3685 0.0000 0.0000 0.0000
# 3 86.4849 49.3685 162.6852 0.0000 0.0000 0.0000
# 4 0.0000 0.0000 0.0000 29.6439 0.0000 0.0000
# 5 0.0000 0.0000 0.0000 0.0000 9.2960 0.0000
# 6 0.0000 0.0000 0.0000 0.0000 0.0000 21.8744
#
#
#
# Elastic Compliance Matrix: (Units=1/GPa)
#
#
# Indices 1 2 3 4 5 6 
#
# 1 0.013074 -0.008605 -0.004339 0.000000 0.000000 0.000000
# 2 -0.008605 0.038422 -0.007085 0.000000 0.000000 0.000000
# 3 -0.004339 -0.007085 0.010603 0.000000 0.000000 0.000000
# 4 0.000000 0.000000 0.000000 0.033734 0.000000 0.000000
# 5 0.000000 0.000000 0.000000 0.000000 0.107573 0.000000
# 6 0.000000 0.000000 0.000000 0.000000 0.000000 0.045715
#
#
# Mechanical properties :
#
#
# Convention : Reuss Voigt Hill
#
# Bulk Modulus (GPa) = 45.37023 78.69693 62.03358
# Shear Modulus (GPa) = 16.86198 22.94254 19.90226
#
# Velocity S-wave (km/s) = 3.15259 3.67734 3.42503
# Velocity P-wave (km/s) = 6.32407 8.02596 7.22530
#
# Compressibility (1/GPa) = 0.02204088
#
# Stress axis : x y z
#
# Youngs Moduli (GPa) = 76.49027 26.02696 94.31115
#
# Poissons Ratio (x) = 0.22397 0.40918
# Poissons Ratio (y) = 0.65824 0.66817
# Poissons Ratio (z) = 0.33186 0.18439
#
# Static dielectric constant tensor:
#      x y z
#    x 1.569830 0.000000 0.000000 
#    y 0.000000 1.574050 0.000000 
#    z 0.000000 0.000000 1.548560 
# 
# From -- ./inp_files/30938.got.cif
#   From: 2010.05.17/outbox.cif.g08.bks.cpg/sg59_16_cif.got.tgz:30938.got - 2010.06.03 14:40:33.
