data_PCOD9447736
_publ_section_title
;
Structure prediction by ZEFSAII (Michael W. Deem and Ramdas Pophale) SiO2 
 PCOD9447736
Probable space group: P M M N
;
_chemical_formula_sum "Si O2"
_cell_formula_units_Z 64
_cell_length_a 23.493676
_cell_length_b 7.582000
_cell_length_c 18.201134
_cell_angle_alpha 90.000000
_cell_angle_beta 90.000000
_cell_angle_gamma 90.000000
_cell_volume 3242.150734
_symmetry_space_group_name_H-M "P M M N"
_symmetry_group_IT_number 59
_space_group.IT_coordinate_system_code '2'
_symmetry_cell_setting 'orthorhombic'
loop_
_space_group_symop_operation_xyz
x,y,z
1/2-x,1/2-y,z
1/2+x,-y,-z
-x,1/2+y,-z
-x,-y,-z
1/2+x,1/2+y,-z
1/2-x,y,z
x,1/2-y,z
loop_
_atom_site_type_symbol
_atom_site_label
_atom_site_fract_x
_atom_site_fract_y
_atom_site_fract_z
Si Si1 0.687395 0.038825 0.428715
Si Si2 0.581300 0.463313 0.847664
Si Si3 0.414683 0.533312 0.675110
Si Si4 0.066940 0.960969 0.991536
Si Si5 0.850888 0.539076 0.593627
Si Si6 0.687850 0.042720 0.753303
Si Si7 0.447177 0.539058 0.832605
Si Si8 0.478898 0.461128 0.418141
O O1 0.750000 0.969324 0.410359
O O2 0.688278 0.250000 0.419752
O O3 0.637337 0.972544 0.375786
O O4 0.674716 0.005094 0.514343
O O5 0.582044 0.250000 0.847243
O O6 0.630823 0.528692 0.793002
O O7 0.515764 0.510345 0.828474
O O8 0.593228 0.525275 0.931669
O O9 0.414282 0.750000 0.674248
O O10 0.416492 0.474192 0.759247
O O11 0.473519 0.474333 0.637786
O O12 0.075702 0.750000 0.990321
O O13 0.078469 0.030689 0.909529
O O14 0.000000 0.000000 0.000000
O O15 0.851560 0.750000 0.599218
O O16 0.819170 0.472347 0.665614
O O17 0.915694 0.469451 0.594650
O O18 0.750000 0.967577 0.774167
O O19 0.689246 0.250000 0.771757
O O20 0.440198 0.750000 0.834276
O O21 0.500000 0.500000 0.500000
O O22 0.475972 0.250000 0.410344
#
# Coordination Sequence:
#
# PCOD9447736 Si02
#       8
#     8   8   8   8   8   8   8   8
#     4  10  20  34  51  66  85 122 164 193 225 274
#     4   9  17  30  47  69  96 122 153 192 228 272
#     4   9  17  30  47  67  92 119 150 188 225 268
#     4   8  14  25  44  69  94 119 145 176 221 273
#     4  11  22  34  50  72  94 117 152 199 243 279
#     4  10  21  35  49  65  90 129 168 196 230 280
#     4   9  16  28  48  72  97 123 149 184 237 289
#     4  10  19  31  47  67  91 118 148 184 231 279
#
# _framework density 19.739982000000001
#
# number of rings (size 3 to 8) (size 9 to 14) (size 15 to 20)
#    0.000    2.500    1.250    1.500    0.000    4.000 
#    0.000    1.250    0.000    0.750    0.000    5.250 
#    0.000    0.000    0.000   10.375    0.000   10.000 
#
# Total GULP energy -356868.294521 kJ/mol
# GULP energy per Si atom -5576.067102 kJ/mol
# Density = 1.969505 g / cm^3
# Si number density = 19.739982 Si / 1000 Ang^3
#
#
#
# Elastic Constant Matrix: (Units=GPa)
#
#
# Indices 1 2 3 4 5 6 
#
# 1 88.8375 0.0890 36.2542 0.0000 0.0000 0.0000
# 2 0.0890 45.0082 -6.7784 0.0000 0.0000 0.0000
# 3 36.2542 -6.7784 141.1820 0.0000 0.0000 0.0000
# 4 0.0000 0.0000 0.0000 7.1577 0.0000 0.0000
# 5 0.0000 0.0000 0.0000 0.0000 -23.5022 0.0000
# 6 0.0000 0.0000 0.0000 0.0000 0.0000 10.1520
#
#
#
# Elastic Compliance Matrix: (Units=1/GPa)
#
#
# Indices 1 2 3 4 5 6 
#
# 1 0.012586 -0.000515 -0.003257 0.000000 0.000000 0.000000
# 2 -0.000515 0.022401 0.001208 0.000000 0.000000 0.000000
# 3 -0.003257 0.001208 0.007977 0.000000 0.000000 0.000000
# 4 0.000000 0.000000 0.000000 0.139710 0.000000 0.000000
# 5 0.000000 0.000000 0.000000 0.000000 -0.042549 0.000000
# 6 0.000000 0.000000 0.000000 0.000000 0.000000 0.098503
#
#
# Mechanical properties :
#
#
# Convention : Reuss Voigt Hill
#
# Bulk Modulus (GPa) = 26.42981 37.12858 31.77920
# Shear Modulus (GPa) = 19.50315 15.12568 17.31441
#
# Velocity S-wave (km/s) = 3.14666 2.77112 2.96484
# Velocity P-wave (km/s) = 5.15946 5.39337 5.27771
#
# Compressibility (1/GPa) = 0.03783607
#
# Stress axis : x y z
#
# Youngs Moduli (GPa) = 79.45289 44.64064 125.35498
#
# Poissons Ratio (x) = 0.02301 0.40825
# Poissons Ratio (y) = 0.04095 -0.15141
# Poissons Ratio (z) = 0.25876 -0.05392
#
# Static dielectric constant tensor:
#      x y z
#    x 1.680040 0.000000 0.000000 
#    y 0.000000 1.688160 0.000000 
#    z 0.000000 0.000000 1.724070 
# 
# From -- ./inp_files/28202.got.cif
#   From: 2010.05.17/outbox.cif.g08.bks.cpg/sg59_15_cif.got.tgz:28202.got - 2010.06.03 14:40:33.
