data_PCOD9447041
_publ_section_title
;
Structure prediction by ZEFSAII (Michael W. Deem and Ramdas Pophale) SiO2 
 PCOD9447041
Probable space group: P M M N
;
_chemical_formula_sum "Si O2"
_cell_formula_units_Z 64
_cell_length_a 23.120237
_cell_length_b 18.371057
_cell_length_c 9.176778
_cell_angle_alpha 90.000000
_cell_angle_beta 90.000000
_cell_angle_gamma 90.000000
_cell_volume 3897.773978
_symmetry_space_group_name_H-M "P M M N"
_symmetry_group_IT_number 59
_space_group.IT_coordinate_system_code '2'
_symmetry_cell_setting 'orthorhombic'
loop_
_space_group_symop_operation_xyz
x,y,z
1/2-x,1/2-y,z
1/2+x,-y,-z
-x,1/2+y,-z
-x,-y,-z
1/2+x,1/2+y,-z
1/2-x,y,z
x,1/2-y,z
loop_
_atom_site_type_symbol
_atom_site_label
_atom_site_fract_x
_atom_site_fract_y
_atom_site_fract_z
Si Si1 0.434556 0.469887 0.520549
Si Si2 0.318041 0.554377 0.950255
Si Si3 0.575872 0.532881 0.137240
Si Si4 0.093367 0.627771 0.458703
Si Si5 0.317496 0.670406 0.696238
Si Si6 0.009377 0.883265 0.938252
Si Si7 0.384471 0.832059 0.129143
Si Si8 0.474082 0.167689 0.375756
O O1 0.500000 0.500000 0.500000
O O2 0.422618 0.453563 0.689974
O O3 0.399185 0.540238 0.468604
O O4 0.431160 0.396365 0.427352
O O5 0.250000 0.537336 0.958421
O O6 0.339029 0.605890 0.082082
O O7 0.361491 0.486882 0.929190
O O8 0.329077 0.606084 0.809448
O O9 0.537919 0.459194 0.116590
O O10 0.542167 0.594743 0.047776
O O11 0.143877 0.661857 0.554819
O O12 0.095297 0.653209 0.293419
O O13 0.033548 0.652216 0.535298
O O14 0.250000 0.667602 0.659316
O O15 0.329535 0.750000 0.763695
O O16 0.988152 0.842364 0.794671
O O17 0.059978 0.842131 0.024415
O O18 0.361549 0.750000 0.117109
O O19 0.454912 0.250000 0.405062
#
# Coordination Sequence:
#
# PCOD9447041 Si02
#       8
#     8   8   8   8   8   8   8   8
#     4  10  18  32  49  74 100 135 170 210 259 310
#     4  10  21  36  52  72 103 142 188 225 258 306
#     4  10  18  32  52  76  99 136 174 224 268 311
#     4  11  20  33  49  72 103 143 177 209 250 307
#     4  10  19  32  50  70  97 135 179 218 250 292
#     4  10  19  31  51  74 104 133 176 214 264 317
#     4  11  22  32  48  75 110 145 177 217 264 311
#     4  11  21  32  51  75 105 137 168 205 255 325
#
# _framework density 16.419627999999999
#
# number of rings (size 3 to 8) (size 9 to 14) (size 15 to 20)
#    0.000    1.625    3.750    4.125    3.500    1.250 
#    0.000    0.625    0.000    0.000    0.000    0.000 
#    0.000    8.000    0.000    0.000    0.000    0.000 
#
# Total GULP energy -357036.040143 kJ/mol
# GULP energy per Si atom -5578.688127 kJ/mol
# Density = 1.638226 g / cm^3
# Si number density = 16.419628 Si / 1000 Ang^3
#
#
#
# Elastic Constant Matrix: (Units=GPa)
#
#
# Indices 1 2 3 4 5 6 
#
# 1 54.0696 10.9223 12.9066 0.0000 0.0000 0.0000
# 2 10.9223 61.9554 2.9399 0.0000 0.0000 0.0000
# 3 12.9066 2.9399 64.6166 0.0000 0.0000 0.0000
# 4 0.0000 0.0000 0.0000 7.3303 0.0000 0.0000
# 5 0.0000 0.0000 0.0000 0.0000 13.3867 0.0000
# 6 0.0000 0.0000 0.0000 0.0000 0.0000 13.3405
#
#
#
# Elastic Compliance Matrix: (Units=1/GPa)
#
#
# Indices 1 2 3 4 5 6 
#
# 1 0.020095 -0.003359 -0.003861 0.000000 0.000000 0.000000
# 2 -0.003359 0.016737 -0.000091 0.000000 0.000000 0.000000
# 3 -0.003861 -0.000091 0.016251 0.000000 0.000000 0.000000
# 4 0.000000 0.000000 0.000000 0.136420 0.000000 0.000000
# 5 0.000000 0.000000 0.000000 0.000000 0.074701 0.000000
# 6 0.000000 0.000000 0.000000 0.000000 0.000000 0.074960
#
#
# Mechanical properties :
#
#
# Convention : Reuss Voigt Hill
#
# Bulk Modulus (GPa) = 25.99992 26.01992 26.00992
# Shear Modulus (GPa) = 13.63861 17.06968 15.35415
#
# Velocity S-wave (km/s) = 2.88519 3.22777 3.06127
# Velocity P-wave (km/s) = 5.19308 5.45642 5.32638
#
# Compressibility (1/GPa) = 0.03846165
#
# Stress axis : x y z
#
# Youngs Moduli (GPa) = 49.76384 59.74723 61.53387
#
# Poissons Ratio (x) = 0.20071 0.23758
# Poissons Ratio (y) = 0.16718 0.00557
# Poissons Ratio (z) = 0.19213 0.00541
#
# Static dielectric constant tensor:
#      x y z
#    x 1.525080 0.000000 0.000000 
#    y 0.000000 1.611720 0.000000 
#    z 0.000000 0.000000 1.556970 
# 
# From -- ./inp_files/10802.got.cif
#   From: 2010.05.17/outbox.cif.g08.bks.cpg/sg59_6_cif.got.tgz:10802.got - 2010.06.03 14:40:33.
