data_PCOD9447926
_publ_section_title
;
Structure prediction by ZEFSAII (Michael W. Deem and Ramdas Pophale) SiO2 
 PCOD9447926
Probable space group: P M M N
;
_chemical_formula_sum "Si O2"
_cell_formula_units_Z 40
_cell_length_a 18.758672
_cell_length_b 8.526935
_cell_length_c 14.045759
_cell_angle_alpha 90.000000
_cell_angle_beta 90.000000
_cell_angle_gamma 90.000000
_cell_volume 2246.675010
_symmetry_space_group_name_H-M "P M M N"
_symmetry_group_IT_number 59
_space_group.IT_coordinate_system_code '2'
_symmetry_cell_setting 'orthorhombic'
loop_
_space_group_symop_operation_xyz
x,y,z
1/2-x,1/2-y,z
1/2+x,-y,-z
-x,1/2+y,-z
-x,-y,-z
1/2+x,1/2+y,-z
1/2-x,y,z
x,1/2-y,z
loop_
_atom_site_type_symbol
_atom_site_label
_atom_site_fract_x
_atom_site_fract_y
_atom_site_fract_z
Si Si1 0.027295 0.936409 0.600302
Si Si2 0.668038 0.560264 0.912347
Si Si3 0.957799 0.438009 0.791737
Si Si4 0.669402 0.560328 0.312528
Si Si5 0.102055 0.059674 0.888076
O O1 0.023057 0.750000 0.601757
O O2 0.108285 0.989848 0.621306
O O3 0.000000 0.000000 0.500000
O O4 0.980804 0.004068 0.687703
O O5 0.750000 0.509321 0.903543
O O6 0.667473 0.750000 0.913358
O O7 0.616756 0.502178 0.828963
O O8 0.634407 0.503847 0.012705
O O9 0.957037 0.250000 0.791501
O O10 0.021504 0.491090 0.863505
O O11 0.750000 0.512798 0.335271
O O12 0.665008 0.750000 0.317857
O O13 0.649538 0.516195 0.203631
O O14 0.101767 0.250000 0.891643
#
# Coordination Sequence:
#
# PCOD9447926 Si02
#       5
#     8   8   8   8   8
#     4  11  22  38  59  80 104 134 173 218 265 317
#     4  10  19  31  49  75 108 145 181 214 253 304
#     4  10  20  35  54  76 103 136 177 220 263 311
#     4   9  17  32  55  83 113 141 171 211 260 311
#     4   8  15  29  51  77 105 140 177 211 252 305
#
# _framework density 17.804089000000001
#
# number of rings (size 3 to 8) (size 9 to 14) (size 15 to 20)
#    0.000    2.400    0.000    4.800    0.000    3.200 
#    0.000    5.000    0.000   10.800    0.000    0.000 
#    0.000    0.000    0.000    0.000    0.000    0.000 
#
# Total GULP energy -223219.045936 kJ/mol
# GULP energy per Si atom -5580.476148 kJ/mol
# Density = 1.776357 g / cm^3
# Si number density = 17.804089 Si / 1000 Ang^3
#
#
#
# Elastic Constant Matrix: (Units=GPa)
#
#
# Indices 1 2 3 4 5 6 
#
# 1 164.0734 37.6426 97.3473 0.0000 0.0000 0.0000
# 2 37.6426 37.6945 24.1019 0.0000 0.0000 0.0000
# 3 97.3473 24.1019 109.0999 0.0000 0.0000 0.0000
# 4 0.0000 0.0000 0.0000 20.9451 0.0000 0.0000
# 5 0.0000 0.0000 0.0000 0.0000 18.2504 0.0000
# 6 0.0000 0.0000 0.0000 0.0000 0.0000 27.3218
#
#
#
# Elastic Compliance Matrix: (Units=1/GPa)
#
#
# Indices 1 2 3 4 5 6 
#
# 1 0.014458 -0.007207 -0.011308 0.000000 0.000000 0.000000
# 2 -0.007207 0.034486 -0.001187 0.000000 0.000000 0.000000
# 3 -0.011308 -0.001187 0.019518 0.000000 0.000000 0.000000
# 4 0.000000 0.000000 0.000000 0.047744 0.000000 0.000000
# 5 0.000000 0.000000 0.000000 0.000000 0.054793 0.000000
# 6 0.000000 0.000000 0.000000 0.000000 0.000000 0.036601
#
#
# Mechanical properties :
#
#
# Convention : Reuss Voigt Hill
#
# Bulk Modulus (GPa) = 34.41647 69.89460 52.15553
# Shear Modulus (GPa) = 19.47874 23.42187 21.45030
#
# Velocity S-wave (km/s) = 3.31125 3.63096 3.47478
# Velocity P-wave (km/s) = 5.83024 7.54462 6.74215
#
# Compressibility (1/GPa) = 0.02905586
#
# Stress axis : x y z
#
# Youngs Moduli (GPa) = 69.16804 28.99744 51.23470
#
# Poissons Ratio (x) = 0.20900 0.57936
# Poissons Ratio (y) = 0.49852 0.06084
# Poissons Ratio (z) = 0.78215 0.03443
#
# Static dielectric constant tensor:
#      x y z
#    x 1.605880 0.000000 0.000000 
#    y 0.000000 1.610730 0.000000 
#    z 0.000000 0.000000 1.582740 
# 
# From -- ./inp_files/17445.got.cif
#   From: 2010.05.17/outbox.cif.g08.bks.cpg/sg59_9_cif.got.tgz:17445.got - 2010.06.03 14:40:33.
