data_PCOD9447269
_publ_section_title
;
Structure prediction by ZEFSAII (Michael W. Deem and Ramdas Pophale) SiO2 
 PCOD9447269
Probable space group: P M M N
;
_chemical_formula_sum "Si O2"
_cell_formula_units_Z 48
_cell_length_a 8.300010
_cell_length_b 16.552325
_cell_length_c 18.690752
_cell_angle_alpha 90.000000
_cell_angle_beta 90.000000
_cell_angle_gamma 90.000000
_cell_volume 2567.818927
_symmetry_space_group_name_H-M "P M M N"
_symmetry_group_IT_number 59
_space_group.IT_coordinate_system_code '2'
_symmetry_cell_setting 'orthorhombic'
loop_
_space_group_symop_operation_xyz
x,y,z
1/2-x,1/2-y,z
1/2+x,-y,-z
-x,1/2+y,-z
-x,-y,-z
1/2+x,1/2+y,-z
1/2-x,y,z
x,1/2-y,z
loop_
_atom_site_type_symbol
_atom_site_label
_atom_site_fract_x
_atom_site_fract_y
_atom_site_fract_z
Si Si1 0.059905 0.505538 0.080487
Si Si2 0.944937 0.085618 0.532696
Si Si3 0.445531 0.250000 0.288980
Si Si4 0.941953 0.659952 0.164157
Si Si5 0.053561 0.416076 0.218588
Si Si6 0.055301 0.750000 0.547221
Si Si7 0.555236 0.423229 0.696932
O O1 0.250000 0.494368 0.078372
O O2 0.995452 0.441387 0.139419
O O3 0.020985 0.592190 0.114850
O O4 0.000000 0.500000 0.000000
O O5 0.750000 0.085675 0.531479
O O6 0.999901 0.166477 0.490848
O O7 0.996852 0.089431 0.615639
O O8 0.000000 0.000000 0.500000
O O9 0.250000 0.250000 0.289030
O O10 0.501515 0.169566 0.248176
O O11 0.501879 0.250000 0.370654
O O12 0.750000 0.655106 0.155448
O O13 0.996624 0.750000 0.146136
O O14 0.985415 0.639382 0.246032
O O15 0.250000 0.414493 0.216804
O O16 0.009137 0.488261 0.272932
O O17 0.250000 0.750000 0.543849
O O18 0.750000 0.417913 0.699593
#
# Coordination Sequence:
#
# PCOD9447269 Si02
#       7
#     8   8   4   8   8   4   8
#     4  10  20  37  58  82 114 147 180 219 269 329
#     4  10  21  36  54  78 110 147 187 231 284 338
#     4  10  18  34  58  78 101 138 187 228 261 316
#     4  10  21  36  55  82 110 140 181 228 276 326
#     4   8  16  31  53  80 103 133 179 222 260 311
#     4  10  22  36  50  78 115 146 179 230 287 330
#     4   9  18  33  54  76 103 142 185 224 271 333
#
# _framework density 18.692907999999999
#
# number of rings (size 3 to 8) (size 9 to 14) (size 15 to 20)
#    0.000    2.500    0.000    3.000    1.167    4.000 
#    1.500    5.833    0.000    0.000    0.000    0.000 
#    0.000    0.000    0.000    0.000    0.000    0.000 
#
# Total GULP energy -267769.596888 kJ/mol
# GULP energy per Si atom -5578.533268 kJ/mol
# Density = 1.865036 g / cm^3
# Si number density = 18.692908 Si / 1000 Ang^3
#
#
#
# Elastic Constant Matrix: (Units=GPa)
#
#
# Indices 1 2 3 4 5 6 
#
# 1 8.3115 9.7118 15.7223 0.0000 0.0000 0.0000
# 2 9.7118 132.0555 86.9426 0.0000 0.0000 0.0000
# 3 15.7223 86.9426 184.3774 0.0000 0.0000 0.0000
# 4 0.0000 0.0000 0.0000 11.3487 0.0000 0.0000
# 5 0.0000 0.0000 0.0000 0.0000 30.2856 0.0000
# 6 0.0000 0.0000 0.0000 0.0000 0.0000 21.9394
#
#
#
# Elastic Compliance Matrix: (Units=1/GPa)
#
#
# Indices 1 2 3 4 5 6 
#
# 1 0.144658 -0.003651 -0.010614 0.000000 0.000000 0.000000
# 2 -0.003651 0.011074 -0.004911 0.000000 0.000000 0.000000
# 3 -0.010614 -0.004911 0.008644 0.000000 0.000000 0.000000
# 4 0.000000 0.000000 0.000000 0.088116 0.000000 0.000000
# 5 0.000000 0.000000 0.000000 0.000000 0.033019 0.000000
# 6 0.000000 0.000000 0.000000 0.000000 0.000000 0.045580
#
#
# Mechanical properties :
#
#
# Convention : Reuss Voigt Hill
#
# Bulk Modulus (GPa) = 7.93486 61.05531 34.49509
# Shear Modulus (GPa) = 12.15212 26.87259 19.51236
#
# Velocity S-wave (km/s) = 2.55246 3.79566 3.23435
# Velocity P-wave (km/s) = 3.59733 7.20712 5.69576
#
# Compressibility (1/GPa) = 0.12602620
#
# Stress axis : x y z
#
# Youngs Moduli (GPa) = 6.91284 90.30047 115.68254
#
# Poissons Ratio (x) = 0.32966 1.22784
# Poissons Ratio (y) = 0.02524 0.56808
# Poissons Ratio (z) = 0.07337 0.44344
#
# Static dielectric constant tensor:
#      x y z
#    x 1.657000 0.000000 0.000000 
#    y 0.000000 1.644130 0.000000 
#    z 0.000000 0.000000 1.630280 
# 
# From -- ./inp_files/25607.got.cif
#   From: 2010.05.17/outbox.cif.g08.bks.cpg/sg59_13_cif.got.tgz:25607.got - 2010.06.03 14:40:33.
