data_PCOD9447853
_publ_section_title
;
Structure prediction by ZEFSAII (Michael W. Deem and Ramdas Pophale) SiO2 
 PCOD9447853
Probable space group: P M M N
;
_chemical_formula_sum "Si O2"
_cell_formula_units_Z 48
_cell_length_a 14.759403
_cell_length_b 18.522714
_cell_length_c 7.244293
_cell_angle_alpha 90.000000
_cell_angle_beta 90.000000
_cell_angle_gamma 90.000000
_cell_volume 1980.475251
_symmetry_space_group_name_H-M "P M M N"
_symmetry_group_IT_number 59
_space_group.IT_coordinate_system_code '2'
_symmetry_cell_setting 'orthorhombic'
loop_
_space_group_symop_operation_xyz
x,y,z
1/2-x,1/2-y,z
1/2+x,-y,-z
-x,1/2+y,-z
-x,-y,-z
1/2+x,1/2+y,-z
1/2-x,y,z
x,1/2-y,z
loop_
_atom_site_type_symbol
_atom_site_label
_atom_site_fract_x
_atom_site_fract_y
_atom_site_fract_z
Si Si1 0.898911 0.017538 0.065745
Si Si2 0.850125 0.873640 0.573128
Si Si3 0.152818 0.140351 0.008109
Si Si4 0.857226 0.466543 0.497886
Si Si5 0.463811 0.671777 0.509101
Si Si6 0.947341 0.170372 0.040018
O O1 0.845137 0.946878 0.005006
O O2 0.885464 0.020232 0.285761
O O3 0.885998 0.100123 0.997439
O O4 0.000000 0.000000 0.000000
O O5 0.750000 0.872630 0.489001
O O6 0.844673 0.840268 0.775287
O O7 0.930210 0.836246 0.464603
O O8 0.877826 0.957768 0.595809
O O9 0.250000 0.166189 0.928408
O O10 0.049702 0.162627 0.957062
O O11 0.750000 0.453565 0.507701
O O12 0.911085 0.397071 0.565928
O O13 0.429200 0.750000 0.451646
O O14 0.457100 0.668260 0.734462
O O15 0.912074 0.250000 0.993084
#
# Coordination Sequence:
#
# PCOD9447853 Si02
#       6
#     8   8   8   8   8   8
#     4   9  17  29  46  67  90 120 155 194 235 278
#     4   9  18  31  49  72  95 123 160 201 243 288
#     4   9  16  27  45  67  88 113 148 189 232 276
#     4  10  19  31  49  71  96 128 164 201 241 287
#     4   9  17  29  46  69  96 123 154 196 241 283
#     4   8  15  27  42  63  89 114 144 184 228 271
#
# _framework density 24.236609000000001
#
# number of rings (size 3 to 8) (size 9 to 14) (size 15 to 20)
#    0.000    3.000    0.000    2.000    0.000    1.000 
#    0.000    3.333    0.000   10.500    0.000    7.000 
#    0.000    0.000    0.000    0.000    0.000    0.000 
#
# Total GULP energy -267799.029079 kJ/mol
# GULP energy per Si atom -5579.146439 kJ/mol
# Density = 2.418145 g / cm^3
# Si number density = 24.236609 Si / 1000 Ang^3
#
#
#
# Elastic Constant Matrix: (Units=GPa)
#
#
# Indices 1 2 3 4 5 6 
#
# 1 54.5732 16.4788 -18.3809 0.0000 0.0000 0.0000
# 2 16.4788 152.7716 3.2749 0.0000 0.0000 0.0000
# 3 -18.3809 3.2749 72.1091 0.0000 0.0000 0.0000
# 4 0.0000 0.0000 0.0000 5.2566 0.0000 0.0000
# 5 0.0000 0.0000 0.0000 0.0000 2.6564 0.0000
# 6 0.0000 0.0000 0.0000 0.0000 0.0000 5.2853
#
#
#
# Elastic Compliance Matrix: (Units=1/GPa)
#
#
# Indices 1 2 3 4 5 6 
#
# 1 0.020866 -0.002367 0.005426 0.000000 0.000000 0.000000
# 2 -0.002367 0.006821 -0.000913 0.000000 0.000000 0.000000
# 3 0.005426 -0.000913 0.015293 0.000000 0.000000 0.000000
# 4 0.000000 0.000000 0.000000 0.190238 0.000000 0.000000
# 5 0.000000 0.000000 0.000000 0.000000 0.376445 0.000000
# 6 0.000000 0.000000 0.000000 0.000000 0.000000 0.189205
#
#
# Mechanical properties :
#
#
# Convention : Reuss Voigt Hill
#
# Bulk Modulus (GPa) = 21.15414 31.35551 26.25483
# Shear Modulus (GPa) = 6.17030 21.17840 13.67435
#
# Velocity S-wave (km/s) = 1.59731 2.95925 2.37787
# Velocity P-wave (km/s) = 3.48554 4.96403 4.28897
#
# Compressibility (1/GPa) = 0.04727206
#
# Stress axis : x y z
#
# Youngs Moduli (GPa) = 47.92378 146.61420 65.39124
#
# Poissons Ratio (x) = 0.34705 -0.35484
# Poissons Ratio (y) = 0.11344 0.05971
# Poissons Ratio (z) = -0.26006 0.13388
#
# Static dielectric constant tensor:
#      x y z
#    x 1.897520 0.000000 0.000000 
#    y 0.000000 1.912740 0.000000 
#    z 0.000000 0.000000 1.885150 
# 
# From -- ./inp_files/8996.got.cif
#   From: 2010.05.17/outbox.cif.g08.bks.cpg/sg59_5_cif.got.tgz:8996.got - 2010.06.03 14:40:33.
