data_PCOD9447883
_publ_section_title
;
Structure prediction by ZEFSAII (Michael W. Deem and Ramdas Pophale) SiO2 
 PCOD9447883
Probable space group: P M M N
;
_chemical_formula_sum "Si O2"
_cell_formula_units_Z 40
_cell_length_a 8.480220
_cell_length_b 26.679115
_cell_length_c 10.113822
_cell_angle_alpha 90.000000
_cell_angle_beta 90.000000
_cell_angle_gamma 90.000000
_cell_volume 2288.199278
_symmetry_space_group_name_H-M "P M M N"
_symmetry_group_IT_number 59
_space_group.IT_coordinate_system_code '2'
_symmetry_cell_setting 'orthorhombic'
loop_
_space_group_symop_operation_xyz
x,y,z
1/2-x,1/2-y,z
1/2+x,-y,-z
-x,1/2+y,-z
-x,-y,-z
1/2+x,1/2+y,-z
1/2-x,y,z
x,1/2-y,z
loop_
_atom_site_type_symbol
_atom_site_label
_atom_site_fract_x
_atom_site_fract_y
_atom_site_fract_z
Si Si1 0.440575 0.941622 0.356455
Si Si2 0.068125 0.250000 0.162178
Si Si3 0.941626 0.858936 0.852525
Si Si4 0.438493 0.857440 0.150775
Si Si5 0.069028 0.250000 0.840741
Si Si6 0.059596 0.055749 0.349511
O O1 0.250000 0.940921 0.358464
O O2 0.494575 0.900355 0.251285
O O3 0.500819 0.931109 0.503978
O O4 0.491070 0.998453 0.321041
O O5 0.250000 0.250000 0.208001
O O6 0.999043 0.304256 0.197699
O O7 0.068251 0.250000 0.001668
O O8 0.750000 0.857037 0.852090
O O9 0.994172 0.904082 0.758793
O O10 0.994114 0.865585 0.003750
O O11 0.250000 0.859399 0.142724
O O12 0.488176 0.801979 0.198403
O O13 0.250000 0.250000 0.797384
O O14 0.250000 0.056364 0.350189
#
# Coordination Sequence:
#
# PCOD9447883 Si02
#       6
#     8   4   8   8   4   8
#     4   9  19  34  49  68  97 130 164 203 245 289
#     4   7  12  25  44  65  90 118 146 186 236 275
#     4   9  17  30  49  72  97 125 162 204 240 282
#     4  10  19  31  49  73 100 128 158 196 244 292
#     4   9  17  31  50  71  96 126 160 196 236 285
#     4   9  18  33  51  69  93 130 170 204 242 286
#
# _framework density 17.480995
#
# number of rings (size 3 to 8) (size 9 to 14) (size 15 to 20)
#    0.000    3.000    0.000    2.100    0.000    3.200 
#    0.000    1.000    0.000    1.200    0.000    0.000 
#    0.000    0.000    0.000    0.000    0.000    0.000 
#
# Total GULP energy -222782.819259 kJ/mol
# GULP energy per Si atom -5569.570481 kJ/mol
# Density = 1.744121 g / cm^3
# Si number density = 17.480995 Si / 1000 Ang^3
#
#
#
# Elastic Constant Matrix: (Units=GPa)
#
#
# Indices 1 2 3 4 5 6 
#
# 1 12.6048 22.7511 12.5170 0.0000 0.0000 0.0000
# 2 22.7511 181.6889 108.7202 0.0000 0.0000 0.0000
# 3 12.5170 108.7202 88.8838 0.0000 0.0000 0.0000
# 4 0.0000 0.0000 0.0000 -11.8022 0.0000 0.0000
# 5 0.0000 0.0000 0.0000 0.0000 24.1021 0.0000
# 6 0.0000 0.0000 0.0000 0.0000 0.0000 12.2245
#
#
#
# Elastic Compliance Matrix: (Units=1/GPa)
#
#
# Indices 1 2 3 4 5 6 
#
# 1 0.103035 -0.015741 0.004744 0.000000 0.000000 0.000000
# 2 -0.015741 0.022936 -0.025838 0.000000 0.000000 0.000000
# 3 0.004744 -0.025838 0.042187 0.000000 0.000000 0.000000
# 4 0.000000 0.000000 0.000000 -0.084730 0.000000 0.000000
# 5 0.000000 0.000000 0.000000 0.000000 0.041490 0.000000
# 6 0.000000 0.000000 0.000000 0.000000 0.000000 0.081803
#
#
# Mechanical properties :
#
#
# Convention : Reuss Voigt Hill
#
# Bulk Modulus (GPa) = 10.58332 63.46156 37.02244
# Shear Modulus (GPa) = 16.03134 14.18416 15.10775
#
# Velocity S-wave (km/s) = 3.03161 2.85161 2.94298
# Velocity P-wave (km/s) = 4.28036 6.87199 5.72476
#
# Compressibility (1/GPa) = 0.09448835
#
# Stress axis : x y z
#
# Youngs Moduli (GPa) = 9.70541 43.59894 23.70371
#
# Poissons Ratio (x) = 0.68628 -0.11244
# Poissons Ratio (y) = 0.15277 0.61247
# Poissons Ratio (z) = -0.04604 1.12653
#
# Static dielectric constant tensor:
#      x y z
#    x 1.595930 0.000000 0.000000 
#    y 0.000000 1.634250 0.000000 
#    z 0.000000 0.000000 1.553260 
# 
# From -- ./inp_files/5922.got.cif
#   From: 2010.05.17/outbox.cif.g08.bks.cpg/sg59_3_cif.got.tgz:5922.got - 2010.06.03 14:40:33.
