data_PCOD9447903
_publ_section_title
;
Structure prediction by ZEFSAII (Michael W. Deem and Ramdas Pophale) SiO2 
 PCOD9447903
Probable space group: P M M N
;
_chemical_formula_sum "Si O2"
_cell_formula_units_Z 56
_cell_length_a 20.497178
_cell_length_b 7.508338
_cell_length_c 18.051998
_cell_angle_alpha 90.000000
_cell_angle_beta 90.000000
_cell_angle_gamma 90.000000
_cell_volume 2778.197807
_symmetry_space_group_name_H-M "P M M N"
_symmetry_group_IT_number 59
_space_group.IT_coordinate_system_code '2'
_symmetry_cell_setting 'orthorhombic'
loop_
_space_group_symop_operation_xyz
x,y,z
1/2-x,1/2-y,z
1/2+x,-y,-z
-x,1/2+y,-z
-x,-y,-z
1/2+x,1/2+y,-z
1/2-x,y,z
x,1/2-y,z
loop_
_atom_site_type_symbol
_atom_site_label
_atom_site_fract_x
_atom_site_fract_y
_atom_site_fract_z
Si Si1 0.823476 0.967525 0.316920
Si Si2 0.322917 0.463576 0.118946
Si Si3 0.175472 0.032757 0.950721
Si Si4 0.547021 0.037254 0.606559
Si Si5 0.058367 0.537290 0.227421
Si Si6 0.093306 0.036594 0.548055
Si Si7 0.583698 0.967748 0.181673
O O1 0.750000 0.027472 0.302359
O O2 0.822586 0.750000 0.316016
O O3 0.850236 0.025449 0.396962
O O4 0.874168 0.020926 0.253388
O O5 0.250000 0.527774 0.139261
O O6 0.319612 0.250000 0.114757
O O7 0.378980 0.505343 0.177025
O O8 0.337687 0.525713 0.035056
O O9 0.250000 0.980981 0.931072
O O10 0.174687 0.250000 0.949866
O O11 0.122183 0.972559 0.891468
O O12 0.540736 0.250000 0.612189
O O13 0.564511 0.969290 0.688109
O O14 0.476218 0.968022 0.579630
O O15 0.596146 0.003782 0.538868
O O16 0.051211 0.750000 0.232560
O O17 0.990739 0.471177 0.191191
O O18 0.091676 0.250000 0.554061
O O19 0.583227 0.750000 0.180176
#
# Coordination Sequence:
#
# PCOD9447903 Si02
#       7
#     8   8   8   8   8   8   8
#     4   9  15  24  42  69  99 126 153 191 236 278
#     4   9  19  35  51  68  93 124 159 200 242 283
#     4   8  14  26  45  68  95 128 161 191 230 282
#     4   9  17  30  46  65  92 123 154 191 233 276
#     4  10  19  31  49  73  99 124 156 198 238 281
#     4   9  16  28  46  68  92 120 157 194 228 271
#     4   9  15  25  43  70 100 126 154 190 233 281
#
# _framework density 20.156953000000001
#
# number of rings (size 3 to 8) (size 9 to 14) (size 15 to 20)
#    0.000    3.000    1.429    1.286    0.000    3.143 
#    0.000    0.714    0.000    3.000    0.000    0.000 
#    0.000    3.429    0.000    0.000    0.000    0.000 
#
# Total GULP energy -312309.426770 kJ/mol
# GULP energy per Si atom -5576.954049 kJ/mol
# Density = 2.011107 g / cm^3
# Si number density = 20.156953 Si / 1000 Ang^3
#
#
#
# Elastic Constant Matrix: (Units=GPa)
#
#
# Indices 1 2 3 4 5 6 
#
# 1 150.6214 2.1870 116.1615 0.0000 0.0000 0.0000
# 2 2.1870 50.4526 3.2599 0.0000 0.0000 0.0000
# 3 116.1615 3.2599 179.6085 0.0000 0.0000 0.0000
# 4 0.0000 0.0000 0.0000 6.8888 0.0000 0.0000
# 5 0.0000 0.0000 0.0000 0.0000 32.5698 0.0000
# 6 0.0000 0.0000 0.0000 0.0000 0.0000 8.2400
#
#
#
# Elastic Compliance Matrix: (Units=1/GPa)
#
#
# Indices 1 2 3 4 5 6 
#
# 1 0.013246 -0.000021 -0.008567 0.000000 0.000000 0.000000
# 2 -0.000021 0.019844 -0.000347 0.000000 0.000000 0.000000
# 3 -0.008567 -0.000347 0.011114 0.000000 0.000000 0.000000
# 4 0.000000 0.000000 0.000000 0.145162 0.000000 0.000000
# 5 0.000000 0.000000 0.000000 0.000000 0.030703 0.000000
# 6 0.000000 0.000000 0.000000 0.000000 0.000000 0.121360
#
#
# Mechanical properties :
#
#
# Convention : Reuss Voigt Hill
#
# Bulk Modulus (GPa) = 37.97035 69.32215 53.64625
# Shear Modulus (GPa) = 13.58413 26.81133 20.19773
#
# Velocity S-wave (km/s) = 2.59881 3.65105 3.16891
# Velocity P-wave (km/s) = 5.28047 7.22768 6.32940
#
# Compressibility (1/GPa) = 0.02633634
#
# Stress axis : x y z
#
# Youngs Moduli (GPa) = 75.49394 50.39338 89.97386
#
# Poissons Ratio (x) = 0.00104 0.77076
# Poissons Ratio (y) = 0.00156 0.03120
# Poissons Ratio (z) = 0.64672 0.01748
#
# Static dielectric constant tensor:
#      x y z
#    x 1.692250 0.000000 0.000000 
#    y 0.000000 1.788860 0.000000 
#    z 0.000000 0.000000 1.715210 
# 
# From -- ./inp_files/28043.got.cif
#   From: 2010.05.17/outbox.cif.g08.bks.cpg/sg59_15_cif.got.tgz:28043.got - 2010.06.03 14:40:33.
