data_PCOD9447752
_publ_section_title
;
Structure prediction by ZEFSAII (Michael W. Deem and Ramdas Pophale) SiO2 
 PCOD9447752
Probable space group: P M M N
;
_chemical_formula_sum "Si O2"
_cell_formula_units_Z 64
_cell_length_a 7.844041
_cell_length_b 28.521181
_cell_length_c 15.125316
_cell_angle_alpha 90.000000
_cell_angle_beta 90.000000
_cell_angle_gamma 90.000000
_cell_volume 3383.855557
_symmetry_space_group_name_H-M "P M M N"
_symmetry_group_IT_number 59
_space_group.IT_coordinate_system_code '2'
_symmetry_cell_setting 'orthorhombic'
loop_
_space_group_symop_operation_xyz
x,y,z
1/2-x,1/2-y,z
1/2+x,-y,-z
-x,1/2+y,-z
-x,-y,-z
1/2+x,1/2+y,-z
1/2-x,y,z
x,1/2-y,z
loop_
_atom_site_type_symbol
_atom_site_label
_atom_site_fract_x
_atom_site_fract_y
_atom_site_fract_z
Si Si1 0.950381 0.577877 0.844949
Si Si2 0.051774 0.461592 0.648429
Si Si3 0.955904 0.303682 0.649366
Si Si4 0.959356 0.885682 0.026033
Si Si5 0.956505 0.528089 0.149236
Si Si6 0.050820 0.434699 0.350226
Si Si7 0.446325 0.882374 0.481709
Si Si8 0.454909 0.303295 0.847767
O O1 0.750000 0.589015 0.839162
O O2 0.020484 0.581396 0.745208
O O3 0.971298 0.523226 0.870962
O O4 0.020587 0.608617 0.925445
O O5 0.250000 0.448026 0.644614
O O6 0.992990 0.458728 0.750356
O O7 0.035185 0.516223 0.623097
O O8 0.955524 0.427074 0.583364
O O9 0.750000 0.303696 0.645594
O O10 0.015662 0.250000 0.638633
O O11 0.019306 0.338891 0.574111
O O12 0.004776 0.319572 0.748104
O O13 0.750000 0.885258 0.025326
O O14 0.009305 0.931767 0.081525
O O15 0.017153 0.839873 0.079199
O O16 0.750000 0.524570 0.148509
O O17 0.250000 0.446014 0.337996
O O18 0.033009 0.397013 0.427162
O O19 0.250000 0.872129 0.502458
O O20 0.250000 0.301564 0.855009
O O21 0.520697 0.250000 0.857540
#
# Coordination Sequence:
#
# PCOD9447752 Si02
#       8
#     8   8   8   8   8   8   8   8
#     4   9  18  31  46  63  89 124 156 188 223 262
#     4  10  19  31  47  69  98 127 154 188 230 275
#     4   9  19  35  52  71  96 122 148 184 232 282
#     4   9  16  28  46  68  93 120 151 185 223 265
#     4   9  17  28  44  66  93 122 150 184 223 264
#     4  10  20  33  47  65  92 126 162 197 232 269
#     4  11  21  32  49  70  91 120 157 193 232 279
#     4   9  17  30  50  74  97 121 149 181 221 273
#
# _framework density 18.913336999999999
#
# number of rings (size 3 to 8) (size 9 to 14) (size 15 to 20)
#    0.000    2.500    0.000    2.625    0.000    3.000 
#    0.000    1.250    0.000    0.750    0.000    1.750 
#    0.000    0.000    0.000    0.000    0.000    0.000 
#
# Total GULP energy -357128.879663 kJ/mol
# GULP energy per Si atom -5580.138745 kJ/mol
# Density = 1.887029 g / cm^3
# Si number density = 18.913337 Si / 1000 Ang^3
#
#
#
# Elastic Constant Matrix: (Units=GPa)
#
#
# Indices 1 2 3 4 5 6 
#
# 1 21.8448 -5.7254 -1.9695 0.0000 0.0000 0.0000
# 2 -5.7254 74.7703 71.2009 0.0000 0.0000 0.0000
# 3 -1.9695 71.2009 109.5564 0.0000 0.0000 0.0000
# 4 0.0000 0.0000 0.0000 31.8597 0.0000 0.0000
# 5 0.0000 0.0000 0.0000 0.0000 8.2835 0.0000
# 6 0.0000 0.0000 0.0000 0.0000 0.0000 13.0982
#
#
#
# Elastic Compliance Matrix: (Units=1/GPa)
#
#
# Indices 1 2 3 4 5 6 
#
# 1 0.047358 0.007388 -0.003950 0.000000 0.000000 0.000000
# 2 0.007388 0.036244 -0.023422 0.000000 0.000000 0.000000
# 3 -0.003950 -0.023422 0.024279 0.000000 0.000000 0.000000
# 4 0.000000 0.000000 0.000000 0.031388 0.000000 0.000000
# 5 0.000000 0.000000 0.000000 0.000000 0.120722 0.000000
# 6 0.000000 0.000000 0.000000 0.000000 0.000000 0.076346
#
#
# Mechanical properties :
#
#
# Convention : Reuss Voigt Hill
#
# Bulk Modulus (GPa) = 14.72504 37.02041 25.87273
# Shear Modulus (GPa) = 12.53310 20.15931 16.34621
#
# Velocity S-wave (km/s) = 2.57701 3.26832 2.94303
# Velocity P-wave (km/s) = 4.08131 5.81883 5.02573
#
# Compressibility (1/GPa) = 0.06791151
#
# Stress axis : x y z
#
# Youngs Moduli (GPa) = 21.11593 27.59059 41.18789
#
# Poissons Ratio (x) = -0.20383 0.16269
# Poissons Ratio (y) = -0.15600 0.96472
# Poissons Ratio (z) = 0.08341 0.64624
#
# Static dielectric constant tensor:
#      x y z
#    x 1.678100 0.000000 0.000000 
#    y 0.000000 1.644320 0.000000 
#    z 0.000000 0.000000 1.672910 
# 
# From -- ./inp_files/21816.got.cif
#   From: 2010.05.17/outbox.cif.g08.bks.cpg/sg59_11_cif.got.tgz:21816.got - 2010.06.03 14:40:33.
