data_PCOD9447173
_publ_section_title
;
Structure prediction by ZEFSAII (Michael W. Deem and Ramdas Pophale) SiO2 
 PCOD9447173
Probable space group: P M M N
;
_chemical_formula_sum "Si O2"
_cell_formula_units_Z 48
_cell_length_a 17.238881
_cell_length_b 14.167328
_cell_length_c 9.770204
_cell_angle_alpha 90.000000
_cell_angle_beta 90.000000
_cell_angle_gamma 90.000000
_cell_volume 2386.165995
_symmetry_space_group_name_H-M "P M M N"
_symmetry_group_IT_number 59
_space_group.IT_coordinate_system_code '2'
_symmetry_cell_setting 'orthorhombic'
loop_
_space_group_symop_operation_xyz
x,y,z
1/2-x,1/2-y,z
1/2+x,-y,-z
-x,1/2+y,-z
-x,-y,-z
1/2+x,1/2+y,-z
1/2-x,y,z
x,1/2-y,z
loop_
_atom_site_type_symbol
_atom_site_label
_atom_site_fract_x
_atom_site_fract_y
_atom_site_fract_z
Si Si1 0.867801 0.644352 0.047620
Si Si2 0.054995 0.859312 0.022949
Si Si3 0.438578 0.963083 0.302760
Si Si4 0.836564 0.360148 0.482819
Si Si5 0.109262 0.519805 0.764843
Si Si6 0.837451 0.641392 0.730068
O O1 0.848323 0.750000 0.094606
O O2 0.847487 0.564579 0.156493
O O3 0.961302 0.638596 0.028577
O O4 0.835698 0.631699 0.895213
O O5 0.079447 0.750000 0.031757
O O6 0.081616 0.920370 0.153151
O O7 0.081928 0.908365 0.883906
O O8 0.403042 0.892587 0.413183
O O9 0.530904 0.977633 0.303857
O O10 0.396918 0.063693 0.322484
O O11 0.750000 0.372953 0.543478
O O12 0.845631 0.250000 0.448325
O O13 0.844171 0.423924 0.348527
O O14 0.750000 0.625902 0.677908
O O15 0.860467 0.750000 0.701352
#
# Coordination Sequence:
#
# PCOD9447173 Si02
#       6
#     8   8   8   8   8   8
#     4   9  17  32  54  85 119 143 174 230 293 345
#     4  10  18  32  59  91 118 141 185 243 290 343
#     4  11  20  39  60  87 112 153 197 242 290 344
#     4  11  26  44  58  79 119 163 199 241 295 348
#     4  11  20  37  61  90 112 149 197 241 293 338
#     4  10  19  31  52  83 116 149 184 229 289 347
#
# _framework density 20.115952
#
# number of rings (size 3 to 8) (size 9 to 14) (size 15 to 20)
#    0.000    1.667    3.333    3.000    0.000    2.000 
#    0.000    0.833    0.000    4.000    0.000    0.000 
#    0.000    0.000    0.000    0.000    0.000    0.000 
#
# Total GULP energy -268160.231972 kJ/mol
# GULP energy per Si atom -5586.671499 kJ/mol
# Density = 2.007017 g / cm^3
# Si number density = 20.115952 Si / 1000 Ang^3
#
#
#
# Elastic Constant Matrix: (Units=GPa)
#
#
# Indices 1 2 3 4 5 6 
#
# 1 41.8990 21.2524 2.8652 0.0000 0.0000 0.0000
# 2 21.2524 95.3152 -0.9126 0.0000 0.0000 0.0000
# 3 2.8652 -0.9126 35.5425 0.0000 0.0000 0.0000
# 4 0.0000 0.0000 0.0000 32.6357 0.0000 0.0000
# 5 0.0000 0.0000 0.0000 0.0000 -30.6605 0.0000
# 6 0.0000 0.0000 0.0000 0.0000 0.0000 18.2664
#
#
#
# Elastic Compliance Matrix: (Units=1/GPa)
#
#
# Indices 1 2 3 4 5 6 
#
# 1 0.027104 -0.006066 -0.002341 0.000000 0.000000 0.000000
# 2 -0.006066 0.011852 0.000793 0.000000 0.000000 0.000000
# 3 -0.002341 0.000793 0.028344 0.000000 0.000000 0.000000
# 4 0.000000 0.000000 0.000000 0.030641 0.000000 0.000000
# 5 0.000000 0.000000 0.000000 0.000000 -0.032615 0.000000
# 6 0.000000 0.000000 0.000000 0.000000 0.000000 0.054745
#
#
# Mechanical properties :
#
#
# Convention : Reuss Voigt Hill
#
# Bulk Modulus (GPa) = 19.20364 24.35187 21.77776
# Shear Modulus (GPa) = 32.75356 14.01842 23.38599
#
# Velocity S-wave (km/s) = 4.03952 2.64271 3.41333
# Velocity P-wave (km/s) = 5.59680 4.63076 5.13654
#
# Compressibility (1/GPa) = 0.05207345
#
# Stress axis : x y z
#
# Youngs Moduli (GPa) = 36.89535 84.37704 35.28033
#
# Poissons Ratio (x) = 0.51181 0.08258
# Poissons Ratio (y) = 0.22380 -0.02799
# Poissons Ratio (z) = 0.08636 -0.06693
#
# Static dielectric constant tensor:
#      x y z
#    x 1.715970 0.000000 0.000000 
#    y 0.000000 1.712150 0.000000 
#    z 0.000000 0.000000 1.691040 
# 
# From -- ./inp_files/8986.got.cif
#   From: 2010.05.17/outbox.cif.g08.bks.cpg/sg59_5_cif.got.tgz:8986.got - 2010.06.03 14:40:33.
