data_PCOD9447747
_publ_section_title
;
Structure prediction by ZEFSAII (Michael W. Deem and Ramdas Pophale) SiO2 
 PCOD9447747
Probable space group: P M M N
;
_chemical_formula_sum "Si O2"
_cell_formula_units_Z 56
_cell_length_a 20.715256
_cell_length_b 7.374618
_cell_length_c 16.093310
_cell_angle_alpha 90.000000
_cell_angle_beta 90.000000
_cell_angle_gamma 90.000000
_cell_volume 2458.528294
_symmetry_space_group_name_H-M "P M M N"
_symmetry_group_IT_number 59
_space_group.IT_coordinate_system_code '2'
_symmetry_cell_setting 'orthorhombic'
loop_
_space_group_symop_operation_xyz
x,y,z
1/2-x,1/2-y,z
1/2+x,-y,-z
-x,1/2+y,-z
-x,-y,-z
1/2+x,1/2+y,-z
1/2-x,y,z
x,1/2-y,z
loop_
_atom_site_type_symbol
_atom_site_label
_atom_site_fract_x
_atom_site_fract_y
_atom_site_fract_z
Si Si1 0.677176 0.471113 0.015173
Si Si2 0.078579 0.457815 0.647638
Si Si3 0.823782 0.468997 0.206348
Si Si4 0.179276 0.963269 0.320265
Si Si5 0.678470 0.530879 0.484119
Si Si6 0.550232 0.466013 0.926856
Si Si7 0.957449 0.472836 0.743258
O O1 0.750000 0.528427 0.993825
O O2 0.677283 0.250000 0.014197
O O3 0.663309 0.523617 0.110912
O O4 0.620459 0.534766 0.955152
O O5 0.065240 0.250000 0.623314
O O6 0.125269 0.458889 0.727979
O O7 0.120845 0.539404 0.573330
O O8 0.010878 0.537512 0.677836
O O9 0.750000 0.523020 0.226563
O O10 0.826517 0.250000 0.209439
O O11 0.250000 0.039651 0.298396
O O12 0.181423 0.750000 0.299903
O O13 0.114750 0.034274 0.278046
O O14 0.171537 0.981453 0.419577
O O15 0.750000 0.469340 0.456115
O O16 0.678531 0.750000 0.478590
O O17 0.556779 0.250000 0.918639
O O18 0.527092 0.531543 0.837124
O O19 0.500000 0.500000 0.000000
O O20 0.959077 0.250000 0.740248
#
# Coordination Sequence:
#
# PCOD9447747 Si02
#       7
#     8   8   8   8   8   8   8
#     4   8  15  28  46  68  92 121 159 199 237 279
#     4  10  19  31  47  68  98 131 160 191 231 285
#     4   9  17  29  45  67  96 126 158 199 239 275
#     4   9  18  34  54  73  95 124 159 200 244 286
#     4   9  18  32  49  69  93 123 158 193 233 284
#     4  10  19  32  51  72  97 128 160 197 239 283
#     4   9  19  33  49  73 100 125 157 199 242 280
#
# _framework density 22.777854000000001
#
# number of rings (size 3 to 8) (size 9 to 14) (size 15 to 20)
#    0.000    2.857    0.000    2.143    0.000    2.571 
#    0.000    5.714    0.000    1.286    0.000    0.000 
#    0.000    0.000    0.000    0.000    0.000    0.000 
#
# Total GULP energy -312755.478584 kJ/mol
# GULP energy per Si atom -5584.919260 kJ/mol
# Density = 2.272601 g / cm^3
# Si number density = 22.777854 Si / 1000 Ang^3
#
#
#
# Elastic Constant Matrix: (Units=GPa)
#
#
# Indices 1 2 3 4 5 6 
#
# 1 120.2802 -1.6278 40.0781 0.0000 0.0000 0.0000
# 2 -1.6278 81.2733 -7.3154 0.0000 0.0000 0.0000
# 3 40.0781 -7.3154 45.5211 0.0000 0.0000 0.0000
# 4 0.0000 0.0000 0.0000 8.2167 0.0000 0.0000
# 5 0.0000 0.0000 0.0000 0.0000 38.6596 0.0000
# 6 0.0000 0.0000 0.0000 0.0000 0.0000 -2.0914
#
#
#
# Elastic Compliance Matrix: (Units=1/GPa)
#
#
# Indices 1 2 3 4 5 6 
#
# 1 0.011806 -0.000709 -0.010508 0.000000 0.000000 0.000000
# 2 -0.000709 0.012527 0.002638 0.000000 0.000000 0.000000
# 3 -0.010508 0.002638 0.031643 0.000000 0.000000 0.000000
# 4 0.000000 0.000000 0.000000 0.121703 0.000000 0.000000
# 5 0.000000 0.000000 0.000000 0.000000 0.025867 0.000000
# 6 0.000000 0.000000 0.000000 0.000000 0.000000 -0.478145
#
#
# Mechanical properties :
#
#
# Convention : Reuss Voigt Hill
#
# Bulk Modulus (GPa) = 25.76188 34.37159 30.06674
# Shear Modulus (GPa) = -20.44989 23.35296 1.45153
#
# Velocity S-wave (km/s) = -2.99958 3.20542 0.79915
# Velocity P-wave (km/s) = 0.81364 5.36864 3.75235
#
# Compressibility (1/GPa) = 0.03881704
#
# Stress axis : x y z
#
# Youngs Moduli (GPa) = 84.70503 79.82512 31.60222
#
# Poissons Ratio (x) = 0.05663 0.33208
# Poissons Ratio (y) = 0.06009 -0.08336
# Poissons Ratio (z) = 0.89009 -0.21056
#
# Static dielectric constant tensor:
#      x y z
#    x 1.840760 0.000000 0.000000 
#    y 0.000000 1.869110 0.000000 
#    z 0.000000 0.000000 1.814860 
# 
# From -- ./inp_files/24192.got.cif
#   From: 2010.05.17/outbox.cif.g08.bks.cpg/sg59_13_cif.got.tgz:24192.got - 2010.06.03 14:40:33.
