data_PCOD9447370
_publ_section_title
;
Structure prediction by ZEFSAII (Michael W. Deem and Ramdas Pophale) SiO2 
 PCOD9447370
Probable space group: P M M N
;
_chemical_formula_sum "Si O2"
_cell_formula_units_Z 56
_cell_length_a 14.142495
_cell_length_b 8.714250
_cell_length_c 30.254891
_cell_angle_alpha 90.000000
_cell_angle_beta 90.000000
_cell_angle_gamma 90.000000
_cell_volume 3728.650194
_symmetry_space_group_name_H-M "P M M N"
_symmetry_group_IT_number 59
_space_group.IT_coordinate_system_code '2'
_symmetry_cell_setting 'orthorhombic'
loop_
_space_group_symop_operation_xyz
x,y,z
1/2-x,1/2-y,z
1/2+x,-y,-z
-x,1/2+y,-z
-x,-y,-z
1/2+x,1/2+y,-z
1/2-x,y,z
x,1/2-y,z
loop_
_atom_site_type_symbol
_atom_site_label
_atom_site_fract_x
_atom_site_fract_y
_atom_site_fract_z
Si Si1 0.135229 0.927344 0.754141
Si Si2 0.856588 0.935236 0.981791
Si Si3 0.859654 0.062623 0.342870
Si Si4 0.639922 0.932681 0.153028
Si Si5 0.643513 0.564724 0.518286
Si Si6 0.043621 0.935521 0.567341
Si Si7 0.455718 0.933662 0.932509
O O1 0.250000 0.928406 0.752255
O O2 0.105541 0.750000 0.759035
O O3 0.105744 0.987212 0.705769
O O4 0.108066 0.018734 0.797880
O O5 0.750000 0.983133 0.970447
O O6 0.858201 0.750000 0.984871
O O7 0.938093 0.980825 0.947081
O O8 0.887626 0.001513 0.029133
O O9 0.750000 0.016075 0.349302
O O10 0.859784 0.250000 0.341569
O O11 0.921896 0.013221 0.384480
O O12 0.750000 0.983387 0.147742
O O13 0.637946 0.750000 0.149058
O O14 0.577475 0.005249 0.114580
O O15 0.750000 0.515905 0.529283
O O16 0.641970 0.750000 0.515751
O O17 0.562498 0.518262 0.553208
O O18 0.611671 0.499044 0.470969
O O19 0.048419 0.750000 0.566432
O O20 0.450926 0.750000 0.932827
#
# Coordination Sequence:
#
# PCOD9447370 Si02
#       7
#     8   8   8   8   8   8   8
#     4   8  14  25  40  57  77 100 128 164 203 241
#     4   9  18  32  46  61  85 113 138 168 204 237
#     4   8  13  22  38  59  78  96 125 166 203 234
#     4  10  19  29  41  59  85 113 137 164 200 240
#     4   9  17  27  37  54  82 109 132 164 202 234
#     4   9  16  26  41  58  76 104 139 166 193 236
#     4  10  19  29  44  65  85 109 141 170 198 236
#
# _framework density 15.018839
#
# number of rings (size 3 to 8) (size 9 to 14) (size 15 to 20)
#    0.000    3.000    0.000    2.571    0.000    4.286 
#    0.000    0.714    0.000    2.571    0.000    1.000 
#    0.000    5.714    0.000    0.000    0.000    0.000 
#
# Total GULP energy -311837.168210 kJ/mol
# GULP energy per Si atom -5568.520861 kJ/mol
# Density = 1.498466 g / cm^3
# Si number density = 15.018839 Si / 1000 Ang^3
#
#
#
# Elastic Constant Matrix: (Units=GPa)
#
#
# Indices 1 2 3 4 5 6 
#
# 1 93.1469 16.9337 63.2052 0.0000 0.0000 0.0000
# 2 16.9337 6.6189 19.0775 0.0000 0.0000 0.0000
# 3 63.2052 19.0775 142.1510 0.0000 0.0000 0.0000
# 4 0.0000 0.0000 0.0000 21.3946 0.0000 0.0000
# 5 0.0000 0.0000 0.0000 0.0000 21.2870 0.0000
# 6 0.0000 0.0000 0.0000 0.0000 0.0000 14.0336
#
#
#
# Elastic Compliance Matrix: (Units=1/GPa)
#
#
# Indices 1 2 3 4 5 6 
#
# 1 0.021077 -0.043889 -0.003481 0.000000 0.000000 0.000000
# 2 -0.043889 0.337782 -0.025818 0.000000 0.000000 0.000000
# 3 -0.003481 -0.025818 0.012048 0.000000 0.000000 0.000000
# 4 0.000000 0.000000 0.000000 0.046741 0.000000 0.000000
# 5 0.000000 0.000000 0.000000 0.000000 0.046977 0.000000
# 6 0.000000 0.000000 0.000000 0.000000 0.000000 0.071258
#
#
# Mechanical properties :
#
#
# Convention : Reuss Voigt Hill
#
# Bulk Modulus (GPa) = 4.45374 48.92773 26.69073
# Shear Modulus (GPa) = 6.60414 20.85640 13.73027
#
# Velocity S-wave (km/s) = 2.09923 3.73055 3.02686
# Velocity P-wave (km/s) = 2.97449 7.15572 5.47959
#
# Compressibility (1/GPa) = 0.22453063
#
# Stress axis : x y z
#
# Youngs Moduli (GPa) = 47.44554 2.96049 83.00403
#
# Poissons Ratio (x) = 0.12993 0.28897
# Poissons Ratio (y) = 2.08232 2.14298
# Poissons Ratio (z) = 0.16518 0.07643
#
# Static dielectric constant tensor:
#      x y z
#    x 1.500070 0.000000 0.000000 
#    y 0.000000 1.510370 0.000000 
#    z 0.000000 0.000000 1.495860 
# 
# From -- ./inp_files/33303.got.cif
#   From: 2010.05.17/outbox.cif.g08.bks.cpg/sg59_17_cif.got.tgz:33303.got - 2010.06.03 14:40:33.
