data_PCOD9447038
_publ_section_title
;
Structure prediction by ZEFSAII (Michael W. Deem and Ramdas Pophale) SiO2 
 PCOD9447038
Probable space group: P M M N
;
_chemical_formula_sum "Si O2"
_cell_formula_units_Z 48
_cell_length_a 7.300319
_cell_length_b 9.789838
_cell_length_c 29.400384
_cell_angle_alpha 90.000000
_cell_angle_beta 90.000000
_cell_angle_gamma 90.000000
_cell_volume 2101.214291
_symmetry_space_group_name_H-M "P M M N"
_symmetry_group_IT_number 59
_space_group.IT_coordinate_system_code '2'
_symmetry_cell_setting 'orthorhombic'
loop_
_space_group_symop_operation_xyz
x,y,z
1/2-x,1/2-y,z
1/2+x,-y,-z
-x,1/2+y,-z
-x,-y,-z
1/2+x,1/2+y,-z
1/2-x,y,z
x,1/2-y,z
loop_
_atom_site_type_symbol
_atom_site_label
_atom_site_fract_x
_atom_site_fract_y
_atom_site_fract_z
Si Si1 0.526514 0.090927 0.370135
Si Si2 0.026748 0.406848 0.715686
Si Si3 0.970687 0.250000 0.028118
Si Si4 0.968349 0.908022 0.455401
Si Si5 0.474007 0.960453 0.896289
Si Si6 0.472743 0.601283 0.794567
Si Si7 0.539337 0.750000 0.077588
O O1 0.750000 0.094309 0.370788
O O2 0.467883 0.250000 0.371826
O O3 0.472302 0.008568 0.324889
O O4 0.465302 0.998245 0.412738
O O5 0.250000 0.403857 0.715420
O O6 0.966739 0.250000 0.710133
O O7 0.968286 0.477007 0.762873
O O8 0.750000 0.250000 0.024989
O O9 0.029516 0.376507 0.059300
O O10 0.038477 0.250000 0.976973
O O11 0.750000 0.896637 0.449811
O O12 0.036701 0.750000 0.458184
O O13 0.000000 0.000000 0.500000
O O14 0.250000 0.954783 0.896547
O O15 0.540957 0.112642 0.903208
O O16 0.530854 0.907970 0.847022
O O17 0.250000 0.597881 0.794855
O O18 0.526075 0.750000 0.775810
O O19 0.750000 0.750000 0.092872
#
# Coordination Sequence:
#
# PCOD9447038 Si02
#       7
#     8   8   4   8   8   8   4
#     4   9  16  27  42  61  89 126 162 196 239 288
#     4   9  16  23  35  57  85 117 151 187 228 277
#     4  10  18  32  48  62  84 118 150 176 213 266
#     4  10  20  33  50  72 100 134 172 212 252 295
#     4   9  17  28  42  60  84 114 145 179 220 264
#     4   9  15  24  37  54  79 113 148 177 214 270
#     4  10  20  30  44  66  90 112 142 184 223 256
#
# _framework density 22.843933
#
# number of rings (size 3 to 8) (size 9 to 14) (size 15 to 20)
#    0.000    2.667    0.833    2.000    1.167    5.000 
#    0.000    0.000    0.000    0.000    0.000    0.000 
#    0.000    2.667    0.000    0.000    0.000    0.167 
#
# Total GULP energy -268082.547094 kJ/mol
# GULP energy per Si atom -5585.053064 kJ/mol
# Density = 2.279194 g / cm^3
# Si number density = 22.843933 Si / 1000 Ang^3
#
#
#
# Elastic Constant Matrix: (Units=GPa)
#
#
# Indices 1 2 3 4 5 6 
#
# 1 93.9840 3.6860 -9.5745 0.0000 0.0000 0.0000
# 2 3.6860 230.2347 71.2278 0.0000 0.0000 0.0000
# 3 -9.5745 71.2278 112.5759 0.0000 0.0000 0.0000
# 4 0.0000 0.0000 0.0000 41.7482 0.0000 0.0000
# 5 0.0000 0.0000 0.0000 0.0000 4.7703 0.0000
# 6 0.0000 0.0000 0.0000 0.0000 0.0000 -42.6091
#
#
#
# Elastic Compliance Matrix: (Units=1/GPa)
#
#
# Indices 1 2 3 4 5 6 
#
# 1 0.010793 -0.000568 0.001277 0.000000 0.000000 0.000000
# 2 -0.000568 0.005430 -0.003484 0.000000 0.000000 0.000000
# 3 0.001277 -0.003484 0.011196 0.000000 0.000000 0.000000
# 4 0.000000 0.000000 0.000000 0.023953 0.000000 0.000000
# 5 0.000000 0.000000 0.000000 0.000000 0.209628 0.000000
# 6 0.000000 0.000000 0.000000 0.000000 0.000000 -0.023469
#
#
# Mechanical properties :
#
#
# Convention : Reuss Voigt Hill
#
# Bulk Modulus (GPa) = 45.72647 63.05257 54.38952
# Shear Modulus (GPa) = 19.97040 25.54557 22.75799
#
# Velocity S-wave (km/s) = 2.95991 3.34767 3.15975
# Velocity P-wave (km/s) = 5.63399 6.52717 6.09696
#
# Compressibility (1/GPa) = 0.02186917
#
# Stress axis : x y z
#
# Youngs Moduli (GPa) = 92.65691 184.14910 89.31771
#
# Poissons Ratio (x) = 0.10458 -0.11408
# Poissons Ratio (y) = 0.05262 0.31120
# Poissons Ratio (z) = -0.11834 0.64160
#
# Static dielectric constant tensor:
#      x y z
#    x 4.032770 0.000000 0.000000 
#    y 0.000000 1.905100 0.000000 
#    z 0.000000 0.000000 1.783670 
# 
# From -- ./inp_files/33044.got.cif
#   From: 2010.05.17/outbox.cif.g08.bks.cpg/sg59_17_cif.got.tgz:33044.got - 2010.06.03 14:40:33.
