data_PCOD9447132
_publ_section_title
;
Structure prediction by ZEFSAII (Michael W. Deem and Ramdas Pophale) SiO2 
 PCOD9447132
Probable space group: P M M N
;
_chemical_formula_sum "Si O2"
_cell_formula_units_Z 64
_cell_length_a 24.483957
_cell_length_b 7.873239
_cell_length_c 15.966794
_cell_angle_alpha 90.000000
_cell_angle_beta 90.000000
_cell_angle_gamma 90.000000
_cell_volume 3077.887666
_symmetry_space_group_name_H-M "P M M N"
_symmetry_group_IT_number 59
_space_group.IT_coordinate_system_code '2'
_symmetry_cell_setting 'orthorhombic'
loop_
_space_group_symop_operation_xyz
x,y,z
1/2-x,1/2-y,z
1/2+x,-y,-z
-x,1/2+y,-z
-x,-y,-z
1/2+x,1/2+y,-z
1/2-x,y,z
x,1/2-y,z
loop_
_atom_site_type_symbol
_atom_site_label
_atom_site_fract_x
_atom_site_fract_y
_atom_site_fract_z
Si Si1 0.499954 0.454499 0.902370
Si Si2 0.626759 0.946912 0.345230
Si Si3 0.390382 0.955955 0.343474
Si Si4 0.490819 0.949033 0.596661
Si Si5 0.117847 0.542399 0.157941
Si Si6 0.688474 0.049154 0.510046
Si Si7 0.883792 0.545078 0.161378
Si Si8 0.687910 0.455151 0.000675
O O1 0.499617 0.250000 0.895677
O O2 0.556198 0.514988 0.861808
O O3 0.444752 0.519204 0.859482
O O4 0.500000 0.500000 0.000000
O O5 0.642738 0.750000 0.345254
O O6 0.635457 0.018632 0.252007
O O7 0.562234 0.959685 0.365991
O O8 0.660662 0.029784 0.419784
O O9 0.391376 0.750000 0.346236
O O10 0.368270 0.008293 0.252474
O O11 0.352480 0.020677 0.419065
O O12 0.452840 0.012241 0.356009
O O13 0.478909 0.750000 0.599839
O O14 0.500000 0.000000 0.500000
O O15 0.118280 0.750000 0.155972
O O16 0.156859 0.484108 0.082961
O O17 0.750000 0.978385 0.512288
O O18 0.692538 0.250000 0.527002
O O19 0.886848 0.750000 0.167617
O O20 0.845165 0.502745 0.083765
O O21 0.750000 0.517105 0.003912
O O22 0.688923 0.250000 0.996753
#
# Coordination Sequence:
#
# PCOD9447132 Si02
#       8
#     8   8   8   8   8   8   8   8
#     4  10  18  32  55  81 110 144 180 224 278 335
#     4  11  23  40  62  86 115 154 197 242 293 351
#     4  10  20  37  61  86 118 156 193 238 289 348
#     4  12  23  37  60  90 122 154 188 234 291 353
#     4   9  18  34  57  84 115 149 187 234 285 337
#     4  10  22  39  59  85 116 152 197 245 292 344
#     4  10  22  38  58  84 114 149 191 237 291 348
#     4  10  21  37  58  84 114 152 198 243 285 335
#
# _framework density 20.793482000000001
#
# number of rings (size 3 to 8) (size 9 to 14) (size 15 to 20)
#    0.000    1.750    2.500    2.250    0.000    4.500 
#    0.000    7.500    0.000    0.000    0.000    1.750 
#    0.000    0.000    0.000    0.000    0.000    0.000 
#
# Total GULP energy -357600.243408 kJ/mol
# GULP energy per Si atom -5587.503803 kJ/mol
# Density = 2.074615 g / cm^3
# Si number density = 20.793482 Si / 1000 Ang^3
#
#
#
# Elastic Constant Matrix: (Units=GPa)
#
#
# Indices 1 2 3 4 5 6 
#
# 1 112.8870 -8.6209 36.6904 0.0000 0.0000 0.0000
# 2 -8.6209 26.0890 -8.6557 0.0000 0.0000 0.0000
# 3 36.6904 -8.6557 139.0268 0.0000 0.0000 0.0000
# 4 0.0000 0.0000 0.0000 20.8408 0.0000 0.0000
# 5 0.0000 0.0000 0.0000 0.0000 -0.3226 0.0000
# 6 0.0000 0.0000 0.0000 0.0000 0.0000 19.0460
#
#
#
# Elastic Compliance Matrix: (Units=1/GPa)
#
#
# Indices 1 2 3 4 5 6 
#
# 1 0.009839 0.002440 -0.002445 0.000000 0.000000 0.000000
# 2 0.002440 0.039744 0.001830 0.000000 0.000000 0.000000
# 3 -0.002445 0.001830 0.007952 0.000000 0.000000 0.000000
# 4 0.000000 0.000000 0.000000 0.047983 0.000000 0.000000
# 5 0.000000 0.000000 0.000000 0.000000 -3.099359 0.000000
# 6 0.000000 0.000000 0.000000 0.000000 0.000000 0.052505
#
#
# Mechanical properties :
#
#
# Convention : Reuss Voigt Hill
#
# Bulk Modulus (GPa) = 16.34333 35.20338 25.77335
# Shear Modulus (GPa) = -1.70964 25.15209 11.72122
#
# Velocity S-wave (km/s) = -0.90774 3.48172 2.37681
# Velocity P-wave (km/s) = 2.60351 5.75586 4.46700
#
# Compressibility (1/GPa) = 0.06118705
#
# Stress axis : x y z
#
# Youngs Moduli (GPa) = 101.63252 25.16109 125.75423
#
# Poissons Ratio (x) = -0.06140 0.30744
# Poissons Ratio (y) = -0.24801 -0.23018
# Poissons Ratio (z) = 0.24847 -0.04606
#
# Static dielectric constant tensor:
#      x y z
#    x 1.888400 0.000000 0.000000 
#    y 0.000000 1.767240 0.000000 
#    z 0.000000 0.000000 1.738150 
# 
# From -- ./inp_files/24673.got.cif
#   From: 2010.05.17/outbox.cif.g08.bks.cpg/sg59_13_cif.got.tgz:24673.got - 2010.06.03 14:40:33.
