data_PCOD9447516
_publ_section_title
;
Structure prediction by ZEFSAII (Michael W. Deem and Ramdas Pophale) SiO2 
 PCOD9447516
Probable space group: P M M N
;
_chemical_formula_sum "Si O2"
_cell_formula_units_Z 48
_cell_length_a 26.513834
_cell_length_b 9.468008
_cell_length_c 12.039528
_cell_angle_alpha 90.000000
_cell_angle_beta 90.000000
_cell_angle_gamma 90.000000
_cell_volume 3022.321149
_symmetry_space_group_name_H-M "P M M N"
_symmetry_group_IT_number 59
_space_group.IT_coordinate_system_code '2'
_symmetry_cell_setting 'orthorhombic'
loop_
_space_group_symop_operation_xyz
x,y,z
1/2-x,1/2-y,z
1/2+x,-y,-z
-x,1/2+y,-z
-x,-y,-z
1/2+x,1/2+y,-z
1/2-x,y,z
x,1/2-y,z
loop_
_atom_site_type_symbol
_atom_site_label
_atom_site_fract_x
_atom_site_fract_y
_atom_site_fract_z
Si Si1 0.622702 0.586040 0.976478
Si Si2 0.809284 0.580541 0.182382
Si Si3 0.110727 0.582613 0.677912
Si Si4 0.574845 0.083798 0.790107
Si Si5 0.050299 0.580945 0.460804
Si Si6 0.040064 0.087879 0.836839
O O1 0.631129 0.750000 0.949482
O O2 0.614617 0.498099 0.865452
O O3 0.665980 0.540056 0.063463
O O4 0.571479 0.576221 0.049966
O O5 0.750000 0.551761 0.185904
O O6 0.817199 0.750000 0.193864
O O7 0.840462 0.499573 0.277108
O O8 0.116313 0.750000 0.695309
O O9 0.094149 0.557432 0.551263
O O10 0.064938 0.520940 0.751725
O O11 0.586709 0.250000 0.790192
O O12 0.567888 0.037642 0.662321
O O13 0.519322 0.065715 0.844190
O O14 0.039578 0.750000 0.457677
O O15 0.000000 0.500000 0.500000
O O16 0.047661 0.250000 0.795893
#
# Coordination Sequence:
#
# PCOD9447516 Si02
#       6
#     8   8   8   8   8   8
#     4   9  18  30  46  71  96 121 159 202 245 289
#     4   9  19  37  58  75  94 123 158 202 256 305
#     4  10  19  30  48  76 102 126 163 208 246 282
#     4  10  19  30  45  66  98 137 168 194 233 284
#     4  10  20  32  47  69 100 137 172 202 235 281
#     4   9  17  30  46  65  96 135 167 196 233 283
#
# _framework density 15.881834
#
# number of rings (size 3 to 8) (size 9 to 14) (size 15 to 20)
#    0.000    2.500    1.667    2.000    0.000    5.000 
#    0.000    0.000    0.000    1.000    0.000    4.667 
#    0.000    0.000    0.000    0.000    0.000    0.000 
#
# Total GULP energy -267463.584660 kJ/mol
# GULP energy per Si atom -5572.158014 kJ/mol
# Density = 1.584569 g / cm^3
# Si number density = 15.881834 Si / 1000 Ang^3
#
#
#
# Elastic Constant Matrix: (Units=GPa)
#
#
# Indices 1 2 3 4 5 6 
#
# 1 85.1672 45.5237 51.2740 0.0000 0.0000 0.0000
# 2 45.5237 46.3784 46.3649 0.0000 0.0000 0.0000
# 3 51.2740 46.3649 84.4655 0.0000 0.0000 0.0000
# 4 0.0000 0.0000 0.0000 24.1211 0.0000 0.0000
# 5 0.0000 0.0000 0.0000 0.0000 11.3919 0.0000
# 6 0.0000 0.0000 0.0000 0.0000 0.0000 20.0917
#
#
#
# Elastic Compliance Matrix: (Units=1/GPa)
#
#
# Indices 1 2 3 4 5 6 
#
# 1 0.025246 -0.020964 -0.003818 0.000000 0.000000 0.000000
# 2 -0.020964 0.065192 -0.023059 0.000000 0.000000 0.000000
# 3 -0.003818 -0.023059 0.026814 0.000000 0.000000 0.000000
# 4 0.000000 0.000000 0.000000 0.041458 0.000000 0.000000
# 5 0.000000 0.000000 0.000000 0.000000 0.087782 0.000000
# 6 0.000000 0.000000 0.000000 0.000000 0.000000 0.049772
#
#
# Mechanical properties :
#
#
# Convention : Reuss Voigt Hill
#
# Bulk Modulus (GPa) = 46.36005 55.81515 51.08760
# Shear Modulus (GPa) = 12.52710 15.97748 14.25229
#
# Velocity S-wave (km/s) = 2.81155 3.17523 2.99891
# Velocity P-wave (km/s) = 6.30823 6.97589 6.65044
#
# Compressibility (1/GPa) = 0.02157030
#
# Stress axis : x y z
#
# Youngs Moduli (GPa) = 39.61081 15.33934 37.29358
#
# Poissons Ratio (x) = 0.32157 0.14237
# Poissons Ratio (y) = 0.83040 0.85996
# Poissons Ratio (z) = 0.15122 0.35371
#
# Static dielectric constant tensor:
#      x y z
#    x 1.516650 0.000000 0.000000 
#    y 0.000000 1.537580 0.000000 
#    z 0.000000 0.000000 1.539340 
# 
# From -- ./inp_files/14471.got.cif
#   From: 2010.05.17/outbox.cif.g08.bks.cpg/sg59_8_cif.got.tgz:14471.got - 2010.06.03 14:40:33.
