data_PCOD9447105
_publ_section_title
;
Structure prediction by ZEFSAII (Michael W. Deem and Ramdas Pophale) SiO2 
 PCOD9447105
Probable space group: P M M N
;
_chemical_formula_sum "Si O2"
_cell_formula_units_Z 48
_cell_length_a 7.614219
_cell_length_b 18.570689
_cell_length_c 16.368782
_cell_angle_alpha 90.000000
_cell_angle_beta 90.000000
_cell_angle_gamma 90.000000
_cell_volume 2314.566940
_symmetry_space_group_name_H-M "P M M N"
_symmetry_group_IT_number 59
_space_group.IT_coordinate_system_code '2'
_symmetry_cell_setting 'orthorhombic'
loop_
_space_group_symop_operation_xyz
x,y,z
1/2-x,1/2-y,z
1/2+x,-y,-z
-x,1/2+y,-z
-x,-y,-z
1/2+x,1/2+y,-z
1/2-x,y,z
x,1/2-y,z
loop_
_atom_site_type_symbol
_atom_site_label
_atom_site_fract_x
_atom_site_fract_y
_atom_site_fract_z
Si Si1 0.960423 0.250000 0.087489
Si Si2 0.047139 0.986558 0.137676
Si Si3 0.464755 0.750000 0.725241
Si Si4 0.455734 0.100623 0.008333
Si Si5 0.041156 0.962969 0.318112
Si Si6 0.465039 0.832383 0.430158
Si Si7 0.037981 0.881526 0.610980
O O1 0.750000 0.250000 0.090197
O O2 0.024061 0.250000 0.181189
O O3 0.021660 0.319659 0.039421
O O4 0.250000 0.007628 0.151619
O O5 0.967846 0.973697 0.226559
O O6 0.969267 0.048938 0.079922
O O7 0.040244 0.917559 0.078597
O O8 0.250000 0.750000 0.724759
O O9 0.521045 0.678060 0.677070
O O10 0.250000 0.083889 0.998911
O O11 0.250000 0.950744 0.310130
O O12 0.973193 0.893325 0.366748
O O13 0.016278 0.037605 0.366595
O O14 0.250000 0.832501 0.429916
O O15 0.519625 0.750000 0.413488
O O16 0.519669 0.856441 0.521175
O O17 0.250000 0.880417 0.611260
#
# Coordination Sequence:
#
# PCOD9447105 Si02
#       7
#     4   8   4   8   8   8   8
#     4  11  21  33  51  78 107 134 172 217 261 315
#     4   9  19  36  54  76 105 138 176 219 265 317
#     4   9  18  31  51  78 105 136 176 219 255 307
#     4  10  20  35  55  75 104 140 173 215 270 321
#     4  10  20  33  52  80 108 135 176 222 263 313
#     4   9  17  32  53  75 104 142 179 216 257 308
#     4  10  18  32  54  77 104 139 179 217 260 309
#
# _framework density 20.738220999999999
#
# number of rings (size 3 to 8) (size 9 to 14) (size 15 to 20)
#    0.000    2.333    0.833    2.250    0.000    1.333 
#    1.500    1.250    0.000    1.500    0.000    0.000 
#    0.000    0.000    0.000    0.000    0.000    0.000 
#
# Total GULP energy -267980.267072 kJ/mol
# GULP energy per Si atom -5582.922231 kJ/mol
# Density = 2.069102 g / cm^3
# Si number density = 20.738221 Si / 1000 Ang^3
#
#
#
# Elastic Constant Matrix: (Units=GPa)
#
#
# Indices 1 2 3 4 5 6 
#
# 1 41.7911 -8.0052 -5.7040 0.0000 0.0000 0.0000
# 2 -8.0052 172.4703 78.8955 0.0000 0.0000 0.0000
# 3 -5.7040 78.8955 75.0066 0.0000 0.0000 0.0000
# 4 0.0000 0.0000 0.0000 29.8172 0.0000 0.0000
# 5 0.0000 0.0000 0.0000 0.0000 0.9227 0.0000
# 6 0.0000 0.0000 0.0000 0.0000 0.0000 14.6157
#
#
#
# Elastic Compliance Matrix: (Units=1/GPa)
#
#
# Indices 1 2 3 4 5 6 
#
# 1 0.024206 0.000542 0.001270 0.000000 0.000000 0.000000
# 2 0.000542 0.011187 -0.011726 0.000000 0.000000 0.000000
# 3 0.001270 -0.011726 0.025763 0.000000 0.000000 0.000000
# 4 0.000000 0.000000 0.000000 0.033538 0.000000 0.000000
# 5 0.000000 0.000000 0.000000 0.000000 1.083740 0.000000
# 6 0.000000 0.000000 0.000000 0.000000 0.000000 0.068419
#
#
# Mechanical properties :
#
#
# Convention : Reuss Voigt Hill
#
# Bulk Modulus (GPa) = 24.19606 46.62674 35.41140
# Shear Modulus (GPa) = 3.90486 24.00992 13.95739
#
# Velocity S-wave (km/s) = 1.37369 3.40628 2.59709
# Velocity P-wave (km/s) = 3.76945 6.16463 5.10937
#
# Compressibility (1/GPa) = 0.04132904
#
# Stress axis : x y z
#
# Youngs Moduli (GPa) = 41.31243 89.38704 38.81566
#
# Poissons Ratio (x) = -0.04849 -0.04930
# Poissons Ratio (y) = -0.02241 0.45516
# Poissons Ratio (z) = -0.05247 1.04816
#
# Static dielectric constant tensor:
#      x y z
#    x 1.792340 0.000000 0.000000 
#    y 0.000000 1.744930 0.000000 
#    z 0.000000 0.000000 1.737770 
# 
# From -- ./inp_files/20490.got.cif
#   From: 2010.05.17/outbox.cif.g08.bks.cpg/sg59_11_cif.got.tgz:20490.got - 2010.06.03 14:40:33.
