data_PCOD9447242
_publ_section_title
;
Structure prediction by ZEFSAII (Michael W. Deem and Ramdas Pophale) SiO2 
 PCOD9447242
Probable space group: P M M N
;
_chemical_formula_sum "Si O2"
_cell_formula_units_Z 48
_cell_length_a 8.581339
_cell_length_b 10.288400
_cell_length_c 30.175102
_cell_angle_alpha 90.000000
_cell_angle_beta 90.000000
_cell_angle_gamma 90.000000
_cell_volume 2664.106894
_symmetry_space_group_name_H-M "P M M N"
_symmetry_group_IT_number 59
_space_group.IT_coordinate_system_code '2'
_symmetry_cell_setting 'orthorhombic'
loop_
_space_group_symop_operation_xyz
x,y,z
1/2-x,1/2-y,z
1/2+x,-y,-z
-x,1/2+y,-z
-x,-y,-z
1/2+x,1/2+y,-z
1/2-x,y,z
x,1/2-y,z
loop_
_atom_site_type_symbol
_atom_site_label
_atom_site_fract_x
_atom_site_fract_y
_atom_site_fract_z
Si Si1 0.438252 0.896941 0.799311
Si Si2 0.938890 0.598905 0.463353
Si Si3 0.938476 0.250000 0.035285
Si Si4 0.560055 0.476095 0.102058
Si Si5 0.938371 0.750000 0.064271
Si Si6 0.564859 0.100296 0.728667
Si Si7 0.571292 0.907447 0.365212
O O1 0.250000 0.897803 0.799499
O O2 0.489401 0.750000 0.788343
O O3 0.490870 0.932148 0.849197
O O4 0.494517 0.003239 0.764492
O O5 0.750000 0.598000 0.462963
O O6 0.986961 0.750000 0.470811
O O7 0.989991 0.555356 0.413816
O O8 0.000000 0.500000 0.500000
O O9 0.750000 0.250000 0.032411
O O10 0.987392 0.124862 0.063987
O O11 0.006254 0.250000 0.986302
O O12 0.750000 0.474482 0.102687
O O13 0.508284 0.620058 0.089115
O O14 0.750000 0.750000 0.064409
O O15 0.750000 0.101637 0.733199
O O16 0.507646 0.250000 0.734468
O O17 0.521305 0.056796 0.678799
O O18 0.750000 0.952395 0.360507
O O19 0.574015 0.750000 0.366635
#
# Coordination Sequence:
#
# PCOD9447242 Si02
#       7
#     8   8   4   8   4   8   8
#     4  10  20  36  57  78 100 134 178 216 255 308
#     4   9  18  32  51  77 108 140 178 221 262 308
#     4  10  18  34  54  72 100 134 164 200 247 298
#     4   9  18  33  53  75  99 129 167 208 247 295
#     4  10  20  32  50  78 104 126 164 208 245 294
#     4  10  21  35  53  80 109 134 166 214 268 319
#     4   8  15  31  53  75 101 137 180 221 258 303
#
# _framework density 18.017296000000002
#
# number of rings (size 3 to 8) (size 9 to 14) (size 15 to 20)
#    0.000    2.667    0.833    2.000    1.167    2.333 
#    0.000    4.167    0.000    1.000    0.000    0.000 
#    0.000    0.000    0.000    0.000    0.000    0.000 
#
# Total GULP energy -267605.976552 kJ/mol
# GULP energy per Si atom -5575.124512 kJ/mol
# Density = 1.797629 g / cm^3
# Si number density = 18.017296 Si / 1000 Ang^3
#
#
#
# Elastic Constant Matrix: (Units=GPa)
#
#
# Indices 1 2 3 4 5 6 
#
# 1 11.1047 21.3533 21.5705 0.0000 0.0000 0.0000
# 2 21.3533 123.4692 71.5393 0.0000 0.0000 0.0000
# 3 21.5705 71.5393 134.6976 0.0000 0.0000 0.0000
# 4 0.0000 0.0000 0.0000 34.4197 0.0000 0.0000
# 5 0.0000 0.0000 0.0000 0.0000 30.8697 0.0000
# 6 0.0000 0.0000 0.0000 0.0000 0.0000 16.7127
#
#
#
# Elastic Compliance Matrix: (Units=1/GPa)
#
#
# Indices 1 2 3 4 5 6 
#
# 1 0.153742 -0.017802 -0.015166 0.000000 0.000000 0.000000
# 2 -0.017802 0.013761 -0.004458 0.000000 0.000000 0.000000
# 3 -0.015166 -0.004458 0.012220 0.000000 0.000000 0.000000
# 4 0.000000 0.000000 0.000000 0.029053 0.000000 0.000000
# 5 0.000000 0.000000 0.000000 0.000000 0.032394 0.000000
# 6 0.000000 0.000000 0.000000 0.000000 0.000000 0.059835
#
#
# Mechanical properties :
#
#
# Convention : Reuss Voigt Hill
#
# Bulk Modulus (GPa) = 9.53537 55.35532 32.44535
# Shear Modulus (GPa) = 12.17100 26.72096 19.44598
#
# Velocity S-wave (km/s) = 2.60189 3.85525 3.28883
# Velocity P-wave (km/s) = 3.78554 7.11388 5.69814
#
# Compressibility (1/GPa) = 0.10487265
#
# Stress axis : x y z
#
# Youngs Moduli (GPa) = 6.50441 72.67058 81.83171
#
# Poissons Ratio (x) = 1.29366 1.24103
# Poissons Ratio (y) = 0.11579 0.36478
# Poissons Ratio (z) = 0.09864 0.32394
#
# Static dielectric constant tensor:
#      x y z
#    x 1.622880 0.000000 0.000000 
#    y 0.000000 1.612450 0.000000 
#    z 0.000000 0.000000 1.603470 
# 
# From -- ./inp_files/33026.got.cif
#   From: 2010.05.17/outbox.cif.g08.bks.cpg/sg59_17_cif.got.tgz:33026.got - 2010.06.03 14:40:33.
