data_PCOD9447243
_publ_section_title
;
Structure prediction by ZEFSAII (Michael W. Deem and Ramdas Pophale) SiO2 
 PCOD9447243
Probable space group: P M M N
;
_chemical_formula_sum "Si O2"
_cell_formula_units_Z 48
_cell_length_a 7.701035
_cell_length_b 10.179225
_cell_length_c 29.167715
_cell_angle_alpha 90.000000
_cell_angle_beta 90.000000
_cell_angle_gamma 90.000000
_cell_volume 2286.473746
_symmetry_space_group_name_H-M "P M M N"
_symmetry_group_IT_number 59
_space_group.IT_coordinate_system_code '2'
_symmetry_cell_setting 'orthorhombic'
loop_
_space_group_symop_operation_xyz
x,y,z
1/2-x,1/2-y,z
1/2+x,-y,-z
-x,1/2+y,-z
-x,-y,-z
1/2+x,1/2+y,-z
1/2-x,y,z
x,1/2-y,z
loop_
_atom_site_type_symbol
_atom_site_label
_atom_site_fract_x
_atom_site_fract_y
_atom_site_fract_z
Si Si1 0.044360 0.601628 0.143335
Si Si2 0.545757 0.250000 0.424887
Si Si3 0.039765 0.250000 0.531046
Si Si4 0.543339 0.602203 0.039567
Si Si5 0.037347 0.467754 0.602990
Si Si6 0.459718 0.105696 0.705065
Si Si7 0.956884 0.899122 0.781912
O O1 0.250000 0.610041 0.152688
O O2 0.971872 0.750000 0.149820
O O3 0.971322 0.490604 0.177012
O O4 0.023380 0.565451 0.090034
O O5 0.750000 0.250000 0.413507
O O6 0.527983 0.250000 0.479675
O O7 0.473459 0.384792 0.404803
O O8 0.250000 0.250000 0.528614
O O9 0.983998 0.375729 0.560851
O O10 0.750000 0.608227 0.043039
O O11 0.477717 0.750000 0.029155
O O12 0.500000 0.500000 0.000000
O O13 0.250000 0.466802 0.602668
O O14 0.984379 0.413325 0.652409
O O15 0.250000 0.106555 0.705466
O O16 0.519179 0.250000 0.721925
O O17 0.516356 0.984726 0.736245
O O18 0.750000 0.887564 0.788950
O O19 0.026507 0.750000 0.779708
#
# Coordination Sequence:
#
# PCOD9447243 Si02
#       7
#     8   4   4   8   8   8   8
#     4   9  18  35  57  78 107 150 193 228 271 328
#     4  10  20  32  50  76 104 132 168 212 259 312
#     4  10  18  34  54  72 100 134 170 210 257 314
#     4  10  21  36  56  84 117 152 191 235 280 325
#     4   9  18  33  53  75 100 134 172 212 260 315
#     4  10  20  36  58  81 104 138 185 227 266 321
#     4  10  22  38  56  82 115 146 177 222 280 334
#
# _framework density 20.993023999999998
#
# number of rings (size 3 to 8) (size 9 to 14) (size 15 to 20)
#    0.000    2.333    0.833    1.500    1.167    3.667 
#    0.000    5.000    0.000    0.000    0.000    0.000 
#    0.000    0.000    0.000    0.000    0.000    0.000 
#
# Total GULP energy -268009.606314 kJ/mol
# GULP energy per Si atom -5583.533465 kJ/mol
# Density = 2.094524 g / cm^3
# Si number density = 20.993024 Si / 1000 Ang^3
#
#
#
# Elastic Constant Matrix: (Units=GPa)
#
#
# Indices 1 2 3 4 5 6 
#
# 1 34.8097 5.1543 -10.2291 0.0000 0.0000 0.0000
# 2 5.1543 166.5011 65.9673 0.0000 0.0000 0.0000
# 3 -10.2291 65.9673 90.9567 0.0000 0.0000 0.0000
# 4 0.0000 0.0000 0.0000 36.2004 0.0000 0.0000
# 5 0.0000 0.0000 0.0000 0.0000 25.4372 0.0000
# 6 0.0000 0.0000 0.0000 0.0000 0.0000 7.0437
#
#
#
# Elastic Compliance Matrix: (Units=1/GPa)
#
#
# Indices 1 2 3 4 5 6 
#
# 1 0.030934 -0.003278 0.005856 0.000000 0.000000 0.000000
# 2 -0.003278 0.008775 -0.006733 0.000000 0.000000 0.000000
# 3 0.005856 -0.006733 0.016536 0.000000 0.000000 0.000000
# 4 0.000000 0.000000 0.000000 0.027624 0.000000 0.000000
# 5 0.000000 0.000000 0.000000 0.000000 0.039313 0.000000
# 6 0.000000 0.000000 0.000000 0.000000 0.000000 0.141971
#
#
# Mechanical properties :
#
#
# Convention : Reuss Voigt Hill
#
# Bulk Modulus (GPa) = 20.86122 46.00581 33.43351
# Shear Modulus (GPa) = 17.27479 29.16126 23.21802
#
# Velocity S-wave (km/s) = 2.87170 3.73110 3.32925
# Velocity P-wave (km/s) = 4.57759 6.36583 5.54429
#
# Compressibility (1/GPa) = 0.04793584
#
# Stress axis : x y z
#
# Youngs Moduli (GPa) = 32.32702 113.96103 60.47476
#
# Poissons Ratio (x) = 0.37354 -0.35415
# Poissons Ratio (y) = 0.10596 0.40716
# Poissons Ratio (z) = -0.18931 0.76727
#
# Static dielectric constant tensor:
#      x y z
#    x 1.777690 0.000000 0.000000 
#    y 0.000000 1.776320 0.000000 
#    z 0.000000 0.000000 1.712880 
# 
# From -- ./inp_files/32985.got.cif
#   From: 2010.05.17/outbox.cif.g08.bks.cpg/sg59_17_cif.got.tgz:32985.got - 2010.06.03 14:40:33.
