data_PCOD9447910
_publ_section_title
;
Structure prediction by ZEFSAII (Michael W. Deem and Ramdas Pophale) SiO2 
 PCOD9447910
Probable space group: P M M N
;
_chemical_formula_sum "Si O2"
_cell_formula_units_Z 64
_cell_length_a 20.114975
_cell_length_b 9.053012
_cell_length_c 20.429899
_cell_angle_alpha 90.000000
_cell_angle_beta 90.000000
_cell_angle_gamma 90.000000
_cell_volume 3720.307286
_symmetry_space_group_name_H-M "P M M N"
_symmetry_group_IT_number 59
_space_group.IT_coordinate_system_code '2'
_symmetry_cell_setting 'orthorhombic'
loop_
_space_group_symop_operation_xyz
x,y,z
1/2-x,1/2-y,z
1/2+x,-y,-z
-x,1/2+y,-z
-x,-y,-z
1/2+x,1/2+y,-z
1/2-x,y,z
x,1/2-y,z
loop_
_atom_site_type_symbol
_atom_site_label
_atom_site_fract_x
_atom_site_fract_y
_atom_site_fract_z
Si Si1 0.412524 0.576014 0.733954
Si Si2 0.828263 0.084034 0.141696
Si Si3 0.927700 0.928148 0.401867
Si Si4 0.580304 0.072929 0.623605
Si Si5 0.327598 0.071755 0.480735
Si Si6 0.920104 0.577330 0.048519
Si Si7 0.549341 0.426590 0.772233
Si Si8 0.444808 0.425138 0.095804
O O1 0.426104 0.750000 0.725264
O O2 0.353036 0.558094 0.784736
O O3 0.401022 0.500153 0.664570
O O4 0.476282 0.497504 0.765955
O O5 0.750000 0.082400 0.138790
O O6 0.852374 0.250000 0.123274
O O7 0.858995 0.965402 0.093436
O O8 0.926750 0.750000 0.396540
O O9 0.878956 0.971436 0.461039
O O10 0.006493 0.970544 0.404178
O O11 0.585556 0.250000 0.616239
O O12 0.581796 0.039359 0.701442
O O13 0.638726 0.994724 0.584057
O O14 0.250000 0.026828 0.490005
O O15 0.328300 0.250000 0.477433
O O16 0.937633 0.750000 0.053165
O O17 0.981841 0.483762 0.076505
O O18 0.906324 0.544933 0.972111
O O19 0.544649 0.250000 0.777681
O O20 0.579316 0.493736 0.838603
O O21 0.446613 0.250000 0.107734
#
# Coordination Sequence:
#
# PCOD9447910 Si02
#       8
#     8   8   8   8   8   8   8   8
#     4  10  19  31  49  74 102 133 171 210 252 303
#     4  10  21  35  49  68 101 141 177 214 253 300
#     4   9  19  35  53  75 106 138 172 217 262 310
#     4   9  19  34  53  78 105 136 173 215 262 312
#     4  10  21  36  54  77 105 137 174 217 265 317
#     4  10  20  32  49  74 102 133 171 211 253 303
#     4  10  19  32  52  78 106 132 164 209 260 310
#     4  10  19  31  50  77 105 131 163 210 261 304
#
# _framework density 17.202878999999999
#
# number of rings (size 3 to 8) (size 9 to 14) (size 15 to 20)
#    0.000    2.250    1.250    2.625    0.000    6.000 
#    0.000    0.000    0.000    0.750    0.000    0.000 
#    0.000    0.000    0.000    0.000    0.000    0.000 
#
# Total GULP energy -356722.251099 kJ/mol
# GULP energy per Si atom -5573.785173 kJ/mol
# Density = 1.716372 g / cm^3
# Si number density = 17.202879 Si / 1000 Ang^3
#
#
#
# Elastic Constant Matrix: (Units=GPa)
#
#
# Indices 1 2 3 4 5 6 
#
# 1 51.5482 15.2637 33.2109 0.0000 0.0000 0.0000
# 2 15.2637 23.0478 28.1896 0.0000 0.0000 0.0000
# 3 33.2109 28.1896 100.3406 0.0000 0.0000 0.0000
# 4 0.0000 0.0000 0.0000 34.1250 0.0000 0.0000
# 5 0.0000 0.0000 0.0000 0.0000 13.2664 0.0000
# 6 0.0000 0.0000 0.0000 0.0000 0.0000 17.1305
#
#
#
# Elastic Compliance Matrix: (Units=1/GPa)
#
#
# Indices 1 2 3 4 5 6 
#
# 1 0.026158 -0.010260 -0.005776 0.000000 0.000000 0.000000
# 2 -0.010260 0.070125 -0.016305 0.000000 0.000000 0.000000
# 3 -0.005776 -0.016305 0.016458 0.000000 0.000000 0.000000
# 4 0.000000 0.000000 0.000000 0.029304 0.000000 0.000000
# 5 0.000000 0.000000 0.000000 0.000000 0.075379 0.000000
# 6 0.000000 0.000000 0.000000 0.000000 0.000000 0.058375
#
#
# Mechanical properties :
#
#
# Convention : Reuss Voigt Hill
#
# Bulk Modulus (GPa) = 20.80678 36.47388 28.64033
# Shear Modulus (GPa) = 14.02520 19.45586 16.74053
#
# Velocity S-wave (km/s) = 2.85841 3.36663 3.12288
# Velocity P-wave (km/s) = 4.79742 6.02997 5.44866
#
# Compressibility (1/GPa) = 0.04806127
#
# Stress axis : x y z
#
# Youngs Moduli (GPa) = 38.22881 14.26020 60.75914
#
# Poissons Ratio (x) = 0.14630 0.35092
# Poissons Ratio (y) = 0.39221 0.99069
# Poissons Ratio (z) = 0.22079 0.23252
#
# Static dielectric constant tensor:
#      x y z
#    x 1.567890 0.000000 0.000000 
#    y 0.000000 1.592220 0.000000 
#    z 0.000000 0.000000 1.611500 
# 
# From -- ./inp_files/30990.got.cif
#   From: 2010.05.17/outbox.cif.g08.bks.cpg/sg59_16_cif.got.tgz:30990.got - 2010.06.03 14:40:33.
