data_PCOD9447103
_publ_section_title
;
Structure prediction by ZEFSAII (Michael W. Deem and Ramdas Pophale) SiO2 
 PCOD9447103
Probable space group: P M M N
;
_chemical_formula_sum "Si O2"
_cell_formula_units_Z 40
_cell_length_a 7.372095
_cell_length_b 16.392926
_cell_length_c 14.436962
_cell_angle_alpha 90.000000
_cell_angle_beta 90.000000
_cell_angle_gamma 90.000000
_cell_volume 1744.709858
_symmetry_space_group_name_H-M "P M M N"
_symmetry_group_IT_number 59
_space_group.IT_coordinate_system_code '2'
_symmetry_cell_setting 'orthorhombic'
loop_
_space_group_symop_operation_xyz
x,y,z
1/2-x,1/2-y,z
1/2+x,-y,-z
-x,1/2+y,-z
-x,-y,-z
1/2+x,1/2+y,-z
1/2-x,y,z
x,1/2-y,z
loop_
_atom_site_type_symbol
_atom_site_label
_atom_site_fract_x
_atom_site_fract_y
_atom_site_fract_z
Si Si1 0.528246 0.750000 0.043680
Si Si2 0.967246 0.583694 0.944077
Si Si3 0.958212 0.918448 0.735221
Si Si4 0.528728 0.657763 0.550575
Si Si5 0.030157 0.086447 0.637190
Si Si6 0.029400 0.250000 0.743154
O O1 0.750000 0.750000 0.042458
O O2 0.471583 0.750000 0.150528
O O3 0.468405 0.833765 0.994444
O O4 0.750000 0.589997 0.939721
O O5 0.037160 0.580327 0.838304
O O6 0.000000 0.500000 0.000000
O O7 0.750000 0.890576 0.745727
O O8 0.038763 0.863982 0.652833
O O9 0.960442 0.008366 0.691293
O O10 0.750000 0.654010 0.552374
O O11 0.480200 0.750000 0.525057
O O12 0.470443 0.596758 0.469307
O O13 0.250000 0.081983 0.638400
O O14 0.973995 0.168353 0.690485
O O15 0.250000 0.250000 0.741923
#
# Coordination Sequence:
#
# PCOD9447103 Si02
#       6
#     4   8   8   8   8   4
#     4   9  18  32  52  76 102 135 179 225 264 311
#     4  10  21  37  56  80 108 141 182 226 272 319
#     4  10  21  33  51  78 108 137 169 214 268 313
#     4   9  17  31  52  78 106 135 172 215 254 303
#     4  10  18  32  54  77 102 137 176 212 253 308
#     4   9  16  28  50  76  96 125 175 221 252 291
#
# _framework density 22.926447
#
# number of rings (size 3 to 8) (size 9 to 14) (size 15 to 20)
#    0.000    2.400    1.000    1.800    1.400    2.400 
#    0.000    1.000    0.000    5.400    0.000    0.000 
#    0.000    0.000    0.000    0.000    0.000    0.000 
#
# Total GULP energy -223520.559064 kJ/mol
# GULP energy per Si atom -5588.013977 kJ/mol
# Density = 2.287426 g / cm^3
# Si number density = 22.926447 Si / 1000 Ang^3
#
#
#
# Elastic Constant Matrix: (Units=GPa)
#
#
# Indices 1 2 3 4 5 6 
#
# 1 84.5876 -8.8951 5.3417 0.0000 0.0000 0.0000
# 2 -8.8951 110.4312 57.4764 0.0000 0.0000 0.0000
# 3 5.3417 57.4764 204.8361 0.0000 0.0000 0.0000
# 4 0.0000 0.0000 0.0000 11.6281 0.0000 0.0000
# 5 0.0000 0.0000 0.0000 0.0000 3.6068 0.0000
# 6 0.0000 0.0000 0.0000 0.0000 0.0000 12.3722
#
#
#
# Elastic Compliance Matrix: (Units=1/GPa)
#
#
# Indices 1 2 3 4 5 6 
#
# 1 0.012004 0.001323 -0.000684 0.000000 0.000000 0.000000
# 2 0.001323 0.010750 -0.003051 0.000000 0.000000 0.000000
# 3 -0.000684 -0.003051 0.005756 0.000000 0.000000 0.000000
# 4 0.000000 0.000000 0.000000 0.085999 0.000000 0.000000
# 5 0.000000 0.000000 0.000000 0.000000 0.277257 0.000000
# 6 0.000000 0.000000 0.000000 0.000000 0.000000 0.080827
#
#
# Mechanical properties :
#
#
# Convention : Reuss Voigt Hill
#
# Bulk Modulus (GPa) = 42.21906 56.41120 49.31513
# Shear Modulus (GPa) = 10.30265 28.58353 19.44309
#
# Velocity S-wave (km/s) = 2.12215 3.53476 2.91531
# Velocity P-wave (km/s) = 4.94568 6.42792 5.73489
#
# Compressibility (1/GPa) = 0.02368598
#
# Stress axis : x y z
#
# Youngs Moduli (GPa) = 83.30267 93.02424 173.73580
#
# Poissons Ratio (x) = -0.12308 0.11889
# Poissons Ratio (y) = -0.11022 0.53005
# Poissons Ratio (z) = 0.05700 0.28381
#
# Static dielectric constant tensor:
#      x y z
#    x 1.921910 0.000000 0.000000 
#    y 0.000000 1.805030 0.000000 
#    z 0.000000 0.000000 1.835440 
# 
# From -- ./inp_files/19944.got.cif
#   From: 2010.05.17/outbox.cif.g08.bks.cpg/sg59_10_cif.got.tgz:19944.got - 2010.06.03 14:40:33.
