data_PCOD9447742
_publ_section_title
;
Structure prediction by ZEFSAII (Michael W. Deem and Ramdas Pophale) SiO2 
 PCOD9447742
Probable space group: P M M N
;
_chemical_formula_sum "Si O2"
_cell_formula_units_Z 64
_cell_length_a 30.607872
_cell_length_b 8.576351
_cell_length_c 15.366146
_cell_angle_alpha 90.000000
_cell_angle_beta 90.000000
_cell_angle_gamma 90.000000
_cell_volume 4033.672541
_symmetry_space_group_name_H-M "P M M N"
_symmetry_group_IT_number 59
_space_group.IT_coordinate_system_code '2'
_symmetry_cell_setting 'orthorhombic'
loop_
_space_group_symop_operation_xyz
x,y,z
1/2-x,1/2-y,z
1/2+x,-y,-z
-x,1/2+y,-z
-x,-y,-z
1/2+x,1/2+y,-z
1/2-x,y,z
x,1/2-y,z
loop_
_atom_site_type_symbol
_atom_site_label
_atom_site_fract_x
_atom_site_fract_y
_atom_site_fract_z
Si Si1 0.384664 0.933515 0.707497
Si Si2 0.467916 0.562123 0.378057
Si Si3 0.701286 0.438637 0.014079
Si Si4 0.064654 0.064280 0.552600
Si Si5 0.537789 0.440301 0.820916
Si Si6 0.799856 0.564348 0.210496
Si Si7 0.892483 0.438230 0.961682
Si Si8 0.059810 0.063590 0.866907
O O1 0.390103 0.750000 0.718794
O O2 0.399001 0.984590 0.611659
O O3 0.335639 0.983281 0.730145
O O4 0.415574 0.018539 0.778091
O O5 0.464547 0.750000 0.381819
O O6 0.437839 0.490190 0.453006
O O7 0.517776 0.521147 0.404087
O O8 0.458718 0.510381 0.279633
O O9 0.750000 0.487330 0.983710
O O10 0.701000 0.250000 0.017054
O O11 0.695625 0.501172 0.112138
O O12 0.658219 0.489614 0.961561
O O13 0.069088 0.250000 0.557295
O O14 0.537599 0.250000 0.820456
O O15 0.490685 0.488406 0.859352
O O16 0.577379 0.493396 0.882019
O O17 0.750000 0.533834 0.237963
O O18 0.807139 0.750000 0.209704
O O19 0.892537 0.250000 0.959826
O O20 0.915137 0.490182 0.051510
O O21 0.060570 0.250000 0.876051
#
# Coordination Sequence:
#
# PCOD9447742 Si02
#       8
#     8   8   8   8   8   8   8   8
#     4  12  22  32  49  72  98 130 164 197 238 294
#     4   9  17  32  49  68  94 125 160 201 246 287
#     4   9  17  29  45  67  95 124 157 198 239 280
#     4  10  19  32  50  71  95 122 157 201 243 290
#     4   9  18  32  48  66  94 129 166 205 243 285
#     4  10  20  33  50  71  96 126 159 197 242 289
#     4  10  19  31  47  68  93 129 167 198 239 290
#     4  11  20  32  46  65  96 131 165 203 240 280
#
# _framework density 15.866434999999999
#
# number of rings (size 3 to 8) (size 9 to 14) (size 15 to 20)
#    0.000    2.000    2.500    2.625    0.000    1.250 
#    0.000    1.250    0.000    0.000    0.000    0.875 
#    0.000    3.000    0.000    0.000    0.000    0.000 
#
# Total GULP energy -357034.554149 kJ/mol
# GULP energy per Si atom -5578.664909 kJ/mol
# Density = 1.583032 g / cm^3
# Si number density = 15.866435 Si / 1000 Ang^3
#
#
#
# Elastic Constant Matrix: (Units=GPa)
#
#
# Indices 1 2 3 4 5 6 
#
# 1 113.8951 19.5963 52.0158 0.0000 0.0000 0.0000
# 2 19.5963 9.3621 4.3852 0.0000 0.0000 0.0000
# 3 52.0158 4.3852 74.2786 0.0000 0.0000 0.0000
# 4 0.0000 0.0000 0.0000 18.0259 0.0000 0.0000
# 5 0.0000 0.0000 0.0000 0.0000 23.8364 0.0000
# 6 0.0000 0.0000 0.0000 0.0000 0.0000 16.5971
#
#
#
# Elastic Compliance Matrix: (Units=1/GPa)
#
#
# Indices 1 2 3 4 5 6 
#
# 1 0.021066 -0.038242 -0.012494 0.000000 0.000000 0.000000
# 2 -0.038242 0.179275 0.016196 0.000000 0.000000 0.000000
# 3 -0.012494 0.016196 0.021256 0.000000 0.000000 0.000000
# 4 0.000000 0.000000 0.000000 0.055476 0.000000 0.000000
# 5 0.000000 0.000000 0.000000 0.000000 0.041953 0.000000
# 6 0.000000 0.000000 0.000000 0.000000 0.000000 0.060252
#
#
# Mechanical properties :
#
#
# Convention : Reuss Voigt Hill
#
# Bulk Modulus (GPa) = 6.55666 38.83670 22.69668
# Shear Modulus (GPa) = 10.01611 19.79444 14.90528
#
# Velocity S-wave (km/s) = 2.51525 3.53592 3.06832
# Velocity P-wave (km/s) = 3.54636 6.41878 5.18543
#
# Compressibility (1/GPa) = 0.15251665
#
# Stress axis : x y z
#
# Youngs Moduli (GPa) = 47.47000 5.57803 47.04509
#
# Poissons Ratio (x) = 0.21332 0.58780
# Poissons Ratio (y) = 1.81535 -0.76196
# Poissons Ratio (z) = 0.59311 -0.09034
#
# Static dielectric constant tensor:
#      x y z
#    x 1.546410 0.000000 0.000000 
#    y 0.000000 1.532850 0.000000 
#    z 0.000000 0.000000 1.508000 
# 
# From -- ./inp_files/25003.got.cif
#   From: 2010.05.17/outbox.cif.g08.bks.cpg/sg59_13_cif.got.tgz:25003.got - 2010.06.03 14:40:33.
