data_PCOD9447212
_publ_section_title
;
Structure prediction by ZEFSAII (Michael W. Deem and Ramdas Pophale) SiO2 
 PCOD9447212
Probable space group: P M M N
;
_chemical_formula_sum "Si O2"
_cell_formula_units_Z 48
_cell_length_a 19.589863
_cell_length_b 8.309686
_cell_length_c 15.361852
_cell_angle_alpha 90.000000
_cell_angle_beta 90.000000
_cell_angle_gamma 90.000000
_cell_volume 2500.688453
_symmetry_space_group_name_H-M "P M M N"
_symmetry_group_IT_number 59
_space_group.IT_coordinate_system_code '2'
_symmetry_cell_setting 'orthorhombic'
loop_
_space_group_symop_operation_xyz
x,y,z
1/2-x,1/2-y,z
1/2+x,-y,-z
-x,1/2+y,-z
-x,-y,-z
1/2+x,1/2+y,-z
1/2-x,y,z
x,1/2-y,z
loop_
_atom_site_type_symbol
_atom_site_label
_atom_site_fract_x
_atom_site_fract_y
_atom_site_fract_z
Si Si1 0.076967 0.944589 0.627697
Si Si2 0.674242 0.053680 0.216751
Si Si3 0.449491 0.058714 0.125862
Si Si4 0.403622 0.944283 0.949129
Si Si5 0.070302 0.558369 0.320778
Si Si6 0.171668 0.553209 0.466214
O O1 0.074819 0.750000 0.627592
O O2 0.117277 0.998073 0.714472
O O3 0.122176 0.996440 0.545343
O O4 0.999740 0.004257 0.632680
O O5 0.750000 0.000110 0.241268
O O6 0.673930 0.250000 0.218914
O O7 0.654220 0.006147 0.119032
O O8 0.453212 0.250000 0.131305
O O9 0.524638 0.000896 0.094543
O O10 0.430875 0.996404 0.220862
O O11 0.400288 0.009131 0.046749
O O12 0.404776 0.750000 0.953594
O O13 0.071601 0.750000 0.321714
O O14 0.135010 0.500937 0.377053
O O15 0.250000 0.499186 0.475289
O O16 0.173169 0.750000 0.467831
#
# Coordination Sequence:
#
# PCOD9447212 Si02
#       6
#     8   8   8   8   8   8
#     4  10  18  33  56  81 106 136 176 220 266 316
#     4   9  16  28  50  79 107 135 171 215 262 314
#     4  10  19  33  53  76 101 135 176 217 259 309
#     4   9  17  31  50  76 104 132 169 215 263 310
#     4  11  21  33  53  81 109 139 176 222 268 311
#     4   9  19  35  55  79 106 139 181 224 263 307
#
# _framework density 19.194714000000001
#
# number of rings (size 3 to 8) (size 9 to 14) (size 15 to 20)
#    0.000    2.333    1.667    2.000    0.000    2.667 
#    0.000    1.667    0.000   12.500    0.000    0.000 
#    0.000    0.000    0.000    0.000    0.000    0.000 
#
# Total GULP energy -267776.484015 kJ/mol
# GULP energy per Si atom -5578.676750 kJ/mol
# Density = 1.915103 g / cm^3
# Si number density = 19.194714 Si / 1000 Ang^3
#
#
#
# Elastic Constant Matrix: (Units=GPa)
#
#
# Indices 1 2 3 4 5 6 
#
# 1 56.3926 8.1869 42.1754 0.0000 0.0000 0.0000
# 2 8.1869 12.5185 17.4990 0.0000 0.0000 0.0000
# 3 42.1754 17.4990 139.4933 0.0000 0.0000 0.0000
# 4 0.0000 0.0000 0.0000 21.6120 0.0000 0.0000
# 5 0.0000 0.0000 0.0000 0.0000 21.3065 0.0000
# 6 0.0000 0.0000 0.0000 0.0000 0.0000 17.9054
#
#
#
# Elastic Compliance Matrix: (Units=1/GPa)
#
#
# Indices 1 2 3 4 5 6 
#
# 1 0.023349 -0.006550 -0.006238 0.000000 0.000000 0.000000
# 2 -0.006550 0.098706 -0.010402 0.000000 0.000000 0.000000
# 3 -0.006238 -0.010402 0.010360 0.000000 0.000000 0.000000
# 4 0.000000 0.000000 0.000000 0.046271 0.000000 0.000000
# 5 0.000000 0.000000 0.000000 0.000000 0.046934 0.000000
# 6 0.000000 0.000000 0.000000 0.000000 0.000000 0.055849
#
#
# Mechanical properties :
#
#
# Convention : Reuss Voigt Hill
#
# Bulk Modulus (GPa) = 11.62323 38.23635 24.92979
# Shear Modulus (GPa) = 14.02421 21.53432 17.77926
#
# Velocity S-wave (km/s) = 2.70595 3.35309 3.04675
# Velocity P-wave (km/s) = 3.97887 5.91223 5.03914
#
# Compressibility (1/GPa) = 0.08603457
#
# Stress axis : x y z
#
# Youngs Moduli (GPa) = 42.82854 10.13110 96.52826
#
# Poissons Ratio (x) = 0.06636 0.60212
# Poissons Ratio (y) = 0.28054 1.00408
# Poissons Ratio (z) = 0.26715 0.10538
#
# Static dielectric constant tensor:
#      x y z
#    x 1.660730 0.000000 0.000000 
#    y 0.000000 1.676070 0.000000 
#    z 0.000000 0.000000 1.677890 
# 
# From -- ./inp_files/23660.got.cif
#   From: 2010.05.17/outbox.cif.g08.bks.cpg/sg59_12_cif.got.tgz:23660.got - 2010.06.03 14:40:33.
