data_PCOD9447313
_publ_section_title
;
Structure prediction by ZEFSAII (Michael W. Deem and Ramdas Pophale) SiO2 
 PCOD9447313
Probable space group: P M M N
;
_chemical_formula_sum "Si O2"
_cell_formula_units_Z 56
_cell_length_a 7.485847
_cell_length_b 20.766456
_cell_length_c 14.926690
_cell_angle_alpha 90.000000
_cell_angle_beta 90.000000
_cell_angle_gamma 90.000000
_cell_volume 2320.421315
_symmetry_space_group_name_H-M "P M M N"
_symmetry_group_IT_number 59
_space_group.IT_coordinate_system_code '2'
_symmetry_cell_setting 'orthorhombic'
loop_
_space_group_symop_operation_xyz
x,y,z
1/2-x,1/2-y,z
1/2+x,-y,-z
-x,1/2+y,-z
-x,-y,-z
1/2+x,1/2+y,-z
1/2-x,y,z
x,1/2-y,z
loop_
_atom_site_type_symbol
_atom_site_label
_atom_site_fract_x
_atom_site_fract_y
_atom_site_fract_z
Si Si1 0.462402 0.250000 0.588448
Si Si2 0.962061 0.430661 0.535738
Si Si3 0.536917 0.250000 0.374540
Si Si4 0.952887 0.585195 0.104403
Si Si5 0.956441 0.374187 0.705929
Si Si6 0.963250 0.050926 0.176167
Si Si7 0.034912 0.174880 0.055119
Si Si8 0.031037 0.885817 0.650856
O O1 0.250000 0.250000 0.594527
O O2 0.508557 0.250000 0.482829
O O3 0.532784 0.189501 0.645054
O O4 0.750000 0.418598 0.543933
O O5 0.038067 0.423465 0.634292
O O6 0.030636 0.389921 0.452158
O O7 0.000000 0.500000 0.500000
O O8 0.750000 0.250000 0.365586
O O9 0.472790 0.186072 0.325443
O O10 0.750000 0.573250 0.072736
O O11 0.031710 0.513311 0.124600
O O12 0.949568 0.621526 0.199650
O O13 0.032286 0.636016 0.033676
O O14 0.750000 0.387779 0.726887
O O15 0.750000 0.041041 0.181589
O O16 0.032139 0.061822 0.277664
O O17 0.992898 0.120359 0.129717
O O18 0.250000 0.179876 0.049752
O O19 0.970868 0.250000 0.064319
O O20 0.250000 0.889665 0.649175
#
# Coordination Sequence:
#
# PCOD9447313 Si02
#       8
#     4   8   4   8   8   8   8   8
#     4  12  24  38  58  85 120 163 208 257 308 364
#     4  10  20  35  55  80 115 155 194 239 291 349
#     4  10  18  36  58  77 112 157 200 245 300 366
#     4  10  22  41  64  90 123 161 202 253 315 377
#     4  11  23  39  61  89 121 160 206 254 304 361
#     4  10  21  38  64  94 120 155 205 256 307 371
#     4  10  23  42  62  87 123 163 199 247 313 375
#     4   9  18  33  56  82 113 151 189 239 300 354
#
# _framework density 24.133547
#
# number of rings (size 3 to 8) (size 9 to 14) (size 15 to 20)
#    0.000    1.857    1.429    2.357    2.000    3.714 
#    0.000    1.429    0.000    0.000    0.000    0.000 
#    0.000    0.000    0.000    0.000    0.000    0.000 
#
# Total GULP energy -312260.011458 kJ/mol
# GULP energy per Si atom -5576.071633 kJ/mol
# Density = 2.407862 g / cm^3
# Si number density = 24.133547 Si / 1000 Ang^3
#
#
#
# Elastic Constant Matrix: (Units=GPa)
#
#
# Indices 1 2 3 4 5 6 
#
# 1 83.1696 -9.7671 -15.8182 0.0000 0.0000 0.0000
# 2 -9.7671 132.5615 6.0569 0.0000 0.0000 0.0000
# 3 -15.8182 6.0569 79.9883 0.0000 0.0000 0.0000
# 4 0.0000 0.0000 0.0000 40.0886 0.0000 0.0000
# 5 0.0000 0.0000 0.0000 0.0000 9.0639 0.0000
# 6 0.0000 0.0000 0.0000 0.0000 0.0000 17.0619
#
#
#
# Elastic Compliance Matrix: (Units=1/GPa)
#
#
# Indices 1 2 3 4 5 6 
#
# 1 0.012581 0.000816 0.002426 0.000000 0.000000 0.000000
# 2 0.000816 0.007623 -0.000416 0.000000 0.000000 0.000000
# 3 0.002426 -0.000416 0.013013 0.000000 0.000000 0.000000
# 4 0.000000 0.000000 0.000000 0.024945 0.000000 0.000000
# 5 0.000000 0.000000 0.000000 0.000000 0.110328 0.000000
# 6 0.000000 0.000000 0.000000 0.000000 0.000000 0.058610
#
#
# Mechanical properties :
#
#
# Convention : Reuss Voigt Hill
#
# Bulk Modulus (GPa) = 25.72701 28.51806 27.12253
# Shear Modulus (GPa) = 21.33075 34.25940 27.79507
#
# Velocity S-wave (km/s) = 2.97621 3.77181 3.39738
# Velocity P-wave (km/s) = 4.74277 5.55078 5.16261
#
# Compressibility (1/GPa) = 0.03886966
#
# Stress axis : x y z
#
# Youngs Moduli (GPa) = 79.48559 131.18537 76.84565
#
# Poissons Ratio (x) = -0.10706 -0.18644
# Poissons Ratio (y) = -0.06487 0.03195
# Poissons Ratio (z) = -0.19284 0.05455
#
# Static dielectric constant tensor:
#      x y z
#    x 2.117390 0.000000 0.000000 
#    y 0.000000 1.958040 0.000000 
#    z 0.000000 0.000000 1.959960 
# 
# From -- ./inp_files/21115.got.cif
#   From: 2010.05.17/outbox.cif.g08.bks.cpg/sg59_11_cif.got.tgz:21115.got - 2010.06.03 14:40:33.
