data_PCOD9447378
_publ_section_title
;
Structure prediction by ZEFSAII (Michael W. Deem and Ramdas Pophale) SiO2 
 PCOD9447378
Probable space group: P M M N
;
_chemical_formula_sum "Si O2"
_cell_formula_units_Z 64
_cell_length_a 7.923031
_cell_length_b 14.552391
_cell_length_c 32.885393
_cell_angle_alpha 90.000000
_cell_angle_beta 90.000000
_cell_angle_gamma 90.000000
_cell_volume 3791.654408
_symmetry_space_group_name_H-M "P M M N"
_symmetry_group_IT_number 59
_space_group.IT_coordinate_system_code '2'
_symmetry_cell_setting 'orthorhombic'
loop_
_space_group_symop_operation_xyz
x,y,z
1/2-x,1/2-y,z
1/2+x,-y,-z
-x,1/2+y,-z
-x,-y,-z
1/2+x,1/2+y,-z
1/2-x,y,z
x,1/2-y,z
loop_
_atom_site_type_symbol
_atom_site_label
_atom_site_fract_x
_atom_site_fract_y
_atom_site_fract_z
Si Si1 0.453667 0.643524 0.974435
Si Si2 0.453740 0.355203 0.359892
Si Si3 0.954030 0.468619 0.104269
Si Si4 0.048274 0.353146 0.935640
Si Si5 0.944641 0.861658 0.728719
Si Si6 0.951140 0.032887 0.438782
Si Si7 0.453424 0.145109 0.183023
Si Si8 0.547307 0.145594 0.517278
O O1 0.250000 0.639806 0.975128
O O2 0.505602 0.750000 0.970594
O O3 0.513768 0.589040 0.935006
O O4 0.515932 0.611420 0.018519
O O5 0.250000 0.351272 0.356868
O O6 0.511882 0.250000 0.368300
O O7 0.519668 0.385540 0.315283
O O8 0.498304 0.423241 0.396093
O O9 0.750000 0.468709 0.102987
O O10 0.014707 0.572454 0.096582
O O11 0.004388 0.420713 0.145928
O O12 0.250000 0.346990 0.931031
O O13 0.977098 0.250000 0.932310
O O14 0.750000 0.894327 0.728535
O O15 0.940690 0.750000 0.729018
O O16 0.019732 0.886789 0.772613
O O17 0.750000 0.033619 0.441351
O O18 0.017507 0.098260 0.475491
O O19 0.008006 0.928887 0.447883
O O20 0.250000 0.149475 0.186494
O O21 0.513017 0.250000 0.175039
O O22 0.750000 0.151026 0.514209
O O23 0.483928 0.250000 0.522711
#
# Coordination Sequence:
#
# PCOD9447378 Si02
#       8
#     8   8   8   8   8   8   8   8
#     4   9  17  28  41  58  81 107 133 164 204 246
#     4   9  16  27  45  66  88 117 149 177 210 257
#     4  10  19  29  42  61  85 111 136 166 207 250
#     4   9  18  31  44  58  78 106 141 176 204 234
#     4   7  12  25  43  62  85 112 140 170 205 246
#     4  10  19  29  43  66  93 117 146 187 228 262
#     4   9  17  29  45  65  88 112 138 168 202 245
#     4   9  18  32  46  60  85 122 158 188 219 258
#
# _framework density 16.879176000000001
#
# number of rings (size 3 to 8) (size 9 to 14) (size 15 to 20)
#    0.000    3.000    0.000    3.000    0.000    3.250 
#    0.000    1.875    0.000    2.250    0.000    0.875 
#    0.000    5.000    0.000    0.000    0.000    0.000 
#
# Total GULP energy -356461.889531 kJ/mol
# GULP energy per Si atom -5569.717024 kJ/mol
# Density = 1.684076 g / cm^3
# Si number density = 16.879176 Si / 1000 Ang^3
#
#
#
# Elastic Constant Matrix: (Units=GPa)
#
#
# Indices 1 2 3 4 5 6 
#
# 1 14.7462 10.4248 3.1792 0.0000 0.0000 0.0000
# 2 10.4248 108.9999 85.1586 0.0000 0.0000 0.0000
# 3 3.1792 85.1586 148.2815 0.0000 0.0000 0.0000
# 4 0.0000 0.0000 0.0000 25.2420 0.0000 0.0000
# 5 0.0000 0.0000 0.0000 0.0000 16.4844 0.0000
# 6 0.0000 0.0000 0.0000 0.0000 0.0000 12.8594
#
#
#
# Elastic Compliance Matrix: (Units=1/GPa)
#
#
# Indices 1 2 3 4 5 6 
#
# 1 0.074363 -0.010641 0.004517 0.000000 0.000000 0.000000
# 2 -0.010641 0.018164 -0.010203 0.000000 0.000000 0.000000
# 3 0.004517 -0.010203 0.012507 0.000000 0.000000 0.000000
# 4 0.000000 0.000000 0.000000 0.039616 0.000000 0.000000
# 5 0.000000 0.000000 0.000000 0.000000 0.060663 0.000000
# 6 0.000000 0.000000 0.000000 0.000000 0.000000 0.077764
#
#
# Mechanical properties :
#
#
# Convention : Reuss Voigt Hill
#
# Bulk Modulus (GPa) = 13.81626 52.17255 32.99440
# Shear Modulus (GPa) = 14.71200 22.46815 18.59008
#
# Velocity S-wave (km/s) = 2.95550 3.65241 3.32228
# Velocity P-wave (km/s) = 4.45531 6.98307 5.85718
#
# Compressibility (1/GPa) = 0.07237851
#
# Stress axis : x y z
#
# Youngs Moduli (GPa) = 13.44755 55.05531 79.95615
#
# Poissons Ratio (x) = 0.58584 -0.36114
# Poissons Ratio (y) = 0.14309 0.81581
# Poissons Ratio (z) = -0.06074 0.56174
#
# Static dielectric constant tensor:
#      x y z
#    x 1.606740 0.000000 0.000000 
#    y 0.000000 1.578110 0.000000 
#    z 0.000000 0.000000 1.589840 
# 
# From -- ./inp_files/33222.got.cif
#   From: 2010.05.17/outbox.cif.g08.bks.cpg/sg59_17_cif.got.tgz:33222.got - 2010.06.03 14:40:33.
