data_PCOD9447829
_publ_section_title
;
Structure prediction by ZEFSAII (Michael W. Deem and Ramdas Pophale) SiO2 
 PCOD9447829
Probable space group: P M M N
;
_chemical_formula_sum "Si O2"
_cell_formula_units_Z 64
_cell_length_a 8.885442
_cell_length_b 21.095063
_cell_length_c 20.282324
_cell_angle_alpha 90.000000
_cell_angle_beta 90.000000
_cell_angle_gamma 90.000000
_cell_volume 3801.697692
_symmetry_space_group_name_H-M "P M M N"
_symmetry_group_IT_number 59
_space_group.IT_coordinate_system_code '2'
_symmetry_cell_setting 'orthorhombic'
loop_
_space_group_symop_operation_xyz
x,y,z
1/2-x,1/2-y,z
1/2+x,-y,-z
-x,1/2+y,-z
-x,-y,-z
1/2+x,1/2+y,-z
1/2-x,y,z
x,1/2-y,z
loop_
_atom_site_type_symbol
_atom_site_label
_atom_site_fract_x
_atom_site_fract_y
_atom_site_fract_z
Si Si1 0.070413 0.132419 0.180064
Si Si2 0.569727 0.017050 0.817936
Si Si3 0.067711 0.940867 0.039533
Si Si4 0.930047 0.517161 0.319128
Si Si5 0.568654 0.178219 0.461737
Si Si6 0.069656 0.867959 0.682319
Si Si7 0.931079 0.939689 0.462060
Si Si8 0.068785 0.679520 0.954164
O O1 0.250000 0.137931 0.178331
O O2 0.029511 0.057508 0.174091
O O3 0.008613 0.154611 0.250761
O O4 0.999109 0.167163 0.117853
O O5 0.750000 0.020321 0.813113
O O6 0.521684 0.053230 0.884028
O O7 0.500632 0.039816 0.749280
O O8 0.250000 0.945152 0.037365
O O9 0.020682 0.876171 0.003652
O O10 0.000000 0.000000 0.000000
O O11 0.750000 0.520327 0.313780
O O12 0.969440 0.442490 0.327187
O O13 0.975724 0.553609 0.385238
O O14 0.750000 0.170247 0.466057
O O15 0.530740 0.250000 0.481398
O O16 0.528212 0.167520 0.384822
O O17 0.490733 0.124364 0.504981
O O18 0.250000 0.863366 0.690781
O O19 0.750000 0.942927 0.466062
O O20 0.000000 0.000000 0.500000
O O21 0.250000 0.676391 0.949070
O O22 0.027200 0.750000 0.977037
#
# Coordination Sequence:
#
# PCOD9447829 Si02
#       8
#     8   8   8   8   8   8   8   8
#     4  10  19  31  48  74 105 135 171 213 254 298
#     4   9  18  31  49  76 104 129 164 211 260 300
#     4  10  19  33  53  76 101 130 168 211 254 299
#     4   9  18  32  51  76 104 135 171 209 255 309
#     4  10  21  37  55  77 107 142 179 219 264 314
#     4   9  17  32  50  72 105 142 178 211 250 306
#     4  11  21  35  56  81 108 138 178 221 265 313
#     4  10  21  35  51  72 100 137 174 206 250 307
#
# _framework density 16.834585000000001
#
# number of rings (size 3 to 8) (size 9 to 14) (size 15 to 20)
#    0.000    2.250    2.500    0.750    0.000    3.500 
#    0.000    1.250    0.000    0.750    0.000    1.750 
#    0.000    0.000    0.000    0.000    0.000    0.000 
#
# Total GULP energy -357047.419934 kJ/mol
# GULP energy per Si atom -5578.865936 kJ/mol
# Density = 1.679627 g / cm^3
# Si number density = 16.834585 Si / 1000 Ang^3
#
#
#
# Elastic Constant Matrix: (Units=GPa)
#
#
# Indices 1 2 3 4 5 6 
#
# 1 15.3829 34.6685 34.4638 0.0000 0.0000 0.0000
# 2 34.6685 110.7698 74.5740 0.0000 0.0000 0.0000
# 3 34.4638 74.5740 144.3040 0.0000 0.0000 0.0000
# 4 0.0000 0.0000 0.0000 21.6682 0.0000 0.0000
# 5 0.0000 0.0000 0.0000 0.0000 28.6860 0.0000
# 6 0.0000 0.0000 0.0000 0.0000 0.0000 18.9041
#
#
#
# Elastic Compliance Matrix: (Units=1/GPa)
#
#
# Indices 1 2 3 4 5 6 
#
# 1 0.310803 -0.072539 -0.036742 0.000000 0.000000 0.000000
# 2 -0.072539 0.030774 0.001421 0.000000 0.000000 0.000000
# 3 -0.036742 0.001421 0.014971 0.000000 0.000000 0.000000
# 4 0.000000 0.000000 0.000000 0.046151 0.000000 0.000000
# 5 0.000000 0.000000 0.000000 0.000000 0.034860 0.000000
# 6 0.000000 0.000000 0.000000 0.000000 0.000000 0.052898
#
#
# Mechanical properties :
#
#
# Convention : Reuss Voigt Hill
#
# Bulk Modulus (GPa) = 7.10083 61.98547 34.54315
# Shear Modulus (GPa) = 6.63905 22.30171 14.47038
#
# Velocity S-wave (km/s) = 1.98803 3.64367 2.93501
# Velocity P-wave (km/s) = 3.08169 7.38932 5.66122
#
# Compressibility (1/GPa) = 0.14082869
#
# Stress axis : x y z
#
# Youngs Moduli (GPa) = 3.21747 32.49455 66.79769
#
# Poissons Ratio (x) = 2.35712 2.45425
# Poissons Ratio (y) = 0.23339 -0.09489
# Poissons Ratio (z) = 0.11821 -0.04616
#
# Static dielectric constant tensor:
#      x y z
#    x 1.566460 0.000000 0.000000 
#    y 0.000000 1.565440 0.000000 
#    z 0.000000 0.000000 1.562420 
# 
# From -- ./inp_files/26366.got.cif
#   From: 2010.05.17/outbox.cif.g08.bks.cpg/sg59_14_cif.got.tgz:26366.got - 2010.06.03 14:40:33.
