data_PCOD9447054
_publ_section_title
;
Structure prediction by ZEFSAII (Michael W. Deem and Ramdas Pophale) SiO2 
 PCOD9447054
Probable space group: P M M N
;
_chemical_formula_sum "Si O2"
_cell_formula_units_Z 64
_cell_length_a 8.918975
_cell_length_b 23.908193
_cell_length_c 19.670453
_cell_angle_alpha 90.000000
_cell_angle_beta 90.000000
_cell_angle_gamma 90.000000
_cell_volume 4194.460039
_symmetry_space_group_name_H-M "P M M N"
_symmetry_group_IT_number 59
_space_group.IT_coordinate_system_code '2'
_symmetry_cell_setting 'orthorhombic'
loop_
_space_group_symop_operation_xyz
x,y,z
1/2-x,1/2-y,z
1/2+x,-y,-z
-x,1/2+y,-z
-x,-y,-z
1/2+x,1/2+y,-z
1/2-x,y,z
x,1/2-y,z
loop_
_atom_site_type_symbol
_atom_site_label
_atom_site_fract_x
_atom_site_fract_y
_atom_site_fract_z
Si Si1 0.570282 0.024523 0.100930
Si Si2 0.431288 0.007897 0.750057
Si Si3 0.569331 0.314479 0.894902
Si Si4 0.930864 0.685486 0.384178
Si Si5 0.070109 0.413611 0.518776
Si Si6 0.929828 0.025466 0.397975
Si Si7 0.070028 0.631622 0.250173
Si Si8 0.571224 0.911480 0.019049
O O1 0.750000 0.031105 0.095217
O O2 0.528503 0.023201 0.180079
O O3 0.531813 0.963652 0.069002
O O4 0.491182 0.070431 0.054252
O O5 0.250000 0.014797 0.749295
O O6 0.503536 0.069245 0.750127
O O7 0.474873 0.976349 0.680798
O O8 0.750000 0.316948 0.899865
O O9 0.522793 0.250000 0.902397
O O10 0.528154 0.337483 0.820063
O O11 0.499341 0.355697 0.950305
O O12 0.750000 0.680890 0.377078
O O13 0.968362 0.750000 0.397376
O O14 0.976595 0.643557 0.444686
O O15 0.004915 0.664424 0.314652
O O16 0.250000 0.413704 0.512799
O O17 0.028449 0.465456 0.568464
O O18 0.000630 0.427555 0.445858
O O19 0.750000 0.030004 0.401310
O O20 0.250000 0.629444 0.254323
O O21 0.750000 0.906987 0.017291
#
# Coordination Sequence:
#
# PCOD9447054 Si02
#       8
#     8   8   8   8   8   8   8   8
#     4   9  18  31  49  69  95 125 154 193 242 287
#     4  10  18  32  50  70  96 128 162 192 231 284
#     4  10  21  35  48  65  95 132 165 196 233 277
#     4  10  20  34  50  66  90 128 166 196 229 275
#     4   9  17  30  46  66  92 120 154 195 235 277
#     4   9  17  29  47  67  92 121 153 193 234 276
#     4  11  21  31  46  69  99 129 161 198 234 271
#     4  10  19  31  49  71  94 122 159 199 237 279
#
# _framework density 15.258222
#
# number of rings (size 3 to 8) (size 9 to 14) (size 15 to 20)
#    0.000    2.250    2.500    1.125    0.000    3.500 
#    0.000    0.000    0.000    0.000    0.000    0.875 
#    0.000    5.000    0.000    0.000    0.000    0.000 
#
# Total GULP energy -356943.697662 kJ/mol
# GULP energy per Si atom -5577.245276 kJ/mol
# Density = 1.522349 g / cm^3
# Si number density = 15.258222 Si / 1000 Ang^3
#
#
#
# Elastic Constant Matrix: (Units=GPa)
#
#
# Indices 1 2 3 4 5 6 
#
# 1 14.4603 33.2029 38.5451 0.0000 0.0000 0.0000
# 2 33.2029 108.1975 83.1641 0.0000 0.0000 0.0000
# 3 38.5451 83.1641 152.0479 0.0000 0.0000 0.0000
# 4 0.0000 0.0000 0.0000 18.1199 0.0000 0.0000
# 5 0.0000 0.0000 0.0000 0.0000 23.0245 0.0000
# 6 0.0000 0.0000 0.0000 0.0000 0.0000 19.2967
#
#
#
# Elastic Compliance Matrix: (Units=1/GPa)
#
#
# Indices 1 2 3 4 5 6 
#
# 1 0.426190 -0.082372 -0.062988 0.000000 0.000000 0.000000
# 2 -0.082372 0.031867 0.003452 0.000000 0.000000 0.000000
# 3 -0.062988 0.003452 0.020657 0.000000 0.000000 0.000000
# 4 0.000000 0.000000 0.000000 0.055188 0.000000 0.000000
# 5 0.000000 0.000000 0.000000 0.000000 0.043432 0.000000
# 6 0.000000 0.000000 0.000000 0.000000 0.000000 0.051822
#
#
# Mechanical properties :
#
#
# Convention : Reuss Voigt Hill
#
# Bulk Modulus (GPa) = 5.13088 64.94775 35.03931
# Shear Modulus (GPa) = 5.11280 20.07447 12.59364
#
# Velocity S-wave (km/s) = 1.83252 3.63112 2.87604
# Velocity P-wave (km/s) = 2.80134 7.76133 5.83463
#
# Compressibility (1/GPa) = 0.19489834
#
# Stress axis : x y z
#
# Youngs Moduli (GPa) = 2.34637 31.38069 48.41062
#
# Poissons Ratio (x) = 2.58488 3.04928
# Poissons Ratio (y) = 0.19327 -0.16711
# Poissons Ratio (z) = 0.14779 -0.10832
#
# Static dielectric constant tensor:
#      x y z
#    x 1.510110 0.000000 0.000000 
#    y 0.000000 1.483630 0.000000 
#    z 0.000000 0.000000 1.505560 
# 
# From -- ./inp_files/26484.got.cif
#   From: 2010.05.17/outbox.cif.g08.bks.cpg/sg59_14_cif.got.tgz:26484.got - 2010.06.03 14:40:33.
