data_PCOD9447469
_publ_section_title
;
Structure prediction by ZEFSAII (Michael W. Deem and Ramdas Pophale) SiO2 
 PCOD9447469
Probable space group: P M M N
;
_chemical_formula_sum "Si O2"
_cell_formula_units_Z 64
_cell_length_a 8.851287
_cell_length_b 24.455119
_cell_length_c 16.867548
_cell_angle_alpha 90.000000
_cell_angle_beta 90.000000
_cell_angle_gamma 90.000000
_cell_volume 3651.137243
_symmetry_space_group_name_H-M "P M M N"
_symmetry_group_IT_number 59
_space_group.IT_coordinate_system_code '2'
_symmetry_cell_setting 'orthorhombic'
loop_
_space_group_symop_operation_xyz
x,y,z
1/2-x,1/2-y,z
1/2+x,-y,-z
-x,1/2+y,-z
-x,-y,-z
1/2+x,1/2+y,-z
1/2-x,y,z
x,1/2-y,z
loop_
_atom_site_type_symbol
_atom_site_label
_atom_site_fract_x
_atom_site_fract_y
_atom_site_fract_z
Si Si1 0.922714 0.816207 0.094932
Si Si2 0.068549 0.910452 0.538999
Si Si3 0.569474 0.620612 0.786053
Si Si4 0.068672 0.522564 0.694949
Si Si5 0.431425 0.312563 0.372659
Si Si6 0.929823 0.314144 0.069377
Si Si7 0.432862 0.313867 0.726814
Si Si8 0.068759 0.585185 0.359597
O O1 0.750000 0.835262 0.083632
O O2 0.918463 0.750000 0.096709
O O3 0.975546 0.831271 0.183120
O O4 0.021907 0.831258 0.019344
O O5 0.250000 0.909346 0.539979
O O6 0.019721 0.925778 0.450664
O O7 0.006191 0.851123 0.562235
O O8 0.019883 0.950337 0.610419
O O9 0.750000 0.614816 0.789461
O O10 0.495021 0.562975 0.762095
O O11 0.531856 0.661601 0.713103
O O12 0.508130 0.647904 0.865676
O O13 0.250000 0.521397 0.698235
O O14 0.002229 0.461933 0.694935
O O15 0.250000 0.314601 0.381350
O O16 0.480856 0.250000 0.377352
O O17 0.750000 0.317033 0.077876
O O18 0.975378 0.250000 0.080282
O O19 0.250000 0.317157 0.721785
O O20 0.473780 0.250000 0.714647
O O21 0.509288 0.355728 0.667037
O O22 0.250000 0.583224 0.355620
#
# Coordination Sequence:
#
# PCOD9447469 Si02
#       8
#     8   8   8   8   8   8   8   8
#     4   8  15  30  51  73  99 132 168 205 245 290
#     4   9  20  35  50  71  98 130 168 211 255 297
#     4  10  19  32  50  72 101 135 171 210 251 296
#     4  10  20  36  55  73  97 130 170 213 255 297
#     4   9  18  31  47  69  98 133 170 206 247 296
#     4  10  19  29  46  76 109 138 170 206 245 293
#     4   9  19  36  56  78 104 134 168 205 248 298
#     4  11  22  35  53  77 102 129 165 207 253 304
#
# _framework density 17.528784000000002
#
# number of rings (size 3 to 8) (size 9 to 14) (size 15 to 20)
#    0.000    2.500    0.000    3.000    0.000    4.750 
#    0.000    3.750    0.000    0.750    0.000    0.000 
#    0.000    0.000    0.000    0.000    0.000    0.000 
#
# Total GULP energy -356927.745227 kJ/mol
# GULP energy per Si atom -5576.996019 kJ/mol
# Density = 1.748889 g / cm^3
# Si number density = 17.528784 Si / 1000 Ang^3
#
#
#
# Elastic Constant Matrix: (Units=GPa)
#
#
# Indices 1 2 3 4 5 6 
#
# 1 28.8165 18.7903 18.6255 0.0000 0.0000 0.0000
# 2 18.7903 74.5232 10.5409 0.0000 0.0000 0.0000
# 3 18.6255 10.5409 53.3313 0.0000 0.0000 0.0000
# 4 0.0000 0.0000 0.0000 15.6109 0.0000 0.0000
# 5 0.0000 0.0000 0.0000 0.0000 26.6123 0.0000
# 6 0.0000 0.0000 0.0000 0.0000 0.0000 27.2360
#
#
#
# Elastic Compliance Matrix: (Units=1/GPa)
#
#
# Indices 1 2 3 4 5 6 
#
# 1 0.052191 -0.010886 -0.016076 0.000000 0.000000 0.000000
# 2 -0.010886 0.016075 0.000625 0.000000 0.000000 0.000000
# 3 -0.016076 0.000625 0.024242 0.000000 0.000000 0.000000
# 4 0.000000 0.000000 0.000000 0.064058 0.000000 0.000000
# 5 0.000000 0.000000 0.000000 0.000000 0.037577 0.000000
# 6 0.000000 0.000000 0.000000 0.000000 0.000000 0.036716
#
#
# Mechanical properties :
#
#
# Convention : Reuss Voigt Hill
#
# Bulk Modulus (GPa) = 25.10424 28.06491 26.58458
# Shear Modulus (GPa) = 16.84580 21.13945 18.99263
#
# Velocity S-wave (km/s) = 3.10342 3.47650 3.29524
# Velocity P-wave (km/s) = 5.21483 5.67100 5.44769
#
# Compressibility (1/GPa) = 0.03983391
#
# Stress axis : x y z
#
# Youngs Moduli (GPa) = 19.16041 62.20836 41.25140
#
# Poissons Ratio (x) = 0.67718 0.66315
# Poissons Ratio (y) = 0.20857 -0.02576
# Poissons Ratio (z) = 0.30802 -0.03885
#
# Static dielectric constant tensor:
#      x y z
#    x 1.586740 0.000000 0.000000 
#    y 0.000000 1.581390 0.000000 
#    z 0.000000 0.000000 1.601370 
# 
# From -- ./inp_files/26333.got.cif
#   From: 2010.05.17/outbox.cif.g08.bks.cpg/sg59_14_cif.got.tgz:26333.got - 2010.06.03 14:40:33.
