data_PCOD9447626
_publ_section_title
;
Structure prediction by ZEFSAII (Michael W. Deem and Ramdas Pophale) SiO2 
 PCOD9447626
Probable space group: P M M N
;
_chemical_formula_sum "Si O2"
_cell_formula_units_Z 56
_cell_length_a 19.399638
_cell_length_b 10.479210
_cell_length_c 15.482695
_cell_angle_alpha 90.000000
_cell_angle_beta 90.000000
_cell_angle_gamma 90.000000
_cell_volume 3147.521665
_symmetry_space_group_name_H-M "P M M N"
_symmetry_group_IT_number 59
_space_group.IT_coordinate_system_code '2'
_symmetry_cell_setting 'orthorhombic'
loop_
_space_group_symop_operation_xyz
x,y,z
1/2-x,1/2-y,z
1/2+x,-y,-z
-x,1/2+y,-z
-x,-y,-z
1/2+x,1/2+y,-z
1/2-x,y,z
x,1/2-y,z
loop_
_atom_site_type_symbol
_atom_site_label
_atom_site_fract_x
_atom_site_fract_y
_atom_site_fract_z
Si Si1 0.030845 0.902477 0.430639
Si Si2 0.328977 0.987482 0.027727
Si Si3 0.168916 0.897129 0.341286
Si Si4 0.167537 0.386611 0.205501
Si Si5 0.173182 0.096041 0.834891
Si Si6 0.967339 0.596403 0.245898
Si Si7 0.029511 0.892613 0.063247
O O1 0.016896 0.750000 0.446905
O O2 0.113585 0.915332 0.417525
O O3 0.997821 0.940486 0.337895
O O4 0.000000 0.000000 0.500000
O O5 0.250000 0.941832 0.037824
O O6 0.336070 0.045806 0.932456
O O7 0.389261 0.888315 0.044906
O O8 0.342371 0.089176 0.104020
O O9 0.250000 0.914876 0.363803
O O10 0.160847 0.750000 0.311336
O O11 0.148748 0.994387 0.265325
O O12 0.250000 0.379286 0.216567
O O13 0.136788 0.250000 0.231532
O O14 0.250000 0.057956 0.805571
O O15 0.171215 0.250000 0.837998
O O16 0.110185 0.051138 0.775500
O O17 0.965596 0.750000 0.249089
O O18 0.012310 0.566055 0.161082
O O19 0.999731 0.750000 0.050030
O O20 0.000000 0.000000 0.000000
#
# Coordination Sequence:
#
# PCOD9447626 Si02
#       7
#     8   8   8   8   8   8   8
#     4  10  21  38  59  82 108 139 179 228 282 337
#     4  10  19  30  47  73 108 148 186 223 269 320
#     4   9  18  34  55  77 105 144 184 221 272 340
#     4   9  17  28  46  76 110 141 179 228 272 311
#     4   9  16  28  49  74 102 142 187 223 258 308
#     4   9  18  34  54  75 105 142 180 223 268 321
#     4  11  22  36  54  78 109 145 185 226 269 320
#
# _framework density 17.791777
#
# number of rings (size 3 to 8) (size 9 to 14) (size 15 to 20)
#    0.000    2.429    1.429    1.286    0.000    4.857 
#    0.000    2.857    0.000    0.857    0.000    0.000 
#    0.000    0.000    0.000    0.000    0.000    0.000 
#
# Total GULP energy -311837.015112 kJ/mol
# GULP energy per Si atom -5568.518127 kJ/mol
# Density = 1.775128 g / cm^3
# Si number density = 17.791777 Si / 1000 Ang^3
#
#
#
# Elastic Constant Matrix: (Units=GPa)
#
#
# Indices 1 2 3 4 5 6 
#
# 1 121.0853 37.9187 55.5238 0.0000 0.0000 0.0000
# 2 37.9187 82.6594 52.4297 0.0000 0.0000 0.0000
# 3 55.5238 52.4297 106.8594 0.0000 0.0000 0.0000
# 4 0.0000 0.0000 0.0000 20.7328 0.0000 0.0000
# 5 0.0000 0.0000 0.0000 0.0000 25.7708 0.0000
# 6 0.0000 0.0000 0.0000 0.0000 0.0000 18.1484
#
#
#
# Elastic Compliance Matrix: (Units=1/GPa)
#
#
# Indices 1 2 3 4 5 6 
#
# 1 0.011082 -0.002078 -0.004739 0.000000 0.000000 0.000000
# 2 -0.002078 0.017954 -0.007729 0.000000 0.000000 0.000000
# 3 -0.004739 -0.007729 0.015612 0.000000 0.000000 0.000000
# 4 0.000000 0.000000 0.000000 0.048233 0.000000 0.000000
# 5 0.000000 0.000000 0.000000 0.000000 0.038804 0.000000
# 6 0.000000 0.000000 0.000000 0.000000 0.000000 0.055101
#
#
# Mechanical properties :
#
#
# Convention : Reuss Voigt Hill
#
# Bulk Modulus (GPa) = 64.28100 66.92759 65.60430
# Shear Modulus (GPa) = 22.61796 23.91253 23.26524
#
# Velocity S-wave (km/s) = 3.56934 3.67007 3.62005
# Velocity P-wave (km/s) = 7.29349 7.46043 7.37743
#
# Compressibility (1/GPa) = 0.01555670
#
# Stress axis : x y z
#
# Youngs Moduli (GPa) = 90.23328 55.69939 64.05131
#
# Poissons Ratio (x) = 0.11575 0.30352
# Poissons Ratio (y) = 0.18752 0.49505
# Poissons Ratio (z) = 0.42759 0.43050
#
# Static dielectric constant tensor:
#      x y z
#    x 1.675760 0.000000 0.000000 
#    y 0.000000 1.623740 0.000000 
#    z 0.000000 0.000000 1.577030 
# 
# From -- ./inp_files/18301.got.cif
#   From: 2010.05.17/outbox.cif.g08.bks.cpg/sg59_10_cif.got.tgz:18301.got - 2010.06.03 14:40:33.
