data_PCOD9447330
_publ_section_title
;
Structure prediction by ZEFSAII (Michael W. Deem and Ramdas Pophale) SiO2 
 PCOD9447330
Probable space group: P M M N
;
_chemical_formula_sum "Si O2"
_cell_formula_units_Z 64
_cell_length_a 7.436286
_cell_length_b 18.284872
_cell_length_c 24.024531
_cell_angle_alpha 90.000000
_cell_angle_beta 90.000000
_cell_angle_gamma 90.000000
_cell_volume 3266.652422
_symmetry_space_group_name_H-M "P M M N"
_symmetry_group_IT_number 59
_space_group.IT_coordinate_system_code '2'
_symmetry_cell_setting 'orthorhombic'
loop_
_space_group_symop_operation_xyz
x,y,z
1/2-x,1/2-y,z
1/2+x,-y,-z
-x,1/2+y,-z
-x,-y,-z
1/2+x,1/2+y,-z
1/2-x,y,z
x,1/2-y,z
loop_
_atom_site_type_symbol
_atom_site_label
_atom_site_fract_x
_atom_site_fract_y
_atom_site_fract_z
Si Si1 0.030823 0.522705 0.758184
Si Si2 0.465996 0.901145 0.929938
Si Si3 0.969124 0.170400 0.182767
Si Si4 0.541136 0.167376 0.430348
Si Si5 0.462297 0.331345 0.952113
Si Si6 0.469923 0.049365 0.870372
Si Si7 0.462443 0.075105 0.533274
Si Si8 0.029259 0.519397 0.631587
O O1 0.250000 0.521862 0.757726
O O2 0.974220 0.602971 0.779284
O O3 0.974083 0.467388 0.807164
O O4 0.972719 0.510699 0.695229
O O5 0.250000 0.901909 0.929667
O O6 0.523697 0.846123 0.880826
O O7 0.520605 0.876236 0.990746
O O8 0.525441 0.980929 0.909230
O O9 0.750000 0.170041 0.183394
O O10 0.029964 0.250000 0.201090
O O11 0.750000 0.172195 0.414192
O O12 0.465670 0.250000 0.423944
O O13 0.534869 0.140104 0.494700
O O14 0.468168 0.097706 0.394857
O O15 0.250000 0.324555 0.942198
O O16 0.538138 0.250000 0.958538
O O17 0.534753 0.377750 0.900386
O O18 0.250000 0.049181 0.870127
O O19 0.250000 0.087538 0.536416
O O20 0.500000 0.000000 0.500000
O O21 0.528219 0.050067 0.594081
O O22 0.250000 0.520764 0.629181
#
# Coordination Sequence:
#
# PCOD9447330 Si02
#       8
#     8   8   8   8   8   8   8   8
#     4   8  13  22  37  56  79 107 134 162 202 243
#     4   9  16  27  43  60  78 102 133 167 201 242
#     4   8  13  20  32  54  81 103 125 157 197 242
#     4   9  17  28  42  64  93 117 138 171 214 256
#     4  10  19  28  39  58  82 105 131 166 208 251
#     4   8  15  27  41  58  81 107 134 167 206 247
#     4   9  16  27  43  63  88 116 145 175 207 245
#     4   8  14  24  39  60  83 108 139 173 205 238
#
# _framework density 19.591922
#
# number of rings (size 3 to 8) (size 9 to 14) (size 15 to 20)
#    0.000    3.375    0.000    3.375    0.000    1.500 
#    0.000    2.500    0.000    0.750    0.000   25.375 
#    0.000    0.000    0.000    0.000    0.000    0.000 
#
# Total GULP energy -356478.616500 kJ/mol
# GULP energy per Si atom -5569.978383 kJ/mol
# Density = 1.954733 g / cm^3
# Si number density = 19.591922 Si / 1000 Ang^3
#
#
#
# Elastic Constant Matrix: (Units=GPa)
#
#
# Indices 1 2 3 4 5 6 
#
# 1 58.0008 2.5484 -2.5659 0.0000 0.0000 0.0000
# 2 2.5484 55.2987 52.0795 0.0000 0.0000 0.0000
# 3 -2.5659 52.0795 156.8408 0.0000 0.0000 0.0000
# 4 0.0000 0.0000 0.0000 10.0569 0.0000 0.0000
# 5 0.0000 0.0000 0.0000 0.0000 0.3157 0.0000
# 6 0.0000 0.0000 0.0000 0.0000 0.0000 3.4133
#
#
#
# Elastic Compliance Matrix: (Units=1/GPa)
#
#
# Indices 1 2 3 4 5 6 
#
# 1 0.017345 -0.001552 0.000799 0.000000 0.000000 0.000000
# 2 -0.001552 0.026451 -0.008808 0.000000 0.000000 0.000000
# 3 0.000799 -0.008808 0.009314 0.000000 0.000000 0.000000
# 4 0.000000 0.000000 0.000000 0.099434 0.000000 0.000000
# 5 0.000000 0.000000 0.000000 0.000000 3.167287 0.000000
# 6 0.000000 0.000000 0.000000 0.000000 0.000000 0.292969
#
#
# Mechanical properties :
#
#
# Convention : Reuss Voigt Hill
#
# Bulk Modulus (GPa) = 29.42317 41.58493 35.50405
# Shear Modulus (GPa) = 1.37240 17.29574 9.33407
#
# Velocity S-wave (km/s) = 0.83786 2.97442 2.18508
# Velocity P-wave (km/s) = 3.99833 5.75046 4.95250
#
# Compressibility (1/GPa) = 0.03398682
#
# Stress axis : x y z
#
# Youngs Moduli (GPa) = 57.65461 37.80598 107.36699
#
# Poissons Ratio (x) = 0.05867 -0.08579
# Poissons Ratio (y) = 0.08947 0.94574
# Poissons Ratio (z) = -0.04607 0.33301
#
# Static dielectric constant tensor:
#      x y z
#    x 1.781620 0.000000 0.000000 
#    y 0.000000 1.692130 0.000000 
#    z 0.000000 0.000000 1.687800 
# 
# From -- ./inp_files/30168.got.cif
#   From: 2010.05.17/outbox.cif.g08.bks.cpg/sg59_16_cif.got.tgz:30168.got - 2010.06.03 14:40:33.
