data_PCOD9447033
_publ_section_title
;
Structure prediction by ZEFSAII (Michael W. Deem and Ramdas Pophale) SiO2 
 PCOD9447033
Probable space group: P M M N
;
_chemical_formula_sum "Si O2"
_cell_formula_units_Z 48
_cell_length_a 8.068710
_cell_length_b 18.099247
_cell_length_c 15.088315
_cell_angle_alpha 90.000000
_cell_angle_beta 90.000000
_cell_angle_gamma 90.000000
_cell_volume 2203.460937
_symmetry_space_group_name_H-M "P M M N"
_symmetry_group_IT_number 59
_space_group.IT_coordinate_system_code '2'
_symmetry_cell_setting 'orthorhombic'
loop_
_space_group_symop_operation_xyz
x,y,z
1/2-x,1/2-y,z
1/2+x,-y,-z
-x,1/2+y,-z
-x,-y,-z
1/2+x,1/2+y,-z
1/2-x,y,z
x,1/2-y,z
loop_
_atom_site_type_symbol
_atom_site_label
_atom_site_fract_x
_atom_site_fract_y
_atom_site_fract_z
Si Si1 0.556401 0.399390 0.241610
Si Si2 0.566142 0.984924 0.597798
Si Si3 0.950719 0.250000 0.515296
Si Si4 0.954390 0.250000 0.309299
Si Si5 0.055671 0.367737 0.656917
Si Si6 0.449958 0.576566 0.949294
Si Si7 0.052982 0.250000 0.807922
Si Si8 0.559584 0.250000 0.005056
O O1 0.750000 0.390937 0.223616
O O2 0.541431 0.435199 0.338046
O O3 0.481171 0.319774 0.256672
O O4 0.492330 0.436911 0.152772
O O5 0.750000 0.954160 0.591843
O O6 0.560200 0.062550 0.648310
O O7 0.500000 0.000000 0.500000
O O8 0.750000 0.250000 0.521602
O O9 0.999093 0.250000 0.412774
O O10 0.022209 0.318983 0.569683
O O11 0.750000 0.250000 0.308906
O O12 0.250000 0.389362 0.658740
O O13 0.020619 0.319533 0.743764
O O14 0.250000 0.578607 0.958679
O O15 0.503279 0.664166 0.970624
O O16 0.500000 0.500000 0.000000
O O17 0.250000 0.250000 0.828477
O O18 0.954619 0.250000 0.898430
O O19 0.750000 0.250000 0.037593
#
# Coordination Sequence:
#
# PCOD9447033 Si02
#       8
#     8   8   4   4   8   8   4   4
#     4  10  21  40  64  89 120 161 206 258 316 381
#     4  12  25  40  60  89 125 165 209 259 316 385
#     4  10  18  31  55  88 119 156 204 254 308 376
#     4   9  18  34  60  86 111 148 199 246 299 372
#     4  10  21  38  57  82 121 164 211 261 313 373
#     4  10  23  42  66  95 130 171 218 271 329 392
#     4   9  21  38  60  89 120 161 207 261 324 380
#     4  10  22  41  65  95 130 171 218 269 325 394
#
# _framework density 21.783911
#
# number of rings (size 3 to 8) (size 9 to 14) (size 15 to 20)
#    0.000    1.833    0.000    4.250    2.333    6.667 
#    0.000    1.250    0.000    2.000    0.000    0.000 
#    0.000    0.000    0.000    0.000    0.000    0.000 
#
# Total GULP energy -267361.327829 kJ/mol
# GULP energy per Si atom -5570.027663 kJ/mol
# Density = 2.173433 g / cm^3
# Si number density = 21.783911 Si / 1000 Ang^3
#
#
#
# Elastic Constant Matrix: (Units=GPa)
#
#
# Indices 1 2 3 4 5 6 
#
# 1 29.9307 3.4695 9.3462 0.0000 0.0000 0.0000
# 2 3.4695 110.3719 36.3391 0.0000 0.0000 0.0000
# 3 9.3462 36.3391 133.6605 0.0000 0.0000 0.0000
# 4 0.0000 0.0000 0.0000 34.8358 0.0000 0.0000
# 5 0.0000 0.0000 0.0000 0.0000 21.1656 0.0000
# 6 0.0000 0.0000 0.0000 0.0000 0.0000 24.2076
#
#
#
# Elastic Compliance Matrix: (Units=1/GPa)
#
#
# Indices 1 2 3 4 5 6 
#
# 1 0.034166 -0.000316 -0.002303 0.000000 0.000000 0.000000
# 2 -0.000316 0.009954 -0.002684 0.000000 0.000000 0.000000
# 3 -0.002303 -0.002684 0.008372 0.000000 0.000000 0.000000
# 4 0.000000 0.000000 0.000000 0.028706 0.000000 0.000000
# 5 0.000000 0.000000 0.000000 0.000000 0.047247 0.000000
# 6 0.000000 0.000000 0.000000 0.000000 0.000000 0.041309
#
#
# Mechanical properties :
#
#
# Convention : Reuss Voigt Hill
#
# Bulk Modulus (GPa) = 23.87402 41.36364 32.61883
# Shear Modulus (GPa) = 25.73033 31.02900 28.37967
#
# Velocity S-wave (km/s) = 3.44053 3.77822 3.61332
# Velocity P-wave (km/s) = 5.17361 6.16949 5.69337
#
# Compressibility (1/GPa) = 0.04188653
#
# Stress axis : x y z
#
# Youngs Moduli (GPa) = 29.26856 100.46275 119.43929
#
# Poissons Ratio (x) = 0.03171 0.27510
# Poissons Ratio (y) = 0.00924 0.32059
# Poissons Ratio (z) = 0.06741 0.26966
#
# Static dielectric constant tensor:
#      x y z
#    x 1.789820 0.000000 0.000000 
#    y 0.000000 1.856150 0.000000 
#    z 0.000000 0.000000 1.804030 
# 
# From -- ./inp_files/20634.got.cif
#   From: 2010.05.17/outbox.cif.g08.bks.cpg/sg59_11_cif.got.tgz:20634.got - 2010.06.03 14:40:33.
