data_PCOD9447358
_publ_section_title
;
Structure prediction by ZEFSAII (Michael W. Deem and Ramdas Pophale) SiO2 
 PCOD9447358
Probable space group: P M M N
;
_chemical_formula_sum "Si O2"
_cell_formula_units_Z 64
_cell_length_a 14.183168
_cell_length_b 8.968111
_cell_length_c 32.555240
_cell_angle_alpha 90.000000
_cell_angle_beta 90.000000
_cell_angle_gamma 90.000000
_cell_volume 4140.903631
_symmetry_space_group_name_H-M "P M M N"
_symmetry_group_IT_number 59
_space_group.IT_coordinate_system_code '2'
_symmetry_cell_setting 'orthorhombic'
loop_
_space_group_symop_operation_xyz
x,y,z
1/2-x,1/2-y,z
1/2+x,-y,-z
-x,1/2+y,-z
-x,-y,-z
1/2+x,1/2+y,-z
1/2-x,y,z
x,1/2-y,z
loop_
_atom_site_type_symbol
_atom_site_label
_atom_site_fract_x
_atom_site_fract_y
_atom_site_fract_z
Si Si1 0.860838 0.072625 0.561928
Si Si2 0.640880 0.070866 0.316697
Si Si3 0.360629 0.430474 0.858813
Si Si4 0.969548 0.429201 0.398296
Si Si5 0.044187 0.571731 0.937055
Si Si6 0.136669 0.076242 0.525324
Si Si7 0.135538 0.422123 0.767595
Si Si8 0.857742 0.929037 0.984547
O O1 0.750000 0.043449 0.568401
O O2 0.875641 0.250000 0.561678
O O3 0.887034 0.005038 0.517397
O O4 0.926396 0.994205 0.595294
O O5 0.750000 0.021754 0.322702
O O6 0.641167 0.250000 0.315421
O O7 0.578286 0.024467 0.355440
O O8 0.606348 0.010766 0.272827
O O9 0.250000 0.471297 0.864555
O O10 0.364911 0.250000 0.860076
O O11 0.422519 0.499673 0.894707
O O12 0.392159 0.477739 0.812914
O O13 0.970005 0.250000 0.400620
O O14 0.909672 0.495552 0.436047
O O15 0.052825 0.750000 0.935039
O O16 0.936801 0.534294 0.950496
O O17 0.109698 0.508889 0.973677
O O18 0.250000 0.070004 0.529576
O O19 0.108282 0.250000 0.523537
O O20 0.250000 0.424777 0.768340
O O21 0.106451 0.250000 0.763510
O O22 0.750000 0.967799 0.973975
O O23 0.862050 0.750000 0.991161
#
# Coordination Sequence:
#
# PCOD9447358 Si02
#       8
#     8   8   8   8   8   8   8   8
#     4  10  21  36  51  66  87 116 151 191 229 262
#     4   9  18  31  46  67  95 122 145 173 214 261
#     4   9  17  29  44  63  90 122 149 174 214 265
#     4  11  21  32  48  69  94 122 150 181 219 266
#     4  10  19  28  42  66  88 110 149 193 223 254
#     4  10  20  33  49  69  93 121 152 184 218 259
#     4   8  15  28  45  64  87 117 149 177 209 256
#     4   9  18  32  45  57  83 122 153 180 222 269
#
# _framework density 15.455565
#
# number of rings (size 3 to 8) (size 9 to 14) (size 15 to 20)
#    0.000    2.500    0.000    3.375    0.000    6.000 
#    0.000    2.500    0.000    0.000    0.000    0.875 
#    0.000    3.000    0.000    0.000    0.000    0.000 
#
# Total GULP energy -356873.088996 kJ/mol
# GULP energy per Si atom -5576.142016 kJ/mol
# Density = 1.542039 g / cm^3
# Si number density = 15.455565 Si / 1000 Ang^3
#
#
#
# Elastic Constant Matrix: (Units=GPa)
#
#
# Indices 1 2 3 4 5 6 
#
# 1 83.3078 34.7760 67.9374 0.0000 0.0000 0.0000
# 2 34.7760 45.6203 50.5454 0.0000 0.0000 0.0000
# 3 67.9374 50.5454 149.3688 0.0000 0.0000 0.0000
# 4 0.0000 0.0000 0.0000 29.4223 0.0000 0.0000
# 5 0.0000 0.0000 0.0000 0.0000 24.2433 0.0000
# 6 0.0000 0.0000 0.0000 0.0000 0.0000 22.5745
#
#
#
# Elastic Compliance Matrix: (Units=1/GPa)
#
#
# Indices 1 2 3 4 5 6 
#
# 1 0.021037 -0.008695 -0.006626 0.000000 0.000000 0.000000
# 2 -0.008695 0.038662 -0.009128 0.000000 0.000000 0.000000
# 3 -0.006626 -0.009128 0.012797 0.000000 0.000000 0.000000
# 4 0.000000 0.000000 0.000000 0.033988 0.000000 0.000000
# 5 0.000000 0.000000 0.000000 0.000000 0.041248 0.000000
# 6 0.000000 0.000000 0.000000 0.000000 0.000000 0.044298
#
#
# Mechanical properties :
#
#
# Convention : Reuss Voigt Hill
#
# Bulk Modulus (GPa) = 42.37657 64.97940 53.67799
# Shear Modulus (GPa) = 20.09698 23.58390 21.84044
#
# Velocity S-wave (km/s) = 3.60989 3.91054 3.76322
# Velocity P-wave (km/s) = 6.69723 7.90719 7.32723
#
# Compressibility (1/GPa) = 0.02359794
#
# Stress axis : x y z
#
# Youngs Moduli (GPa) = 47.53614 25.86532 78.14134
#
# Poissons Ratio (x) = 0.22490 0.51774
# Poissons Ratio (y) = 0.41333 0.71328
# Poissons Ratio (z) = 0.31496 0.23610
#
# Static dielectric constant tensor:
#      x y z
#    x 1.523300 0.000000 0.000000 
#    y 0.000000 1.517680 0.000000 
#    z 0.000000 0.000000 1.499580 
# 
# From -- ./inp_files/33328.got.cif
#   From: 2010.05.17/outbox.cif.g08.bks.cpg/sg59_17_cif.got.tgz:33328.got - 2010.06.03 14:40:33.
