data_PCOD9447252
_publ_section_title
;
Structure prediction by ZEFSAII (Michael W. Deem and Ramdas Pophale) SiO2 
 PCOD9447252
Probable space group: P M M N
;
_chemical_formula_sum "Si O2"
_cell_formula_units_Z 56
_cell_length_a 18.797354
_cell_length_b 19.537718
_cell_length_c 9.280722
_cell_angle_alpha 90.000000
_cell_angle_beta 90.000000
_cell_angle_gamma 90.000000
_cell_volume 3408.413847
_symmetry_space_group_name_H-M "P M M N"
_symmetry_group_IT_number 59
_space_group.IT_coordinate_system_code '2'
_symmetry_cell_setting 'orthorhombic'
loop_
_space_group_symop_operation_xyz
x,y,z
1/2-x,1/2-y,z
1/2+x,-y,-z
-x,1/2+y,-z
-x,-y,-z
1/2+x,1/2+y,-z
1/2-x,y,z
x,1/2-y,z
loop_
_atom_site_type_symbol
_atom_site_label
_atom_site_fract_x
_atom_site_fract_y
_atom_site_fract_z
Si Si1 0.105052 0.049179 0.447938
Si Si2 0.033549 0.329954 0.816609
Si Si3 0.452352 0.932778 0.986480
Si Si4 0.905878 0.330452 0.594419
Si Si5 0.943882 0.071071 0.348439
Si Si6 0.666624 0.830855 0.369185
Si Si7 0.668254 0.442694 0.775808
O O1 0.143977 0.116923 0.504866
O O2 0.028168 0.066066 0.380587
O O3 0.090120 0.997572 0.582043
O O4 0.147741 0.005586 0.329369
O O5 0.030846 0.250000 0.851858
O O6 0.112847 0.346808 0.762669
O O7 0.001139 0.373063 0.946229
O O8 0.980619 0.341546 0.680214
O O9 0.383948 0.941164 0.088066
O O10 0.432343 0.922513 0.820744
O O11 0.500000 0.000000 0.000000
O O12 0.891526 0.250000 0.589373
O O13 0.913948 0.365399 0.439539
O O14 0.848964 0.373957 0.684788
O O15 0.750000 0.839471 0.335367
O O16 0.654993 0.750000 0.405489
O O17 0.750000 0.446073 0.816940
#
# Coordination Sequence:
#
# PCOD9447252 Si02
#       7
#     8   8   8   8   8   8   8
#     4  10  18  34  54  79 104 137 178 222 269 312
#     4   9  18  33  52  75 104 139 178 213 257 320
#     4  11  20  34  53  78 108 144 178 220 265 310
#     4   9  18  34  57  81 103 134 178 221 266 317
#     4  10  19  31  56  82 105 134 177 230 263 306
#     4  10  19  31  52  79 105 136 177 224 267 310
#     4  10  21  36  55  77 108 144 178 216 267 326
#
# _framework density 16.429929999999999
#
# number of rings (size 3 to 8) (size 9 to 14) (size 15 to 20)
#    0.000    2.143    2.857    1.286    0.000    0.857 
#    0.000    5.714    0.000    0.000    0.000    0.000 
#    0.000    0.000    0.000    0.000    0.000    0.000 
#
# Total GULP energy -312308.354542 kJ/mol
# GULP energy per Si atom -5576.934903 kJ/mol
# Density = 1.639253 g / cm^3
# Si number density = 16.429930 Si / 1000 Ang^3
#
#
#
# Elastic Constant Matrix: (Units=GPa)
#
#
# Indices 1 2 3 4 5 6 
#
# 1 107.8869 39.9058 46.5466 0.0000 0.0000 0.0000
# 2 39.9058 72.7582 53.5246 0.0000 0.0000 0.0000
# 3 46.5466 53.5246 140.4406 0.0000 0.0000 0.0000
# 4 0.0000 0.0000 0.0000 19.9882 0.0000 0.0000
# 5 0.0000 0.0000 0.0000 0.0000 11.4001 0.0000
# 6 0.0000 0.0000 0.0000 0.0000 0.0000 16.7700
#
#
#
# Elastic Compliance Matrix: (Units=1/GPa)
#
#
# Indices 1 2 3 4 5 6 
#
# 1 0.012037 -0.005096 -0.002047 0.000000 0.000000 0.000000
# 2 -0.005096 0.021256 -0.006412 0.000000 0.000000 0.000000
# 3 -0.002047 -0.006412 0.010243 0.000000 0.000000 0.000000
# 4 0.000000 0.000000 0.000000 0.050030 0.000000 0.000000
# 5 0.000000 0.000000 0.000000 0.000000 0.087719 0.000000
# 6 0.000000 0.000000 0.000000 0.000000 0.000000 0.059630
#
#
# Mechanical properties :
#
#
# Convention : Reuss Voigt Hill
#
# Bulk Modulus (GPa) = 60.88169 66.78217 63.83193
# Shear Modulus (GPa) = 18.28146 21.70556 19.99351
#
# Velocity S-wave (km/s) = 3.33932 3.63864 3.49219
# Velocity P-wave (km/s) = 7.21137 7.64119 7.42939
#
# Compressibility (1/GPa) = 0.01642530
#
# Stress axis : x y z
#
# Youngs Moduli (GPa) = 83.07595 47.04499 97.62931
#
# Poissons Ratio (x) = 0.23974 0.19988
# Poissons Ratio (y) = 0.42335 0.62602
# Poissons Ratio (z) = 0.17009 0.30166
#
# Static dielectric constant tensor:
#      x y z
#    x 1.545930 0.000000 0.000000 
#    y 0.000000 1.555500 0.000000 
#    z 0.000000 0.000000 1.571120 
# 
# From -- ./inp_files/10605.got.cif
#   From: 2010.05.17/outbox.cif.g08.bks.cpg/sg59_6_cif.got.tgz:10605.got - 2010.06.03 14:40:33.
