data_PCOD9447119
_publ_section_title
;
Structure prediction by ZEFSAII (Michael W. Deem and Ramdas Pophale) SiO2 
 PCOD9447119
Probable space group: P M M N
;
_chemical_formula_sum "Si O2"
_cell_formula_units_Z 48
_cell_length_a 7.744825
_cell_length_b 15.440205
_cell_length_c 19.454246
_cell_angle_alpha 90.000000
_cell_angle_beta 90.000000
_cell_angle_gamma 90.000000
_cell_volume 2326.371530
_symmetry_space_group_name_H-M "P M M N"
_symmetry_group_IT_number 59
_space_group.IT_coordinate_system_code '2'
_symmetry_cell_setting 'orthorhombic'
loop_
_space_group_symop_operation_xyz
x,y,z
1/2-x,1/2-y,z
1/2+x,-y,-z
-x,1/2+y,-z
-x,-y,-z
1/2+x,1/2+y,-z
1/2-x,y,z
x,1/2-y,z
loop_
_atom_site_type_symbol
_atom_site_label
_atom_site_fract_x
_atom_site_fract_y
_atom_site_fract_z
Si Si1 0.547919 0.509311 0.247227
Si Si2 0.040630 0.153297 0.157338
Si Si3 0.549105 0.011950 0.596280
Si Si4 0.460930 0.345005 0.856811
Si Si5 0.453251 0.150623 0.489750
Si Si6 0.457128 0.399157 0.005965
O O1 0.750000 0.527427 0.257195
O O2 0.526478 0.418024 0.209418
O O3 0.466501 0.511254 0.322106
O O4 0.476680 0.580362 0.193801
O O5 0.250000 0.147899 0.157034
O O6 0.990991 0.250000 0.177502
O O7 0.979195 0.135251 0.079232
O O8 0.750000 0.014689 0.576859
O O9 0.470474 0.097958 0.561451
O O10 0.475995 0.921708 0.564275
O O11 0.250000 0.350593 0.859013
O O12 0.507900 0.250000 0.831545
O O13 0.521229 0.356823 0.935362
O O14 0.250000 0.159207 0.474574
O O15 0.523129 0.250000 0.489848
O O16 0.250000 0.387206 0.006954
O O17 0.500000 0.500000 0.000000
#
# Coordination Sequence:
#
# PCOD9447119 Si02
#       6
#     8   8   8   8   8   8
#     4  11  22  36  55  81 113 149 186 228 276 328
#     4  10  21  36  55  78 106 144 188 234 285 337
#     4  10  21  37  58  86 118 149 182 225 273 325
#     4   9  18  33  53  76 103 140 185 228 273 329
#     4   9  19  38  63  87 111 144 185 225 269 325
#     4  10  18  32  55  78 102 136 182 234 285 334
#
# _framework density 20.632989999999999
#
# number of rings (size 3 to 8) (size 9 to 14) (size 15 to 20)
#    0.000    2.167    1.667    1.500    0.000    4.667 
#    0.000    3.333    0.000    5.000    0.000    0.000 
#    0.000    0.000    0.000    0.000    0.000    0.000 
#
# Total GULP energy -267844.585758 kJ/mol
# GULP energy per Si atom -5580.095537 kJ/mol
# Density = 2.058603 g / cm^3
# Si number density = 20.632990 Si / 1000 Ang^3
#
#
#
# Elastic Constant Matrix: (Units=GPa)
#
#
# Indices 1 2 3 4 5 6 
#
# 1 31.2383 -7.3820 -7.6657 0.0000 0.0000 0.0000
# 2 -7.3820 128.2171 24.5811 0.0000 0.0000 0.0000
# 3 -7.6657 24.5811 98.7585 0.0000 0.0000 0.0000
# 4 0.0000 0.0000 0.0000 -24.6084 0.0000 0.0000
# 5 0.0000 0.0000 0.0000 0.0000 35.1876 0.0000
# 6 0.0000 0.0000 0.0000 0.0000 0.0000 20.3060
#
#
#
# Elastic Compliance Matrix: (Units=1/GPa)
#
#
# Indices 1 2 3 4 5 6 
#
# 1 0.032897 0.001475 0.002186 0.000000 0.000000 0.000000
# 2 0.001475 0.008256 -0.001941 0.000000 0.000000 0.000000
# 3 0.002186 -0.001941 0.010778 0.000000 0.000000 0.000000
# 4 0.000000 0.000000 0.000000 -0.040637 0.000000 0.000000
# 5 0.000000 0.000000 0.000000 0.000000 0.028419 0.000000
# 6 0.000000 0.000000 0.000000 0.000000 0.000000 0.049247
#
#
# Mechanical properties :
#
#
# Convention : Reuss Voigt Hill
#
# Bulk Modulus (GPa) = 18.05928 30.80897 24.43413
# Shear Modulus (GPa) = 48.08748 22.75572 35.42160
#
# Velocity S-wave (km/s) = 4.83288 3.32457 4.14786
# Velocity P-wave (km/s) = 6.31775 5.44989 5.89980
#
# Compressibility (1/GPa) = 0.05537319
#
# Stress axis : x y z
#
# Youngs Moduli (GPa) = 30.39785 121.12095 92.77803
#
# Poissons Ratio (x) = -0.17864 -0.20285
# Poissons Ratio (y) = -0.04483 0.18004
# Poissons Ratio (z) = -0.06646 0.23504
#
# Static dielectric constant tensor:
#      x y z
#    x 1.801700 0.000000 0.000000 
#    y 0.000000 1.738050 0.000000 
#    z 0.000000 0.000000 1.711270 
# 
# From -- ./inp_files/25452.got.cif
#   From: 2010.05.17/outbox.cif.g08.bks.cpg/sg59_13_cif.got.tgz:25452.got - 2010.06.03 14:40:33.
