data_PCOD9447352
_publ_section_title
;
Structure prediction by ZEFSAII (Michael W. Deem and Ramdas Pophale) SiO2 
 PCOD9447352
Probable space group: P M M N
;
_chemical_formula_sum "Si O2"
_cell_formula_units_Z 56
_cell_length_a 18.669091
_cell_length_b 9.370419
_cell_length_c 19.441272
_cell_angle_alpha 90.000000
_cell_angle_beta 90.000000
_cell_angle_gamma 90.000000
_cell_volume 3401.001786
_symmetry_space_group_name_H-M "P M M N"
_symmetry_group_IT_number 59
_space_group.IT_coordinate_system_code '2'
_symmetry_cell_setting 'orthorhombic'
loop_
_space_group_symop_operation_xyz
x,y,z
1/2-x,1/2-y,z
1/2+x,-y,-z
-x,1/2+y,-z
-x,-y,-z
1/2+x,1/2+y,-z
1/2-x,y,z
x,1/2-y,z
loop_
_atom_site_type_symbol
_atom_site_label
_atom_site_fract_x
_atom_site_fract_y
_atom_site_fract_z
Si Si1 0.398136 0.079669 0.284652
Si Si2 0.829466 0.923395 0.859543
Si Si3 0.025717 0.078072 0.068072
Si Si4 0.666571 0.922006 0.295110
Si Si5 0.951194 0.080818 0.211821
Si Si6 0.836053 0.418565 0.585166
Si Si7 0.837046 0.586090 0.449332
O O1 0.389302 0.250000 0.295610
O O2 0.349635 0.037674 0.218782
O O3 0.479462 0.054087 0.260036
O O4 0.375117 0.995267 0.351858
O O5 0.750000 0.973359 0.877909
O O6 0.829709 0.750000 0.860670
O O7 0.894073 0.967462 0.909227
O O8 0.025627 0.250000 0.058919
O O9 0.975672 0.046408 0.134117
O O10 0.000000 0.000000 0.000000
O O11 0.750000 0.962647 0.286526
O O12 0.662995 0.750000 0.291738
O O13 0.642128 0.962601 0.372713
O O14 0.615500 0.993071 0.239638
O O15 0.936362 0.250000 0.214637
O O16 0.750000 0.441267 0.592158
O O17 0.849291 0.250000 0.585487
O O18 0.858990 0.487632 0.512574
O O19 0.750000 0.588107 0.448238
O O20 0.860554 0.750000 0.459976
#
# Coordination Sequence:
#
# PCOD9447352 Si02
#       7
#     8   8   8   8   8   8   8
#     4   9  17  30  48  68  92 125 162 195 232 283
#     4   8  14  27  49  73  93 119 159 199 229 265
#     4   9  18  33  52  74 100 128 157 189 230 282
#     4   9  18  33  53  75  95 119 159 206 245 284
#     4   9  19  34  51  73  98 124 157 194 235 289
#     4  10  19  28  41  67  99 126 157 198 241 285
#     4   8  15  29  47  65  88 121 160 200 240 282
#
# _framework density 16.465736
#
# number of rings (size 3 to 8) (size 9 to 14) (size 15 to 20)
#    0.000    3.143    0.000    3.429    0.000    3.429 
#    0.000    5.000    0.000    3.857    0.000    0.000 
#    0.000    0.000    0.000    0.000    0.000    0.000 
#
# Total GULP energy -311965.568003 kJ/mol
# GULP energy per Si atom -5570.813714 kJ/mol
# Density = 1.642826 g / cm^3
# Si number density = 16.465736 Si / 1000 Ang^3
#
#
#
# Elastic Constant Matrix: (Units=GPa)
#
#
# Indices 1 2 3 4 5 6 
#
# 1 87.2879 44.4397 82.3059 0.0000 0.0000 0.0000
# 2 44.4397 42.3407 59.4230 0.0000 0.0000 0.0000
# 3 82.3059 59.4230 138.0194 0.0000 0.0000 0.0000
# 4 0.0000 0.0000 0.0000 30.7666 0.0000 0.0000
# 5 0.0000 0.0000 0.0000 0.0000 20.2798 0.0000
# 6 0.0000 0.0000 0.0000 0.0000 0.0000 23.8198
#
#
#
# Elastic Compliance Matrix: (Units=1/GPa)
#
#
# Indices 1 2 3 4 5 6 
#
# 1 0.029969 -0.016103 -0.010939 0.000000 0.000000 0.000000
# 2 -0.016103 0.068330 -0.019816 0.000000 0.000000 0.000000
# 3 -0.010939 -0.019816 0.022300 0.000000 0.000000 0.000000
# 4 0.000000 0.000000 0.000000 0.032503 0.000000 0.000000
# 5 0.000000 0.000000 0.000000 0.000000 0.049310 0.000000
# 6 0.000000 0.000000 0.000000 0.000000 0.000000 0.041982
#
#
# Mechanical properties :
#
#
# Convention : Reuss Voigt Hill
#
# Bulk Modulus (GPa) = 37.19710 71.10946 54.15328
# Shear Modulus (GPa) = 14.40631 20.40519 17.40575
#
# Velocity S-wave (km/s) = 2.96113 3.52412 3.25482
# Velocity P-wave (km/s) = 5.85924 7.73559 6.86185
#
# Compressibility (1/GPa) = 0.02688382
#
# Stress axis : x y z
#
# Youngs Moduli (GPa) = 33.36803 14.63487 44.84287
#
# Poissons Ratio (x) = 0.23566 0.49052
# Poissons Ratio (y) = 0.53732 0.88861
# Poissons Ratio (z) = 0.36500 0.29001
#
# Static dielectric constant tensor:
#      x y z
#    x 1.557690 0.000000 0.000000 
#    y 0.000000 1.542140 0.000000 
#    z 0.000000 0.000000 1.535790 
# 
# From -- ./inp_files/30626.got.cif
#   From: 2010.05.17/outbox.cif.g08.bks.cpg/sg59_16_cif.got.tgz:30626.got - 2010.06.03 14:40:33.
