data_PCOD9447499
_publ_section_title
;
Structure prediction by ZEFSAII (Michael W. Deem and Ramdas Pophale) SiO2 
 PCOD9447499
Probable space group: P M M N
;
_chemical_formula_sum "Si O2"
_cell_formula_units_Z 64
_cell_length_a 29.554049
_cell_length_b 7.746926
_cell_length_c 14.325139
_cell_angle_alpha 90.000000
_cell_angle_beta 90.000000
_cell_angle_gamma 90.000000
_cell_volume 3279.783988
_symmetry_space_group_name_H-M "P M M N"
_symmetry_group_IT_number 59
_space_group.IT_coordinate_system_code '2'
_symmetry_cell_setting 'orthorhombic'
loop_
_space_group_symop_operation_xyz
x,y,z
1/2-x,1/2-y,z
1/2+x,-y,-z
-x,1/2+y,-z
-x,-y,-z
1/2+x,1/2+y,-z
1/2-x,y,z
x,1/2-y,z
loop_
_atom_site_type_symbol
_atom_site_label
_atom_site_fract_x
_atom_site_fract_y
_atom_site_fract_z
Si Si1 0.860128 0.046001 0.425972
Si Si2 0.699706 0.960616 0.752016
Si Si3 0.626975 0.553912 0.113783
Si Si4 0.435368 0.041479 0.729377
Si Si5 0.301036 0.542566 0.738190
Si Si6 0.699274 0.960608 0.970498
Si Si7 0.617406 0.946328 0.628923
Si Si8 0.985574 0.450831 0.605581
O O1 0.862612 0.250000 0.445562
O O2 0.814895 0.007307 0.368282
O O3 0.899993 0.000809 0.353377
O O4 0.865331 0.950748 0.522712
O O5 0.750000 0.017910 0.720557
O O6 0.699825 0.750000 0.745837
O O7 0.695153 0.003935 0.861373
O O8 0.656961 0.025208 0.692881
O O9 0.614740 0.750000 0.086173
O O10 0.584617 0.474829 0.171442
O O11 0.665159 0.554919 0.194230
O O12 0.655968 0.474087 0.028870
O O13 0.436415 0.250000 0.740476
O O14 0.482513 0.972874 0.687245
O O15 0.250000 0.495870 0.757875
O O16 0.307188 0.750000 0.752128
O O17 0.750000 0.017154 0.002288
O O18 0.699083 0.750000 0.978161
O O19 0.611196 0.750000 0.660485
O O20 0.567220 0.023264 0.625203
O O21 0.995180 0.250000 0.608828
O O22 0.000000 0.500000 0.500000
#
# Coordination Sequence:
#
# PCOD9447499 Si02
#       8
#     8   8   8   8   8   8   8   8
#     4  10  19  30  45  63  88 125 162 196 236 285
#     4   8  16  31  49  71  99 128 160 201 246 289
#     4   9  16  27  47  73  95 117 152 198 244 287
#     4   9  18  31  46  68  97 123 152 194 242 288
#     4   9  18  30  41  59  92 129 158 186 230 291
#     4   8  13  24  46  74  98 120 153 199 246 290
#     4  11  21  32  49  72  96 124 162 206 246 285
#     4  11  21  33  51  72  97 130 166 203 242 286
#
# _framework density 19.513480000000001
#
# number of rings (size 3 to 8) (size 9 to 14) (size 15 to 20)
#    0.000    2.625    1.250    2.250    0.000    2.250 
#    0.000    0.000    0.000    3.375    0.000    3.500 
#    0.000    0.000    0.000    0.000    0.000    0.250 
#
# Total GULP energy -356416.317191 kJ/mol
# GULP energy per Si atom -5569.004956 kJ/mol
# Density = 1.946907 g / cm^3
# Si number density = 19.513480 Si / 1000 Ang^3
#
#
#
# Elastic Constant Matrix: (Units=GPa)
#
#
# Indices 1 2 3 4 5 6 
#
# 1 100.1380 0.9752 52.3919 0.0000 0.0000 0.0000
# 2 0.9752 24.5345 -4.8317 0.0000 0.0000 0.0000
# 3 52.3919 -4.8317 73.8293 0.0000 0.0000 0.0000
# 4 0.0000 0.0000 0.0000 -5.5476 0.0000 0.0000
# 5 0.0000 0.0000 0.0000 0.0000 29.7495 0.0000
# 6 0.0000 0.0000 0.0000 0.0000 0.0000 8.8241
#
#
#
# Elastic Compliance Matrix: (Units=1/GPa)
#
#
# Indices 1 2 3 4 5 6 
#
# 1 0.016088 -0.002926 -0.011608 0.000000 0.000000 0.000000
# 2 -0.002926 0.041823 0.004813 0.000000 0.000000 0.000000
# 3 -0.011608 0.004813 0.022097 0.000000 0.000000 0.000000
# 4 0.000000 0.000000 0.000000 -0.180257 0.000000 0.000000
# 5 0.000000 0.000000 0.000000 0.000000 0.033614 0.000000
# 6 0.000000 0.000000 0.000000 0.000000 0.000000 0.113326
#
#
# Mechanical properties :
#
#
# Convention : Reuss Voigt Hill
#
# Bulk Modulus (GPa) = 16.51055 32.84141 24.67598
# Shear Modulus (GPa) = 57.92336 16.60295 37.26316
#
# Velocity S-wave (km/s) = 5.45419 2.92009 4.37465
# Velocity P-wave (km/s) = 6.93857 5.31374 6.17979
#
# Compressibility (1/GPa) = 0.06056732
#
# Stress axis : x y z
#
# Youngs Moduli (GPa) = 62.15805 23.91026 45.25452
#
# Poissons Ratio (x) = 0.06995 0.52532
# Poissons Ratio (y) = 0.18184 -0.21781
# Poissons Ratio (z) = 0.72154 -0.11508
#
# Static dielectric constant tensor:
#      x y z
#    x 1.730110 0.000000 0.000000 
#    y 0.000000 1.734570 0.000000 
#    z 0.000000 0.000000 1.706850 
# 
# From -- ./inp_files/25044.got.cif
#   From: 2010.05.17/outbox.cif.g08.bks.cpg/sg59_13_cif.got.tgz:25044.got - 2010.06.03 14:40:33.
