data_PCOD9447350
_publ_section_title
;
Structure prediction by ZEFSAII (Michael W. Deem and Ramdas Pophale) SiO2 
 PCOD9447350
Probable space group: P M M N
;
_chemical_formula_sum "Si O2"
_cell_formula_units_Z 64
_cell_length_a 9.036026
_cell_length_b 23.535121
_cell_length_c 17.344821
_cell_angle_alpha 90.000000
_cell_angle_beta 90.000000
_cell_angle_gamma 90.000000
_cell_volume 3688.618411
_symmetry_space_group_name_H-M "P M M N"
_symmetry_group_IT_number 59
_space_group.IT_coordinate_system_code '2'
_symmetry_cell_setting 'orthorhombic'
loop_
_space_group_symop_operation_xyz
x,y,z
1/2-x,1/2-y,z
1/2+x,-y,-z
-x,1/2+y,-z
-x,-y,-z
1/2+x,1/2+y,-z
1/2-x,y,z
x,1/2-y,z
loop_
_atom_site_type_symbol
_atom_site_label
_atom_site_fract_x
_atom_site_fract_y
_atom_site_fract_z
Si Si1 0.418806 0.105766 0.806181
Si Si2 0.426619 0.814608 0.561445
Si Si3 0.422208 0.682785 0.302617
Si Si4 0.927633 0.991660 0.082776
Si Si5 0.920232 0.511200 0.330876
Si Si6 0.074484 0.187118 0.272436
Si Si7 0.427345 0.110354 0.564657
Si Si8 0.574252 0.933261 0.784840
O O1 0.250000 0.126652 0.812748
O O2 0.526732 0.154593 0.777373
O O3 0.418898 0.058315 0.737881
O O4 0.461099 0.070775 0.882005
O O5 0.250000 0.819653 0.557331
O O6 0.465393 0.750000 0.533131
O O7 0.483129 0.817773 0.648800
O O8 0.500892 0.864275 0.511883
O O9 0.250000 0.669862 0.317806
O O10 0.441892 0.750000 0.302239
O O11 0.519584 0.653733 0.368849
O O12 0.750000 0.996923 0.079763
O O13 0.992077 0.036104 0.144837
O O14 0.000000 0.000000 0.000000
O O15 0.750000 0.492245 0.341959
O O16 0.971500 0.547222 0.405353
O O17 0.019082 0.461390 0.295672
O O18 0.250000 0.183740 0.291511
O O19 0.046854 0.250000 0.239262
O O20 0.041319 0.133624 0.218898
O O21 0.250000 0.110493 0.559564
O O22 0.750000 0.942159 0.792203
#
# Coordination Sequence:
#
# PCOD9447350 Si02
#       8
#     8   8   8   8   8   8   8   8
#     4   8  16  30  46  66  93 125 159 192 228 275
#     4  10  20  32  47  69  95 124 164 215 263 300
#     4  10  19  28  41  65  95 127 164 203 240 279
#     4  10  20  34  54  80 106 128 153 189 233 281
#     4   8  16  30  46  67  96 128 162 201 244 289
#     4   9  19  36  55  74  98 129 165 204 245 293
#     4  10  19  30  45  65  92 129 169 207 250 298
#     4  10  19  32  54  80 102 128 163 199 240 292
#
# _framework density 17.350670000000001
#
# number of rings (size 3 to 8) (size 9 to 14) (size 15 to 20)
#    0.000    2.625    0.000    3.750    0.000    9.750 
#    0.000    0.625    0.000    0.750    0.000    1.750 
#    0.000    0.000    0.000    0.000    0.000    0.000 
#
# Total GULP energy -356726.260253 kJ/mol
# GULP energy per Si atom -5573.847816 kJ/mol
# Density = 1.731118 g / cm^3
# Si number density = 17.350670 Si / 1000 Ang^3
#
#
#
# Elastic Constant Matrix: (Units=GPa)
#
#
# Indices 1 2 3 4 5 6 
#
# 1 43.4630 32.0226 15.6194 0.0000 0.0000 0.0000
# 2 32.0226 64.9032 18.8491 0.0000 0.0000 0.0000
# 3 15.6194 18.8491 39.5002 0.0000 0.0000 0.0000
# 4 0.0000 0.0000 0.0000 20.8104 0.0000 0.0000
# 5 0.0000 0.0000 0.0000 0.0000 22.9134 0.0000
# 6 0.0000 0.0000 0.0000 0.0000 0.0000 21.9080
#
#
#
# Elastic Compliance Matrix: (Units=1/GPa)
#
#
# Indices 1 2 3 4 5 6 
#
# 1 0.037751 -0.016590 -0.007011 0.000000 0.000000 0.000000
# 2 -0.016590 0.025177 -0.005454 0.000000 0.000000 0.000000
# 3 -0.007011 -0.005454 0.030691 0.000000 0.000000 0.000000
# 4 0.000000 0.000000 0.000000 0.048053 0.000000 0.000000
# 5 0.000000 0.000000 0.000000 0.000000 0.043643 0.000000
# 6 0.000000 0.000000 0.000000 0.000000 0.000000 0.045645
#
#
# Mechanical properties :
#
#
# Convention : Reuss Voigt Hill
#
# Bulk Modulus (GPa) = 28.16195 31.20539 29.68367
# Shear Modulus (GPa) = 16.61652 18.55139 17.58395
#
# Velocity S-wave (km/s) = 3.09801 3.27341 3.18692
# Velocity P-wave (km/s) = 5.39103 5.68429 5.53960
#
# Compressibility (1/GPa) = 0.03550890
#
# Stress axis : x y z
#
# Youngs Moduli (GPa) = 26.48967 39.71935 32.58244
#
# Poissons Ratio (x) = 0.65893 0.22844
# Poissons Ratio (y) = 0.43945 0.17771
# Poissons Ratio (z) = 0.18572 0.21663
#
# Static dielectric constant tensor:
#      x y z
#    x 1.581780 0.000000 0.000000 
#    y 0.000000 1.614510 0.000000 
#    z 0.000000 0.000000 1.589510 
# 
# From -- ./inp_files/26162.got.cif
#   From: 2010.05.17/outbox.cif.g08.bks.cpg/sg59_14_cif.got.tgz:26162.got - 2010.06.03 14:40:33.
