data_PCOD9447713
_publ_section_title
;
Structure prediction by ZEFSAII (Michael W. Deem and Ramdas Pophale) SiO2 
 PCOD9447713
Probable space group: P M M N
;
_chemical_formula_sum "Si O2"
_cell_formula_units_Z 56
_cell_length_a 15.529785
_cell_length_b 7.624018
_cell_length_c 22.342957
_cell_angle_alpha 90.000000
_cell_angle_beta 90.000000
_cell_angle_gamma 90.000000
_cell_volume 2645.391818
_symmetry_space_group_name_H-M "P M M N"
_symmetry_group_IT_number 59
_space_group.IT_coordinate_system_code '2'
_symmetry_cell_setting 'orthorhombic'
loop_
_space_group_symop_operation_xyz
x,y,z
1/2-x,1/2-y,z
1/2+x,-y,-z
-x,1/2+y,-z
-x,-y,-z
1/2+x,1/2+y,-z
1/2-x,y,z
x,1/2-y,z
loop_
_atom_site_type_symbol
_atom_site_label
_atom_site_fract_x
_atom_site_fract_y
_atom_site_fract_z
Si Si1 0.656090 0.535724 0.691910
Si Si2 0.508976 0.456458 0.914908
Si Si3 0.155344 0.961480 0.695470
Si Si4 0.113580 0.451027 0.438090
Si Si5 0.498534 0.037552 0.224255
Si Si6 0.415238 0.459546 0.565368
Si Si7 0.650736 0.543720 0.007341
O O1 0.750000 0.490495 0.715304
O O2 0.649773 0.750000 0.688904
O O3 0.646873 0.469728 0.623697
O O4 0.581133 0.475474 0.735404
O O5 0.510280 0.250000 0.928018
O O6 0.507260 0.483828 0.844281
O O7 0.420321 0.529025 0.945057
O O8 0.596138 0.528106 0.945688
O O9 0.250000 0.027189 0.710230
O O10 0.155386 0.750000 0.698730
O O11 0.083884 0.025168 0.741699
O O12 0.132242 0.006910 0.627219
O O13 0.144321 0.250000 0.439079
O O14 0.130645 0.524522 0.504400
O O15 0.009801 0.456077 0.431942
O O16 0.498293 0.250000 0.225387
O O17 0.427436 0.250000 0.558689
O O18 0.750000 0.473671 0.006388
O O19 0.659465 0.750000 0.020516
#
# Coordination Sequence:
#
# PCOD9447713 Si02
#       7
#     8   8   8   8   8   8   8
#     4   9  17  31  53  76  97 131 180 226 266 316
#     4  10  21  36  57  87 118 146 179 224 274 311
#     4  10  21  37  55  74 102 143 187 228 272 325
#     4   9  17  32  52  74 101 135 175 222 276 335
#     4  10  20  36  55  76 107 146 187 222 260 320
#     4  10  19  30  51  78 103 132 172 226 286 335
#     4   9  19  38  62  86 114 149 185 217 257 317
#
# _framework density 21.168887999999999
#
# number of rings (size 3 to 8) (size 9 to 14) (size 15 to 20)
#    0.000    2.429    1.429    0.857    0.000    4.000 
#    0.000    2.857    0.000    1.286    0.000    0.000 
#    0.000    0.000    0.000    0.000    0.000    0.000 
#
# Total GULP energy -312387.844361 kJ/mol
# GULP energy per Si atom -5578.354364 kJ/mol
# Density = 2.112071 g / cm^3
# Si number density = 21.168888 Si / 1000 Ang^3
#
#
#
# Elastic Constant Matrix: (Units=GPa)
#
#
# Indices 1 2 3 4 5 6 
#
# 1 160.4840 4.1335 70.7018 0.0000 0.0000 0.0000
# 2 4.1335 48.2136 -9.2763 0.0000 0.0000 0.0000
# 3 70.7018 -9.2763 146.2851 0.0000 0.0000 0.0000
# 4 0.0000 0.0000 0.0000 22.1322 0.0000 0.0000
# 5 0.0000 0.0000 0.0000 0.0000 -46.1965 0.0000
# 6 0.0000 0.0000 0.0000 0.0000 0.0000 4.7789
#
#
#
# Elastic Compliance Matrix: (Units=1/GPa)
#
#
# Indices 1 2 3 4 5 6 
#
# 1 0.008016 -0.001450 -0.003966 0.000000 0.000000 0.000000
# 2 -0.001450 0.021260 0.002049 0.000000 0.000000 0.000000
# 3 -0.003966 0.002049 0.008883 0.000000 0.000000 0.000000
# 4 0.000000 0.000000 0.000000 0.045183 0.000000 0.000000
# 5 0.000000 0.000000 0.000000 0.000000 -0.021647 0.000000
# 6 0.000000 0.000000 0.000000 0.000000 0.000000 0.209251
#
#
# Mechanical properties :
#
#
# Convention : Reuss Voigt Hill
#
# Bulk Modulus (GPa) = 31.82332 54.01120 42.91726
# Shear Modulus (GPa) = 17.35176 15.43784 16.39480
#
# Velocity S-wave (km/s) = 2.86612 2.70343 2.78596
# Velocity P-wave (km/s) = 5.10084 5.94260 5.53774
#
# Compressibility (1/GPa) = 0.03142350
#
# Stress axis : x y z
#
# Youngs Moduli (GPa) = 124.75371 47.03755 112.57721
#
# Poissons Ratio (x) = 0.06822 0.44650
# Poissons Ratio (y) = 0.18093 -0.23068
# Poissons Ratio (z) = 0.49479 -0.09638
#
# Static dielectric constant tensor:
#      x y z
#    x 1.768760 0.000000 0.000000 
#    y 0.000000 1.820150 0.000000 
#    z 0.000000 0.000000 1.737500 
# 
# From -- ./inp_files/30299.got.cif
#   From: 2010.05.17/outbox.cif.g08.bks.cpg/sg59_16_cif.got.tgz:30299.got - 2010.06.03 14:40:33.
