data_PCOD9447558
_publ_section_title
;
Structure prediction by ZEFSAII (Michael W. Deem and Ramdas Pophale) SiO2 
 PCOD9447558
Probable space group: P M M N
;
_chemical_formula_sum "Si O2"
_cell_formula_units_Z 64
_cell_length_a 8.833786
_cell_length_b 22.007577
_cell_length_c 19.502838
_cell_angle_alpha 90.000000
_cell_angle_beta 90.000000
_cell_angle_gamma 90.000000
_cell_volume 3791.551135
_symmetry_space_group_name_H-M "P M M N"
_symmetry_group_IT_number 59
_space_group.IT_coordinate_system_code '2'
_symmetry_cell_setting 'orthorhombic'
loop_
_space_group_symop_operation_xyz
x,y,z
1/2-x,1/2-y,z
1/2+x,-y,-z
-x,1/2+y,-z
-x,-y,-z
1/2+x,1/2+y,-z
1/2-x,y,z
x,1/2-y,z
loop_
_atom_site_type_symbol
_atom_site_label
_atom_site_fract_x
_atom_site_fract_y
_atom_site_fract_z
Si Si1 0.577646 0.820049 0.801561
Si Si2 0.070507 0.368233 0.341911
Si Si3 0.571957 0.385700 0.086073
Si Si4 0.431883 0.006300 0.825063
Si Si5 0.931039 0.319426 0.476610
Si Si6 0.430536 0.058181 0.541107
Si Si7 0.069550 0.440484 0.963461
Si Si8 0.571824 0.490047 0.674321
O O1 0.750000 0.841461 0.815798
O O2 0.584019 0.750000 0.782438
O O3 0.517903 0.854632 0.735071
O O4 0.477881 0.829647 0.868161
O O5 0.250000 0.353109 0.346091
O O6 0.054764 0.440277 0.351314
O O7 0.980014 0.330705 0.397943
O O8 0.750000 0.389634 0.074813
O O9 0.529332 0.443173 0.135506
O O10 0.490023 0.388112 0.013015
O O11 0.250000 0.006600 0.814275
O O12 0.471388 0.056635 0.883147
O O13 0.513473 0.013149 0.752523
O O14 0.750000 0.324190 0.483521
O O15 0.975329 0.250000 0.496697
O O16 0.007219 0.376703 0.515135
O O17 0.250000 0.056524 0.532328
O O18 0.478590 0.049623 0.620290
O O19 0.500000 0.000000 0.500000
O O20 0.250000 0.444543 0.967143
O O21 0.000000 0.500000 0.000000
O O22 0.750000 0.475123 0.671714
#
# Coordination Sequence:
#
# PCOD9447558 Si02
#       8
#     8   8   8   8   8   8   8   8
#     4  10  20  33  48  68  98 138 182 223 262 309
#     4  10  20  34  53  76 105 144 184 222 265 319
#     4  10  19  30  46  68  97 133 172 213 258 305
#     4   9  18  31  47  71 101 133 167 208 257 312
#     4  11  24  40  59  83 110 142 182 228 276 327
#     4  12  24  39  59  81 110 145 183 228 275 328
#     4   9  17  29  46  69  97 127 163 203 248 299
#     4  11  21  33  54  81 108 142 179 220 270 322
#
# _framework density 16.879635
#
# number of rings (size 3 to 8) (size 9 to 14) (size 15 to 20)
#    0.000    1.750    2.500    3.750    0.000    5.250 
#    0.000    0.000    0.000    0.000    0.000    0.875 
#    0.000    1.000    0.000    0.000    0.000    0.000 
#
# Total GULP energy -356835.138793 kJ/mol
# GULP energy per Si atom -5575.549044 kJ/mol
# Density = 1.684122 g / cm^3
# Si number density = 16.879635 Si / 1000 Ang^3
#
#
#
# Elastic Constant Matrix: (Units=GPa)
#
#
# Indices 1 2 3 4 5 6 
#
# 1 73.5572 36.5277 40.0051 0.0000 0.0000 0.0000
# 2 36.5277 71.0687 36.4959 0.0000 0.0000 0.0000
# 3 40.0051 36.4959 90.4129 0.0000 0.0000 0.0000
# 4 0.0000 0.0000 0.0000 19.3535 0.0000 0.0000
# 5 0.0000 0.0000 0.0000 0.0000 31.7131 0.0000
# 6 0.0000 0.0000 0.0000 0.0000 0.0000 20.7027
#
#
#
# Elastic Compliance Matrix: (Units=1/GPa)
#
#
# Indices 1 2 3 4 5 6 
#
# 1 0.020625 -0.007461 -0.006114 0.000000 0.000000 0.000000
# 2 -0.007461 0.020449 -0.004953 0.000000 0.000000 0.000000
# 3 -0.006114 -0.004953 0.015765 0.000000 0.000000 0.000000
# 4 0.000000 0.000000 0.000000 0.051670 0.000000 0.000000
# 5 0.000000 0.000000 0.000000 0.000000 0.031533 0.000000
# 6 0.000000 0.000000 0.000000 0.000000 0.000000 0.048303
#
#
# Mechanical properties :
#
#
# Convention : Reuss Voigt Hill
#
# Bulk Modulus (GPa) = 50.54966 51.23292 50.89129
# Shear Modulus (GPa) = 21.55197 22.48786 22.01992
#
# Velocity S-wave (km/s) = 3.57711 3.65396 3.61574
# Velocity P-wave (km/s) = 6.86099 6.94404 6.90264
#
# Compressibility (1/GPa) = 0.01978253
#
# Stress axis : x y z
#
# Youngs Moduli (GPa) = 48.48401 48.90133 63.43065
#
# Poissons Ratio (x) = 0.36485 0.38784
# Poissons Ratio (y) = 0.36174 0.31419
# Poissons Ratio (z) = 0.29645 0.24222
#
# Static dielectric constant tensor:
#      x y z
#    x 1.577890 0.000000 0.000000 
#    y 0.000000 1.601490 0.000000 
#    z 0.000000 0.000000 1.593430 
# 
# From -- ./inp_files/26225.got.cif
#   From: 2010.05.17/outbox.cif.g08.bks.cpg/sg59_14_cif.got.tgz:26225.got - 2010.06.03 14:40:33.
