data_PCOD9447493
_publ_section_title
;
Structure prediction by ZEFSAII (Michael W. Deem and Ramdas Pophale) SiO2 
 PCOD9447493
Probable space group: P M M N
;
_chemical_formula_sum "Si O2"
_cell_formula_units_Z 48
_cell_length_a 28.956883
_cell_length_b 14.318534
_cell_length_c 5.147840
_cell_angle_alpha 90.000000
_cell_angle_beta 90.000000
_cell_angle_gamma 90.000000
_cell_volume 2134.398006
_symmetry_space_group_name_H-M "P M M N"
_symmetry_group_IT_number 59
_space_group.IT_coordinate_system_code '2'
_symmetry_cell_setting 'orthorhombic'
loop_
_space_group_symop_operation_xyz
x,y,z
1/2-x,1/2-y,z
1/2+x,-y,-z
-x,1/2+y,-z
-x,-y,-z
1/2+x,1/2+y,-z
1/2-x,y,z
x,1/2-y,z
loop_
_atom_site_type_symbol
_atom_site_label
_atom_site_fract_x
_atom_site_fract_y
_atom_site_fract_z
Si Si1 0.200104 0.849401 0.481878
Si Si2 0.803681 0.944652 0.605852
Si Si3 0.363857 0.059963 0.922126
Si Si4 0.464203 0.393613 0.762667
Si Si5 0.983374 0.384314 0.265250
Si Si6 0.884750 0.150163 0.127804
O O1 0.250000 0.854233 0.619943
O O2 0.199334 0.750000 0.337154
O O3 0.197931 0.944428 0.322581
O O4 0.159153 0.848690 0.685098
O O5 0.750000 0.912756 0.595836
O O6 0.829282 0.940312 0.326553
O O7 0.835757 0.901660 0.830494
O O8 0.381904 0.953853 0.994612
O O9 0.410502 0.113097 0.837157
O O10 0.476793 0.503739 0.744179
O O11 0.480899 0.356762 0.486965
O O12 0.496112 0.355079 0.990177
O O13 0.931412 0.349972 0.296801
O O14 0.885624 0.250000 0.978407
#
# Coordination Sequence:
#
# PCOD9447493 Si02
#       6
#     8   8   8   8   8   8
#     4   8  15  28  43  58  80 113 151 188 222 257
#     4  10  19  30  44  64  88 114 147 184 223 261
#     4  10  19  31  47  64  86 117 151 186 220 261
#     4   9  17  30  46  63  81 107 145 182 219 262
#     4   9  17  29  45  63  83 106 140 187 225 260
#     4   9  18  30  45  65  88 115 150 191 231 263
#
# _framework density 22.488776999999999
#
# number of rings (size 3 to 8) (size 9 to 14) (size 15 to 20)
#    0.000    2.833    0.000    1.500    0.000    9.333 
#    0.000    4.167    0.000    4.000    0.000    0.000 
#    0.000    0.000    0.000    0.000    0.000   58.333 
#
# Total GULP energy -267405.066825 kJ/mol
# GULP energy per Si atom -5570.938892 kJ/mol
# Density = 2.243759 g / cm^3
# Si number density = 22.488777 Si / 1000 Ang^3
#
#
#
# Elastic Constant Matrix: (Units=GPa)
#
#
# Indices 1 2 3 4 5 6 
#
# 1 153.7819 10.0737 26.1391 0.0000 0.0000 0.0000
# 2 10.0737 33.2713 0.2955 0.0000 0.0000 0.0000
# 3 26.1391 0.2955 75.4440 0.0000 0.0000 0.0000
# 4 0.0000 0.0000 0.0000 -18.0973 0.0000 0.0000
# 5 0.0000 0.0000 0.0000 0.0000 42.8544 0.0000
# 6 0.0000 0.0000 0.0000 0.0000 0.0000 235.5866
#
#
#
# Elastic Compliance Matrix: (Units=1/GPa)
#
#
# Indices 1 2 3 4 5 6 
#
# 1 0.007055 -0.002115 -0.002436 0.000000 0.000000 0.000000
# 2 -0.002115 0.030691 0.000612 0.000000 0.000000 0.000000
# 3 -0.002436 0.000612 0.014097 0.000000 0.000000 0.000000
# 4 0.000000 0.000000 0.000000 -0.055257 0.000000 0.000000
# 5 0.000000 0.000000 0.000000 0.000000 0.023335 0.000000
# 6 0.000000 0.000000 0.000000 0.000000 0.000000 0.004245
#
#
# Mechanical properties :
#
#
# Convention : Reuss Voigt Hill
#
# Bulk Modulus (GPa) = 22.74487 37.27933 30.01210
# Shear Modulus (GPa) = 107.07301 67.13467 87.10384
#
# Velocity S-wave (km/s) = 6.90761 5.46967 6.23027
# Velocity P-wave (km/s) = 8.58813 7.51682 8.07027
#
# Compressibility (1/GPa) = 0.04396596
#
# Stress axis : x y z
#
# Youngs Moduli (GPa) = 141.73702 32.58310 70.93947
#
# Poissons Ratio (x) = 0.06890 0.17282
# Poissons Ratio (y) = 0.29971 -0.04344
# Poissons Ratio (z) = 0.34530 -0.01995
#
# Static dielectric constant tensor:
#      x y z
#    x 1.817950 0.000000 0.000000 
#    y 0.000000 1.951670 0.000000 
#    z 0.000000 0.000000 1.801930 
# 
# From -- ./inp_files/3802.got.cif
#   From: 2010.05.17/outbox.cif.g08.bks.cpg/sg59_2_cif.got.tgz:3802.got - 2010.06.03 14:40:33.
