data_PCOD9447867
_publ_section_title
;
Structure prediction by ZEFSAII (Michael W. Deem and Ramdas Pophale) SiO2 
 PCOD9447867
Probable space group: P M M N
;
_chemical_formula_sum "Si O2"
_cell_formula_units_Z 56
_cell_length_a 15.162741
_cell_length_b 9.347930
_cell_length_c 19.037721
_cell_angle_alpha 90.000000
_cell_angle_beta 90.000000
_cell_angle_gamma 90.000000
_cell_volume 2698.411172
_symmetry_space_group_name_H-M "P M M N"
_symmetry_group_IT_number 59
_space_group.IT_coordinate_system_code '2'
_symmetry_cell_setting 'orthorhombic'
loop_
_space_group_symop_operation_xyz
x,y,z
1/2-x,1/2-y,z
1/2+x,-y,-z
-x,1/2+y,-z
-x,-y,-z
1/2+x,1/2+y,-z
1/2-x,y,z
x,1/2-y,z
loop_
_atom_site_type_symbol
_atom_site_label
_atom_site_fract_x
_atom_site_fract_y
_atom_site_fract_z
Si Si1 0.405950 0.420389 0.000648
Si Si2 0.642065 0.412919 0.559676
Si Si3 0.895192 0.579551 0.150813
Si Si4 0.141828 0.086120 0.578177
Si Si5 0.920162 0.920567 0.847953
Si Si6 0.144501 0.089122 0.307541
Si Si7 0.352942 0.909234 0.710997
O O1 0.421252 0.250000 0.995126
O O2 0.367738 0.445545 0.078741
O O3 0.500000 0.500000 0.000000
O O4 0.358909 0.458294 0.927234
O O5 0.750000 0.412168 0.559813
O O6 0.613041 0.250000 0.551458
O O7 0.615043 0.508512 0.493504
O O8 0.612080 0.480415 0.633350
O O9 0.887364 0.750000 0.161449
O O10 0.856881 0.494876 0.216447
O O11 0.995907 0.524305 0.149608
O O12 0.250000 0.087551 0.579086
O O13 0.113079 0.250000 0.580515
O O14 0.109492 0.999408 0.646270
O O15 0.944553 0.750000 0.849008
O O16 0.875097 0.946992 0.773327
O O17 0.250000 0.093497 0.314534
O O18 0.111033 0.250000 0.321475
O O19 0.250000 0.892886 0.694243
O O20 0.392019 0.750000 0.717986
#
# Coordination Sequence:
#
# PCOD9447867 Si02
#       7
#     8   8   8   8   8   8   8
#     4   8  15  28  46  68  91 119 157 197 234 274
#     4   9  16  26  42  65  93 124 157 192 230 274
#     4  10  19  31  49  72  96 123 158 198 239 284
#     4   9  16  27  45  68  93 121 155 194 232 272
#     4   9  17  31  50  70  94 125 161 199 238 281
#     4   9  17  29  46  69  96 125 158 196 236 277
#     4  10  20  33  49  70  97 127 158 193 235 282
#
# _framework density 20.752953000000002
#
# number of rings (size 3 to 8) (size 9 to 14) (size 15 to 20)
#    0.000    2.857    0.000    1.714    0.000    5.429 
#    0.000    0.714    0.000    3.429    0.000    2.000 
#    0.000    0.000    0.000    0.000    0.000    0.000 
#
# Total GULP energy -312064.320013 kJ/mol
# GULP energy per Si atom -5572.577143 kJ/mol
# Density = 2.070572 g / cm^3
# Si number density = 20.752953 Si / 1000 Ang^3
#
#
#
# Elastic Constant Matrix: (Units=GPa)
#
#
# Indices 1 2 3 4 5 6 
#
# 1 30.0805 10.3570 3.7130 0.0000 0.0000 0.0000
# 2 10.3570 131.8716 107.6297 0.0000 0.0000 0.0000
# 3 3.7130 107.6297 212.1476 0.0000 0.0000 0.0000
# 4 0.0000 0.0000 0.0000 -28.6241 0.0000 0.0000
# 5 0.0000 0.0000 0.0000 0.0000 23.5899 0.0000
# 6 0.0000 0.0000 0.0000 0.0000 0.0000 6.9193
#
#
#
# Elastic Compliance Matrix: (Units=1/GPa)
#
#
# Indices 1 2 3 4 5 6 
#
# 1 0.034380 -0.003770 0.001311 0.000000 0.000000 0.000000
# 2 -0.003770 0.013356 -0.006710 0.000000 0.000000 0.000000
# 3 0.001311 -0.006710 0.008095 0.000000 0.000000 0.000000
# 4 0.000000 0.000000 0.000000 -0.034936 0.000000 0.000000
# 5 0.000000 0.000000 0.000000 0.000000 0.042391 0.000000
# 6 0.000000 0.000000 0.000000 0.000000 0.000000 0.144524
#
#
# Mechanical properties :
#
#
# Convention : Reuss Voigt Hill
#
# Bulk Modulus (GPa) = 26.67166 68.61101 47.64134
# Shear Modulus (GPa) = 20.95157 17.20369 19.07763
#
# Velocity S-wave (km/s) = 3.18082 2.88232 3.03524
# Velocity P-wave (km/s) = 5.13518 6.64903 5.94052
#
# Compressibility (1/GPa) = 0.03749298
#
# Stress axis : x y z
#
# Youngs Moduli (GPa) = 29.08630 74.87540 123.53574
#
# Poissons Ratio (x) = 0.28230 -0.16196
# Poissons Ratio (y) = 0.10966 0.82889
# Poissons Ratio (z) = -0.03813 0.50239
#
# Static dielectric constant tensor:
#      x y z
#    x 1.790740 0.000000 0.000000 
#    y 0.000000 1.715080 0.000000 
#    z 0.000000 0.000000 1.771570 
# 
# From -- ./inp_files/26012.got.cif
#   From: 2010.05.17/outbox.cif.g08.bks.cpg/sg59_14_cif.got.tgz:26012.got - 2010.06.03 14:40:33.
