data_PCOD9447005
_publ_section_title
;
Structure prediction by ZEFSAII (Michael W. Deem and Ramdas Pophale) SiO2 
 PCOD9447005
Probable space group: P M M N
;
_chemical_formula_sum "Si O2"
_cell_formula_units_Z 64
_cell_length_a 7.345055
_cell_length_b 16.944430
_cell_length_c 22.561187
_cell_angle_alpha 90.000000
_cell_angle_beta 90.000000
_cell_angle_gamma 90.000000
_cell_volume 2807.915029
_symmetry_space_group_name_H-M "P M M N"
_symmetry_group_IT_number 59
_space_group.IT_coordinate_system_code '2'
_symmetry_cell_setting 'orthorhombic'
loop_
_space_group_symop_operation_xyz
x,y,z
1/2-x,1/2-y,z
1/2+x,-y,-z
-x,1/2+y,-z
-x,-y,-z
1/2+x,1/2+y,-z
1/2-x,y,z
x,1/2-y,z
loop_
_atom_site_type_symbol
_atom_site_label
_atom_site_fract_x
_atom_site_fract_y
_atom_site_fract_z
Si Si1 0.528263 0.159259 0.123469
Si Si2 0.528233 0.337503 0.368300
Si Si3 0.031503 0.838890 0.125801
Si Si4 0.965136 0.913354 0.251750
Si Si5 0.966541 0.000326 0.430192
Si Si6 0.533137 0.092633 0.998495
Si Si7 0.972158 0.837233 0.369386
Si Si8 0.027885 0.589255 0.752938
O O1 0.750000 0.154454 0.122669
O O2 0.478878 0.250000 0.130971
O O3 0.467146 0.111871 0.181240
O O4 0.462840 0.128893 0.059819
O O5 0.750000 0.337151 0.371525
O O6 0.468322 0.250000 0.388402
O O7 0.465895 0.416420 0.402860
O O8 0.477345 0.351584 0.299528
O O9 0.250000 0.836540 0.121527
O O10 0.964821 0.750000 0.134602
O O11 0.962228 0.872719 0.063399
O O12 0.991021 0.889166 0.183956
O O13 0.750000 0.918139 0.261551
O O14 0.029383 0.851653 0.300948
O O15 0.035825 0.001320 0.262535
O O16 0.750000 0.000465 0.418381
O O17 0.033253 0.916780 0.403262
O O18 0.000000 0.000000 0.500000
O O19 0.750000 0.107266 0.998443
O O20 0.500000 0.000000 0.000000
O O21 0.750000 0.835801 0.372890
O O22 0.032674 0.750000 0.389756
O O23 0.250000 0.588873 0.754123
#
# Coordination Sequence:
#
# PCOD9447005 Si02
#       8
#     8   8   8   8   8   8   8   8
#     4   9  16  26  43  68  95 124 160 201 244 292
#     4   9  16  28  48  74 104 134 163 204 258 306
#     4  10  21  35  49  69 102 140 171 204 256 316
#     4  10  18  31  53  79 102 127 169 218 256 294
#     4  10  20  35  53  76 105 136 170 207 249 303
#     4  10  20  34  50  69  95 129 167 208 253 301
#     4   9  17  31  52  76 103 136 172 212 256 299
#     4   9  15  25  45  74 102 125 157 206 256 297
#
# _framework density 22.792714
#
# number of rings (size 3 to 8) (size 9 to 14) (size 15 to 20)
#    0.000    2.500    1.250    1.875    0.000    5.750 
#    0.000    0.625    0.000    1.875    0.000    0.000 
#    0.000    3.000    0.000    0.000    0.000    0.000 
#
# Total GULP energy -357407.566969 kJ/mol
# GULP energy per Si atom -5584.493234 kJ/mol
# Density = 2.274084 g / cm^3
# Si number density = 22.792714 Si / 1000 Ang^3
#
#
#
# Elastic Constant Matrix: (Units=GPa)
#
#
# Indices 1 2 3 4 5 6 
#
# 1 84.0626 4.4429 -3.6618 0.0000 0.0000 0.0000
# 2 4.4429 191.1584 73.4427 0.0000 0.0000 0.0000
# 3 -3.6618 73.4427 136.1899 0.0000 0.0000 0.0000
# 4 0.0000 0.0000 0.0000 22.7763 0.0000 0.0000
# 5 0.0000 0.0000 0.0000 0.0000 11.7084 0.0000
# 6 0.0000 0.0000 0.0000 0.0000 0.0000 -2.1855
#
#
#
# Elastic Compliance Matrix: (Units=1/GPa)
#
#
# Indices 1 2 3 4 5 6 
#
# 1 0.011949 -0.000506 0.000594 0.000000 0.000000 0.000000
# 2 -0.000506 0.006620 -0.003583 0.000000 0.000000 0.000000
# 3 0.000594 -0.003583 0.009291 0.000000 0.000000 0.000000
# 4 0.000000 0.000000 0.000000 0.043905 0.000000 0.000000
# 5 0.000000 0.000000 0.000000 0.000000 0.085409 0.000000
# 6 0.000000 0.000000 0.000000 0.000000 0.000000 -0.457552
#
#
# Mechanical properties :
#
#
# Convention : Reuss Voigt Hill
#
# Bulk Modulus (GPa) = 47.91837 62.20651 55.06244
# Shear Modulus (GPa) = -17.45616 28.93898 5.74141
#
# Velocity S-wave (km/s) = -2.77043 3.56709 1.58885
# Velocity P-wave (km/s) = 3.29173 6.65711 5.25131
#
# Compressibility (1/GPa) = 0.02086882
#
# Stress axis : x y z
#
# Youngs Moduli (GPa) = 83.69235 151.06269 107.63009
#
# Poissons Ratio (x) = 0.07643 -0.06394
# Poissons Ratio (y) = 0.04235 0.38568
# Poissons Ratio (z) = -0.04972 0.54132
#
# Static dielectric constant tensor:
#      x y z
#    x 1.910000 0.000000 0.000000 
#    y 0.000000 1.822390 0.000000 
#    z 0.000000 0.000000 1.834820 
# 
# From -- ./inp_files/31533.got.cif
#   From: 2010.05.17/outbox.cif.g08.bks.cpg/sg59_16_cif.got.tgz:31533.got - 2010.06.03 14:40:33.
