data_PCOD9447310
_publ_section_title
;
Structure prediction by ZEFSAII (Michael W. Deem and Ramdas Pophale) SiO2 
 PCOD9447310
Probable space group: P M M N
;
_chemical_formula_sum "Si O2"
_cell_formula_units_Z 44
_cell_length_a 14.441222
_cell_length_b 16.800207
_cell_length_c 7.060639
_cell_angle_alpha 90.000000
_cell_angle_beta 90.000000
_cell_angle_gamma 90.000000
_cell_volume 1713.020595
_symmetry_space_group_name_H-M "P M M N"
_symmetry_group_IT_number 59
_space_group.IT_coordinate_system_code '2'
_symmetry_cell_setting 'orthorhombic'
loop_
_space_group_symop_operation_xyz
x,y,z
1/2-x,1/2-y,z
1/2+x,-y,-z
-x,1/2+y,-z
-x,-y,-z
1/2+x,1/2+y,-z
1/2-x,y,z
x,1/2-y,z
loop_
_atom_site_type_symbol
_atom_site_label
_atom_site_fract_x
_atom_site_fract_y
_atom_site_fract_z
Si Si1 0.063661 0.250000 0.387995
Si Si2 0.438747 0.416369 0.308406
Si Si3 0.355435 0.572039 0.818855
Si Si4 0.111631 0.750000 0.343376
Si Si5 0.645692 0.893737 0.106763
Si Si6 0.351403 0.573104 0.273500
Si Si7 0.526603 0.750000 0.062919
O O1 0.972160 0.250000 0.511328
O O2 0.103696 0.160248 0.418108
O O3 0.047145 0.250000 0.159150
O O4 0.548020 0.398779 0.270532
O O5 0.422395 0.509090 0.359559
O O6 0.385546 0.414543 0.106718
O O7 0.250000 0.600659 0.770022
O O8 0.356251 0.476792 0.784951
O O9 0.365640 0.582540 0.046880
O O10 0.151605 0.838614 0.361310
O O11 0.078625 0.750000 0.123434
O O12 0.750000 0.861887 0.108047
O O13 0.572774 0.826724 0.158433
O O14 0.250000 0.536624 0.301369
#
# Coordination Sequence:
#
# PCOD9447310 Si02
#       7
#     4   8   8   4   8   8   4
#     4  10  24  38  60  92 113 151 207 243 294 360
#     4  10  18  36  57  84 121 158 199 248 302 352
#     4   9  17  30  53  87 119 154 203 249 296 358
#     4  12  23  39  61  87 123 157 198 250 293 351
#     4   9  16  28  53  86 116 152 201 247 293 355
#     4  10  20  35  59  87 119 162 202 241 298 358
#     4  10  19  35  59  83 116 160 195 241 307 349
#
# _framework density 25.685623
#
# number of rings (size 3 to 8) (size 9 to 14) (size 15 to 20)
#    0.000    2.182    0.000    7.636    0.000    0.727 
#    0.000    4.545    0.000   15.273    0.000    0.000 
#    0.000    0.000    0.000    0.000    0.000    0.000 
#
# Total GULP energy -245422.571181 kJ/mol
# GULP energy per Si atom -5577.785709 kJ/mol
# Density = 2.562716 g / cm^3
# Si number density = 25.685623 Si / 1000 Ang^3
#
#
#
# Elastic Constant Matrix: (Units=GPa)
#
#
# Indices 1 2 3 4 5 6 
#
# 1 97.7505 47.4637 0.5601 0.0000 0.0000 0.0000
# 2 47.4637 181.1271 3.6676 0.0000 0.0000 0.0000
# 3 0.5601 3.6676 86.3796 0.0000 0.0000 0.0000
# 4 0.0000 0.0000 0.0000 12.8959 0.0000 0.0000
# 5 0.0000 0.0000 0.0000 0.0000 4.4294 0.0000
# 6 0.0000 0.0000 0.0000 0.0000 0.0000 11.7991
#
#
#
# Elastic Compliance Matrix: (Units=1/GPa)
#
#
# Indices 1 2 3 4 5 6 
#
# 1 0.011722 -0.003073 0.000054 0.000000 0.000000 0.000000
# 2 -0.003073 0.006331 -0.000249 0.000000 0.000000 0.000000
# 3 0.000054 -0.000249 0.011587 0.000000 0.000000 0.000000
# 4 0.000000 0.000000 0.000000 0.077544 0.000000 0.000000
# 5 0.000000 0.000000 0.000000 0.000000 0.225764 0.000000
# 6 0.000000 0.000000 0.000000 0.000000 0.000000 0.084752
#
#
# Mechanical properties :
#
#
# Convention : Reuss Voigt Hill
#
# Bulk Modulus (GPa) = 43.27939 52.07111 47.67525
# Shear Modulus (GPa) = 11.57577 26.72926 19.15251
#
# Velocity S-wave (km/s) = 2.12520 3.22938 2.73362
# Velocity P-wave (km/s) = 4.78625 5.84993 5.34462
#
# Compressibility (1/GPa) = 0.02310569
#
# Stress axis : x y z
#
# Youngs Moduli (GPa) = 85.31095 157.94714 86.30345
#
# Poissons Ratio (x) = 0.48533 -0.00470
# Poissons Ratio (y) = 0.26214 0.02148
# Poissons Ratio (z) = -0.00465 0.03931
#
# Static dielectric constant tensor:
#      x y z
#    x 1.995060 0.000000 0.000000 
#    y 0.000000 2.115610 0.000000 
#    z 0.000000 0.000000 2.051460 
# 
# From -- ./inp_files/8953.got.cif
#   From: 2010.05.17/outbox.cif.g08.bks.cpg/sg59_5_cif.got.tgz:8953.got - 2010.06.03 14:40:33.
