data_PCOD9447584
_publ_section_title
;
Structure prediction by ZEFSAII (Michael W. Deem and Ramdas Pophale) SiO2 
 PCOD9447584
Probable space group: P M M N
;
_chemical_formula_sum "Si O2"
_cell_formula_units_Z 56
_cell_length_a 7.697928
_cell_length_b 24.030088
_cell_length_c 17.581434
_cell_angle_alpha 90.000000
_cell_angle_beta 90.000000
_cell_angle_gamma 90.000000
_cell_volume 3252.246842
_symmetry_space_group_name_H-M "P M M N"
_symmetry_group_IT_number 59
_space_group.IT_coordinate_system_code '2'
_symmetry_cell_setting 'orthorhombic'
loop_
_space_group_symop_operation_xyz
x,y,z
1/2-x,1/2-y,z
1/2+x,-y,-z
-x,1/2+y,-z
-x,-y,-z
1/2+x,1/2+y,-z
1/2-x,y,z
x,1/2-y,z
loop_
_atom_site_type_symbol
_atom_site_label
_atom_site_fract_x
_atom_site_fract_y
_atom_site_fract_z
Si Si1 0.044529 0.816551 0.701501
Si Si2 0.546905 0.886844 0.154148
Si Si3 0.250000 0.317432 0.589555
Si Si4 0.446181 0.685147 0.296736
Si Si5 0.460906 0.813748 0.009103
Si Si6 0.250000 0.317404 0.416846
Si Si7 0.461712 0.623414 0.857092
Si Si8 0.040711 0.502778 0.910218
O O1 0.250000 0.826502 0.687186
O O2 0.024996 0.750000 0.715236
O O3 0.988818 0.849897 0.776865
O O4 0.921104 0.832514 0.631425
O O5 0.750000 0.891930 0.173739
O O6 0.460854 0.853460 0.222892
O O7 0.528956 0.850949 0.077610
O O8 0.475818 0.947930 0.133383
O O9 0.250000 0.250000 0.585365
O O10 0.418084 0.332769 0.639033
O O11 0.250000 0.338593 0.503260
O O12 0.250000 0.683490 0.326098
O O13 0.484626 0.750000 0.275528
O O14 0.250000 0.815634 0.011895
O O15 0.515144 0.750000 0.017301
O O16 0.516242 0.838739 0.928246
O O17 0.250000 0.250000 0.420686
O O18 0.250000 0.623057 0.857556
O O19 0.521283 0.560637 0.873918
O O20 0.250000 0.502113 0.904736
O O21 0.000000 0.500000 0.000000
#
# Coordination Sequence:
#
# PCOD9447584 Si02
#       8
#     8   8   4   8   8   4   8   8
#     4   9  17  31  52  77 107 139 171 209 256 311
#     4  11  21  32  47  70 102 136 175 220 263 302
#     4   9  18  34  54  79 113 139 161 206 258 313
#     4  10  20  34  54  78 105 138 173 209 257 314
#     4  10  19  30  47  68  92 133 178 210 252 306
#     4   9  18  32  52  81 113 139 163 202 258 317
#     4   9  17  32  50  67  97 134 174 221 259 296
#     4  10  20  34  50  68  95 135 179 224 262 299
#
# _framework density 17.218865000000001
#
# number of rings (size 3 to 8) (size 9 to 14) (size 15 to 20)
#    0.000    2.286    2.143    1.286    0.000    4.857 
#    2.571    2.857    0.000    0.000    0.000    1.000 
#    0.000    0.000    0.000    0.000    0.000    0.000 
#
# Total GULP energy -312431.767751 kJ/mol
# GULP energy per Si atom -5579.138710 kJ/mol
# Density = 1.717967 g / cm^3
# Si number density = 17.218865 Si / 1000 Ang^3
#
#
#
# Elastic Constant Matrix: (Units=GPa)
#
#
# Indices 1 2 3 4 5 6 
#
# 1 62.8268 13.6181 36.5459 0.0000 0.0000 0.0000
# 2 13.6181 61.3245 19.0529 0.0000 0.0000 0.0000
# 3 36.5459 19.0529 117.8772 0.0000 0.0000 0.0000
# 4 0.0000 0.0000 0.0000 3.1028 0.0000 0.0000
# 5 0.0000 0.0000 0.0000 0.0000 -17.7696 0.0000
# 6 0.0000 0.0000 0.0000 0.0000 0.0000 10.1802
#
#
#
# Elastic Compliance Matrix: (Units=1/GPa)
#
#
# Indices 1 2 3 4 5 6 
#
# 1 0.019812 -0.002623 -0.005718 0.000000 0.000000 0.000000
# 2 -0.002623 0.017516 -0.002018 0.000000 0.000000 0.000000
# 3 -0.005718 -0.002018 0.010582 0.000000 0.000000 0.000000
# 4 0.000000 0.000000 0.000000 0.322291 0.000000 0.000000
# 5 0.000000 0.000000 0.000000 0.000000 -0.056276 0.000000
# 6 0.000000 0.000000 0.000000 0.000000 0.000000 0.098230
#
#
# Mechanical properties :
#
#
# Convention : Reuss Voigt Hill
#
# Bulk Modulus (GPa) = 36.77582 42.27359 39.52471
# Shear Modulus (GPa) = 11.31381 10.62345 10.96863
#
# Velocity S-wave (km/s) = 2.56610 2.48657 2.52665
# Velocity P-wave (km/s) = 5.49400 5.73133 5.61392
#
# Compressibility (1/GPa) = 0.02719178
#
# Stress axis : x y z
#
# Youngs Moduli (GPa) = 50.47542 57.09030 94.49598
#
# Poissons Ratio (x) = 0.14974 0.54036
# Poissons Ratio (y) = 0.13239 0.19069
# Poissons Ratio (z) = 0.28864 0.11521
#
# Static dielectric constant tensor:
#      x y z
#    x 1.631210 0.000000 0.000000 
#    y 0.000000 1.582130 0.000000 
#    z 0.000000 0.000000 1.546020 
# 
# From -- ./inp_files/21132.got.cif
#   From: 2010.05.17/outbox.cif.g08.bks.cpg/sg59_11_cif.got.tgz:21132.got - 2010.06.03 14:40:33.
