data_PCOD9447701
_publ_section_title
;
Structure prediction by ZEFSAII (Michael W. Deem and Ramdas Pophale) SiO2 
 PCOD9447701
Probable space group: P M M N
;
_chemical_formula_sum "Si O2"
_cell_formula_units_Z 64
_cell_length_a 9.182826
_cell_length_b 24.779849
_cell_length_c 16.261379
_cell_angle_alpha 90.000000
_cell_angle_beta 90.000000
_cell_angle_gamma 90.000000
_cell_volume 3700.261208
_symmetry_space_group_name_H-M "P M M N"
_symmetry_group_IT_number 59
_space_group.IT_coordinate_system_code '2'
_symmetry_cell_setting 'orthorhombic'
loop_
_space_group_symop_operation_xyz
x,y,z
1/2-x,1/2-y,z
1/2+x,-y,-z
-x,1/2+y,-z
-x,-y,-z
1/2+x,1/2+y,-z
1/2-x,y,z
x,1/2-y,z
loop_
_atom_site_type_symbol
_atom_site_label
_atom_site_fract_x
_atom_site_fract_y
_atom_site_fract_z
Si Si1 0.575911 0.189196 0.288176
Si Si2 0.075719 0.443703 0.022514
Si Si3 0.419212 0.388646 0.608033
Si Si4 0.421515 0.606496 0.126897
Si Si5 0.575902 0.311302 0.483603
Si Si6 0.083573 0.187144 0.767329
Si Si7 0.424403 0.527369 0.280778
Si Si8 0.425031 0.086571 0.210148
O O1 0.750000 0.185413 0.276434
O O2 0.530318 0.250000 0.263435
O O3 0.548872 0.184099 0.386089
O O4 0.497482 0.141255 0.240931
O O5 0.250000 0.449129 0.017231
O O6 0.038711 0.426283 0.115246
O O7 0.000000 0.500000 0.000000
O O8 0.014449 0.403127 0.954400
O O9 0.250000 0.399327 0.590028
O O10 0.497123 0.358699 0.532810
O O11 0.427929 0.345540 0.682618
O O12 0.496330 0.441817 0.644945
O O13 0.250000 0.604122 0.109378
O O14 0.469820 0.661646 0.169890
O O15 0.453973 0.560415 0.195912
O O16 0.750000 0.314844 0.496931
O O17 0.530409 0.250000 0.508825
O O18 0.250000 0.179189 0.797768
O O19 0.059658 0.250000 0.753566
O O20 0.250000 0.529728 0.293350
O O21 0.468630 0.465621 0.264641
O O22 0.250000 0.090913 0.215537
#
# Coordination Sequence:
#
# PCOD9447701 Si02
#       8
#     8   8   8   8   8   8   8   8
#     4   9  20  39  60  82 107 136 176 223 268 317
#     4  11  21  35  55  81 109 136 173 218 263 313
#     4  10  19  30  49  80 110 137 177 223 263 311
#     4  10  19  33  51  75 105 137 176 219 261 309
#     4   9  18  34  55  77 104 140 179 220 268 318
#     4   9  18  32  48  70 105 144 177 215 264 313
#     4   9  18  34  51  73 109 144 173 212 261 316
#     4  10  21  37  57  82 109 137 175 219 266 319
#
# _framework density 17.296075999999999
#
# number of rings (size 3 to 8) (size 9 to 14) (size 15 to 20)
#    0.000    2.375    1.250    2.250    0.000    4.250 
#    0.000    2.500    0.000    0.750    0.000    0.000 
#    0.000    0.000    0.000    0.000    0.000    0.000 
#
# Total GULP energy -356956.081614 kJ/mol
# GULP energy per Si atom -5577.438775 kJ/mol
# Density = 1.725671 g / cm^3
# Si number density = 17.296076 Si / 1000 Ang^3
#
#
#
# Elastic Constant Matrix: (Units=GPa)
#
#
# Indices 1 2 3 4 5 6 
#
# 1 52.4478 50.4398 44.3390 0.0000 0.0000 0.0000
# 2 50.4398 125.2685 53.6881 0.0000 0.0000 0.0000
# 3 44.3390 53.6881 63.3694 0.0000 0.0000 0.0000
# 4 0.0000 0.0000 0.0000 27.3915 0.0000 0.0000
# 5 0.0000 0.0000 0.0000 0.0000 29.3617 0.0000
# 6 0.0000 0.0000 0.0000 0.0000 0.0000 32.0319
#
#
#
# Elastic Compliance Matrix: (Units=1/GPa)
#
#
# Indices 1 2 3 4 5 6 
#
# 1 0.051689 -0.008341 -0.029099 0.000000 0.000000 0.000000
# 2 -0.008341 0.013880 -0.005923 0.000000 0.000000 0.000000
# 3 -0.029099 -0.005923 0.041159 0.000000 0.000000 0.000000
# 4 0.000000 0.000000 0.000000 0.036508 0.000000 0.000000
# 5 0.000000 0.000000 0.000000 0.000000 0.034058 0.000000
# 6 0.000000 0.000000 0.000000 0.000000 0.000000 0.031219
#
#
# Mechanical properties :
#
#
# Convention : Reuss Voigt Hill
#
# Bulk Modulus (GPa) = 49.99839 59.77996 54.88917
# Shear Modulus (GPa) = 16.56140 23.93161 20.24651
#
# Velocity S-wave (km/s) = 3.09775 3.72377 3.42509
# Velocity P-wave (km/s) = 6.46257 7.28879 6.88808
#
# Compressibility (1/GPa) = 0.02000064
#
# Stress axis : x y z
#
# Youngs Moduli (GPa) = 19.34662 72.04563 24.29585
#
# Poissons Ratio (x) = 0.60094 0.70699
# Poissons Ratio (y) = 0.16137 0.14391
# Poissons Ratio (z) = 0.56297 0.42675
#
# Static dielectric constant tensor:
#      x y z
#    x 1.584010 0.000000 0.000000 
#    y 0.000000 1.585850 0.000000 
#    z 0.000000 0.000000 1.576160 
# 
# From -- ./inp_files/21504.got.cif
#   From: 2010.05.17/outbox.cif.g08.bks.cpg/sg59_11_cif.got.tgz:21504.got - 2010.06.03 14:40:33.
