data_PCOD9447118
_publ_section_title
;
Structure prediction by ZEFSAII (Michael W. Deem and Ramdas Pophale) SiO2 
 PCOD9447118
Probable space group: P M M N
;
_chemical_formula_sum "Si O2"
_cell_formula_units_Z 64
_cell_length_a 7.973649
_cell_length_b 20.650705
_cell_length_c 20.698632
_cell_angle_alpha 90.000000
_cell_angle_beta 90.000000
_cell_angle_gamma 90.000000
_cell_volume 3408.267240
_symmetry_space_group_name_H-M "P M M N"
_symmetry_group_IT_number 59
_space_group.IT_coordinate_system_code '2'
_symmetry_cell_setting 'orthorhombic'
loop_
_space_group_symop_operation_xyz
x,y,z
1/2-x,1/2-y,z
1/2+x,-y,-z
-x,1/2+y,-z
-x,-y,-z
1/2+x,1/2+y,-z
1/2-x,y,z
x,1/2-y,z
loop_
_atom_site_type_symbol
_atom_site_label
_atom_site_fract_x
_atom_site_fract_y
_atom_site_fract_z
Si Si1 0.950521 0.088543 0.950895
Si Si2 0.549904 0.591396 0.552983
Si Si3 0.548258 0.676855 0.165286
Si Si4 0.544438 0.573230 0.270347
Si Si5 0.952657 0.945582 0.413376
Si Si6 0.550998 0.945718 0.910141
Si Si7 0.949109 0.429902 0.231359
Si Si8 0.049848 0.822737 0.669648
O O1 0.750000 0.085831 0.951711
O O2 0.006803 0.144987 0.903467
O O3 0.014018 0.019244 0.922771
O O4 0.011218 0.092877 0.024505
O O5 0.750000 0.597960 0.552317
O O6 0.487940 0.589605 0.478721
O O7 0.505327 0.520683 0.581536
O O8 0.478494 0.646090 0.599449
O O9 0.750000 0.679042 0.170941
O O10 0.483978 0.750000 0.171120
O O11 0.485677 0.628151 0.220974
O O12 0.750000 0.573284 0.268558
O O13 0.492854 0.582710 0.344708
O O14 0.485910 0.501847 0.248211
O O15 0.750000 0.944703 0.414416
O O16 0.750000 0.949143 0.902044
O O17 0.477022 0.918157 0.844271
O O18 0.750000 0.432765 0.243624
O O19 0.018893 0.373800 0.277618
O O20 0.250000 0.818785 0.679829
O O21 0.981083 0.750000 0.674761
#
# Coordination Sequence:
#
# PCOD9447118 Si02
#       8
#     8   8   8   8   8   8   8   8
#     4  10  20  34  53  77 105 138 174 211 254 310
#     4  10  19  30  50  79 108 135 172 222 269 311
#     4  10  20  34  53  77 105 137 172 213 264 316
#     4   9  16  30  53  77 102 135 176 217 257 308
#     4   9  17  32  52  76 105 138 176 216 261 312
#     4  10  20  33  53  81 108 132 169 220 266 305
#     4  10  18  32  55  78 102 136 177 220 262 313
#     4  10  21  37  55  74 102 143 183 217 264 326
#
# _framework density 18.77787
#
# number of rings (size 3 to 8) (size 9 to 14) (size 15 to 20)
#    0.000    2.250    2.500    1.125    0.000    2.500 
#    0.000    1.875    0.000    4.500    0.000    0.000 
#    0.000    0.000    0.000    0.000    0.000    0.000 
#
# Total GULP energy -357061.346093 kJ/mol
# GULP energy per Si atom -5579.083533 kJ/mol
# Density = 1.873513 g / cm^3
# Si number density = 18.777870 Si / 1000 Ang^3
#
#
#
# Elastic Constant Matrix: (Units=GPa)
#
#
# Indices 1 2 3 4 5 6 
#
# 1 9.2216 3.7297 -13.4778 0.0000 0.0000 0.0000
# 2 3.7297 134.1105 79.3069 0.0000 0.0000 0.0000
# 3 -13.4778 79.3069 125.4775 0.0000 0.0000 0.0000
# 4 0.0000 0.0000 0.0000 19.4465 0.0000 0.0000
# 5 0.0000 0.0000 0.0000 0.0000 21.5732 0.0000
# 6 0.0000 0.0000 0.0000 0.0000 0.0000 12.3872
#
#
#
# Elastic Compliance Matrix: (Units=1/GPa)
#
#
# Indices 1 2 3 4 5 6 
#
# 1 0.167009 -0.024356 0.033333 0.000000 0.000000 0.000000
# 2 -0.024356 0.015459 -0.012387 0.000000 0.000000 0.000000
# 3 0.033333 -0.012387 0.019379 0.000000 0.000000 0.000000
# 4 0.000000 0.000000 0.000000 0.051423 0.000000 0.000000
# 5 0.000000 0.000000 0.000000 0.000000 0.046354 0.000000
# 6 0.000000 0.000000 0.000000 0.000000 0.000000 0.080728
#
#
# Mechanical properties :
#
#
# Convention : Reuss Voigt Hill
#
# Bulk Modulus (GPa) = 5.12749 45.32524 25.22637
# Shear Modulus (GPa) = 11.05750 23.96478 17.51114
#
# Velocity S-wave (km/s) = 2.42927 3.57630 3.05707
# Velocity P-wave (km/s) = 3.25653 6.42209 5.09158
#
# Compressibility (1/GPa) = 0.19502717
#
# Stress axis : x y z
#
# Youngs Moduli (GPa) = 5.98768 64.68774 51.60259
#
# Poissons Ratio (x) = 1.57555 -1.72007
# Poissons Ratio (y) = 0.14584 0.63919
# Poissons Ratio (z) = -0.19959 0.80127
#
# Static dielectric constant tensor:
#      x y z
#    x 1.667790 0.000000 0.000000 
#    y 0.000000 1.638990 0.000000 
#    z 0.000000 0.000000 1.656700 
# 
# From -- ./inp_files/29571.got.cif
#   From: 2010.05.17/outbox.cif.g08.bks.cpg/sg59_15_cif.got.tgz:29571.got - 2010.06.03 14:40:33.
