data_PCOD9447575
_publ_section_title
;
Structure prediction by ZEFSAII (Michael W. Deem and Ramdas Pophale) SiO2 
 PCOD9447575
Probable space group: P M M N
;
_chemical_formula_sum "Si O2"
_cell_formula_units_Z 64
_cell_length_a 7.820088
_cell_length_b 19.574850
_cell_length_c 21.597798
_cell_angle_alpha 90.000000
_cell_angle_beta 90.000000
_cell_angle_gamma 90.000000
_cell_volume 3306.127195
_symmetry_space_group_name_H-M "P M M N"
_symmetry_group_IT_number 59
_space_group.IT_coordinate_system_code '2'
_symmetry_cell_setting 'orthorhombic'
loop_
_space_group_symop_operation_xyz
x,y,z
1/2-x,1/2-y,z
1/2+x,-y,-z
-x,1/2+y,-z
-x,-y,-z
1/2+x,1/2+y,-z
1/2-x,y,z
x,1/2-y,z
loop_
_atom_site_type_symbol
_atom_site_label
_atom_site_fract_x
_atom_site_fract_y
_atom_site_fract_z
Si Si1 0.047706 0.079159 0.000976
Si Si2 0.455707 0.827383 0.884159
Si Si3 0.459184 0.171090 0.888800
Si Si4 0.047030 0.427743 0.366345
Si Si5 0.955548 0.919579 0.499913
Si Si6 0.043585 0.672192 0.744319
Si Si7 0.958676 0.829195 0.250069
Si Si8 0.952530 0.914776 0.365607
O O1 0.250000 0.082298 0.995014
O O2 0.002325 0.118095 0.064128
O O3 0.975893 0.121508 0.942473
O O4 0.000000 0.000000 0.000000
O O5 0.250000 0.824579 0.882050
O O6 0.516556 0.750000 0.899312
O O7 0.514588 0.844841 0.814360
O O8 0.250000 0.170329 0.889011
O O9 0.509333 0.250000 0.899924
O O10 0.513728 0.150854 0.819341
O O11 0.250000 0.436976 0.372187
O O12 0.984335 0.395930 0.432147
O O13 0.011924 0.379975 0.308195
O O14 0.972312 0.503665 0.358619
O O15 0.750000 0.911349 0.498075
O O16 0.022839 0.893674 0.433540
O O17 0.000000 0.000000 0.500000
O O18 0.250000 0.672010 0.745024
O O19 0.987429 0.750000 0.730977
O O20 0.750000 0.832470 0.249617
O O21 0.004574 0.750000 0.259744
O O22 0.023617 0.875650 0.306067
O O23 0.750000 0.899995 0.366935
#
# Coordination Sequence:
#
# PCOD9447575 Si02
#       8
#     8   8   8   8   8   8   8   8
#     4  11  22  34  50  75 106 135 163 200 245 291
#     4   9  19  37  58  76  96 126 165 208 252 299
#     4   8  15  29  48  69  93 122 156 192 231 279
#     4  10  19  30  46  70  99 129 161 201 246 290
#     4   8  15  27  42  64  94 126 161 198 237 283
#     4   9  19  36  55  73  95 126 164 204 247 300
#     4   8  14  26  46  71  94 117 153 199 237 272
#     4   9  16  28  48  71  94 126 166 203 242 289
#
# _framework density 19.357996
#
# number of rings (size 3 to 8) (size 9 to 14) (size 15 to 20)
#    0.000    3.000    0.000    2.625    0.000    3.000 
#    0.000    4.375    0.000    3.375    0.000    3.500 
#    0.000    0.000    0.000    0.000    0.000    0.000 
#
# Total GULP energy -356568.611217 kJ/mol
# GULP energy per Si atom -5571.384550 kJ/mol
# Density = 1.931394 g / cm^3
# Si number density = 19.357996 Si / 1000 Ang^3
#
#
#
# Elastic Constant Matrix: (Units=GPa)
#
#
# Indices 1 2 3 4 5 6 
#
# 1 21.5021 -2.2704 4.0856 0.0000 0.0000 0.0000
# 2 -2.2704 84.9886 108.9901 0.0000 0.0000 0.0000
# 3 4.0856 108.9901 210.4629 0.0000 0.0000 0.0000
# 4 0.0000 0.0000 0.0000 43.6800 0.0000 0.0000
# 5 0.0000 0.0000 0.0000 0.0000 14.0342 0.0000
# 6 0.0000 0.0000 0.0000 0.0000 0.0000 9.4965
#
#
#
# Elastic Compliance Matrix: (Units=1/GPa)
#
#
# Indices 1 2 3 4 5 6 
#
# 1 0.048195 0.007405 -0.004770 0.000000 0.000000 0.000000
# 2 0.007405 0.036168 -0.018874 0.000000 0.000000 0.000000
# 3 -0.004770 -0.018874 0.014618 0.000000 0.000000 0.000000
# 4 0.000000 0.000000 0.000000 0.022894 0.000000 0.000000
# 5 0.000000 0.000000 0.000000 0.000000 0.071255 0.000000
# 6 0.000000 0.000000 0.000000 0.000000 0.000000 0.105302
#
#
# Mechanical properties :
#
#
# Convention : Reuss Voigt Hill
#
# Bulk Modulus (GPa) = 15.03680 59.84047 37.43863
# Shear Modulus (GPa) = 14.16123 27.18536 20.67330
#
# Velocity S-wave (km/s) = 2.70764 3.75153 3.27149
# Velocity P-wave (km/s) = 4.19043 7.05301 5.80106
#
# Compressibility (1/GPa) = 0.06650351
#
# Stress axis : x y z
#
# Youngs Moduli (GPa) = 20.74883 27.64895 68.40938
#
# Poissons Ratio (x) = -0.20475 0.32634
# Poissons Ratio (y) = -0.15365 1.29113
# Poissons Ratio (z) = 0.09898 0.52183
#
# Static dielectric constant tensor:
#      x y z
#    x 1.731660 0.000000 0.000000 
#    y 0.000000 1.604110 0.000000 
#    z 0.000000 0.000000 1.722710 
# 
# From -- ./inp_files/29410.got.cif
#   From: 2010.05.17/outbox.cif.g08.bks.cpg/sg59_15_cif.got.tgz:29410.got - 2010.06.03 14:40:33.
