data_PCOD9447481
_publ_section_title
;
Structure prediction by ZEFSAII (Michael W. Deem and Ramdas Pophale) SiO2 
 PCOD9447481
Probable space group: P M M N
;
_chemical_formula_sum "Si O2"
_cell_formula_units_Z 48
_cell_length_a 7.844498
_cell_length_b 27.096469
_cell_length_c 12.394564
_cell_angle_alpha 90.000000
_cell_angle_beta 90.000000
_cell_angle_gamma 90.000000
_cell_volume 2634.566175
_symmetry_space_group_name_H-M "P M M N"
_symmetry_group_IT_number 59
_space_group.IT_coordinate_system_code '2'
_symmetry_cell_setting 'orthorhombic'
loop_
_space_group_symop_operation_xyz
x,y,z
1/2-x,1/2-y,z
1/2+x,-y,-z
-x,1/2+y,-z
-x,-y,-z
1/2+x,1/2+y,-z
1/2-x,y,z
x,1/2-y,z
loop_
_atom_site_type_symbol
_atom_site_label
_atom_site_fract_x
_atom_site_fract_y
_atom_site_fract_z
Si Si1 0.957675 0.535956 0.148557
Si Si2 0.045386 0.119816 0.010289
Si Si3 0.045269 0.389950 0.663788
Si Si4 0.049081 0.945745 0.544411
Si Si5 0.041210 0.306321 0.825947
Si Si6 0.044573 0.929951 0.785632
O O1 0.750000 0.534824 0.143307
O O2 0.004482 0.564869 0.257820
O O3 0.020094 0.480380 0.157795
O O4 0.019459 0.570615 0.051791
O O5 0.250000 0.119508 0.003205
O O6 0.999704 0.115011 0.135325
O O7 0.988173 0.165644 0.936144
O O8 0.250000 0.388288 0.663762
O O9 0.986318 0.340332 0.724619
O O10 0.990280 0.404294 0.544496
O O11 0.250000 0.948425 0.557575
O O12 0.978525 0.931910 0.662800
O O13 0.000000 0.000000 0.500000
O O14 0.250000 0.306053 0.825147
O O15 0.983436 0.250000 0.820422
O O16 0.250000 0.932200 0.782317
#
# Coordination Sequence:
#
# PCOD9447481 Si02
#       6
#     8   8   8   8   8   8
#     4   8  14  27  43  62  92 125 151 184 229 272
#     4   9  17  28  46  70  93 118 156 196 229 277
#     4   9  16  30  50  71  97 125 159 199 238 283
#     4  11  21  32  47  67  96 133 168 199 234 281
#     4   8  15  30  54  78  97 120 151 197 254 295
#     4  10  19  30  43  61  95 132 157 185 229 278
#
# _framework density 18.219318000000001
#
# number of rings (size 3 to 8) (size 9 to 14) (size 15 to 20)
#    0.000    2.833    1.667    3.000    0.000    1.333 
#    0.000    3.333    0.000    3.000    0.000    7.000 
#    0.000    0.000    0.000    0.000    0.000    0.000 
#
# Total GULP energy -267400.072598 kJ/mol
# GULP energy per Si atom -5570.834846 kJ/mol
# Density = 1.817785 g / cm^3
# Si number density = 18.219318 Si / 1000 Ang^3
#
#
#
# Elastic Constant Matrix: (Units=GPa)
#
#
# Indices 1 2 3 4 5 6 
#
# 1 18.4237 7.8738 5.4100 0.0000 0.0000 0.0000
# 2 7.8738 114.0035 66.7817 0.0000 0.0000 0.0000
# 3 5.4100 66.7817 128.2978 0.0000 0.0000 0.0000
# 4 0.0000 0.0000 0.0000 11.2522 0.0000 0.0000
# 5 0.0000 0.0000 0.0000 0.0000 21.5693 0.0000
# 6 0.0000 0.0000 0.0000 0.0000 0.0000 11.3297
#
#
#
# Elastic Compliance Matrix: (Units=1/GPa)
#
#
# Indices 1 2 3 4 5 6 
#
# 1 0.055951 -0.003571 -0.000500 0.000000 0.000000 0.000000
# 2 -0.003571 0.012847 -0.006537 0.000000 0.000000 0.000000
# 3 -0.000500 -0.006537 0.011218 0.000000 0.000000 0.000000
# 4 0.000000 0.000000 0.000000 0.088872 0.000000 0.000000
# 5 0.000000 0.000000 0.000000 0.000000 0.046362 0.000000
# 6 0.000000 0.000000 0.000000 0.000000 0.000000 0.088263
#
#
# Mechanical properties :
#
#
# Convention : Reuss Voigt Hill
#
# Bulk Modulus (GPa) = 17.00685 46.76180 31.88433
# Shear Modulus (GPa) = 14.52092 20.87420 17.69756
#
# Velocity S-wave (km/s) = 2.82619 3.38852 3.12005
# Velocity P-wave (km/s) = 4.47265 6.40556 5.52430
#
# Compressibility (1/GPa) = 0.05879983
#
# Stress axis : x y z
#
# Youngs Moduli (GPa) = 17.87270 77.83627 89.14239
#
# Poissons Ratio (x) = 0.27797 0.04461
# Poissons Ratio (y) = 0.06383 0.58271
# Poissons Ratio (z) = 0.00894 0.50880
#
# Static dielectric constant tensor:
#      x y z
#    x 1.665970 0.000000 0.000000 
#    y 0.000000 1.562220 0.000000 
#    z 0.000000 0.000000 1.663800 
# 
# From -- ./inp_files/14499.got.cif
#   From: 2010.05.17/outbox.cif.g08.bks.cpg/sg59_8_cif.got.tgz:14499.got - 2010.06.03 14:40:33.
