data_PCOD9447968
_publ_section_title
;
Structure prediction by ZEFSAII (Michael W. Deem and Ramdas Pophale) SiO2 
 PCOD9447968
Probable space group: P M M N
;
_chemical_formula_sum "Si O2"
_cell_formula_units_Z 48
_cell_length_a 8.744365
_cell_length_b 19.009171
_cell_length_c 16.554440
_cell_angle_alpha 90.000000
_cell_angle_beta 90.000000
_cell_angle_gamma 90.000000
_cell_volume 2751.730825
_symmetry_space_group_name_H-M "P M M N"
_symmetry_group_IT_number 59
_space_group.IT_coordinate_system_code '2'
_symmetry_cell_setting 'orthorhombic'
loop_
_space_group_symop_operation_xyz
x,y,z
1/2-x,1/2-y,z
1/2+x,-y,-z
-x,1/2+y,-z
-x,-y,-z
1/2+x,1/2+y,-z
1/2-x,y,z
x,1/2-y,z
loop_
_atom_site_type_symbol
_atom_site_label
_atom_site_fract_x
_atom_site_fract_y
_atom_site_fract_z
Si Si1 0.933540 0.667539 0.019111
Si Si2 0.068944 0.540487 0.741209
Si Si3 0.066436 0.970818 0.417032
Si Si4 0.064495 0.670923 0.333220
Si Si5 0.933483 0.832239 0.833232
Si Si6 0.932611 0.410158 0.829444
O O1 0.750000 0.659967 0.026678
O O2 0.970021 0.750000 0.032699
O O3 0.015558 0.620536 0.085412
O O4 0.974653 0.650672 0.926408
O O5 0.250000 0.536440 0.731507
O O6 0.988837 0.518319 0.657744
O O7 0.017414 0.616286 0.772447
O O8 0.012610 0.483125 0.806638
O O9 0.250000 0.971309 0.420099
O O10 0.015761 0.890891 0.394438
O O11 0.000000 0.000000 0.500000
O O12 0.250000 0.673004 0.336560
O O13 0.007754 0.750000 0.348467
O O14 0.025260 0.644065 0.243000
O O15 0.750000 0.841077 0.825888
O O16 0.967799 0.750000 0.819868
O O17 0.750000 0.419820 0.826992
#
# Coordination Sequence:
#
# PCOD9447968 Si02
#       6
#     8   8   8   8   8   8
#     4   9  18  32  50  74 105 140 177 219 267 313
#     4  11  22  36  55  78 104 135 173 217 264 315
#     4  10  20  36  58  81 107 138 170 210 262 318
#     4   8  15  29  50  76 103 131 166 209 255 301
#     4   9  19  37  57  75 101 138 178 222 269 313
#     4  10  19  31  50  76 106 140 176 215 261 314
#
# _framework density 17.443566000000001
#
# number of rings (size 3 to 8) (size 9 to 14) (size 15 to 20)
#    0.000    2.500    0.000    5.000    0.000    2.667 
#    0.000    2.500    0.000   13.000    0.000    0.000 
#    0.000    0.000    0.000    0.000    0.000    0.000 
#
# Total GULP energy -267794.237623 kJ/mol
# GULP energy per Si atom -5579.046617 kJ/mol
# Density = 1.740386 g / cm^3
# Si number density = 17.443566 Si / 1000 Ang^3
#
#
#
# Elastic Constant Matrix: (Units=GPa)
#
#
# Indices 1 2 3 4 5 6 
#
# 1 54.4153 40.8597 35.0951 0.0000 0.0000 0.0000
# 2 40.8597 101.6222 66.3298 0.0000 0.0000 0.0000
# 3 35.0951 66.3298 78.6417 0.0000 0.0000 0.0000
# 4 0.0000 0.0000 0.0000 21.8484 0.0000 0.0000
# 5 0.0000 0.0000 0.0000 0.0000 30.9350 0.0000
# 6 0.0000 0.0000 0.0000 0.0000 0.0000 22.1724
#
#
#
# Elastic Compliance Matrix: (Units=1/GPa)
#
#
# Indices 1 2 3 4 5 6 
#
# 1 0.027795 -0.006851 -0.006625 0.000000 0.000000 0.000000
# 2 -0.006851 0.023582 -0.016832 0.000000 0.000000 0.000000
# 3 -0.006625 -0.016832 0.029870 0.000000 0.000000 0.000000
# 4 0.000000 0.000000 0.000000 0.045770 0.000000 0.000000
# 5 0.000000 0.000000 0.000000 0.000000 0.032326 0.000000
# 6 0.000000 0.000000 0.000000 0.000000 0.000000 0.045101
#
#
# Mechanical properties :
#
#
# Convention : Reuss Voigt Hill
#
# Bulk Modulus (GPa) = 48.47677 57.69426 53.08551
# Shear Modulus (GPa) = 18.38663 21.15078 19.76871
#
# Velocity S-wave (km/s) = 3.25016 3.48591 3.37010
# Velocity P-wave (km/s) = 6.47577 7.02486 6.75590
#
# Compressibility (1/GPa) = 0.02062844
#
# Stress axis : x y z
#
# Youngs Moduli (GPa) = 35.97831 42.40565 33.47876
#
# Poissons Ratio (x) = 0.29053 0.22180
# Poissons Ratio (y) = 0.24649 0.56353
# Poissons Ratio (z) = 0.23836 0.71379
#
# Static dielectric constant tensor:
#      x y z
#    x 1.584130 0.000000 0.000000 
#    y 0.000000 1.597910 0.000000 
#    z 0.000000 0.000000 1.567020 
# 
# From -- ./inp_files/20362.got.cif
#   From: 2010.05.17/outbox.cif.g08.bks.cpg/sg59_11_cif.got.tgz:20362.got - 2010.06.03 14:40:33.
