data_PCOD9447051
_publ_section_title
;
Structure prediction by ZEFSAII (Michael W. Deem and Ramdas Pophale) SiO2 
 PCOD9447051
Probable space group: P M M N
;
_chemical_formula_sum "Si O2"
_cell_formula_units_Z 48
_cell_length_a 24.349768
_cell_length_b 19.701528
_cell_length_c 4.951904
_cell_angle_alpha 90.000000
_cell_angle_beta 90.000000
_cell_angle_gamma 90.000000
_cell_volume 2375.565200
_symmetry_space_group_name_H-M "P M M N"
_symmetry_group_IT_number 59
_space_group.IT_coordinate_system_code '2'
_symmetry_cell_setting 'orthorhombic'
loop_
_space_group_symop_operation_xyz
x,y,z
1/2-x,1/2-y,z
1/2+x,-y,-z
-x,1/2+y,-z
-x,-y,-z
1/2+x,1/2+y,-z
1/2-x,y,z
x,1/2-y,z
loop_
_atom_site_type_symbol
_atom_site_label
_atom_site_fract_x
_atom_site_fract_y
_atom_site_fract_z
Si Si1 0.852103 0.386432 0.592461
Si Si2 0.869161 0.536001 0.740315
Si Si3 0.554907 0.958848 0.223250
Si Si4 0.250000 0.936992 0.722497
Si Si5 0.973879 0.393861 0.377918
Si Si6 0.250000 0.031807 0.226522
Si Si7 0.881389 0.250000 0.824411
Si Si8 0.958902 0.250000 0.316614
O O1 0.858645 0.454831 0.769924
O O2 0.803589 0.397033 0.378182
O O3 0.910197 0.382184 0.444266
O O4 0.847352 0.317830 0.762082
O O5 0.895121 0.542091 0.443051
O O6 0.915950 0.559334 0.945371
O O7 0.809276 0.567452 0.799263
O O8 0.508700 0.911362 0.354721
O O9 0.529344 0.035153 0.215830
O O10 0.250000 0.967094 0.021622
O O11 0.250000 0.003575 0.531161
O O12 0.991122 0.320511 0.265295
O O13 0.934740 0.250000 0.622617
O O14 0.906301 0.250000 0.120643
#
# Coordination Sequence:
#
# PCOD9447051 Si02
#       8
#     8   8   8   4   8   4   4   4
#     4   9  19  33  48  68  94 130 169 207 248 293
#     4  10  19  32  49  71  97 124 159 197 246 296
#     4  10  20  31  49  74  99 126 160 203 244 294
#     4  10  20  31  48  66  92 128 168 207 243 282
#     4   9  19  33  50  71  99 129 162 202 249 294
#     4  10  18  32  50  69  94 127 156 196 245 294
#     4  10  20  31  48  66  90 126 170 209 241 280
#     4  10  20  34  50  69  94 131 166 198 245 300
#
# _framework density 20.205718000000001
#
# number of rings (size 3 to 8) (size 9 to 14) (size 15 to 20)
#    0.000    2.333    0.000    4.000    0.000   13.000 
#    0.000    0.000    0.000    8.000    0.000    0.000 
#    0.000    4.000    0.000    0.167    0.000    0.083 
#
# Total GULP energy -267672.831259 kJ/mol
# GULP energy per Si atom -5576.517318 kJ/mol
# Density = 2.015973 g / cm^3
# Si number density = 20.205718 Si / 1000 Ang^3
#
#
#
# Elastic Constant Matrix: (Units=GPa)
#
#
# Indices 1 2 3 4 5 6 
#
# 1 117.5296 14.1576 9.1116 0.0000 0.0000 0.0000
# 2 14.1576 59.3377 1.6752 0.0000 0.0000 0.0000
# 3 9.1116 1.6752 43.2678 0.0000 0.0000 0.0000
# 4 0.0000 0.0000 0.0000 17.3553 0.0000 0.0000
# 5 0.0000 0.0000 0.0000 0.0000 33.0492 0.0000
# 6 0.0000 0.0000 0.0000 0.0000 0.0000 12.4228
#
#
#
# Elastic Compliance Matrix: (Units=1/GPa)
#
#
# Indices 1 2 3 4 5 6 
#
# 1 0.008897 -0.002072 -0.001793 0.000000 0.000000 0.000000
# 2 -0.002072 0.017354 -0.000236 0.000000 0.000000 0.000000
# 3 -0.001793 -0.000236 0.023499 0.000000 0.000000 0.000000
# 4 0.000000 0.000000 0.000000 0.057619 0.000000 0.000000
# 5 0.000000 0.000000 0.000000 0.000000 0.030258 0.000000
# 6 0.000000 0.000000 0.000000 0.000000 0.000000 0.080497
#
#
# Mechanical properties :
#
#
# Convention : Reuss Voigt Hill
#
# Bulk Modulus (GPa) = 24.06891 30.00267 27.03579
# Shear Modulus (GPa) = 20.81816 25.57818 23.19817
#
# Velocity S-wave (km/s) = 3.21333 3.56179 3.39204
# Velocity P-wave (km/s) = 5.07002 5.63879 5.36195
#
# Compressibility (1/GPa) = 0.04154738
#
# Stress axis : x y z
#
# Youngs Moduli (GPa) = 112.39558 57.62447 42.55559
#
# Poissons Ratio (x) = 0.11941 0.07632
# Poissons Ratio (y) = 0.23290 0.01002
# Poissons Ratio (z) = 0.20157 0.01357
#
# Static dielectric constant tensor:
#      x y z
#    x 1.766500 0.000000 0.000000 
#    y 0.000000 1.749410 0.000000 
#    z 0.000000 0.000000 1.748240 
# 
# From -- ./inp_files/3360.got.cif
#   From: 2010.05.17/outbox.cif.g08.bks.cpg/sg59_2_cif.got.tgz:3360.got - 2010.06.03 14:40:33.
