data_PCOD9447795
_publ_section_title
;
Structure prediction by ZEFSAII (Michael W. Deem and Ramdas Pophale) SiO2 
 PCOD9447795
Probable space group: P M M N
;
_chemical_formula_sum "Si O2"
_cell_formula_units_Z 64
_cell_length_a 14.057803
_cell_length_b 29.593630
_cell_length_c 9.169505
_cell_angle_alpha 90.000000
_cell_angle_beta 90.000000
_cell_angle_gamma 90.000000
_cell_volume 3814.710496
_symmetry_space_group_name_H-M "P M M N"
_symmetry_group_IT_number 59
_space_group.IT_coordinate_system_code '2'
_symmetry_cell_setting 'orthorhombic'
loop_
_space_group_symop_operation_xyz
x,y,z
1/2-x,1/2-y,z
1/2+x,-y,-z
-x,1/2+y,-z
-x,-y,-z
1/2+x,1/2+y,-z
1/2-x,y,z
x,1/2-y,z
loop_
_atom_site_type_symbol
_atom_site_label
_atom_site_fract_x
_atom_site_fract_y
_atom_site_fract_z
Si Si1 0.020206 0.439442 0.626767
Si Si2 0.642616 0.195250 0.900713
Si Si3 0.544527 0.803189 0.276166
Si Si4 0.861560 0.604113 0.797039
Si Si5 0.363612 0.802471 0.768526
Si Si6 0.362034 0.113834 0.865495
Si Si7 0.505146 0.648622 0.564384
Si Si8 0.362280 0.012320 0.377437
O O1 0.074709 0.418858 0.764936
O O2 0.095142 0.468113 0.529271
O O3 0.988152 0.397280 0.526328
O O4 0.929815 0.470461 0.662525
O O5 0.750000 0.179207 0.866042
O O6 0.647305 0.250000 0.904835
O O7 0.560084 0.183880 0.787572
O O8 0.615966 0.181407 0.065841
O O9 0.559795 0.750000 0.252702
O O10 0.617387 0.835577 0.192148
O O11 0.544490 0.815980 0.446170
O O12 0.750000 0.614831 0.784564
O O13 0.874012 0.552957 0.738785
O O14 0.920026 0.636220 0.689980
O O15 0.888954 0.609247 0.965328
O O16 0.250000 0.803472 0.753052
O O17 0.394401 0.750000 0.756058
O O18 0.414183 0.831636 0.646145
O O19 0.250000 0.103440 0.849862
O O20 0.250000 0.001867 0.389046
#
# Coordination Sequence:
#
# PCOD9447795 Si02
#       8
#     8   8   8   8   8   8   8   8
#     4   9  19  32  51  78 101 131 165 198 245 297
#     4   8  15  29  47  66  90 122 161 202 242 286
#     4  10  20  32  49  73  99 131 168 206 250 296
#     4   9  19  35  55  74  94 127 164 203 251 300
#     4   9  17  29  46  67  93 129 167 201 241 288
#     4  10  20  35  53  73  98 129 169 210 249 294
#     4  10  19  31  48  71 100 127 161 203 244 291
#     4   9  17  33  54  76 104 131 159 197 245 300
#
# _framework density 16.777156999999999
#
# number of rings (size 3 to 8) (size 9 to 14) (size 15 to 20)
#    0.000    2.750    0.000    2.250    0.000    4.750 
#    0.000    3.750    0.000    3.375    0.000    0.000 
#    0.000    0.000    0.000    0.000    0.000    0.000 
#
# Total GULP energy -356641.451658 kJ/mol
# GULP energy per Si atom -5572.522682 kJ/mol
# Density = 1.673897 g / cm^3
# Si number density = 16.777157 Si / 1000 Ang^3
#
#
#
# Elastic Constant Matrix: (Units=GPa)
#
#
# Indices 1 2 3 4 5 6 
#
# 1 76.5969 44.4399 59.5723 0.0000 0.0000 0.0000
# 2 44.4399 52.5317 43.8818 0.0000 0.0000 0.0000
# 3 59.5723 43.8818 126.4921 0.0000 0.0000 0.0000
# 4 0.0000 0.0000 0.0000 11.1061 0.0000 0.0000
# 5 0.0000 0.0000 0.0000 0.0000 22.4826 0.0000
# 6 0.0000 0.0000 0.0000 0.0000 0.0000 28.5423
#
#
#
# Elastic Compliance Matrix: (Units=1/GPa)
#
#
# Indices 1 2 3 4 5 6 
#
# 1 0.029947 -0.019083 -0.007484 0.000000 0.000000 0.000000
# 2 -0.019083 0.038963 -0.004530 0.000000 0.000000 0.000000
# 3 -0.007484 -0.004530 0.013002 0.000000 0.000000 0.000000
# 4 0.000000 0.000000 0.000000 0.090041 0.000000 0.000000
# 5 0.000000 0.000000 0.000000 0.000000 0.044479 0.000000
# 6 0.000000 0.000000 0.000000 0.000000 0.000000 0.035036
#
#
# Mechanical properties :
#
#
# Convention : Reuss Voigt Hill
#
# Bulk Modulus (GPa) = 50.71102 61.26764 55.98933
# Shear Modulus (GPa) = 15.61363 19.60798 17.61081
#
# Velocity S-wave (km/s) = 3.05396 3.42238 3.24341
# Velocity P-wave (km/s) = 6.53662 7.22597 6.88992
#
# Compressibility (1/GPa) = 0.01971958
#
# Stress axis : x y z
#
# Youngs Moduli (GPa) = 33.39218 25.66517 76.91368
#
# Poissons Ratio (x) = 0.48976 0.57560
# Poissons Ratio (y) = 0.63721 0.34840
# Poissons Ratio (z) = 0.24990 0.11626
#
# Static dielectric constant tensor:
#      x y z
#    x 1.559370 0.000000 0.000000 
#    y 0.000000 1.561690 0.000000 
#    z 0.000000 0.000000 1.560930 
# 
# From -- ./inp_files/8014.got.cif
#   From: 2010.05.17/outbox.cif.g08.bks.cpg/sg59_5_cif.got.tgz:8014.got - 2010.06.03 14:40:33.
