data_PCOD9447847
_publ_section_title
;
Structure prediction by ZEFSAII (Michael W. Deem and Ramdas Pophale) SiO2 
 PCOD9447847
Probable space group: P M M N
;
_chemical_formula_sum "Si O2"
_cell_formula_units_Z 56
_cell_length_a 15.114956
_cell_length_b 7.637276
_cell_length_c 21.626295
_cell_angle_alpha 90.000000
_cell_angle_beta 90.000000
_cell_angle_gamma 90.000000
_cell_volume 2496.476577
_symmetry_space_group_name_H-M "P M M N"
_symmetry_group_IT_number 59
_space_group.IT_coordinate_system_code '2'
_symmetry_cell_setting 'orthorhombic'
loop_
_space_group_symop_operation_xyz
x,y,z
1/2-x,1/2-y,z
1/2+x,-y,-z
-x,1/2+y,-z
-x,-y,-z
1/2+x,1/2+y,-z
1/2-x,y,z
x,1/2-y,z
loop_
_atom_site_type_symbol
_atom_site_label
_atom_site_fract_x
_atom_site_fract_y
_atom_site_fract_z
Si Si1 0.852360 0.945063 0.393403
Si Si2 0.966472 0.457644 0.912073
Si Si3 0.967633 0.539309 0.775911
Si Si4 0.648209 0.458961 0.027702
Si Si5 0.147647 0.036072 0.340218
Si Si6 0.597867 0.959445 0.522595
Si Si7 0.650591 0.047770 0.260364
O O1 0.750000 0.922625 0.380563
O O2 0.894376 0.750000 0.394778
O O3 0.853567 0.027485 0.461354
O O4 0.882089 0.045233 0.332462
O O5 0.967160 0.250000 0.918947
O O6 0.932230 0.502812 0.843998
O O7 0.900187 0.528589 0.965190
O O8 0.068907 0.514760 0.922501
O O9 0.972849 0.750000 0.769128
O O10 0.910645 0.474794 0.717645
O O11 0.067696 0.465306 0.773974
O O12 0.750000 0.524432 0.038225
O O13 0.656962 0.250000 0.021749
O O14 0.250000 0.987921 0.332333
O O15 0.143024 0.250000 0.341016
O O16 0.116713 0.975060 0.408554
O O17 0.615662 0.750000 0.525237
O O18 0.500000 0.000000 0.500000
O O19 0.750000 0.973082 0.252869
O O20 0.657873 0.250000 0.241695
#
# Coordination Sequence:
#
# PCOD9447847 Si02
#       7
#     8   8   8   8   8   8   8
#     4   9  17  29  46  68  92 119 155 203 259 311
#     4  10  21  36  56  85 116 143 176 219 264 310
#     4  10  20  34  52  74 103 141 182 218 255 306
#     4   9  19  38  62  85 112 146 179 212 256 312
#     4   9  18  33  52  73  99 136 183 227 263 309
#     4  10  19  31  49  71  95 124 162 212 268 319
#     4   9  18  32  49  70  98 133 172 213 259 314
#
# _framework density 22.431615000000001
#
# number of rings (size 3 to 8) (size 9 to 14) (size 15 to 20)
#    0.000    2.571    0.000    1.714    0.000    6.000 
#    0.000    2.143    0.000    2.143    0.000    0.000 
#    0.000    0.000    0.000    0.000    0.000    0.000 
#
# Total GULP energy -311795.455500 kJ/mol
# GULP energy per Si atom -5567.775991 kJ/mol
# Density = 2.238056 g / cm^3
# Si number density = 22.431615 Si / 1000 Ang^3
#
#
#
# Elastic Constant Matrix: (Units=GPa)
#
#
# Indices 1 2 3 4 5 6 
#
# 1 99.3810 2.8761 18.3041 0.0000 0.0000 0.0000
# 2 2.8761 43.5906 -11.1668 0.0000 0.0000 0.0000
# 3 18.3041 -11.1668 87.3351 0.0000 0.0000 0.0000
# 4 0.0000 0.0000 0.0000 18.7306 0.0000 0.0000
# 5 0.0000 0.0000 0.0000 0.0000 16.1666 0.0000
# 6 0.0000 0.0000 0.0000 0.0000 0.0000 11.2456
#
#
#
# Elastic Compliance Matrix: (Units=1/GPa)
#
#
# Indices 1 2 3 4 5 6 
#
# 1 0.010537 -0.001304 -0.002375 0.000000 0.000000 0.000000
# 2 -0.001304 0.023879 0.003326 0.000000 0.000000 0.000000
# 3 -0.002375 0.003326 0.012373 0.000000 0.000000 0.000000
# 4 0.000000 0.000000 0.000000 0.053389 0.000000 0.000000
# 5 0.000000 0.000000 0.000000 0.000000 0.061856 0.000000
# 6 0.000000 0.000000 0.000000 0.000000 0.000000 0.088924
#
#
# Mechanical properties :
#
#
# Convention : Reuss Voigt Hill
#
# Bulk Modulus (GPa) = 21.69918 27.81482 24.75700
# Shear Modulus (GPa) = 18.72489 23.91479 21.31984
#
# Velocity S-wave (km/s) = 2.89235 3.26869 3.08626
# Velocity P-wave (km/s) = 4.56604 5.16455 4.87449
#
# Compressibility (1/GPa) = 0.04608470
#
# Stress axis : x y z
#
# Youngs Moduli (GPa) = 94.89934 41.87801 80.81934
#
# Poissons Ratio (x) = 0.05460 0.19196
# Poissons Ratio (y) = 0.12372 -0.26884
# Poissons Ratio (z) = 0.22540 -0.13930
#
# Static dielectric constant tensor:
#      x y z
#    x 1.807940 0.000000 0.000000 
#    y 0.000000 1.925570 0.000000 
#    z 0.000000 0.000000 1.872730 
# 
# From -- ./inp_files/30413.got.cif
#   From: 2010.05.17/outbox.cif.g08.bks.cpg/sg59_16_cif.got.tgz:30413.got - 2010.06.03 14:40:33.
