data_PCOD9447760
_publ_section_title
;
Structure prediction by ZEFSAII (Michael W. Deem and Ramdas Pophale) SiO2 
 PCOD9447760
Probable space group: P M M N
;
_chemical_formula_sum "Si O2"
_cell_formula_units_Z 40
_cell_length_a 26.489792
_cell_length_b 7.784072
_cell_length_c 9.867425
_cell_angle_alpha 90.000000
_cell_angle_beta 90.000000
_cell_angle_gamma 90.000000
_cell_volume 2034.647723
_symmetry_space_group_name_H-M "P M M N"
_symmetry_group_IT_number 59
_space_group.IT_coordinate_system_code '2'
_symmetry_cell_setting 'orthorhombic'
loop_
_space_group_symop_operation_xyz
x,y,z
1/2-x,1/2-y,z
1/2+x,-y,-z
-x,1/2+y,-z
-x,-y,-z
1/2+x,1/2+y,-z
1/2-x,y,z
x,1/2-y,z
loop_
_atom_site_type_symbol
_atom_site_label
_atom_site_fract_x
_atom_site_fract_y
_atom_site_fract_z
Si Si1 0.693608 0.046041 0.730668
Si Si2 0.622872 0.545612 0.966314
Si Si3 0.969744 0.954149 0.788407
Si Si4 0.101183 0.958605 0.451674
Si Si5 0.582165 0.043113 0.243844
O O1 0.750000 0.974080 0.718575
O O2 0.696619 0.250000 0.706796
O O3 0.651718 0.978606 0.625012
O O4 0.669797 0.020847 0.879383
O O5 0.622776 0.750000 0.950691
O O6 0.571620 0.475168 0.894101
O O7 0.620159 0.502181 0.123740
O O8 0.973026 0.750000 0.812047
O O9 0.026292 0.024637 0.794910
O O10 0.945859 0.983697 0.640244
O O11 0.101382 0.750000 0.449983
O O12 0.096912 0.017421 0.606272
O O13 0.579193 0.250000 0.251066
#
# Coordination Sequence:
#
# PCOD9447760 Si02
#       5
#     8   8   8   8   8
#     4   9  18  35  56  72  89 119 158 199 245 294
#     4  10  20  32  48  72  99 128 164 201 237 282
#     4   9  18  31  47  69  99 135 168 197 235 285
#     4   9  18  31  49  73  97 124 162 204 242 287
#     4  10  19  31  47  71 104 134 161 197 240 287
#
# _framework density 19.659420999999998
#
# number of rings (size 3 to 8) (size 9 to 14) (size 15 to 20)
#    0.000    2.600    0.000    1.800    0.000    2.800 
#    0.000    1.000    0.000    3.600    0.000    0.000 
#    0.000    0.000    0.000    0.000    0.000    0.000 
#
# Total GULP energy -223190.067023 kJ/mol
# GULP energy per Si atom -5579.751676 kJ/mol
# Density = 1.961468 g / cm^3
# Si number density = 19.659421 Si / 1000 Ang^3
#
#
#
# Elastic Constant Matrix: (Units=GPa)
#
#
# Indices 1 2 3 4 5 6 
#
# 1 68.3559 -0.3171 -12.0745 0.0000 0.0000 0.0000
# 2 -0.3171 21.0725 -15.4682 0.0000 0.0000 0.0000
# 3 -12.0745 -15.4682 57.7409 0.0000 0.0000 0.0000
# 4 0.0000 0.0000 0.0000 7.8381 0.0000 0.0000
# 5 0.0000 0.0000 0.0000 0.0000 6.5381 0.0000
# 6 0.0000 0.0000 0.0000 0.0000 0.0000 12.9388
#
#
#
# Elastic Compliance Matrix: (Units=1/GPa)
#
#
# Indices 1 2 3 4 5 6 
#
# 1 0.015364 0.003224 0.004076 0.000000 0.000000 0.000000
# 2 0.003224 0.059748 0.016680 0.000000 0.000000 0.000000
# 3 0.004076 0.016680 0.022640 0.000000 0.000000 0.000000
# 4 0.000000 0.000000 0.000000 0.127582 0.000000 0.000000
# 5 0.000000 0.000000 0.000000 0.000000 0.152948 0.000000
# 6 0.000000 0.000000 0.000000 0.000000 0.000000 0.077287
#
#
# Mechanical properties :
#
#
# Convention : Reuss Voigt Hill
#
# Bulk Modulus (GPa) = 6.86286 10.16105 8.51195
# Shear Modulus (GPa) = 10.96058 17.13161 14.04610
#
# Velocity S-wave (km/s) = 2.36375 2.95518 2.67586
# Velocity P-wave (km/s) = 3.30881 4.10170 3.72640
#
# Compressibility (1/GPa) = 0.14571184
#
# Stress axis : x y z
#
# Youngs Moduli (GPa) = 65.08575 16.73703 44.17034
#
# Poissons Ratio (x) = -0.05395 -0.18006
# Poissons Ratio (y) = -0.20981 -0.73676
# Poissons Ratio (z) = -0.26532 -0.27917
#
# Static dielectric constant tensor:
#      x y z
#    x 1.696020 0.000000 0.000000 
#    y 0.000000 1.709160 0.000000 
#    z 0.000000 0.000000 1.687770 
# 
# From -- ./inp_files/5633.got.cif
#   From: 2010.05.17/outbox.cif.g08.bks.cpg/sg59_3_cif.got.tgz:5633.got - 2010.06.03 14:40:33.
