data_PCOD9447284
_publ_section_title
;
Structure prediction by ZEFSAII (Michael W. Deem and Ramdas Pophale) SiO2 
 PCOD9447284
Probable space group: P M M N
;
_chemical_formula_sum "Si O2"
_cell_formula_units_Z 64
_cell_length_a 8.136582
_cell_length_b 16.772745
_cell_length_c 22.340901
_cell_angle_alpha 90.000000
_cell_angle_beta 90.000000
_cell_angle_gamma 90.000000
_cell_volume 3048.925650
_symmetry_space_group_name_H-M "P M M N"
_symmetry_group_IT_number 59
_space_group.IT_coordinate_system_code '2'
_symmetry_cell_setting 'orthorhombic'
loop_
_space_group_symop_operation_xyz
x,y,z
1/2-x,1/2-y,z
1/2+x,-y,-z
-x,1/2+y,-z
-x,-y,-z
1/2+x,1/2+y,-z
1/2-x,y,z
x,1/2-y,z
loop_
_atom_site_type_symbol
_atom_site_label
_atom_site_fract_x
_atom_site_fract_y
_atom_site_fract_z
Si Si1 0.549393 0.159404 0.122267
Si Si2 0.549983 0.338665 0.363028
Si Si3 0.936482 0.845184 0.131542
Si Si4 0.063867 0.901305 0.255222
Si Si5 0.949093 0.001156 0.431183
Si Si6 0.553341 0.091129 0.995723
Si Si7 0.942023 0.837092 0.371725
Si Si8 0.051453 0.578780 0.757117
O O1 0.750000 0.156453 0.121828
O O2 0.501208 0.250000 0.134597
O O3 0.494596 0.103742 0.176772
O O4 0.493350 0.133751 0.056391
O O5 0.750000 0.337679 0.367086
O O6 0.492130 0.250000 0.380973
O O7 0.493140 0.416099 0.400428
O O8 0.508913 0.357026 0.293729
O O9 0.750000 0.872980 0.142090
O O10 0.942924 0.750000 0.133702
O O11 0.041124 0.878968 0.186046
O O12 0.988547 0.872482 0.065802
O O13 0.250000 0.887055 0.273561
O O14 0.955056 0.849787 0.300339
O O15 0.017603 0.993595 0.261376
O O16 0.750000 0.001301 0.425652
O O17 0.010623 0.918706 0.400672
O O18 0.000000 0.000000 0.500000
O O19 0.750000 0.096945 0.994737
O O20 0.500000 0.000000 0.000000
O O21 0.750000 0.834766 0.388296
O O22 0.014042 0.750000 0.387797
O O23 0.250000 0.572535 0.758090
#
# Coordination Sequence:
#
# PCOD9447284 Si02
#       8
#     8   8   8   8   8   8   8   8
#     4   9  18  32  54  84 111 141 186 239 291 345
#     4   9  17  32  58  89 118 152 198 248 292 342
#     4  11  24  41  60  82 111 152 201 250 303 362
#     4  12  24  37  58  88 121 153 192 245 305 362
#     4  10  21  38  59  88 123 160 200 243 290 346
#     4  11  22  37  57  82 116 154 194 243 299 363
#     4  10  21  40  64  88 118 159 204 246 294 355
#     4  10  18  34  60  86 115 151 193 238 290 355
#
# _framework density 20.991002000000002
#
# number of rings (size 3 to 8) (size 9 to 14) (size 15 to 20)
#    0.000    1.750    1.250    3.750    0.000    6.750 
#    0.000    0.625    0.000    3.750    0.000    0.000 
#    0.000    0.000    0.000    0.000    0.000    0.000 
#
# Total GULP energy -357460.539560 kJ/mol
# GULP energy per Si atom -5585.320931 kJ/mol
# Density = 2.094323 g / cm^3
# Si number density = 20.991002 Si / 1000 Ang^3
#
#
#
# Elastic Constant Matrix: (Units=GPa)
#
#
# Indices 1 2 3 4 5 6 
#
# 1 20.0123 9.5157 -3.3718 0.0000 0.0000 0.0000
# 2 9.5157 141.9903 48.2188 0.0000 0.0000 0.0000
# 3 -3.3718 48.2188 105.0285 0.0000 0.0000 0.0000
# 4 0.0000 0.0000 0.0000 19.9971 0.0000 0.0000
# 5 0.0000 0.0000 0.0000 0.0000 26.3890 0.0000
# 6 0.0000 0.0000 0.0000 0.0000 0.0000 5.0670
#
#
#
# Elastic Compliance Matrix: (Units=1/GPa)
#
#
# Indices 1 2 3 4 5 6 
#
# 1 0.052958 -0.004889 0.003945 0.000000 0.000000 0.000000
# 2 -0.004889 0.008795 -0.004195 0.000000 0.000000 0.000000
# 3 0.003945 -0.004195 0.011574 0.000000 0.000000 0.000000
# 4 0.000000 0.000000 0.000000 0.050007 0.000000 0.000000
# 5 0.000000 0.000000 0.000000 0.000000 0.037895 0.000000
# 6 0.000000 0.000000 0.000000 0.000000 0.000000 0.197357
#
#
# Mechanical properties :
#
#
# Convention : Reuss Voigt Hill
#
# Bulk Modulus (GPa) = 15.86060 41.75071 28.80565
# Shear Modulus (GPa) = 12.82448 24.46850 18.64649
#
# Velocity S-wave (km/s) = 2.47442 3.41789 2.98368
# Velocity P-wave (km/s) = 3.96686 5.95894 5.06186
#
# Compressibility (1/GPa) = 0.06304933
#
# Stress axis : x y z
#
# Youngs Moduli (GPa) = 18.88275 113.70320 86.40325
#
# Poissons Ratio (x) = 0.55585 -0.34082
# Poissons Ratio (y) = 0.09231 0.36243
# Poissons Ratio (z) = -0.07448 0.47695
#
# Static dielectric constant tensor:
#      x y z
#    x 1.772240 0.000000 0.000000 
#    y 0.000000 1.751100 0.000000 
#    z 0.000000 0.000000 1.732150 
# 
# From -- ./inp_files/31532.got.cif
#   From: 2010.05.17/outbox.cif.g08.bks.cpg/sg59_16_cif.got.tgz:31532.got - 2010.06.03 14:40:33.
