data_PCOD9447221
_publ_section_title
;
Structure prediction by ZEFSAII (Michael W. Deem and Ramdas Pophale) SiO2 
 PCOD9447221
Probable space group: P M M N
;
_chemical_formula_sum "Si O2"
_cell_formula_units_Z 48
_cell_length_a 8.661599
_cell_length_b 18.774628
_cell_length_c 14.992901
_cell_angle_alpha 90.000000
_cell_angle_beta 90.000000
_cell_angle_gamma 90.000000
_cell_volume 2438.120059
_symmetry_space_group_name_H-M "P M M N"
_symmetry_group_IT_number 59
_space_group.IT_coordinate_system_code '2'
_symmetry_cell_setting 'orthorhombic'
loop_
_space_group_symop_operation_xyz
x,y,z
1/2-x,1/2-y,z
1/2+x,-y,-z
-x,1/2+y,-z
-x,-y,-z
1/2+x,1/2+y,-z
1/2-x,y,z
x,1/2-y,z
loop_
_atom_site_type_symbol
_atom_site_label
_atom_site_fract_x
_atom_site_fract_y
_atom_site_fract_z
Si Si1 0.933972 0.250000 0.284363
Si Si2 0.938302 0.326716 0.832005
Si Si3 0.567290 0.750000 0.514083
Si Si4 0.072746 0.486949 0.405288
Si Si5 0.563093 0.480711 0.903291
Si Si6 0.069806 0.649380 0.367741
Si Si7 0.437766 0.399555 0.241934
O O1 0.750000 0.250000 0.284198
O O2 0.991454 0.250000 0.387974
O O3 0.997282 0.179507 0.235398
O O4 0.750000 0.329012 0.831278
O O5 0.983588 0.250000 0.873026
O O6 0.989747 0.401009 0.875386
O O7 0.987332 0.325485 0.728394
O O8 0.750000 0.750000 0.526746
O O9 0.517374 0.817176 0.452120
O O10 0.250000 0.466763 0.419656
O O11 0.065641 0.564365 0.360742
O O12 0.004969 0.429942 0.337500
O O13 0.000000 0.500000 0.500000
O O14 0.750000 0.479763 0.904315
O O15 0.517446 0.542404 0.832718
O O16 0.500000 0.500000 0.000000
O O17 0.250000 0.669133 0.378519
O O18 0.250000 0.397351 0.243361
#
# Coordination Sequence:
#
# PCOD9447221 Si02
#       7
#     4   8   4   8   8   8   8
#     4  12  26  42  60  85 116 159 216 265 304 356
#     4   9  16  32  62  91 116 152 195 239 291 354
#     4  12  24  36  52  83 126 167 202 245 304 364
#     4  10  20  33  54  83 112 150 198 243 292 358
#     4  10  21  40  66  94 124 161 201 248 309 372
#     4  10  18  33  57  82 111 151 200 245 289 347
#     4  10  21  41  64  85 120 164 204 252 312 369
#
# _framework density 19.6873
#
# number of rings (size 3 to 8) (size 9 to 14) (size 15 to 20)
#    0.000    1.833    2.500    2.500    0.000    4.667 
#    1.500    0.833    0.000    0.000    0.000    0.000 
#    0.000    0.000    0.000    0.000    0.000    0.000 
#
# Total GULP energy -267786.974887 kJ/mol
# GULP energy per Si atom -5578.895310 kJ/mol
# Density = 1.964249 g / cm^3
# Si number density = 19.687300 Si / 1000 Ang^3
#
#
#
# Elastic Constant Matrix: (Units=GPa)
#
#
# Indices 1 2 3 4 5 6 
#
# 1 33.3381 28.7045 24.2601 0.0000 0.0000 0.0000
# 2 28.7045 171.0955 69.5552 0.0000 0.0000 0.0000
# 3 24.2601 69.5552 107.2533 0.0000 0.0000 0.0000
# 4 0.0000 0.0000 0.0000 13.7150 0.0000 0.0000
# 5 0.0000 0.0000 0.0000 0.0000 27.6039 0.0000
# 6 0.0000 0.0000 0.0000 0.0000 0.0000 19.6126
#
#
#
# Elastic Compliance Matrix: (Units=1/GPa)
#
#
# Indices 1 2 3 4 5 6 
#
# 1 0.037714 -0.003883 -0.006013 0.000000 0.000000 0.000000
# 2 -0.003883 0.008337 -0.004528 0.000000 0.000000 0.000000
# 3 -0.006013 -0.004528 0.013620 0.000000 0.000000 0.000000
# 4 0.000000 0.000000 0.000000 0.072913 0.000000 0.000000
# 5 0.000000 0.000000 0.000000 0.000000 0.036227 0.000000
# 6 0.000000 0.000000 0.000000 0.000000 0.000000 0.050988
#
#
# Mechanical properties :
#
#
# Convention : Reuss Voigt Hill
#
# Bulk Modulus (GPa) = 32.44231 61.85849 47.15040
# Shear Modulus (GPa) = 19.31083 24.79743 22.05413
#
# Velocity S-wave (km/s) = 3.13529 3.55289 3.35060
# Velocity P-wave (km/s) = 5.44255 6.95121 6.24262
#
# Compressibility (1/GPa) = 0.03082395
#
# Stress axis : x y z
#
# Youngs Moduli (GPa) = 26.51505 119.94652 73.41901
#
# Poissons Ratio (x) = 0.46575 0.44144
# Poissons Ratio (y) = 0.10296 0.33247
# Poissons Ratio (z) = 0.15942 0.54316
#
# Static dielectric constant tensor:
#      x y z
#    x 1.676600 0.000000 0.000000 
#    y 0.000000 1.783830 0.000000 
#    z 0.000000 0.000000 1.693680 
# 
# From -- ./inp_files/20503.got.cif
#   From: 2010.05.17/outbox.cif.g08.bks.cpg/sg59_11_cif.got.tgz:20503.got - 2010.06.03 14:40:33.
