data_PCOD9447545
_publ_section_title
;
Structure prediction by ZEFSAII (Michael W. Deem and Ramdas Pophale) SiO2 
 PCOD9447545
Probable space group: P M M N
;
_chemical_formula_sum "Si O2"
_cell_formula_units_Z 64
_cell_length_a 9.274183
_cell_length_b 19.190562
_cell_length_c 19.311316
_cell_angle_alpha 90.000000
_cell_angle_beta 90.000000
_cell_angle_gamma 90.000000
_cell_volume 3436.965914
_symmetry_space_group_name_H-M "P M M N"
_symmetry_group_IT_number 59
_space_group.IT_coordinate_system_code '2'
_symmetry_cell_setting 'orthorhombic'
loop_
_space_group_symop_operation_xyz
x,y,z
1/2-x,1/2-y,z
1/2+x,-y,-z
-x,1/2+y,-z
-x,-y,-z
1/2+x,1/2+y,-z
1/2-x,y,z
x,1/2-y,z
loop_
_atom_site_type_symbol
_atom_site_label
_atom_site_fract_x
_atom_site_fract_y
_atom_site_fract_z
Si Si1 0.414811 0.578306 0.419301
Si Si2 0.078241 0.328128 0.186737
Si Si3 0.586590 0.587907 0.553393
Si Si4 0.922692 0.331918 0.871680
Si Si5 0.577845 0.070645 0.739316
Si Si6 0.912986 0.944584 0.046052
Si Si7 0.087736 0.958941 0.820896
Si Si8 0.581319 0.171183 0.333945
O O1 0.250000 0.604014 0.429623
O O2 0.523790 0.604808 0.477588
O O3 0.411051 0.495020 0.432760
O O4 0.457480 0.591342 0.339534
O O5 0.250000 0.337101 0.188258
O O6 0.046776 0.250000 0.159991
O O7 0.999987 0.392635 0.150786
O O8 0.010740 0.332670 0.263638
O O9 0.750000 0.613753 0.561437
O O10 0.481855 0.619794 0.610053
O O11 0.750000 0.337754 0.882307
O O12 0.960467 0.250000 0.869322
O O13 0.953230 0.370652 0.797851
O O14 0.003512 0.373960 0.932892
O O15 0.750000 0.057282 0.741355
O O16 0.496389 0.999571 0.760308
O O17 0.750000 0.931904 0.019482
O O18 0.902006 0.984929 0.118686
O O19 0.000000 0.000000 0.000000
O O20 0.250000 0.939009 0.800854
O O21 0.750000 0.159337 0.320489
O O22 0.566292 0.250000 0.360599
#
# Coordination Sequence:
#
# PCOD9447545 Si02
#       8
#     8   8   8   8   8   8   8   8
#     4   9  18  31  46  67  95 127 165 209 258 309
#     4  10  20  33  50  73 101 133 169 208 252 305
#     4  10  19  30  46  67  93 127 167 212 260 310
#     4   9  18  34  57  84 112 142 177 219 267 317
#     4   9  17  31  52  75 101 135 175 217 261 312
#     4  10  21  37  58  84 112 144 180 216 256 303
#     4  10  20  33  52  78 105 133 168 210 254 300
#     4  10  20  33  49  68  92 125 163 203 249 301
#
# _framework density 18.621075000000001
#
# number of rings (size 3 to 8) (size 9 to 14) (size 15 to 20)
#    0.000    2.375    0.000    2.625    0.000    5.250 
#    0.000    1.250    0.000    3.000    0.000    0.000 
#    0.000    0.000    0.000    0.000    0.000    0.000 
#
# Total GULP energy -356737.644596 kJ/mol
# GULP energy per Si atom -5574.025697 kJ/mol
# Density = 1.857869 g / cm^3
# Si number density = 18.621075 Si / 1000 Ang^3
#
#
#
# Elastic Constant Matrix: (Units=GPa)
#
#
# Indices 1 2 3 4 5 6 
#
# 1 63.8129 43.8245 6.3093 0.0000 0.0000 0.0000
# 2 43.8245 86.4307 3.1073 0.0000 0.0000 0.0000
# 3 6.3093 3.1073 33.5357 0.0000 0.0000 0.0000
# 4 0.0000 0.0000 0.0000 15.7287 0.0000 0.0000
# 5 0.0000 0.0000 0.0000 0.0000 25.9737 0.0000
# 6 0.0000 0.0000 0.0000 0.0000 0.0000 26.0195
#
#
#
# Elastic Compliance Matrix: (Units=1/GPa)
#
#
# Indices 1 2 3 4 5 6 
#
# 1 0.024437 -0.012266 -0.003461 0.000000 0.000000 0.000000
# 2 -0.012266 0.017766 0.000662 0.000000 0.000000 0.000000
# 3 -0.003461 0.000662 0.030409 0.000000 0.000000 0.000000
# 4 0.000000 0.000000 0.000000 0.063578 0.000000 0.000000
# 5 0.000000 0.000000 0.000000 0.000000 0.038500 0.000000
# 6 0.000000 0.000000 0.000000 0.000000 0.000000 0.038433
#
#
# Mechanical properties :
#
#
# Convention : Reuss Voigt Hill
#
# Bulk Modulus (GPa) = 23.54029 32.25128 27.89578
# Shear Modulus (GPa) = 19.42393 22.24693 20.83543
#
# Velocity S-wave (km/s) = 3.23323 3.46022 3.34865
# Velocity P-wave (km/s) = 5.15825 5.77248 5.47399
#
# Compressibility (1/GPa) = 0.04248037
#
# Stress axis : x y z
#
# Youngs Moduli (GPa) = 40.92133 56.28789 32.88522
#
# Poissons Ratio (x) = 0.69045 0.11381
# Poissons Ratio (y) = 0.50196 -0.02176
# Poissons Ratio (z) = 0.14163 -0.03724
#
# Static dielectric constant tensor:
#      x y z
#    x 1.650080 0.000000 0.000000 
#    y 0.000000 1.656500 0.000000 
#    z 0.000000 0.000000 1.659950 
# 
# From -- ./inp_files/29592.got.cif
#   From: 2010.05.17/outbox.cif.g08.bks.cpg/sg59_15_cif.got.tgz:29592.got - 2010.06.03 14:40:33.
