data_PCOD9447861
_publ_section_title
;
Structure prediction by ZEFSAII (Michael W. Deem and Ramdas Pophale) SiO2 
 PCOD9447861
Probable space group: P M M N
;
_chemical_formula_sum "Si O2"
_cell_formula_units_Z 64
_cell_length_a 8.786667
_cell_length_b 22.042869
_cell_length_c 19.434211
_cell_angle_alpha 90.000000
_cell_angle_beta 90.000000
_cell_angle_gamma 90.000000
_cell_volume 3764.083084
_symmetry_space_group_name_H-M "P M M N"
_symmetry_group_IT_number 59
_space_group.IT_coordinate_system_code '2'
_symmetry_cell_setting 'orthorhombic'
loop_
_space_group_symop_operation_xyz
x,y,z
1/2-x,1/2-y,z
1/2+x,-y,-z
-x,1/2+y,-z
-x,-y,-z
1/2+x,1/2+y,-z
1/2-x,y,z
x,1/2-y,z
loop_
_atom_site_type_symbol
_atom_site_label
_atom_site_fract_x
_atom_site_fract_y
_atom_site_fract_z
Si Si1 0.427928 0.877888 0.660406
Si Si2 0.432258 0.443136 0.543335
Si Si3 0.431198 0.492607 0.827234
Si Si4 0.933089 0.818066 0.532244
Si Si5 0.422244 0.320551 0.212418
Si Si6 0.929870 0.492824 0.676356
Si Si7 0.567165 0.938546 0.033103
Si Si8 0.569052 0.119818 0.092064
O O1 0.250000 0.890011 0.651342
O O2 0.487914 0.829657 0.605437
O O3 0.463602 0.853874 0.736331
O O4 0.521496 0.939741 0.652616
O O5 0.500000 0.500000 0.500000
O O6 0.250000 0.448085 0.540250
O O7 0.476379 0.377136 0.512833
O O8 0.488868 0.449308 0.621591
O O9 0.250000 0.490601 0.814106
O O10 0.515743 0.486062 0.755130
O O11 0.469409 0.442782 0.885842
O O12 0.461719 0.557327 0.864656
O O13 0.750000 0.820177 0.540885
O O14 0.971308 0.750000 0.506539
O O15 0.250000 0.344857 0.220740
O O16 0.420418 0.250000 0.229774
O O17 0.480339 0.330241 0.135376
O O18 0.750000 0.485936 0.671809
O O19 0.750000 0.938980 0.026487
O O20 0.494224 0.887648 0.984907
O O21 0.500000 0.000000 0.000000
O O22 0.750000 0.128827 0.091343
#
# Coordination Sequence:
#
# PCOD9447861 Si02
#       8
#     8   8   8   8   8   8   8   8
#     4  12  23  35  53  76 106 142 181 223 268 321
#     4  11  22  37  58  81 110 143 178 223 273 329
#     4   9  18  32  49  73 102 133 169 210 258 313
#     4  10  22  40  60  81 106 140 182 224 270 325
#     4  11  23  36  50  70 100 140 184 225 265 315
#     4  12  23  34  53  78 108 145 181 221 270 322
#     4   9  17  29  47  70  99 130 164 205 251 303
#     4  10  19  31  49  71  99 134 172 214 260 309
#
# _framework density 17.002813
#
# number of rings (size 3 to 8) (size 9 to 14) (size 15 to 20)
#    0.000    1.500    2.500    4.875    0.000    5.750 
#    0.000    0.000    0.000    0.000    0.000    0.875 
#    0.000    3.000    0.000    0.000    0.000    0.000 
#
# Total GULP energy -357110.938401 kJ/mol
# GULP energy per Si atom -5579.858413 kJ/mol
# Density = 1.696411 g / cm^3
# Si number density = 17.002813 Si / 1000 Ang^3
#
#
#
# Elastic Constant Matrix: (Units=GPa)
#
#
# Indices 1 2 3 4 5 6 
#
# 1 52.8214 21.2480 29.6499 0.0000 0.0000 0.0000
# 2 21.2480 62.8521 32.9172 0.0000 0.0000 0.0000
# 3 29.6499 32.9172 82.0146 0.0000 0.0000 0.0000
# 4 0.0000 0.0000 0.0000 24.0540 0.0000 0.0000
# 5 0.0000 0.0000 0.0000 0.0000 30.6702 0.0000
# 6 0.0000 0.0000 0.0000 0.0000 0.0000 15.8145
#
#
#
# Elastic Compliance Matrix: (Units=1/GPa)
#
#
# Indices 1 2 3 4 5 6 
#
# 1 0.024788 -0.004668 -0.007088 0.000000 0.000000 0.000000
# 2 -0.004668 0.021024 -0.006751 0.000000 0.000000 0.000000
# 3 -0.007088 -0.006751 0.017465 0.000000 0.000000 0.000000
# 4 0.000000 0.000000 0.000000 0.041573 0.000000 0.000000
# 5 0.000000 0.000000 0.000000 0.000000 0.032605 0.000000
# 6 0.000000 0.000000 0.000000 0.000000 0.000000 0.063233
#
#
# Mechanical properties :
#
#
# Convention : Reuss Voigt Hill
#
# Bulk Modulus (GPa) = 38.07487 40.59091 39.33289
# Shear Modulus (GPa) = 20.28767 21.69926 20.99346
#
# Velocity S-wave (km/s) = 3.45801 3.57629 3.51765
# Velocity P-wave (km/s) = 6.19562 6.40141 6.29935
#
# Compressibility (1/GPa) = 0.02626405
#
# Stress axis : x y z
#
# Youngs Moduli (GPa) = 40.34216 47.56503 57.25816
#
# Poissons Ratio (x) = 0.22202 0.40584
# Poissons Ratio (y) = 0.18831 0.38653
# Poissons Ratio (z) = 0.28594 0.32109
#
# Static dielectric constant tensor:
#      x y z
#    x 1.570590 0.000000 0.000000 
#    y 0.000000 1.526070 0.000000 
#    z 0.000000 0.000000 1.579430 
# 
# From -- ./inp_files/26276.got.cif
#   From: 2010.05.17/outbox.cif.g08.bks.cpg/sg59_14_cif.got.tgz:26276.got - 2010.06.03 14:40:33.
