data_PCOD9447443
_publ_section_title
;
Structure prediction by ZEFSAII (Michael W. Deem and Ramdas Pophale) SiO2 
 PCOD9447443
Probable space group: P M M N
;
_chemical_formula_sum "Si O2"
_cell_formula_units_Z 56
_cell_length_a 29.021545
_cell_length_b 8.671666
_cell_length_c 14.011186
_cell_angle_alpha 90.000000
_cell_angle_beta 90.000000
_cell_angle_gamma 90.000000
_cell_volume 3526.127157
_symmetry_space_group_name_H-M "P M M N"
_symmetry_group_IT_number 59
_space_group.IT_coordinate_system_code '2'
_symmetry_cell_setting 'orthorhombic'
loop_
_space_group_symop_operation_xyz
x,y,z
1/2-x,1/2-y,z
1/2+x,-y,-z
-x,1/2+y,-z
-x,-y,-z
1/2+x,1/2+y,-z
1/2-x,y,z
x,1/2-y,z
loop_
_atom_site_type_symbol
_atom_site_label
_atom_site_fract_x
_atom_site_fract_y
_atom_site_fract_z
Si Si1 0.802269 0.564689 0.022497
Si Si2 0.983791 0.565296 0.399822
Si Si3 0.893878 0.933842 0.919769
Si Si4 0.105305 0.065490 0.712759
Si Si5 0.532509 0.434490 0.795335
Si Si6 0.444977 0.566816 0.897226
Si Si7 0.697376 0.065801 0.235662
O O1 0.750000 0.529666 0.991364
O O2 0.805939 0.750000 0.036331
O O3 0.809421 0.487223 0.125677
O O4 0.841959 0.518953 0.948436
O O5 0.985851 0.750000 0.404618
O O6 0.931359 0.524163 0.369634
O O7 0.000000 0.500000 0.500000
O O8 0.016259 0.517363 0.310642
O O9 0.895322 0.750000 0.908567
O O10 0.917312 0.012005 0.828454
O O11 0.924477 0.983622 0.010679
O O12 0.102836 0.250000 0.727624
O O13 0.086562 0.981274 0.807410
O O14 0.157833 0.013433 0.701691
O O15 0.528529 0.250000 0.801758
O O16 0.495510 0.508700 0.867771
O O17 0.444773 0.750000 0.911511
O O18 0.750000 0.023378 0.261444
O O19 0.692848 0.250000 0.240718
#
# Coordination Sequence:
#
# PCOD9447443 Si02
#       7
#     8   8   8   8   8   8   8
#     4   9  18  31  46  64  92 131 168 201 237 276
#     4   9  20  36  54  73  94 120 154 198 245 296
#     4  11  20  30  46  68  95 128 165 199 233 278
#     4  10  19  32  48  70  98 130 163 195 238 292
#     4  10  21  35  48  67  95 124 157 193 234 288
#     4  11  20  30  45  66  95 129 162 197 235 273
#     4  10  19  29  44  69  98 129 167 203 235 276
#
# _framework density 15.881447
#
# number of rings (size 3 to 8) (size 9 to 14) (size 15 to 20)
#    0.000    2.000    1.429    4.286    0.000    4.857 
#    0.000    0.000    0.000    0.000    0.000    1.000 
#    0.000    3.429    0.000    0.000    0.000    0.000 
#
# Total GULP energy -312396.731570 kJ/mol
# GULP energy per Si atom -5578.513064 kJ/mol
# Density = 1.584530 g / cm^3
# Si number density = 15.881447 Si / 1000 Ang^3
#
#
#
# Elastic Constant Matrix: (Units=GPa)
#
#
# Indices 1 2 3 4 5 6 
#
# 1 127.8991 26.6066 58.2862 0.0000 0.0000 0.0000
# 2 26.6066 28.8906 10.8590 0.0000 0.0000 0.0000
# 3 58.2862 10.8590 63.4663 0.0000 0.0000 0.0000
# 4 0.0000 0.0000 0.0000 23.3070 0.0000 0.0000
# 5 0.0000 0.0000 0.0000 0.0000 18.0377 0.0000
# 6 0.0000 0.0000 0.0000 0.0000 0.0000 25.2522
#
#
#
# Elastic Compliance Matrix: (Units=1/GPa)
#
#
# Indices 1 2 3 4 5 6 
#
# 1 0.015592 -0.009594 -0.012678 0.000000 0.000000 0.000000
# 2 -0.009594 0.042896 0.001472 0.000000 0.000000 0.000000
# 3 -0.012678 0.001472 0.027148 0.000000 0.000000 0.000000
# 4 0.000000 0.000000 0.000000 0.042906 0.000000 0.000000
# 5 0.000000 0.000000 0.000000 0.000000 0.055440 0.000000
# 6 0.000000 0.000000 0.000000 0.000000 0.000000 0.039601
#
#
# Mechanical properties :
#
#
# Convention : Reuss Voigt Hill
#
# Bulk Modulus (GPa) = 22.70925 45.75106 34.23015
# Shear Modulus (GPa) = 17.86603 21.61965 19.74284
#
# Velocity S-wave (km/s) = 3.35768 3.69360 3.52964
# Velocity P-wave (km/s) = 5.41870 6.86008 6.18155
#
# Compressibility (1/GPa) = 0.04403493
#
# Stress axis : x y z
#
# Youngs Moduli (GPa) = 64.13488 23.31224 36.83547
#
# Poissons Ratio (x) = 0.22366 0.46700
# Poissons Ratio (y) = 0.61533 -0.05421
# Poissons Ratio (z) = 0.81310 -0.03431
#
# Static dielectric constant tensor:
#      x y z
#    x 1.583430 0.000000 0.000000 
#    y 0.000000 1.531360 0.000000 
#    z 0.000000 0.000000 1.504070 
# 
# From -- ./inp_files/24954.got.cif
#   From: 2010.05.17/outbox.cif.g08.bks.cpg/sg59_13_cif.got.tgz:24954.got - 2010.06.03 14:40:33.
