data_PCOD9447951
_publ_section_title
;
Structure prediction by ZEFSAII (Michael W. Deem and Ramdas Pophale) SiO2 
 PCOD9447951
Probable space group: P M M N
;
_chemical_formula_sum "Si O2"
_cell_formula_units_Z 48
_cell_length_a 9.382888
_cell_length_b 15.409310
_cell_length_c 16.023625
_cell_angle_alpha 90.000000
_cell_angle_beta 90.000000
_cell_angle_gamma 90.000000
_cell_volume 2316.757071
_symmetry_space_group_name_H-M "P M M N"
_symmetry_group_IT_number 59
_space_group.IT_coordinate_system_code '2'
_symmetry_cell_setting 'orthorhombic'
loop_
_space_group_symop_operation_xyz
x,y,z
1/2-x,1/2-y,z
1/2+x,-y,-z
-x,1/2+y,-z
-x,-y,-z
1/2+x,1/2+y,-z
1/2-x,y,z
x,1/2-y,z
loop_
_atom_site_type_symbol
_atom_site_label
_atom_site_fract_x
_atom_site_fract_y
_atom_site_fract_z
Si Si1 0.087354 0.393567 0.422852
Si Si2 0.920647 0.589446 0.760468
Si Si3 0.586137 0.106252 0.582887
Si Si4 0.919928 0.593445 0.255985
Si Si5 0.908613 0.146858 0.081208
Si Si6 0.091195 0.352597 0.930491
O O1 0.250000 0.369451 0.443166
O O2 0.053763 0.363972 0.328679
O O3 0.083065 0.499795 0.419364
O O4 0.982640 0.364793 0.495768
O O5 0.750000 0.576338 0.766774
O O6 0.005777 0.499591 0.754189
O O7 0.984741 0.633522 0.841949
O O8 0.750000 0.132299 0.591184
O O9 0.493972 0.134314 0.662758
O O10 0.750000 0.586992 0.269449
O O11 0.944989 0.637877 0.166768
O O12 0.750000 0.110806 0.097901
O O13 0.893596 0.250000 0.070906
O O14 0.977843 0.110857 0.996077
O O15 0.250000 0.389932 0.943611
O O16 0.100142 0.250000 0.947214
#
# Coordination Sequence:
#
# PCOD9447951 Si02
#       6
#     8   8   8   8   8   8
#     4   8  15  27  43  66  95 127 162 197 236 284
#     4  10  20  33  51  75 102 131 164 203 245 290
#     4   9  16  26  43  68  98 130 161 196 241 292
#     4  10  19  31  50  75 102 130 162 205 250 289
#     4  10  21  36  54  75  98 127 163 202 246 296
#     4   9  19  36  55  73  95 128 168 204 242 292
#
# _framework density 20.718616999999998
#
# number of rings (size 3 to 8) (size 9 to 14) (size 15 to 20)
#    0.000    2.667    0.000    3.000    0.000    7.667 
#    0.000    0.000    0.000    1.000    0.000    2.333 
#    0.000    0.000    0.000    0.000    0.000    0.000 
#
# Total GULP energy -267706.859096 kJ/mol
# GULP energy per Si atom -5577.226231 kJ/mol
# Density = 2.067146 g / cm^3
# Si number density = 20.718617 Si / 1000 Ang^3
#
#
#
# Elastic Constant Matrix: (Units=GPa)
#
#
# Indices 1 2 3 4 5 6 
#
# 1 152.8528 10.2500 122.8042 0.0000 0.0000 0.0000
# 2 10.2500 24.0988 2.2613 0.0000 0.0000 0.0000
# 3 122.8042 2.2613 168.4747 0.0000 0.0000 0.0000
# 4 0.0000 0.0000 0.0000 27.3700 0.0000 0.0000
# 5 0.0000 0.0000 0.0000 0.0000 39.2236 0.0000
# 6 0.0000 0.0000 0.0000 0.0000 0.0000 6.6110
#
#
#
# Elastic Compliance Matrix: (Units=1/GPa)
#
#
# Indices 1 2 3 4 5 6 
#
# 1 0.016594 -0.005930 -0.012016 0.000000 0.000000 0.000000
# 2 -0.005930 0.043668 0.003737 0.000000 0.000000 0.000000
# 3 -0.012016 0.003737 0.014644 0.000000 0.000000 0.000000
# 4 0.000000 0.000000 0.000000 0.036536 0.000000 0.000000
# 5 0.000000 0.000000 0.000000 0.000000 0.025495 0.000000
# 6 0.000000 0.000000 0.000000 0.000000 0.000000 0.151263
#
#
# Mechanical properties :
#
#
# Convention : Reuss Voigt Hill
#
# Bulk Modulus (GPa) = 21.51178 68.45082 44.98130
# Shear Modulus (GPa) = 15.05511 28.64830 21.85170
#
# Velocity S-wave (km/s) = 2.69856 3.72254 3.25112
# Velocity P-wave (km/s) = 4.48498 7.18237 5.98755
#
# Compressibility (1/GPa) = 0.04648616
#
# Stress axis : x y z
#
# Youngs Moduli (GPa) = 60.26454 22.90030 68.28774
#
# Poissons Ratio (x) = 0.13580 0.82053
# Poissons Ratio (y) = 0.35738 -0.25516
# Poissons Ratio (z) = 0.72412 -0.08557
#
# Static dielectric constant tensor:
#      x y z
#    x 1.741090 0.000000 0.000000 
#    y 0.000000 1.762960 0.000000 
#    z 0.000000 0.000000 1.749640 
# 
# From -- ./inp_files/18597.got.cif
#   From: 2010.05.17/outbox.cif.g08.bks.cpg/sg59_10_cif.got.tgz:18597.got - 2010.06.03 14:40:33.
