data_PCOD9447468
_publ_section_title
;
Structure prediction by ZEFSAII (Michael W. Deem and Ramdas Pophale) SiO2 
 PCOD9447468
Probable space group: P M M N
;
_chemical_formula_sum "Si O2"
_cell_formula_units_Z 64
_cell_length_a 20.772861
_cell_length_b 8.070789
_cell_length_c 17.829081
_cell_angle_alpha 90.000000
_cell_angle_beta 90.000000
_cell_angle_gamma 90.000000
_cell_volume 2989.105657
_symmetry_space_group_name_H-M "P M M N"
_symmetry_group_IT_number 59
_space_group.IT_coordinate_system_code '2'
_symmetry_cell_setting 'orthorhombic'
loop_
_space_group_symop_operation_xyz
x,y,z
1/2-x,1/2-y,z
1/2+x,-y,-z
-x,1/2+y,-z
-x,-y,-z
1/2+x,1/2+y,-z
1/2-x,y,z
x,1/2-y,z
loop_
_atom_site_type_symbol
_atom_site_label
_atom_site_fract_x
_atom_site_fract_y
_atom_site_fract_z
Si Si1 0.919977 0.550538 0.618647
Si Si2 0.820907 0.051441 0.497637
Si Si3 0.320854 0.951486 0.679266
Si Si4 0.001427 0.559251 0.130670
Si Si5 0.823931 0.952753 0.748435
Si Si6 0.916104 0.440547 0.013882
Si Si7 0.961983 0.446384 0.290098
Si Si8 0.673894 0.560449 0.910858
O O1 0.922663 0.750000 0.622093
O O2 0.883838 0.506720 0.542020
O O3 0.870440 0.491561 0.682908
O O4 0.990692 0.488742 0.643902
O O5 0.750000 0.989453 0.525773
O O6 0.819693 0.250000 0.503678
O O7 0.824545 0.011028 0.409649
O O8 0.250000 0.010427 0.706302
O O9 0.319698 0.750000 0.687038
O O10 0.388868 0.013461 0.712487
O O11 0.017004 0.750000 0.143743
O O12 0.996909 0.470487 0.210033
O O13 0.046469 0.497633 0.061740
O O14 0.933168 0.540584 0.087608
O O15 0.750000 0.004603 0.736079
O O16 0.824189 0.750000 0.750722
O O17 0.848559 0.008304 0.830151
O O18 0.933649 0.250000 0.026797
O O19 0.844699 0.457946 0.983469
O O20 0.955670 0.250000 0.302922
O O21 0.750000 0.566014 0.901801
O O22 0.651701 0.750000 0.920625
#
# Coordination Sequence:
#
# PCOD9447468 Si02
#       8
#     8   8   8   8   8   8   8   8
#     4  10  19  29  46  75 107 134 165 211 259 303
#     4   9  18  33  52  73 100 138 179 211 244 295
#     4   8  16  34  57  76  98 133 174 213 255 306
#     4  10  21  36  54  76 102 132 166 208 258 308
#     4   8  14  25  41  62  93 134 169 195 237 299
#     4  10  20  34  53  75 100 133 171 208 250 305
#     4  10  20  34  54  79 103 130 169 213 259 312
#     4   9  17  30  49  72  99 133 171 210 253 299
#
# _framework density 21.411086999999998
#
# number of rings (size 3 to 8) (size 9 to 14) (size 15 to 20)
#    0.000    2.750    0.000    3.375    0.000    4.500 
#    0.000    1.875    0.000    4.125    0.000    0.000 
#    0.000    0.000    0.000    0.000    0.000    0.000 
#
# Total GULP energy -356532.923263 kJ/mol
# GULP energy per Si atom -5570.826926 kJ/mol
# Density = 2.136235 g / cm^3
# Si number density = 21.411087 Si / 1000 Ang^3
#
#
#
# Elastic Constant Matrix: (Units=GPa)
#
#
# Indices 1 2 3 4 5 6 
#
# 1 89.6084 12.6257 12.7334 0.0000 0.0000 0.0000
# 2 12.6257 19.4550 -4.1359 0.0000 0.0000 0.0000
# 3 12.7334 -4.1359 22.6974 0.0000 0.0000 0.0000
# 4 0.0000 0.0000 0.0000 17.4393 0.0000 0.0000
# 5 0.0000 0.0000 0.0000 0.0000 34.4111 0.0000
# 6 0.0000 0.0000 0.0000 0.0000 0.0000 16.9287
#
#
#
# Elastic Compliance Matrix: (Units=1/GPa)
#
#
# Indices 1 2 3 4 5 6 
#
# 1 0.014180 -0.011333 -0.010020 0.000000 0.000000 0.000000
# 2 -0.011333 0.062529 0.017752 0.000000 0.000000 0.000000
# 3 -0.010020 0.017752 0.052914 0.000000 0.000000 0.000000
# 4 0.000000 0.000000 0.000000 0.057342 0.000000 0.000000
# 5 0.000000 0.000000 0.000000 0.000000 0.029060 0.000000
# 6 0.000000 0.000000 0.000000 0.000000 0.000000 0.059071
#
#
# Mechanical properties :
#
#
# Convention : Reuss Voigt Hill
#
# Bulk Modulus (GPa) = 8.16851 19.35635 13.76243
# Shear Modulus (GPa) = 15.47476 21.12500 18.29988
#
# Velocity S-wave (km/s) = 2.69131 3.14449 2.92668
# Velocity P-wave (km/s) = 3.67163 4.71632 4.22638
#
# Compressibility (1/GPa) = 0.12242131
#
# Stress axis : x y z
#
# Youngs Moduli (GPa) = 70.52009 15.99255 18.89847
#
# Poissons Ratio (x) = 0.18124 0.18937
# Poissons Ratio (y) = 0.79919 -0.33549
# Poissons Ratio (z) = 0.70664 -0.28390
#
# Static dielectric constant tensor:
#      x y z
#    x 1.972400 0.000000 0.000000 
#    y 0.000000 1.763000 0.000000 
#    z 0.000000 0.000000 1.792750 
# 
# From -- ./inp_files/28177.got.cif
#   From: 2010.05.17/outbox.cif.g08.bks.cpg/sg59_15_cif.got.tgz:28177.got - 2010.06.03 14:40:33.
