data_PCOD9447549
_publ_section_title
;
Structure prediction by ZEFSAII (Michael W. Deem and Ramdas Pophale) SiO2 
 PCOD9447549
Probable space group: P M M N
;
_chemical_formula_sum "Si O2"
_cell_formula_units_Z 64
_cell_length_a 34.716671
_cell_length_b 15.170501
_cell_length_c 7.047086
_cell_angle_alpha 90.000000
_cell_angle_beta 90.000000
_cell_angle_gamma 90.000000
_cell_volume 3711.483795
_symmetry_space_group_name_H-M "P M M N"
_symmetry_group_IT_number 59
_space_group.IT_coordinate_system_code '2'
_symmetry_cell_setting 'orthorhombic'
loop_
_space_group_symop_operation_xyz
x,y,z
1/2-x,1/2-y,z
1/2+x,-y,-z
-x,1/2+y,-z
-x,-y,-z
1/2+x,1/2+y,-z
1/2-x,y,z
x,1/2-y,z
loop_
_atom_site_type_symbol
_atom_site_label
_atom_site_fract_x
_atom_site_fract_y
_atom_site_fract_z
Si Si1 0.552111 0.847987 0.612259
Si Si2 0.999188 0.902813 0.913371
Si Si3 0.354750 0.647443 0.564648
Si Si4 0.872394 0.651374 0.870848
Si Si5 0.295155 0.854308 0.898169
Si Si6 0.851153 0.045966 0.827936
Si Si7 0.583764 0.410070 0.129904
Si Si8 0.068437 0.115776 0.819700
O O1 0.537527 0.750000 0.654080
O O2 0.560356 0.855592 0.392078
O O3 0.519856 0.909291 0.705178
O O4 0.592205 0.859633 0.723123
O O5 0.967350 0.856849 0.046495
O O6 0.042396 0.866382 0.910099
O O7 0.000000 0.000000 0.000000
O O8 0.353377 0.750000 0.503348
O O9 0.318384 0.629451 0.702943
O O10 0.391658 0.632917 0.701383
O O11 0.354509 0.582721 0.385025
O O12 0.855452 0.750000 0.842579
O O13 0.849025 0.560581 0.844430
O O14 0.892979 0.649196 0.077058
O O15 0.250000 0.873038 0.879610
O O16 0.299908 0.750000 0.940578
O O17 0.315278 0.910203 0.063251
O O18 0.888754 0.079427 0.946323
O O19 0.573453 0.510266 0.186126
#
# Coordination Sequence:
#
# PCOD9447549 Si02
#       8
#     8   8   8   8   8   8   8   8
#     4  10  19  30  46  68  92 122 167 218 258 293
#     4   9  19  32  45  63  90 127 168 209 253 302
#     4  10  20  33  50  73 102 134 165 199 244 297
#     4   9  18  32  50  75 104 132 168 213 255 294
#     4   9  19  36  57  82 108 129 156 197 238 284
#     4  10  19  33  54  78 102 133 167 200 244 300
#     4   9  19  32  46  67  97 129 164 208 255 304
#     4   9  17  31  50  68  91 126 170 219 263 300
#
# _framework density 17.243777999999999
#
# number of rings (size 3 to 8) (size 9 to 14) (size 15 to 20)
#    0.000    2.625    0.000    2.250    0.000    5.000 
#    0.000    1.250    0.000    0.375    0.000    0.000 
#    0.000    0.000    0.000    0.000    0.000    0.000 
#
# Total GULP energy -356499.110219 kJ/mol
# GULP energy per Si atom -5570.298597 kJ/mol
# Density = 1.720453 g / cm^3
# Si number density = 17.243778 Si / 1000 Ang^3
#
#
#
# Elastic Constant Matrix: (Units=GPa)
#
#
# Indices 1 2 3 4 5 6 
#
# 1 89.2615 37.6294 42.7054 0.0000 0.0000 0.0000
# 2 37.6294 87.9047 39.8029 0.0000 0.0000 0.0000
# 3 42.7054 39.8029 109.0123 0.0000 0.0000 0.0000
# 4 0.0000 0.0000 0.0000 18.3500 0.0000 0.0000
# 5 0.0000 0.0000 0.0000 0.0000 8.1887 0.0000
# 6 0.0000 0.0000 0.0000 0.0000 0.0000 20.0413
#
#
#
# Elastic Compliance Matrix: (Units=1/GPa)
#
#
# Indices 1 2 3 4 5 6 
#
# 1 0.015171 -0.004557 -0.004280 0.000000 0.000000 0.000000
# 2 -0.004557 0.014998 -0.003691 0.000000 0.000000 0.000000
# 3 -0.004280 -0.003691 0.012197 0.000000 0.000000 0.000000
# 4 0.000000 0.000000 0.000000 0.054496 0.000000 0.000000
# 5 0.000000 0.000000 0.000000 0.000000 0.122120 0.000000
# 6 0.000000 0.000000 0.000000 0.000000 0.000000 0.049897
#
#
# Mechanical properties :
#
#
# Convention : Reuss Voigt Hill
#
# Bulk Modulus (GPa) = 57.76282 58.49487 58.12885
# Shear Modulus (GPa) = 16.68308 20.38539 18.53424
#
# Velocity S-wave (km/s) = 3.11382 3.44203 3.28203
# Velocity P-wave (km/s) = 6.81897 7.05639 6.93869
#
# Compressibility (1/GPa) = 0.01731217
#
# Stress axis : x y z
#
# Youngs Moduli (GPa) = 65.91321 66.67658 81.98407
#
# Poissons Ratio (x) = 0.30382 0.35086
# Poissons Ratio (y) = 0.30034 0.30260
# Poissons Ratio (z) = 0.28209 0.24610
#
# Static dielectric constant tensor:
#      x y z
#    x 1.586970 0.000000 0.000000 
#    y 0.000000 1.627140 0.000000 
#    z 0.000000 0.000000 1.582190 
# 
# From -- ./inp_files/4628.got.cif
#   From: 2010.05.17/outbox.cif.g08.bks.cpg/sg59_3_cif.got.tgz:4628.got - 2010.06.03 14:40:33.
