data_PCOD9447757
_publ_section_title
;
Structure prediction by ZEFSAII (Michael W. Deem and Ramdas Pophale) SiO2 
 PCOD9447757
Probable space group: P M M N
;
_chemical_formula_sum "Si O2"
_cell_formula_units_Z 64
_cell_length_a 24.120146
_cell_length_b 8.590980
_cell_length_c 19.702267
_cell_angle_alpha 90.000000
_cell_angle_beta 90.000000
_cell_angle_gamma 90.000000
_cell_volume 4082.618888
_symmetry_space_group_name_H-M "P M M N"
_symmetry_group_IT_number 59
_space_group.IT_coordinate_system_code '2'
_symmetry_cell_setting 'orthorhombic'
loop_
_space_group_symop_operation_xyz
x,y,z
1/2-x,1/2-y,z
1/2+x,-y,-z
-x,1/2+y,-z
-x,-y,-z
1/2+x,1/2+y,-z
1/2-x,y,z
x,1/2-y,z
loop_
_atom_site_type_symbol
_atom_site_label
_atom_site_fract_x
_atom_site_fract_y
_atom_site_fract_z
Si Si1 0.186572 0.061512 0.612023
Si Si2 0.132203 0.562964 0.749518
Si Si3 0.187057 0.560148 0.892020
Si Si4 0.085605 0.937817 0.982388
Si Si5 0.477764 0.435726 0.106209
Si Si6 0.006932 0.436537 0.751387
Si Si7 0.086459 0.437371 0.519460
Si Si8 0.976868 0.062660 0.603062
O O1 0.250000 0.011453 0.601659
O O2 0.185456 0.250000 0.613906
O O3 0.143927 0.010708 0.553183
O O4 0.163185 0.000834 0.683423
O O5 0.131715 0.750000 0.747590
O O6 0.163562 0.513636 0.818388
O O7 0.069240 0.503351 0.751386
O O8 0.250000 0.507001 0.901910
O O9 0.187276 0.750000 0.892508
O O10 0.143456 0.510969 0.949538
O O11 0.085302 0.750000 0.987598
O O12 0.035980 0.981247 0.930307
O O13 0.069695 0.007953 0.054869
O O14 0.477172 0.250000 0.111637
O O15 0.476778 0.508242 0.180596
O O16 0.010570 0.250000 0.750820
O O17 0.977625 0.487088 0.681304
O O18 0.086367 0.250000 0.517547
O O19 0.071262 0.498859 0.445190
O O20 0.035475 0.486241 0.568696
O O21 0.975088 0.250000 0.601015
#
# Coordination Sequence:
#
# PCOD9447757 Si02
#       8
#     8   8   8   8   8   8   8   8
#     4  10  20  34  49  67  96 132 165 196 233 280
#     4  11  20  31  46  69  99 130 167 200 230 271
#     4   9  17  30  47  67  94 126 161 198 231 269
#     4   9  17  31  47  67  93 125 159 193 236 281
#     4  10  19  31  47  70  95 122 158 197 238 283
#     4  11  20  32  49  70  97 128 159 193 241 290
#     4   9  17  31  47  67  92 122 158 194 233 277
#     4   9  18  31  47  67  92 121 155 194 237 283
#
# _framework density 15.676212
#
# number of rings (size 3 to 8) (size 9 to 14) (size 15 to 20)
#    0.000    2.250    2.500    1.500    0.000    2.750 
#    0.000    0.000    0.000    1.875    0.000    0.875 
#    0.000    1.000    0.000    0.000    0.000    0.000 
#
# Total GULP energy -356946.985492 kJ/mol
# GULP energy per Si atom -5577.296648 kJ/mol
# Density = 1.564053 g / cm^3
# Si number density = 15.676212 Si / 1000 Ang^3
#
#
#
# Elastic Constant Matrix: (Units=GPa)
#
#
# Indices 1 2 3 4 5 6 
#
# 1 111.6715 19.8529 83.5942 0.0000 0.0000 0.0000
# 2 19.8529 11.3787 24.6668 0.0000 0.0000 0.0000
# 3 83.5942 24.6668 147.5527 0.0000 0.0000 0.0000
# 4 0.0000 0.0000 0.0000 22.4774 0.0000 0.0000
# 5 0.0000 0.0000 0.0000 0.0000 17.9374 0.0000
# 6 0.0000 0.0000 0.0000 0.0000 0.0000 15.2232
#
#
#
# Elastic Compliance Matrix: (Units=1/GPa)
#
#
# Indices 1 2 3 4 5 6 
#
# 1 0.016793 -0.013606 -0.007239 0.000000 0.000000 0.000000
# 2 -0.013606 0.148858 -0.017177 0.000000 0.000000 0.000000
# 3 -0.007239 -0.017177 0.013750 0.000000 0.000000 0.000000
# 4 0.000000 0.000000 0.000000 0.044489 0.000000 0.000000
# 5 0.000000 0.000000 0.000000 0.000000 0.055749 0.000000
# 6 0.000000 0.000000 0.000000 0.000000 0.000000 0.065689
#
#
# Mechanical properties :
#
#
# Convention : Reuss Voigt Hill
#
# Bulk Modulus (GPa) = 9.67520 58.53673 34.10597
# Shear Modulus (GPa) = 10.96914 20.62687 15.79801
#
# Velocity S-wave (km/s) = 2.64811 3.63134 3.17798
# Velocity P-wave (km/s) = 3.94149 7.41649 5.93884
#
# Compressibility (1/GPa) = 0.10335701
#
# Stress axis : x y z
#
# Youngs Moduli (GPa) = 59.54964 6.71782 72.72723
#
# Poissons Ratio (x) = 0.09140 0.52649
# Poissons Ratio (y) = 0.81022 1.24922
# Poissons Ratio (z) = 0.43109 0.11539
#
# Static dielectric constant tensor:
#      x y z
#    x 1.511760 0.000000 0.000000 
#    y 0.000000 1.531910 0.000000 
#    z 0.000000 0.000000 1.517040 
# 
# From -- ./inp_files/26479.got.cif
#   From: 2010.05.17/outbox.cif.g08.bks.cpg/sg59_14_cif.got.tgz:26479.got - 2010.06.03 14:40:33.
