data_PCOD9447479
_publ_section_title
;
Structure prediction by ZEFSAII (Michael W. Deem and Ramdas Pophale) SiO2 
 PCOD9447479
Probable space group: P M M N
;
_chemical_formula_sum "Si O2"
_cell_formula_units_Z 64
_cell_length_a 8.992751
_cell_length_b 25.943541
_cell_length_c 18.884483
_cell_angle_alpha 90.000000
_cell_angle_beta 90.000000
_cell_angle_gamma 90.000000
_cell_volume 4405.821726
_symmetry_space_group_name_H-M "P M M N"
_symmetry_group_IT_number 59
_space_group.IT_coordinate_system_code '2'
_symmetry_cell_setting 'orthorhombic'
loop_
_space_group_symop_operation_xyz
x,y,z
1/2-x,1/2-y,z
1/2+x,-y,-z
-x,1/2+y,-z
-x,-y,-z
1/2+x,1/2+y,-z
1/2-x,y,z
x,1/2-y,z
loop_
_atom_site_type_symbol
_atom_site_label
_atom_site_fract_x
_atom_site_fract_y
_atom_site_fract_z
Si Si1 0.927496 0.004173 0.613335
Si Si2 0.429512 0.102435 0.184880
Si Si3 0.428732 0.692512 0.553733
Si Si4 0.921327 0.041057 0.900392
Si Si5 0.571414 0.419795 0.483503
Si Si6 0.424983 0.308655 0.294198
Si Si7 0.572788 0.504010 0.235852
Si Si8 0.578115 0.924711 0.965202
O O1 0.750000 0.999381 0.621957
O O2 0.991974 0.951417 0.579440
O O3 0.959040 0.048737 0.555478
O O4 0.002894 0.016369 0.688020
O O5 0.250000 0.092966 0.186812
O O6 0.463783 0.150808 0.233891
O O7 0.469477 0.109190 0.102181
O O8 0.512488 0.052816 0.215669
O O9 0.250000 0.693884 0.550945
O O10 0.482409 0.750000 0.531024
O O11 0.475601 0.640111 0.513941
O O12 0.481386 0.685014 0.634493
O O13 0.750000 0.052109 0.884732
O O14 0.015071 0.039912 0.828341
O O15 0.928855 0.982886 0.932839
O O16 0.983452 0.076283 0.963555
O O17 0.750000 0.421843 0.471578
O O18 0.250000 0.315708 0.311851
O O19 0.444407 0.250000 0.269185
O O20 0.750000 0.504427 0.238868
O O21 0.750000 0.914326 0.982497
#
# Coordination Sequence:
#
# PCOD9447479 Si02
#       8
#     8   8   8   8   8   8   8   8
#     4  10  19  30  43  59  82 110 138 169 204 243
#     4   9  17  28  41  57  79 108 139 169 200 235
#     4   9  17  29  44  61  81 105 134 169 206 242
#     4   9  16  26  39  55  77 103 130 160 193 228
#     4   9  18  31  45  61  81 107 138 169 203 245
#     4   9  17  28  41  58  80 106 136 168 200 233
#     4  11  20  28  40  58  80 106 137 168 199 239
#     4   8  14  24  37  54  76 102 131 160 191 226
#
# _framework density 14.526234000000001
#
# number of rings (size 3 to 8) (size 9 to 14) (size 15 to 20)
#    0.000    2.750    0.000    3.375    0.000    6.500 
#    0.000    0.000    0.000    0.000    0.000    0.000 
#    0.000    1.000    0.000    1.750    0.000    2.750 
#
# Total GULP energy -356382.987374 kJ/mol
# GULP energy per Si atom -5568.484178 kJ/mol
# Density = 1.449317 g / cm^3
# Si number density = 14.526234 Si / 1000 Ang^3
#
#
#
# Elastic Constant Matrix: (Units=GPa)
#
#
# Indices 1 2 3 4 5 6 
#
# 1 44.5345 18.1295 39.8008 0.0000 0.0000 0.0000
# 2 18.1295 68.5304 28.7088 0.0000 0.0000 0.0000
# 3 39.8008 28.7088 85.2844 0.0000 0.0000 0.0000
# 4 0.0000 0.0000 0.0000 18.3598 0.0000 0.0000
# 5 0.0000 0.0000 0.0000 0.0000 23.4573 0.0000
# 6 0.0000 0.0000 0.0000 0.0000 0.0000 13.5909
#
#
#
# Elastic Compliance Matrix: (Units=1/GPa)
#
#
# Indices 1 2 3 4 5 6 
#
# 1 0.039093 -0.003142 -0.017186 0.000000 0.000000 0.000000
# 2 -0.003142 0.017240 -0.004337 0.000000 0.000000 0.000000
# 3 -0.017186 -0.004337 0.021206 0.000000 0.000000 0.000000
# 4 0.000000 0.000000 0.000000 0.054467 0.000000 0.000000
# 5 0.000000 0.000000 0.000000 0.000000 0.042631 0.000000
# 6 0.000000 0.000000 0.000000 0.000000 0.000000 0.073579
#
#
# Mechanical properties :
#
#
# Convention : Reuss Voigt Hill
#
# Bulk Modulus (GPa) = 35.45077 41.29194 38.37135
# Shear Modulus (GPa) = 16.28930 18.52896 17.40913
#
# Velocity S-wave (km/s) = 3.35232 3.57536 3.46564
# Velocity P-wave (km/s) = 6.28026 6.74772 6.51818
#
# Compressibility (1/GPa) = 0.02820813
#
# Stress axis : x y z
#
# Youngs Moduli (GPa) = 25.57976 58.00393 47.15631
#
# Poissons Ratio (x) = 0.18226 0.81045
# Poissons Ratio (y) = 0.08038 0.20452
# Poissons Ratio (z) = 0.43963 0.25156
#
# Static dielectric constant tensor:
#      x y z
#    x 1.489460 0.000000 0.000000 
#    y 0.000000 1.485510 0.000000 
#    z 0.000000 0.000000 1.478960 
# 
# From -- ./inp_files/26629.got.cif
#   From: 2010.05.17/outbox.cif.g08.bks.cpg/sg59_14_cif.got.tgz:26629.got - 2010.06.03 14:40:33.
