data_PCOD9447896
_publ_section_title
;
Structure prediction by ZEFSAII (Michael W. Deem and Ramdas Pophale) SiO2 
 PCOD9447896
Probable space group: P M M N
;
_chemical_formula_sum "Si O2"
_cell_formula_units_Z 48
_cell_length_a 32.003563
_cell_length_b 7.795295
_cell_length_c 9.957898
_cell_angle_alpha 90.000000
_cell_angle_beta 90.000000
_cell_angle_gamma 90.000000
_cell_volume 2484.268657
_symmetry_space_group_name_H-M "P M M N"
_symmetry_group_IT_number 59
_space_group.IT_coordinate_system_code '2'
_symmetry_cell_setting 'orthorhombic'
loop_
_space_group_symop_operation_xyz
x,y,z
1/2-x,1/2-y,z
1/2+x,-y,-z
-x,1/2+y,-z
-x,-y,-z
1/2+x,1/2+y,-z
1/2-x,y,z
x,1/2-y,z
loop_
_atom_site_type_symbol
_atom_site_label
_atom_site_fract_x
_atom_site_fract_y
_atom_site_fract_z
Si Si1 0.985742 0.542779 0.848873
Si Si2 0.391245 0.043665 0.189956
Si Si3 0.868920 0.453996 0.512360
Si Si4 0.434406 0.954063 0.699739
Si Si5 0.362028 0.041735 0.905795
Si Si6 0.203063 0.455155 0.689389
O O1 0.985043 0.750000 0.839579
O O2 0.939019 0.479168 0.820433
O O3 0.020513 0.476659 0.743751
O O4 0.000000 0.500000 0.000000
O O5 0.392947 0.250000 0.181250
O O6 0.371730 0.999218 0.332476
O O7 0.365952 0.983221 0.059002
O O8 0.870034 0.250000 0.499051
O O9 0.909165 0.524218 0.429009
O O10 0.827052 0.512728 0.437104
O O11 0.439327 0.750000 0.680388
O O12 0.403094 0.984433 0.824405
O O13 0.361657 0.250000 0.903852
O O14 0.322351 0.979991 0.819842
O O15 0.250000 0.523999 0.676320
O O16 0.206047 0.250000 0.703719
#
# Coordination Sequence:
#
# PCOD9447896 Si02
#       6
#     8   8   8   8   8   8
#     4  10  19  31  49  73 102 136 177 220 259 300
#     4  10  20  33  49  74 107 139 172 215 259 301
#     4  10  21  35  51  74 105 140 173 209 255 305
#     4   9  18  32  49  71 100 135 176 216 253 298
#     4   9  17  31  52  76 101 129 166 209 254 303
#     4   9  18  35  59  81  99 125 163 206 254 311
#
# _framework density 19.321583
#
# number of rings (size 3 to 8) (size 9 to 14) (size 15 to 20)
#    0.000    2.500    1.667    0.500    0.000    3.000 
#    0.000    0.833    0.000    3.000    0.000    0.000 
#    0.000    0.000    0.000    0.000    0.000    0.000 
#
# Total GULP energy -267719.407425 kJ/mol
# GULP energy per Si atom -5577.487655 kJ/mol
# Density = 1.927761 g / cm^3
# Si number density = 19.321583 Si / 1000 Ang^3
#
#
#
# Elastic Constant Matrix: (Units=GPa)
#
#
# Indices 1 2 3 4 5 6 
#
# 1 142.3423 4.6824 67.7855 0.0000 0.0000 0.0000
# 2 4.6824 21.8887 -9.7581 0.0000 0.0000 0.0000
# 3 67.7855 -9.7581 115.9980 0.0000 0.0000 0.0000
# 4 0.0000 0.0000 0.0000 14.8340 0.0000 0.0000
# 5 0.0000 0.0000 0.0000 0.0000 14.6022 0.0000
# 6 0.0000 0.0000 0.0000 0.0000 0.0000 16.0955
#
#
#
# Elastic Compliance Matrix: (Units=1/GPa)
#
#
# Indices 1 2 3 4 5 6 
#
# 1 0.010245 -0.005050 -0.006411 0.000000 0.000000 0.000000
# 2 -0.005050 0.049955 0.007153 0.000000 0.000000 0.000000
# 3 -0.006411 0.007153 0.012969 0.000000 0.000000 0.000000
# 4 0.000000 0.000000 0.000000 0.067413 0.000000 0.000000
# 5 0.000000 0.000000 0.000000 0.000000 0.068483 0.000000
# 6 0.000000 0.000000 0.000000 0.000000 0.000000 0.062129
#
#
# Mechanical properties :
#
#
# Convention : Reuss Voigt Hill
#
# Bulk Modulus (GPa) = 15.49117 45.07207 30.28162
# Shear Modulus (GPa) = 16.59328 23.60763 20.10045
#
# Velocity S-wave (km/s) = 2.93370 3.49926 3.22888
# Velocity P-wave (km/s) = 4.41706 6.30114 5.44127
#
# Compressibility (1/GPa) = 0.06455292
#
# Stress axis : x y z
#
# Youngs Moduli (GPa) = 97.61174 20.01805 77.10542
#
# Poissons Ratio (x) = 0.10109 0.49436
# Poissons Ratio (y) = 0.49292 -0.55156
# Poissons Ratio (z) = 0.62583 -0.14320
#
# Static dielectric constant tensor:
#      x y z
#    x 1.689950 0.000000 0.000000 
#    y 0.000000 1.704170 0.000000 
#    z 0.000000 0.000000 1.689720 
# 
# From -- ./inp_files/6184.got.cif
#   From: 2010.05.17/outbox.cif.g08.bks.cpg/sg59_4_cif.got.tgz:6184.got - 2010.06.03 14:40:33.
