data_PCOD9447141
_publ_section_title
;
Structure prediction by ZEFSAII (Michael W. Deem and Ramdas Pophale) SiO2 
 PCOD9447141
Probable space group: P M M N
;
_chemical_formula_sum "Si O2"
_cell_formula_units_Z 48
_cell_length_a 7.483725
_cell_length_b 17.165252
_cell_length_c 17.113639
_cell_angle_alpha 90.000000
_cell_angle_beta 90.000000
_cell_angle_gamma 90.000000
_cell_volume 2198.418503
_symmetry_space_group_name_H-M "P M M N"
_symmetry_group_IT_number 59
_space_group.IT_coordinate_system_code '2'
_symmetry_cell_setting 'orthorhombic'
loop_
_space_group_symop_operation_xyz
x,y,z
1/2-x,1/2-y,z
1/2+x,-y,-z
-x,1/2+y,-z
-x,-y,-z
1/2+x,1/2+y,-z
1/2-x,y,z
x,1/2-y,z
loop_
_atom_site_type_symbol
_atom_site_label
_atom_site_fract_x
_atom_site_fract_y
_atom_site_fract_z
Si Si1 0.968820 0.559003 0.222372
Si Si2 0.536201 0.160042 0.464182
Si Si3 0.035398 0.417953 0.955209
Si Si4 0.533612 0.250000 0.199943
Si Si5 0.968075 0.101149 0.299823
Si Si6 0.963684 0.837509 0.365075
Si Si7 0.957230 0.750000 0.981427
O O1 0.750000 0.560090 0.220612
O O2 0.028081 0.574498 0.134294
O O3 0.026066 0.475833 0.255527
O O4 0.029360 0.619613 0.288180
O O5 0.750000 0.164553 0.457419
O O6 0.468533 0.250000 0.460684
O O7 0.471294 0.112518 0.389073
O O8 0.497223 0.125989 0.549738
O O9 0.250000 0.412350 0.954818
O O10 0.968551 0.334698 0.990293
O O11 0.000000 0.500000 0.000000
O O12 0.750000 0.250000 0.196443
O O13 0.477660 0.325054 0.248742
O O14 0.466727 0.250000 0.112029
O O15 0.750000 0.099366 0.301384
O O16 0.750000 0.833712 0.357588
O O17 0.036300 0.750000 0.368740
O O18 0.750000 0.750000 0.006937
#
# Coordination Sequence:
#
# PCOD9447141 Si02
#       7
#     8   8   8   4   8   8   4
#     4   9  18  31  50  74  99 130 170 212 251 297
#     4   9  16  29  48  70  98 130 162 203 255 299
#     4  10  21  38  58  81 110 143 179 225 277 328
#     4  10  18  32  56  79 100 130 176 217 254 314
#     4   9  16  28  49  76  99 126 168 213 249 295
#     4   9  18  31  48  70  97 130 170 209 243 293
#     4  10  22  36  54  81 112 142 172 217 284 336
#
# _framework density 21.833877000000001
#
# number of rings (size 3 to 8) (size 9 to 14) (size 15 to 20)
#    0.000    2.667    0.833    1.000    1.167    2.667 
#    0.000    1.667    0.000    2.000    0.000    0.000 
#    0.000    0.000    0.000    0.000    0.000    0.000 
#
# Total GULP energy -267824.193251 kJ/mol
# GULP energy per Si atom -5579.670693 kJ/mol
# Density = 2.178418 g / cm^3
# Si number density = 21.833877 Si / 1000 Ang^3
#
#
#
# Elastic Constant Matrix: (Units=GPa)
#
#
# Indices 1 2 3 4 5 6 
#
# 1 61.7536 5.2050 -0.3020 0.0000 0.0000 0.0000
# 2 5.2050 143.1044 113.4115 0.0000 0.0000 0.0000
# 3 -0.3020 113.4115 234.9068 0.0000 0.0000 0.0000
# 4 0.0000 0.0000 0.0000 33.2660 0.0000 0.0000
# 5 0.0000 0.0000 0.0000 0.0000 18.2697 0.0000
# 6 0.0000 0.0000 0.0000 0.0000 0.0000 3.3030
#
#
#
# Elastic Compliance Matrix: (Units=1/GPa)
#
#
# Indices 1 2 3 4 5 6 
#
# 1 0.016279 -0.000986 0.000497 0.000000 0.000000 0.000000
# 2 -0.000986 0.011378 -0.005495 0.000000 0.000000 0.000000
# 3 0.000497 -0.005495 0.006910 0.000000 0.000000 0.000000
# 4 0.000000 0.000000 0.000000 0.030061 0.000000 0.000000
# 5 0.000000 0.000000 0.000000 0.000000 0.054736 0.000000
# 6 0.000000 0.000000 0.000000 0.000000 0.000000 0.302754
#
#
# Mechanical properties :
#
#
# Convention : Reuss Voigt Hill
#
# Bulk Modulus (GPa) = 44.24704 75.15488 59.70096
# Shear Modulus (GPa) = 11.32200 32.39776 21.85988
#
# Velocity S-wave (km/s) = 2.27964 3.85623 3.16759
# Velocity P-wave (km/s) = 5.21904 7.37043 6.38599
#
# Compressibility (1/GPa) = 0.02260038
#
# Stress axis : x y z
#
# Youngs Moduli (GPa) = 61.42912 87.88645 144.70893
#
# Poissons Ratio (x) = 0.08665 -0.07191
# Poissons Ratio (y) = 0.06056 0.79512
# Poissons Ratio (z) = -0.03053 0.48290
#
# Static dielectric constant tensor:
#      x y z
#    x 1.843840 0.000000 0.000000 
#    y 0.000000 1.992030 0.000000 
#    z 0.000000 0.000000 1.761790 
# 
# From -- ./inp_files/20535.got.cif
#   From: 2010.05.17/outbox.cif.g08.bks.cpg/sg59_11_cif.got.tgz:20535.got - 2010.06.03 14:40:33.
