data_PCOD9447478
_publ_section_title
;
Structure prediction by ZEFSAII (Michael W. Deem and Ramdas Pophale) SiO2 
 PCOD9447478
Probable space group: P M M N
;
_chemical_formula_sum "Si O2"
_cell_formula_units_Z 64
_cell_length_a 7.478218
_cell_length_b 22.008323
_cell_length_c 16.995719
_cell_angle_alpha 90.000000
_cell_angle_beta 90.000000
_cell_angle_gamma 90.000000
_cell_volume 2797.207053
_symmetry_space_group_name_H-M "P M M N"
_symmetry_group_IT_number 59
_space_group.IT_coordinate_system_code '2'
_symmetry_cell_setting 'orthorhombic'
loop_
_space_group_symop_operation_xyz
x,y,z
1/2-x,1/2-y,z
1/2+x,-y,-z
-x,1/2+y,-z
-x,-y,-z
1/2+x,1/2+y,-z
1/2-x,y,z
x,1/2-y,z
loop_
_atom_site_type_symbol
_atom_site_label
_atom_site_fract_x
_atom_site_fract_y
_atom_site_fract_z
Si Si1 0.535481 0.440462 0.551741
Si Si2 0.033242 0.315504 0.787225
Si Si3 0.532522 0.179857 0.280321
Si Si4 0.968191 0.320618 0.459033
Si Si5 0.465089 0.140002 0.955183
Si Si6 0.546184 0.443977 0.725100
Si Si7 0.953559 0.513149 0.106986
Si Si8 0.537604 0.118373 0.121968
O O1 0.500000 0.500000 0.500000
O O2 0.750000 0.433886 0.559119
O O3 0.471761 0.376229 0.514727
O O4 0.465988 0.453554 0.639407
O O5 0.250000 0.320292 0.784061
O O6 0.980106 0.250000 0.755972
O O7 0.980291 0.321351 0.879180
O O8 0.955915 0.371860 0.740594
O O9 0.750000 0.176642 0.280357
O O10 0.483840 0.250000 0.268321
O O11 0.476840 0.163460 0.369014
O O12 0.467101 0.142820 0.204754
O O13 0.750000 0.319899 0.460587
O O14 0.022991 0.250000 0.475971
O O15 0.250000 0.138722 0.952777
O O16 0.535491 0.071996 0.934718
O O17 0.515496 0.158312 0.043335
O O18 0.750000 0.466652 0.727398
O O19 0.449984 0.472294 0.800096
O O20 0.750000 0.509316 0.077806
O O21 0.040603 0.447525 0.100333
O O22 0.750000 0.110430 0.133392
#
# Coordination Sequence:
#
# PCOD9447478 Si02
#       8
#     8   8   8   8   8   8   8   8
#     4  10  22  36  55  84 114 143 177 222 274 325
#     4   9  19  37  58  77 102 141 183 215 253 316
#     4   8  15  28  46  71  99 124 161 212 254 297
#     4   8  15  31  54  76 101 138 179 215 257 313
#     4   9  18  32  47  69 101 134 169 212 260 309
#     4  10  21  35  51  79 110 134 170 220 270 315
#     4   9  19  34  51  70  97 137 179 211 255 318
#     4  10  19  29  48  75  97 128 175 218 258 307
#
# _framework density 22.879966
#
# number of rings (size 3 to 8) (size 9 to 14) (size 15 to 20)
#    0.000    2.875    0.000    2.250    1.750    4.750 
#    0.000    1.250    0.000    0.375    0.000    1.750 
#    0.000    0.000    0.000    0.000    0.000    0.000 
#
# Total GULP energy -357080.850591 kJ/mol
# GULP energy per Si atom -5579.388290 kJ/mol
# Density = 2.282789 g / cm^3
# Si number density = 22.879966 Si / 1000 Ang^3
#
#
#
# Elastic Constant Matrix: (Units=GPa)
#
#
# Indices 1 2 3 4 5 6 
#
# 1 68.5046 -2.8432 -3.4005 0.0000 0.0000 0.0000
# 2 -2.8432 51.1189 30.2091 0.0000 0.0000 0.0000
# 3 -3.4005 30.2091 130.0763 0.0000 0.0000 0.0000
# 4 0.0000 0.0000 0.0000 2.4804 0.0000 0.0000
# 5 0.0000 0.0000 0.0000 0.0000 6.0348 0.0000
# 6 0.0000 0.0000 0.0000 0.0000 0.0000 7.4955
#
#
#
# Elastic Compliance Matrix: (Units=1/GPa)
#
#
# Indices 1 2 3 4 5 6 
#
# 1 0.014637 0.000681 0.000224 0.000000 0.000000 0.000000
# 2 0.000681 0.022706 -0.005255 0.000000 0.000000 0.000000
# 3 0.000224 -0.005255 0.008914 0.000000 0.000000 0.000000
# 4 0.000000 0.000000 0.000000 0.403160 0.000000 0.000000
# 5 0.000000 0.000000 0.000000 0.000000 0.165707 0.000000
# 6 0.000000 0.000000 0.000000 0.000000 0.000000 0.133414
#
#
# Mechanical properties :
#
#
# Convention : Reuss Voigt Hill
#
# Bulk Modulus (GPa) = 26.62553 33.07006 29.84779
# Shear Modulus (GPa) = 6.49556 18.25108 12.37332
#
# Velocity S-wave (km/s) = 1.68675 2.82740 2.32802
# Velocity P-wave (km/s) = 3.93139 5.01438 4.50554
#
# Compressibility (1/GPa) = 0.03755794
#
# Stress axis : x y z
#
# Youngs Moduli (GPa) = 68.32012 44.04145 112.18069
#
# Poissons Ratio (x) = -0.03001 -0.02517
# Poissons Ratio (y) = -0.04656 0.58956
# Poissons Ratio (z) = -0.01533 0.23146
#
# Static dielectric constant tensor:
#      x y z
#    x 1.861350 0.000000 0.000000 
#    y 0.000000 1.865320 0.000000 
#    z 0.000000 0.000000 1.857820 
# 
# From -- ./inp_files/21411.got.cif
#   From: 2010.05.17/outbox.cif.g08.bks.cpg/sg59_11_cif.got.tgz:21411.got - 2010.06.03 14:40:33.
