data_PCOD9447909
_publ_section_title
;
Structure prediction by ZEFSAII (Michael W. Deem and Ramdas Pophale) SiO2 
 PCOD9447909
Probable space group: P M M N
;
_chemical_formula_sum "Si O2"
_cell_formula_units_Z 48
_cell_length_a 19.737715
_cell_length_b 8.901774
_cell_length_c 16.410013
_cell_angle_alpha 90.000000
_cell_angle_beta 90.000000
_cell_angle_gamma 90.000000
_cell_volume 2883.250413
_symmetry_space_group_name_H-M "P M M N"
_symmetry_group_IT_number 59
_space_group.IT_coordinate_system_code '2'
_symmetry_cell_setting 'orthorhombic'
loop_
_space_group_symop_operation_xyz
x,y,z
1/2-x,1/2-y,z
1/2+x,-y,-z
-x,1/2+y,-z
-x,-y,-z
1/2+x,1/2+y,-z
1/2-x,y,z
x,1/2-y,z
loop_
_atom_site_type_symbol
_atom_site_label
_atom_site_fract_x
_atom_site_fract_y
_atom_site_fract_z
Si Si1 0.524282 0.570593 0.371819
Si Si2 0.525468 0.429346 0.195280
Si Si3 0.250000 0.567031 0.412269
Si Si4 0.374048 0.070868 0.129892
Si Si5 0.931256 0.930082 0.036870
Si Si6 0.895277 0.069033 0.520219
Si Si7 0.750000 0.429359 0.775193
O O1 0.529701 0.750000 0.364846
O O2 0.535682 0.494866 0.284833
O O3 0.576212 0.509035 0.439419
O O4 0.449207 0.535239 0.407694
O O5 0.532995 0.250000 0.194558
O O6 0.448002 0.464409 0.167613
O O7 0.574060 0.501541 0.126716
O O8 0.250000 0.750000 0.411916
O O9 0.180297 0.520814 0.455642
O O10 0.250000 0.516800 0.318414
O O11 0.364247 0.250000 0.137379
O O12 0.316004 0.987013 0.178118
O O13 0.376461 0.034546 0.033232
O O14 0.937652 0.750000 0.041286
O O15 0.000000 0.000000 0.000000
O O16 0.896114 0.250000 0.508911
O O17 0.750000 0.250000 0.773928
#
# Coordination Sequence:
#
# PCOD9447909 Si02
#       7
#     8   8   4   8   8   8   4
#     4  10  19  31  49  74 102 130 163 206 253 299
#     4  10  19  31  50  74  98 127 163 202 244 290
#     4   9  18  33  51  72  97 128 165 203 244 289
#     4   9  19  33  47  68 100 132 160 194 239 287
#     4   9  17  30  48  70  96 126 158 195 238 280
#     4   9  18  33  51  70  97 131 166 205 249 297
#     4  11  21  31  49  74  99 130 165 197 232 283
#
# _framework density 16.647877000000001
#
# number of rings (size 3 to 8) (size 9 to 14) (size 15 to 20)
#    0.000    2.500    0.000    3.750    0.000    6.000 
#    0.000    2.083    0.000    1.000    0.000    4.667 
#    0.000    0.000    0.000    0.000    0.000    0.000 
#
# Total GULP energy -267610.181778 kJ/mol
# GULP energy per Si atom -5575.212120 kJ/mol
# Density = 1.660999 g / cm^3
# Si number density = 16.647877 Si / 1000 Ang^3
#
#
#
# Elastic Constant Matrix: (Units=GPa)
#
#
# Indices 1 2 3 4 5 6 
#
# 1 91.8286 32.0573 56.5701 0.0000 0.0000 0.0000
# 2 32.0573 38.2648 49.1328 0.0000 0.0000 0.0000
# 3 56.5701 49.1328 154.1091 0.0000 0.0000 0.0000
# 4 0.0000 0.0000 0.0000 30.0783 0.0000 0.0000
# 5 0.0000 0.0000 0.0000 0.0000 15.8761 0.0000
# 6 0.0000 0.0000 0.0000 0.0000 0.0000 22.6514
#
#
#
# Elastic Compliance Matrix: (Units=1/GPa)
#
#
# Indices 1 2 3 4 5 6 
#
# 1 0.016035 -0.009948 -0.002714 0.000000 0.000000 0.000000
# 2 -0.009948 0.050419 -0.012423 0.000000 0.000000 0.000000
# 3 -0.002714 -0.012423 0.011446 0.000000 0.000000 0.000000
# 4 0.000000 0.000000 0.000000 0.033247 0.000000 0.000000
# 5 0.000000 0.000000 0.000000 0.000000 0.062988 0.000000
# 6 0.000000 0.000000 0.000000 0.000000 0.000000 0.044147
#
#
# Mechanical properties :
#
#
# Convention : Reuss Voigt Hill
#
# Bulk Modulus (GPa) = 36.06315 62.19142 49.12729
# Shear Modulus (GPa) = 18.00530 23.48397 20.74464
#
# Velocity S-wave (km/s) = 3.29224 3.75991 3.53382
# Velocity P-wave (km/s) = 6.01341 7.50248 6.79884
#
# Compressibility (1/GPa) = 0.02772914
#
# Stress axis : x y z
#
# Youngs Moduli (GPa) = 62.36356 19.83367 87.36754
#
# Poissons Ratio (x) = 0.19731 0.23715
# Poissons Ratio (y) = 0.62042 1.08535
# Poissons Ratio (z) = 0.16928 0.24639
#
# Static dielectric constant tensor:
#      x y z
#    x 1.549340 0.000000 0.000000 
#    y 0.000000 1.551540 0.000000 
#    z 0.000000 0.000000 1.568220 
# 
# From -- ./inp_files/20582.got.cif
#   From: 2010.05.17/outbox.cif.g08.bks.cpg/sg59_11_cif.got.tgz:20582.got - 2010.06.03 14:40:33.
