data_PCOD9447725
_publ_section_title
;
Structure prediction by ZEFSAII (Michael W. Deem and Ramdas Pophale) SiO2 
 PCOD9447725
Probable space group: P M M N
;
_chemical_formula_sum "Si O2"
_cell_formula_units_Z 64
_cell_length_a 8.422248
_cell_length_b 29.542987
_cell_length_c 16.233501
_cell_angle_alpha 90.000000
_cell_angle_beta 90.000000
_cell_angle_gamma 90.000000
_cell_volume 4039.193147
_symmetry_space_group_name_H-M "P M M N"
_symmetry_group_IT_number 59
_space_group.IT_coordinate_system_code '2'
_symmetry_cell_setting 'orthorhombic'
loop_
_space_group_symop_operation_xyz
x,y,z
1/2-x,1/2-y,z
1/2+x,-y,-z
-x,1/2+y,-z
-x,-y,-z
1/2+x,1/2+y,-z
1/2-x,y,z
x,1/2-y,z
loop_
_atom_site_type_symbol
_atom_site_label
_atom_site_fract_x
_atom_site_fract_y
_atom_site_fract_z
Si Si1 0.057485 0.550073 0.819425
Si Si2 0.943386 0.300251 0.405069
Si Si3 0.058632 0.551710 0.999541
Si Si4 0.940119 0.051255 0.502723
Si Si5 0.937972 0.605885 0.338577
Si Si6 0.441630 0.698870 0.402730
Si Si7 0.944122 0.394534 0.339464
Si Si8 0.940547 0.446495 0.820166
O O1 0.250000 0.548766 0.817689
O O2 0.007346 0.568999 0.909471
O O3 0.002433 0.580604 0.743357
O O4 0.998975 0.498382 0.810423
O O5 0.750000 0.299930 0.403520
O O6 0.997083 0.250000 0.380076
O O7 0.987184 0.307534 0.501008
O O8 0.996757 0.342731 0.351315
O O9 0.250000 0.552523 0.999842
O O10 0.006606 0.570442 0.088489
O O11 0.000000 0.500000 0.000000
O O12 0.750000 0.051129 0.502442
O O13 0.993764 0.077671 0.420562
O O14 0.995363 0.077324 0.584233
O O15 0.000000 0.000000 0.500000
O O16 0.750000 0.602868 0.340895
O O17 0.990444 0.657791 0.350445
O O18 0.998136 0.583969 0.254011
O O19 0.250000 0.696716 0.399508
O O20 0.489404 0.750000 0.378626
O O21 0.750000 0.394552 0.338537
O O22 0.750000 0.446895 0.818049
#
# Coordination Sequence:
#
# PCOD9447725 Si02
#       8
#     8   8   8   8   8   8   8   8
#     4   9  16  28  46  69  95 119 147 188 237 285
#     4   8  13  24  44  67  87 110 144 182 219 263
#     4   8  15  27  44  65  88 116 149 189 237 279
#     4  11  21  33  46  64  94 129 163 191 223 273
#     4  12  23  33  46  67  94 126 161 199 238 275
#     4   9  17  32  53  71  89 117 153 194 239 284
#     4   9  16  26  43  65  89 117 147 180 219 268
#     4  10  19  31  46  64  89 123 161 197 231 277
#
# _framework density 15.844747999999999
#
# number of rings (size 3 to 8) (size 9 to 14) (size 15 to 20)
#    0.000    2.500    1.250    3.375    0.000    1.750 
#    0.000    0.625    0.000    0.000    0.000    0.875 
#    0.000    5.000    0.000    0.000    0.000    0.000 
#
# Total GULP energy -356588.277371 kJ/mol
# GULP energy per Si atom -5571.691834 kJ/mol
# Density = 1.580868 g / cm^3
# Si number density = 15.844748 Si / 1000 Ang^3
#
#
#
# Elastic Constant Matrix: (Units=GPa)
#
#
# Indices 1 2 3 4 5 6 
#
# 1 23.6409 20.6877 26.4627 0.0000 0.0000 0.0000
# 2 20.6877 121.2309 82.0774 0.0000 0.0000 0.0000
# 3 26.4627 82.0774 156.9844 0.0000 0.0000 0.0000
# 4 0.0000 0.0000 0.0000 7.7040 0.0000 0.0000
# 5 0.0000 0.0000 0.0000 0.0000 10.0657 0.0000
# 6 0.0000 0.0000 0.0000 0.0000 0.0000 18.8875
#
#
#
# Elastic Compliance Matrix: (Units=1/GPa)
#
#
# Indices 1 2 3 4 5 6 
#
# 1 0.053820 -0.004709 -0.006610 0.000000 0.000000 0.000000
# 2 -0.004709 0.013180 -0.006098 0.000000 0.000000 0.000000
# 3 -0.006610 -0.006098 0.010672 0.000000 0.000000 0.000000
# 4 0.000000 0.000000 0.000000 0.129803 0.000000 0.000000
# 5 0.000000 0.000000 0.000000 0.000000 0.099348 0.000000
# 6 0.000000 0.000000 0.000000 0.000000 0.000000 0.052945
#
#
# Mechanical properties :
#
#
# Convention : Reuss Voigt Hill
#
# Bulk Modulus (GPa) = 23.34312 62.25688 42.80000
# Shear Modulus (GPa) = 12.22850 18.83999 15.53424
#
# Velocity S-wave (km/s) = 2.78109 3.45198 3.13454
# Velocity P-wave (km/s) = 5.00769 7.43407 6.33807
#
# Compressibility (1/GPa) = 0.04283918
#
# Stress axis : x y z
#
# Youngs Moduli (GPa) = 18.58060 75.86978 93.69982
#
# Poissons Ratio (x) = 0.35725 0.61939
# Poissons Ratio (y) = 0.08749 0.57134
# Poissons Ratio (z) = 0.12283 0.46262
#
# Static dielectric constant tensor:
#      x y z
#    x 1.543170 0.000000 0.000000 
#    y 0.000000 1.508150 0.000000 
#    z 0.000000 0.000000 1.548390 
# 
# From -- ./inp_files/21836.got.cif
#   From: 2010.05.17/outbox.cif.g08.bks.cpg/sg59_11_cif.got.tgz:21836.got - 2010.06.03 14:40:33.
