data_PCOD9447668
_publ_section_title
;
Structure prediction by ZEFSAII (Michael W. Deem and Ramdas Pophale) SiO2 
 PCOD9447668
Probable space group: P M M N
;
_chemical_formula_sum "Si O2"
_cell_formula_units_Z 64
_cell_length_a 15.852206
_cell_length_b 9.235346
_cell_length_c 23.619395
_cell_angle_alpha 90.000000
_cell_angle_beta 90.000000
_cell_angle_gamma 90.000000
_cell_volume 3457.893771
_symmetry_space_group_name_H-M "P M M N"
_symmetry_group_IT_number 59
_space_group.IT_coordinate_system_code '2'
_symmetry_cell_setting 'orthorhombic'
loop_
_space_group_symop_operation_xyz
x,y,z
1/2-x,1/2-y,z
1/2+x,-y,-z
-x,1/2+y,-z
-x,-y,-z
1/2+x,1/2+y,-z
1/2-x,y,z
x,1/2-y,z
loop_
_atom_site_type_symbol
_atom_site_label
_atom_site_fract_x
_atom_site_fract_y
_atom_site_fract_z
Si Si1 0.154478 0.924231 0.921342
Si Si2 0.652623 0.581473 0.521401
Si Si3 0.846912 0.922504 0.958354
Si Si4 0.158510 0.076584 0.692534
Si Si5 0.598966 0.085347 0.415340
Si Si6 0.587520 0.915822 0.638658
Si Si7 0.982062 0.575666 0.861549
Si Si8 0.021260 0.576625 0.255787
O O1 0.250000 0.965211 0.902830
O O2 0.152232 0.750000 0.926620
O O3 0.076993 0.965752 0.880902
O O4 0.139883 0.993904 0.982916
O O5 0.750000 0.575437 0.503928
O O6 0.624840 0.750000 0.519656
O O7 0.602125 0.487556 0.476507
O O8 0.645159 0.533655 0.586644
O O9 0.750000 0.950747 0.939673
O O10 0.854210 0.750000 0.968835
O O11 0.915929 0.961120 0.911301
O O12 0.250000 0.037023 0.717533
O O13 0.155303 0.250000 0.686342
O O14 0.075781 0.034521 0.728037
O O15 0.150537 0.005770 0.630779
O O16 0.629706 0.250000 0.418484
O O17 0.504684 0.086142 0.390551
O O18 0.609772 0.750000 0.654231
O O19 0.579154 0.014071 0.693833
O O20 0.979709 0.750000 0.853567
O O21 0.958777 0.495740 0.803896
O O22 0.026582 0.750000 0.253456
#
# Coordination Sequence:
#
# PCOD9447668 Si02
#       8
#     8   8   8   8   8   8   8   8
#     4   9  18  32  51  78 110 139 165 197 243 296
#     4  10  20  33  50  72  96 123 156 194 239 292
#     4   9  18  33  53  77 103 133 171 210 246 287
#     4   9  18  33  50  68  95 129 161 197 242 291
#     4  10  19  30  48  74  99 123 154 193 239 292
#     4   9  19  36  53  68  92 127 162 196 239 290
#     4  10  20  34  52  74 103 137 169 204 247 293
#     4  10  21  35  52  73  95 125 168 209 243 285
#
# _framework density 18.508376999999999
#
# number of rings (size 3 to 8) (size 9 to 14) (size 15 to 20)
#    0.000    2.500    0.000    1.875    0.000    5.000 
#    0.000    0.625    0.000    3.750    0.000    0.000 
#    0.000    0.000    0.000    0.000    0.000    0.000 
#
# Total GULP energy -356903.524900 kJ/mol
# GULP energy per Si atom -5576.617577 kJ/mol
# Density = 1.846625 g / cm^3
# Si number density = 18.508377 Si / 1000 Ang^3
#
#
#
# Elastic Constant Matrix: (Units=GPa)
#
#
# Indices 1 2 3 4 5 6 
#
# 1 23.6304 4.9415 10.7100 0.0000 0.0000 0.0000
# 2 4.9415 16.6930 24.7290 0.0000 0.0000 0.0000
# 3 10.7100 24.7290 83.6900 0.0000 0.0000 0.0000
# 4 0.0000 0.0000 0.0000 28.4197 0.0000 0.0000
# 5 0.0000 0.0000 0.0000 0.0000 13.0362 0.0000
# 6 0.0000 0.0000 0.0000 0.0000 0.0000 12.1802
#
#
#
# Elastic Compliance Matrix: (Units=1/GPa)
#
#
# Indices 1 2 3 4 5 6 
#
# 1 0.045613 -0.008635 -0.003286 0.000000 0.000000 0.000000
# 2 -0.008635 0.108177 -0.030859 0.000000 0.000000 0.000000
# 3 -0.003286 -0.030859 0.021488 0.000000 0.000000 0.000000
# 4 0.000000 0.000000 0.000000 0.035187 0.000000 0.000000
# 5 0.000000 0.000000 0.000000 0.000000 0.076709 0.000000
# 6 0.000000 0.000000 0.000000 0.000000 0.000000 0.082100
#
#
# Mechanical properties :
#
#
# Convention : Reuss Voigt Hill
#
# Bulk Modulus (GPa) = 11.14611 22.75273 16.94942
# Shear Modulus (GPa) = 10.31480 16.30275 13.30878
#
# Velocity S-wave (km/s) = 2.36329 2.97110 2.68445
# Velocity P-wave (km/s) = 3.67180 4.90814 4.33428
#
# Compressibility (1/GPa) = 0.08971744
#
# Stress axis : x y z
#
# Youngs Moduli (GPa) = 21.92346 9.24415 46.53813
#
# Poissons Ratio (x) = 0.07982 0.15291
# Poissons Ratio (y) = 0.18931 1.43614
# Poissons Ratio (z) = 0.07204 0.28527
#
# Static dielectric constant tensor:
#      x y z
#    x 1.679820 0.000000 0.000000 
#    y 0.000000 1.620430 0.000000 
#    z 0.000000 0.000000 1.609550 
# 
# From -- ./inp_files/29433.got.cif
#   From: 2010.05.17/outbox.cif.g08.bks.cpg/sg59_15_cif.got.tgz:29433.got - 2010.06.03 14:40:33.
