data_PCOD9447886
_publ_section_title
;
Structure prediction by ZEFSAII (Michael W. Deem and Ramdas Pophale) SiO2 
 PCOD9447886
Probable space group: P M M N
;
_chemical_formula_sum "Si O2"
_cell_formula_units_Z 56
_cell_length_a 16.032295
_cell_length_b 20.524243
_cell_length_c 7.883463
_cell_angle_alpha 90.000000
_cell_angle_beta 90.000000
_cell_angle_gamma 90.000000
_cell_volume 2594.059164
_symmetry_space_group_name_H-M "P M M N"
_symmetry_group_IT_number 59
_space_group.IT_coordinate_system_code '2'
_symmetry_cell_setting 'orthorhombic'
loop_
_space_group_symop_operation_xyz
x,y,z
1/2-x,1/2-y,z
1/2+x,-y,-z
-x,1/2+y,-z
-x,-y,-z
1/2+x,1/2+y,-z
1/2-x,y,z
x,1/2-y,z
loop_
_atom_site_type_symbol
_atom_site_label
_atom_site_fract_x
_atom_site_fract_y
_atom_site_fract_z
Si Si1 0.979332 0.110665 0.866460
Si Si2 0.841987 0.622366 0.563171
Si Si3 0.660998 0.326711 0.090517
Si Si4 0.376040 0.922881 0.639510
Si Si5 0.156747 0.984515 0.278010
Si Si6 0.994793 0.322355 0.504844
Si Si7 0.153832 0.442660 0.812417
O O1 0.921119 0.048783 0.815140
O O2 0.985521 0.158603 0.702921
O O3 0.074181 0.088844 0.907770
O O4 0.922511 0.146499 0.004018
O O5 0.750000 0.647553 0.597014
O O6 0.856556 0.560834 0.686665
O O7 0.910868 0.677093 0.558530
O O8 0.844338 0.591544 0.372832
O O9 0.750000 0.340127 0.997728
O O10 0.654207 0.250000 0.108104
O O11 0.666825 0.362642 0.269373
O O12 0.341172 0.950298 0.463466
O O13 0.461371 0.887855 0.586970
O O14 0.370773 0.982606 0.770484
O O15 0.250000 0.975609 0.202769
O O16 0.958127 0.250000 0.475379
O O17 0.250000 0.438718 0.877860
#
# Coordination Sequence:
#
# PCOD9447886 Si02
#       7
#     8   8   8   8   8   8   8
#     4  10  20  33  52  77 103 131 165 209 259 300
#     4   8  15  28  48  75 103 129 161 207 257 296
#     4  11  23  37  51  70 101 138 170 203 249 305
#     4  10  19  33  52  73  99 133 169 207 249 297
#     4   9  16  30  53  78 102 128 163 207 252 299
#     4  10  19  31  49  73 100 134 173 205 240 296
#     4   9  17  32  54  78 103 129 165 215 261 300
#
# _framework density 21.587789000000001
#
# number of rings (size 3 to 8) (size 9 to 14) (size 15 to 20)
#    0.000    2.429    0.000    4.286    0.000    4.286 
#    0.000    0.000    0.000   10.714    0.000    0.000 
#    0.000    0.000    0.000    0.000    0.000    0.000 
#
# Total GULP energy -311940.854187 kJ/mol
# GULP energy per Si atom -5570.372396 kJ/mol
# Density = 2.153865 g / cm^3
# Si number density = 21.587789 Si / 1000 Ang^3
#
#
#
# Elastic Constant Matrix: (Units=GPa)
#
#
# Indices 1 2 3 4 5 6 
#
# 1 136.2594 45.3836 25.3102 0.0000 0.0000 0.0000
# 2 45.3836 71.9997 14.2010 0.0000 0.0000 0.0000
# 3 25.3102 14.2010 35.4444 0.0000 0.0000 0.0000
# 4 0.0000 0.0000 0.0000 15.2885 0.0000 0.0000
# 5 0.0000 0.0000 0.0000 0.0000 15.7859 0.0000
# 6 0.0000 0.0000 0.0000 0.0000 0.0000 33.6161
#
#
#
# Elastic Compliance Matrix: (Units=1/GPa)
#
#
# Indices 1 2 3 4 5 6 
#
# 1 0.010055 -0.005344 -0.005039 0.000000 0.000000 0.000000
# 2 -0.005344 0.017921 -0.003364 0.000000 0.000000 0.000000
# 3 -0.005039 -0.003364 0.033159 0.000000 0.000000 0.000000
# 4 0.000000 0.000000 0.000000 0.065409 0.000000 0.000000
# 5 0.000000 0.000000 0.000000 0.000000 0.063348 0.000000
# 6 0.000000 0.000000 0.000000 0.000000 0.000000 0.029748
#
#
# Mechanical properties :
#
#
# Convention : Reuss Voigt Hill
#
# Bulk Modulus (GPa) = 29.72554 45.94367 37.83461
# Shear Modulus (GPa) = 19.35382 23.52532 21.43957
#
# Velocity S-wave (km/s) = 2.99744 3.30472 3.15482
# Velocity P-wave (km/s) = 5.07730 5.99083 5.55288
#
# Compressibility (1/GPa) = 0.03364110
#
# Stress axis : x y z
#
# Youngs Moduli (GPa) = 99.45466 55.80052 30.15751
#
# Poissons Ratio (x) = 0.29820 0.15196
# Poissons Ratio (y) = 0.53149 0.10145
# Poissons Ratio (z) = 0.50114 0.18772
#
# Static dielectric constant tensor:
#      x y z
#    x 1.897830 0.000000 0.000000 
#    y 0.000000 1.735650 0.000000 
#    z 0.000000 0.000000 1.817250 
# 
# From -- ./inp_files/10593.got.cif
#   From: 2010.05.17/outbox.cif.g08.bks.cpg/sg59_6_cif.got.tgz:10593.got - 2010.06.03 14:40:33.
