data_PCOD9447648
_publ_section_title
;
Structure prediction by ZEFSAII (Michael W. Deem and Ramdas Pophale) SiO2 
 PCOD9447648
Probable space group: P M M N
;
_chemical_formula_sum "Si O2"
_cell_formula_units_Z 48
_cell_length_a 9.403724
_cell_length_b 33.374629
_cell_length_c 9.302136
_cell_angle_alpha 90.000000
_cell_angle_beta 90.000000
_cell_angle_gamma 90.000000
_cell_volume 2919.436312
_symmetry_space_group_name_H-M "P M M N"
_symmetry_group_IT_number 59
_space_group.IT_coordinate_system_code '2'
_symmetry_cell_setting 'orthorhombic'
loop_
_space_group_symop_operation_xyz
x,y,z
1/2-x,1/2-y,z
1/2+x,-y,-z
-x,1/2+y,-z
-x,-y,-z
1/2+x,1/2+y,-z
1/2-x,y,z
x,1/2-y,z
loop_
_atom_site_type_symbol
_atom_site_label
_atom_site_fract_x
_atom_site_fract_y
_atom_site_fract_z
Si Si1 0.912557 0.833281 0.654722
Si Si2 0.920524 0.126257 0.920057
Si Si3 0.920401 0.538438 0.559791
Si Si4 0.079185 0.380781 0.619480
Si Si5 0.086382 0.416087 0.161971
Si Si6 0.920038 0.205458 0.099132
O O1 0.750000 0.818652 0.650654
O O2 0.958116 0.845754 0.494689
O O3 0.911640 0.875323 0.742803
O O4 0.009961 0.804218 0.747261
O O5 0.750000 0.122994 0.911869
O O6 0.958014 0.169586 0.990238
O O7 0.993478 0.122579 0.765921
O O8 0.985266 0.093086 0.028387
O O9 0.750000 0.532643 0.558297
O O10 0.950795 0.576996 0.459635
O O11 0.959535 0.550076 0.724114
O O12 0.000000 0.500000 0.500000
O O13 0.250000 0.378841 0.643350
O O14 0.250000 0.423413 0.116082
O O15 0.750000 0.204308 0.114204
O O16 0.962022 0.250000 0.050215
#
# Coordination Sequence:
#
# PCOD9447648 Si02
#       6
#     8   8   8   8   8   8
#     4   8  15  29  49  69  88 116 156 193 223 268
#     4  10  19  30  48  73  96 124 163 197 227 275
#     4   9  18  32  51  73  95 122 156 195 240 285
#     4   9  18  33  50  69  96 126 153 188 237 282
#     4   8  15  30  49  67  91 124 156 188 233 280
#     4   9  18  32  48  68  96 125 152 189 237 280
#
# _framework density 16.441531000000001
#
# number of rings (size 3 to 8) (size 9 to 14) (size 15 to 20)
#    0.000    3.167    0.000    2.500    0.000    3.000 
#    0.000    5.000    0.000    3.000    0.000    0.000 
#    0.000    0.000    0.000    0.000    0.000    0.000 
#
# Total GULP energy -267246.210777 kJ/mol
# GULP energy per Si atom -5567.629391 kJ/mol
# Density = 1.640411 g / cm^3
# Si number density = 16.441531 Si / 1000 Ang^3
#
#
#
# Elastic Constant Matrix: (Units=GPa)
#
#
# Indices 1 2 3 4 5 6 
#
# 1 37.5010 24.9987 54.4117 0.0000 0.0000 0.0000
# 2 24.9987 49.3591 24.9242 0.0000 0.0000 0.0000
# 3 54.4117 24.9242 126.5566 0.0000 0.0000 0.0000
# 4 0.0000 0.0000 0.0000 12.1420 0.0000 0.0000
# 5 0.0000 0.0000 0.0000 0.0000 28.0061 0.0000
# 6 0.0000 0.0000 0.0000 0.0000 0.0000 22.9722
#
#
#
# Elastic Compliance Matrix: (Units=1/GPa)
#
#
# Indices 1 2 3 4 5 6 
#
# 1 0.105065 -0.033759 -0.038523 0.000000 0.000000 0.000000
# 2 -0.033759 0.033344 0.007948 0.000000 0.000000 0.000000
# 3 -0.038523 0.007948 0.022899 0.000000 0.000000 0.000000
# 4 0.000000 0.000000 0.000000 0.082359 0.000000 0.000000
# 5 0.000000 0.000000 0.000000 0.000000 0.035707 0.000000
# 6 0.000000 0.000000 0.000000 0.000000 0.000000 0.043531
#
#
# Mechanical properties :
#
#
# Convention : Reuss Voigt Hill
#
# Bulk Modulus (GPa) = 30.63836 46.89844 38.76840
# Shear Modulus (GPa) = 10.81188 19.89619 15.35403
#
# Velocity S-wave (km/s) = 2.56714 3.48245 3.05922
# Velocity P-wave (km/s) = 5.24044 6.69001 6.00909
#
# Compressibility (1/GPa) = 0.03263882
#
# Stress axis : x y z
#
# Youngs Moduli (GPa) = 9.51791 29.98996 43.67005
#
# Poissons Ratio (x) = 1.01244 1.68230
# Poissons Ratio (y) = 0.32132 -0.34707
# Poissons Ratio (z) = 0.36666 -0.23835
#
# Static dielectric constant tensor:
#      x y z
#    x 1.544430 0.000000 0.000000 
#    y 0.000000 1.561750 0.000000 
#    z 0.000000 0.000000 1.545810 
# 
# From -- ./inp_files/6273.got.cif
#   From: 2010.05.17/outbox.cif.g08.bks.cpg/sg59_4_cif.got.tgz:6273.got - 2010.06.03 14:40:33.
