data_PCOD9447779
_publ_section_title
;
Structure prediction by ZEFSAII (Michael W. Deem and Ramdas Pophale) SiO2 
 PCOD9447779
Probable space group: P M M N
;
_chemical_formula_sum "Si O2"
_cell_formula_units_Z 64
_cell_length_a 7.954562
_cell_length_b 18.277332
_cell_length_c 23.794776
_cell_angle_alpha 90.000000
_cell_angle_beta 90.000000
_cell_angle_gamma 90.000000
_cell_volume 3459.478952
_symmetry_space_group_name_H-M "P M M N"
_symmetry_group_IT_number 59
_space_group.IT_coordinate_system_code '2'
_symmetry_cell_setting 'orthorhombic'
loop_
_space_group_symop_operation_xyz
x,y,z
1/2-x,1/2-y,z
1/2+x,-y,-z
-x,1/2+y,-z
-x,-y,-z
1/2+x,1/2+y,-z
1/2-x,y,z
x,1/2-y,z
loop_
_atom_site_type_symbol
_atom_site_label
_atom_site_fract_x
_atom_site_fract_y
_atom_site_fract_z
Si Si1 0.450860 0.573808 0.466581
Si Si2 0.055295 0.980443 0.756335
Si Si3 0.052462 0.169633 0.191893
Si Si4 0.951007 0.389379 0.075912
Si Si5 0.551142 0.522442 0.629792
Si Si6 0.544688 0.543159 0.128453
Si Si7 0.050462 0.332409 0.433098
Si Si8 0.547094 0.832656 0.046399
O O1 0.500000 0.500000 0.500000
O O2 0.250000 0.584385 0.467078
O O3 0.510560 0.549203 0.404506
O O4 0.526199 0.640030 0.502663
O O5 0.250000 0.999207 0.749086
O O6 0.040157 0.897381 0.778816
O O7 0.972907 0.985186 0.695799
O O8 0.985089 0.028889 0.807965
O O9 0.250000 0.163623 0.205369
O O10 0.992319 0.250000 0.208873
O O11 0.029744 0.159959 0.124974
O O12 0.750000 0.384131 0.081276
O O13 0.001981 0.472326 0.091258
O O14 0.001766 0.366122 0.013931
O O15 0.750000 0.525379 0.617686
O O16 0.481659 0.600178 0.605426
O O17 0.750000 0.543903 0.130571
O O18 0.486328 0.615170 0.096483
O O19 0.250000 0.328316 0.422054
O O20 0.981868 0.250000 0.424342
O O21 0.750000 0.830946 0.049580
O O22 0.483420 0.750000 0.050265
#
# Coordination Sequence:
#
# PCOD9447779 Si02
#       8
#     8   8   8   8   8   8   8   8
#     4   9  17  30  49  72  98 129 164 199 235 277
#     4  10  20  33  50  70  92 122 162 204 238 273
#     4  10  20  33  48  66  92 126 159 191 232 285
#     4  10  19  31  48  69  95 122 149 188 234 283
#     4   9  18  32  49  71  99 131 165 198 236 284
#     4   8  17  33  48  66  92 121 154 192 235 278
#     4   9  18  32  50  74 105 135 160 193 239 287
#     4  10  19  31  49  70  91 117 150 189 235 288
#
# _framework density 18.499894999999999
#
# number of rings (size 3 to 8) (size 9 to 14) (size 15 to 20)
#    0.000    2.625    0.000    3.750    0.000    6.000 
#    0.000    4.375    0.000    0.750    0.000    1.750 
#    0.000    0.000    0.000    0.000    0.000    0.000 
#
# Total GULP energy -356628.703035 kJ/mol
# GULP energy per Si atom -5572.323485 kJ/mol
# Density = 1.845779 g / cm^3
# Si number density = 18.499895 Si / 1000 Ang^3
#
#
#
# Elastic Constant Matrix: (Units=GPa)
#
#
# Indices 1 2 3 4 5 6 
#
# 1 14.6825 -0.4783 -14.0285 0.0000 0.0000 0.0000
# 2 -0.4783 64.9077 40.6543 0.0000 0.0000 0.0000
# 3 -14.0285 40.6543 99.0679 0.0000 0.0000 0.0000
# 4 0.0000 0.0000 0.0000 5.9774 0.0000 0.0000
# 5 0.0000 0.0000 0.0000 0.0000 23.1434 0.0000
# 6 0.0000 0.0000 0.0000 0.0000 0.0000 13.6928
#
#
#
# Elastic Compliance Matrix: (Units=1/GPa)
#
#
# Indices 1 2 3 4 5 6 
#
# 1 0.082521 -0.009033 0.015392 0.000000 0.000000 0.000000
# 2 -0.009033 0.021725 -0.010194 0.000000 0.000000 0.000000
# 3 0.015392 -0.010194 0.016457 0.000000 0.000000 0.000000
# 4 0.000000 0.000000 0.000000 0.167298 0.000000 0.000000
# 5 0.000000 0.000000 0.000000 0.000000 0.043209 0.000000
# 6 0.000000 0.000000 0.000000 0.000000 0.000000 0.073031
#
#
# Mechanical properties :
#
#
# Convention : Reuss Voigt Hill
#
# Bulk Modulus (GPa) = 8.84698 25.66147 17.25423
# Shear Modulus (GPa) = 11.12130 18.73009 14.92569
#
# Velocity S-wave (km/s) = 2.45451 3.18534 2.84350
# Velocity P-wave (km/s) = 3.58125 5.23735 4.48638
#
# Compressibility (1/GPa) = 0.11303289
#
# Stress axis : x y z
#
# Youngs Moduli (GPa) = 12.11819 46.02977 60.76410
#
# Poissons Ratio (x) = 0.41577 -0.93528
# Poissons Ratio (y) = 0.10946 0.61945
# Poissons Ratio (z) = -0.18652 0.46924
#
# Static dielectric constant tensor:
#      x y z
#    x 1.678850 0.000000 0.000000 
#    y 0.000000 1.652700 0.000000 
#    z 0.000000 0.000000 1.636700 
# 
# From -- ./inp_files/31705.got.cif
#   From: 2010.05.17/outbox.cif.g08.bks.cpg/sg59_16_cif.got.tgz:31705.got - 2010.06.03 14:40:33.
