data_PCOD9447428
_publ_section_title
;
Structure prediction by ZEFSAII (Michael W. Deem and Ramdas Pophale) SiO2 
 PCOD9447428
Probable space group: P M M N
;
_chemical_formula_sum "Si O2"
_cell_formula_units_Z 64
_cell_length_a 8.902131
_cell_length_b 14.377255
_cell_length_c 31.957610
_cell_angle_alpha 90.000000
_cell_angle_beta 90.000000
_cell_angle_gamma 90.000000
_cell_volume 4090.197218
_symmetry_space_group_name_H-M "P M M N"
_symmetry_group_IT_number 59
_space_group.IT_coordinate_system_code '2'
_symmetry_cell_setting 'orthorhombic'
loop_
_space_group_symop_operation_xyz
x,y,z
1/2-x,1/2-y,z
1/2+x,-y,-z
-x,1/2+y,-z
-x,-y,-z
1/2+x,1/2+y,-z
1/2-x,y,z
x,1/2-y,z
loop_
_atom_site_type_symbol
_atom_site_label
_atom_site_fract_x
_atom_site_fract_y
_atom_site_fract_z
Si Si1 0.070184 0.042889 0.063556
Si Si2 0.569573 0.944323 0.599179
Si Si3 0.426205 0.637946 0.682039
Si Si4 0.929789 0.359552 0.143159
Si Si5 0.431040 0.652024 0.423935
Si Si6 0.570853 0.403670 0.484608
Si Si7 0.922916 0.862903 0.768869
Si Si8 0.430826 0.857091 0.016549
O O1 0.250000 0.860020 0.010562
O O2 0.998146 0.078841 0.106280
O O3 0.008478 0.107355 0.025928
O O4 0.032260 0.935983 0.051075
O O5 0.750000 0.942164 0.596700
O O6 0.512511 0.905750 0.643002
O O7 0.503377 0.885254 0.560205
O O8 0.516697 0.052120 0.593231
O O9 0.250000 0.615567 0.679905
O O10 0.441151 0.750000 0.679786
O O11 0.494543 0.606871 0.726494
O O12 0.750000 0.365735 0.143165
O O13 0.969678 0.250000 0.136464
O O14 0.993864 0.388820 0.188321
O O15 0.250000 0.650334 0.418789
O O16 0.487823 0.750000 0.405477
O O17 0.458728 0.655175 0.473826
O O18 0.500000 0.500000 0.500000
O O19 0.750000 0.409323 0.479105
O O20 0.750000 0.893571 0.769269
O O21 0.923767 0.750000 0.768083
O O22 0.750000 0.949249 0.934311
O O23 0.471814 0.750000 0.026182
#
# Coordination Sequence:
#
# PCOD9447428 Si02
#       8
#     8   8   8   8   8   8   8   8
#     4  10  19  29  44  67  91 118 157 198 231 268
#     4  10  19  30  46  67  90 117 149 186 223 261
#     4  10  20  33  48  66  91 122 150 177 217 271
#     4  10  19  30  45  66  94 125 152 180 220 270
#     4   8  15  28  45  64  86 114 148 183 219 259
#     4   9  16  27  43  61  84 114 146 181 219 259
#     4   9  17  30  48  69  92 116 145 183 222 262
#     4   9  18  32  46  61  88 125 159 193 235 277
#
# _framework density 15.647168000000001
#
# number of rings (size 3 to 8) (size 9 to 14) (size 15 to 20)
#    0.000    2.625    0.000    3.375    0.000    5.750 
#    0.000    1.250    0.000   13.125    0.000    0.875 
#    0.000    7.000    0.000    0.000    0.000    0.000 
#
# Total GULP energy -356399.520443 kJ/mol
# GULP energy per Si atom -5568.742507 kJ/mol
# Density = 1.561155 g / cm^3
# Si number density = 15.647168 Si / 1000 Ang^3
#
#
#
# Elastic Constant Matrix: (Units=GPa)
#
#
# Indices 1 2 3 4 5 6 
#
# 1 60.9865 33.0061 52.5600 0.0000 0.0000 0.0000
# 2 33.0061 65.6672 34.0561 0.0000 0.0000 0.0000
# 3 52.5600 34.0561 128.1251 0.0000 0.0000 0.0000
# 4 0.0000 0.0000 0.0000 32.8298 0.0000 0.0000
# 5 0.0000 0.0000 0.0000 0.0000 31.7664 0.0000
# 6 0.0000 0.0000 0.0000 0.0000 0.0000 14.6075
#
#
#
# Elastic Compliance Matrix: (Units=1/GPa)
#
#
# Indices 1 2 3 4 5 6 
#
# 1 0.030280 -0.010181 -0.009716 0.000000 0.000000 0.000000
# 2 -0.010181 0.021086 -0.001428 0.000000 0.000000 0.000000
# 3 -0.009716 -0.001428 0.012170 0.000000 0.000000 0.000000
# 4 0.000000 0.000000 0.000000 0.030460 0.000000 0.000000
# 5 0.000000 0.000000 0.000000 0.000000 0.031480 0.000000
# 6 0.000000 0.000000 0.000000 0.000000 0.000000 0.068458
#
#
# Mechanical properties :
#
#
# Convention : Reuss Voigt Hill
#
# Bulk Modulus (GPa) = 47.87697 54.89148 51.38423
# Shear Modulus (GPa) = 20.52996 24.85119 22.69057
#
# Velocity S-wave (km/s) = 3.62616 3.98957 3.81220
# Velocity P-wave (km/s) = 6.94236 7.50861 7.23103
#
# Compressibility (1/GPa) = 0.02088687
#
# Stress axis : x y z
#
# Youngs Moduli (GPa) = 33.02483 47.42407 82.16877
#
# Poissons Ratio (x) = 0.48283 0.79831
# Poissons Ratio (y) = 0.33623 0.11736
# Poissons Ratio (z) = 0.32085 0.06774
#
# Static dielectric constant tensor:
#      x y z
#    x 1.523780 0.000000 0.000000 
#    y 0.000000 1.544120 0.000000 
#    z 0.000000 0.000000 1.508050 
# 
# From -- ./inp_files/33234.got.cif
#   From: 2010.05.17/outbox.cif.g08.bks.cpg/sg59_17_cif.got.tgz:33234.got - 2010.06.03 14:40:33.
