data_PCOD9447182
_publ_section_title
;
Structure prediction by ZEFSAII (Michael W. Deem and Ramdas Pophale) SiO2 
 PCOD9447182
Probable space group: P M M N
;
_chemical_formula_sum "Si O2"
_cell_formula_units_Z 56
_cell_length_a 8.491167
_cell_length_b 21.618145
_cell_length_c 16.431241
_cell_angle_alpha 90.000000
_cell_angle_beta 90.000000
_cell_angle_gamma 90.000000
_cell_volume 3016.172483
_symmetry_space_group_name_H-M "P M M N"
_symmetry_group_IT_number 59
_space_group.IT_coordinate_system_code '2'
_symmetry_cell_setting 'orthorhombic'
loop_
_space_group_symop_operation_xyz
x,y,z
1/2-x,1/2-y,z
1/2+x,-y,-z
-x,1/2+y,-z
-x,-y,-z
1/2+x,1/2+y,-z
1/2-x,y,z
x,1/2-y,z
loop_
_atom_site_type_symbol
_atom_site_label
_atom_site_fract_x
_atom_site_fract_y
_atom_site_fract_z
Si Si1 0.062966 0.382813 0.186973
Si Si2 0.436403 0.750000 0.601154
Si Si3 0.940500 0.956339 0.651560
Si Si4 0.560364 0.871709 0.512944
Si Si5 0.059889 0.321583 0.658865
Si Si6 0.564721 0.496905 0.090914
Si Si7 0.935457 0.250000 0.204463
Si Si8 0.061659 0.928767 0.242100
O O1 0.250000 0.390965 0.177359
O O2 0.023398 0.405101 0.279038
O O3 0.975576 0.429808 0.127713
O O4 0.013849 0.312667 0.173402
O O5 0.250000 0.750000 0.582588
O O6 0.515895 0.810554 0.563380
O O7 0.455860 0.750000 0.697914
O O8 0.750000 0.960578 0.646405
O O9 0.999464 0.930653 0.564925
O O10 0.997423 0.020839 0.690249
O O11 0.750000 0.876545 0.509139
O O12 0.501886 0.857820 0.422033
O O13 0.250000 0.320742 0.656651
O O14 0.006932 0.250000 0.658035
O O15 0.004395 0.362006 0.734840
O O16 0.750000 0.507239 0.090498
O O17 0.488234 0.545169 0.154459
O O18 0.500000 0.500000 0.000000
O O19 0.750000 0.250000 0.186661
O O20 0.250000 0.927867 0.245893
#
# Coordination Sequence:
#
# PCOD9447182 Si02
#       8
#     8   4   8   8   8   8   4   8
#     4  10  19  33  55  83 115 153 192 228 277 335
#     4  11  21  29  43  75 112 145 194 243 279 319
#     4   8  16  30  51  77 107 143 189 233 276 334
#     4  10  18  33  53  73 103 153 202 238 282 334
#     4  10  21  36  55  79 108 149 202 246 286 337
#     4  11  22  40  66  92 117 143 179 225 278 341
#     4  11  21  31  47  79 120 157 192 235 283 335
#     4  10  21  38  58  85 115 146 186 232 288 344
#
# _framework density 18.566578
#
# number of rings (size 3 to 8) (size 9 to 14) (size 15 to 20)
#    0.000    2.000    2.143    3.429    0.000    2.000 
#    0.000    0.714    1.571    0.000    0.000    0.000 
#    0.000    0.000    0.000    0.000    0.000    0.000 
#
# Total GULP energy -312520.648774 kJ/mol
# GULP energy per Si atom -5580.725871 kJ/mol
# Density = 1.852432 g / cm^3
# Si number density = 18.566578 Si / 1000 Ang^3
#
#
#
# Elastic Constant Matrix: (Units=GPa)
#
#
# Indices 1 2 3 4 5 6 
#
# 1 18.5142 12.6643 13.1766 0.0000 0.0000 0.0000
# 2 12.6643 84.2605 58.4547 0.0000 0.0000 0.0000
# 3 13.1766 58.4547 88.3778 0.0000 0.0000 0.0000
# 4 0.0000 0.0000 0.0000 6.7721 0.0000 0.0000
# 5 0.0000 0.0000 0.0000 0.0000 20.8700 0.0000
# 6 0.0000 0.0000 0.0000 0.0000 0.0000 24.0292
#
#
#
# Elastic Compliance Matrix: (Units=1/GPa)
#
#
# Indices 1 2 3 4 5 6 
#
# 1 0.061699 -0.005344 -0.005665 0.000000 0.000000 0.000000
# 2 -0.005344 0.022394 -0.014015 0.000000 0.000000 0.000000
# 3 -0.005665 -0.014015 0.021429 0.000000 0.000000 0.000000
# 4 0.000000 0.000000 0.000000 0.147665 0.000000 0.000000
# 5 0.000000 0.000000 0.000000 0.000000 0.047916 0.000000
# 6 0.000000 0.000000 0.000000 0.000000 0.000000 0.041616
#
#
# Mechanical properties :
#
#
# Convention : Reuss Voigt Hill
#
# Bulk Modulus (GPa) = 18.02578 39.97151 28.99864
# Shear Modulus (GPa) = 12.15782 17.45805 14.80793
#
# Velocity S-wave (km/s) = 2.56173 3.06975 2.82717
# Velocity P-wave (km/s) = 4.29880 5.84294 5.12931
#
# Compressibility (1/GPa) = 0.05547611
#
# Stress axis : x y z
#
# Youngs Moduli (GPa) = 16.20764 44.65508 46.66480
#
# Poissons Ratio (x) = 0.23862 0.26434
# Poissons Ratio (y) = 0.08661 0.65401
# Poissons Ratio (z) = 0.09181 0.62584
#
# Static dielectric constant tensor:
#      x y z
#    x 1.628190 0.000000 0.000000 
#    y 0.000000 1.640490 0.000000 
#    z 0.000000 0.000000 1.640780 
# 
# From -- ./inp_files/21145.got.cif
#   From: 2010.05.17/outbox.cif.g08.bks.cpg/sg59_11_cif.got.tgz:21145.got - 2010.06.03 14:40:33.
