data_PCOD9447357
_publ_section_title
;
Structure prediction by ZEFSAII (Michael W. Deem and Ramdas Pophale) SiO2 
 PCOD9447357
Probable space group: P M M N
;
_chemical_formula_sum "Si O2"
_cell_formula_units_Z 64
_cell_length_a 14.534271
_cell_length_b 7.728602
_cell_length_c 32.829859
_cell_angle_alpha 90.000000
_cell_angle_beta 90.000000
_cell_angle_gamma 90.000000
_cell_volume 3687.764796
_symmetry_space_group_name_H-M "P M M N"
_symmetry_group_IT_number 59
_space_group.IT_coordinate_system_code '2'
_symmetry_cell_setting 'orthorhombic'
loop_
_space_group_symop_operation_xyz
x,y,z
1/2-x,1/2-y,z
1/2+x,-y,-z
-x,1/2+y,-z
-x,-y,-z
1/2+x,1/2+y,-z
1/2-x,y,z
x,1/2-y,z
loop_
_atom_site_type_symbol
_atom_site_label
_atom_site_fract_x
_atom_site_fract_y
_atom_site_fract_z
Si Si1 0.143921 0.041367 0.525142
Si Si2 0.355265 0.456310 0.682674
Si Si3 0.532584 0.962604 0.395214
Si Si4 0.852821 0.046820 0.977089
Si Si5 0.543752 0.954518 0.056982
Si Si6 0.146824 0.544109 0.434514
Si Si7 0.142968 0.959192 0.860494
Si Si8 0.143197 0.958016 0.771293
O O1 0.250000 0.984261 0.528711
O O2 0.142302 0.250000 0.525100
O O3 0.088587 0.982789 0.564582
O O4 0.111151 0.982913 0.480669
O O5 0.250000 0.525935 0.680853
O O6 0.348508 0.250000 0.677412
O O7 0.417595 0.522531 0.645779
O O8 0.395762 0.486751 0.727778
O O9 0.532785 0.750000 0.394747
O O10 0.428210 0.021361 0.402661
O O11 0.750000 0.972310 0.971609
O O12 0.846568 0.250000 0.967003
O O13 0.940539 0.975790 0.951813
O O14 0.885698 0.031964 0.023980
O O15 0.541733 0.750000 0.048502
O O16 0.580830 0.982680 0.102158
O O17 0.250000 0.470196 0.431775
O O18 0.153506 0.750000 0.428773
O O19 0.250000 0.015077 0.865547
O O20 0.144104 0.750000 0.860677
O O21 0.108269 0.016211 0.815607
O O22 0.250000 0.015515 0.770408
O O23 0.142093 0.750000 0.771582
#
# Coordination Sequence:
#
# PCOD9447357 Si02
#       8
#     8   8   8   8   8   8   8   8
#     4   9  16  26  40  56  75 100 127 154 186 225
#     4   9  16  26  41  60  80 101 126 157 193 233
#     4   9  16  26  40  57  77 101 127 154 188 231
#     4   9  18  32  45  57  83 122 151 172 210 258
#     4  10  19  28  42  66  88 108 144 188 215 236
#     4   9  17  28  40  54  74 100 129 160 190 219
#     4   9  17  29  44  61  85 117 143 163 200 254
#     4   8  15  28  43  59  82 110 134 156 190 240
#
# _framework density 17.354686000000001
#
# number of rings (size 3 to 8) (size 9 to 14) (size 15 to 20)
#    0.000    3.000    0.000    2.250    0.000    4.500 
#    0.000    2.500    0.000    3.000    0.000    0.875 
#    0.000    5.000    0.000    0.000    0.000    0.000 
#
# Total GULP energy -356478.664935 kJ/mol
# GULP energy per Si atom -5569.979140 kJ/mol
# Density = 1.731519 g / cm^3
# Si number density = 17.354686 Si / 1000 Ang^3
#
#
#
# Elastic Constant Matrix: (Units=GPa)
#
#
# Indices 1 2 3 4 5 6 
#
# 1 93.2892 3.4662 69.7494 0.0000 0.0000 0.0000
# 2 3.4662 23.9697 -3.6252 0.0000 0.0000 0.0000
# 3 69.7494 -3.6252 141.0541 0.0000 0.0000 0.0000
# 4 0.0000 0.0000 0.0000 20.0705 0.0000 0.0000
# 5 0.0000 0.0000 0.0000 0.0000 24.5658 0.0000
# 6 0.0000 0.0000 0.0000 0.0000 0.0000 7.9870
#
#
#
# Elastic Compliance Matrix: (Units=1/GPa)
#
#
# Indices 1 2 3 4 5 6 
#
# 1 0.017349 -0.003821 -0.008677 0.000000 0.000000 0.000000
# 2 -0.003821 0.042724 0.002988 0.000000 0.000000 0.000000
# 3 -0.008677 0.002988 0.011457 0.000000 0.000000 0.000000
# 4 0.000000 0.000000 0.000000 0.049824 0.000000 0.000000
# 5 0.000000 0.000000 0.000000 0.000000 0.040707 0.000000
# 6 0.000000 0.000000 0.000000 0.000000 0.000000 0.125204
#
#
# Mechanical properties :
#
#
# Convention : Reuss Voigt Hill
#
# Bulk Modulus (GPa) = 19.04458 44.16599 31.60529
# Shear Modulus (GPa) = 15.44216 23.10615 19.27416
#
# Velocity S-wave (km/s) = 2.98618 3.65280 3.33619
# Velocity P-wave (km/s) = 4.78407 6.57989 5.75249
#
# Compressibility (1/GPa) = 0.05250837
#
# Stress axis : x y z
#
# Youngs Moduli (GPa) = 57.64083 23.40620 87.28363
#
# Poissons Ratio (x) = 0.08944 0.75736
# Poissons Ratio (y) = 0.22025 -0.26076
# Poissons Ratio (z) = 0.50015 -0.06993
#
# Static dielectric constant tensor:
#      x y z
#    x 1.614900 0.000000 0.000000 
#    y 0.000000 1.641090 0.000000 
#    z 0.000000 0.000000 1.592490 
# 
# From -- ./inp_files/33352.got.cif
#   From: 2010.05.17/outbox.cif.g08.bks.cpg/sg59_17_cif.got.tgz:33352.got - 2010.06.03 14:40:33.
