data_PCOD9447822
_publ_section_title
;
Structure prediction by ZEFSAII (Michael W. Deem and Ramdas Pophale) SiO2 
 PCOD9447822
Probable space group: P M M N
;
_chemical_formula_sum "Si O2"
_cell_formula_units_Z 64
_cell_length_a 20.382644
_cell_length_b 7.604542
_cell_length_c 20.438069
_cell_angle_alpha 90.000000
_cell_angle_beta 90.000000
_cell_angle_gamma 90.000000
_cell_volume 3167.914437
_symmetry_space_group_name_H-M "P M M N"
_symmetry_group_IT_number 59
_space_group.IT_coordinate_system_code '2'
_symmetry_cell_setting 'orthorhombic'
loop_
_space_group_symop_operation_xyz
x,y,z
1/2-x,1/2-y,z
1/2+x,-y,-z
-x,1/2+y,-z
-x,-y,-z
1/2+x,1/2+y,-z
1/2-x,y,z
x,1/2-y,z
loop_
_atom_site_type_symbol
_atom_site_label
_atom_site_fract_x
_atom_site_fract_y
_atom_site_fract_z
Si Si1 0.415064 0.543574 0.720486
Si Si2 0.823079 0.962236 0.165783
Si Si3 0.942595 0.549410 0.421932
Si Si4 0.585025 0.040079 0.622537
Si Si5 0.324554 0.043152 0.490551
Si Si6 0.921809 0.965088 0.053777
Si Si7 0.553725 0.539242 0.770144
Si Si8 0.429200 0.453379 0.088605
O O1 0.425015 0.750000 0.707014
O O2 0.352608 0.518288 0.765192
O O3 0.413749 0.450061 0.651206
O O4 0.478632 0.477015 0.760545
O O5 0.750000 0.026841 0.156949
O O6 0.822942 0.750000 0.164580
O O7 0.869753 0.021191 0.107414
O O8 0.952468 0.750000 0.445235
O O9 0.885359 0.466546 0.466590
O O10 0.016299 0.472805 0.410915
O O11 0.582825 0.250000 0.617450
O O12 0.647702 0.973437 0.582939
O O13 0.585948 0.997293 0.699730
O O14 0.250000 0.972621 0.498038
O O15 0.320916 0.250000 0.507630
O O16 0.926518 0.750000 0.052736
O O17 0.903375 0.026588 0.980444
O O18 0.992424 0.036412 0.075943
O O19 0.551578 0.750000 0.777697
O O20 0.582413 0.469533 0.838839
O O21 0.407830 0.250000 0.090656
#
# Coordination Sequence:
#
# PCOD9447822 Si02
#       8
#     8   8   8   8   8   8   8   8
#     4  10  19  31  48  72  99 128 164 205 247 290
#     4  10  20  32  45  63  94 135 170 201 241 294
#     4   9  19  35  54  77 105 136 170 207 251 305
#     4  10  20  33  53  79 105 134 169 211 255 301
#     4  10  21  37  56  76 101 134 170 209 256 310
#     4   9  17  28  45  68  93 124 163 204 245 291
#     4   9  17  30  49  72 101 130 158 201 254 303
#     4   9  16  28  47  71  97 123 154 203 257 294
#
# _framework density 20.202565
#
# number of rings (size 3 to 8) (size 9 to 14) (size 15 to 20)
#    0.000    2.500    1.250    1.125    0.000    3.000 
#    0.000    1.250    0.000    0.750    0.000    3.500 
#    0.000    0.000    0.000    0.000    0.000    0.000 
#
# Total GULP energy -356695.934937 kJ/mol
# GULP energy per Si atom -5573.373983 kJ/mol
# Density = 2.015658 g / cm^3
# Si number density = 20.202565 Si / 1000 Ang^3
#
#
#
# Elastic Constant Matrix: (Units=GPa)
#
#
# Indices 1 2 3 4 5 6 
#
# 1 57.7707 -3.8831 31.4519 0.0000 0.0000 0.0000
# 2 -3.8831 43.9572 -2.3629 0.0000 0.0000 0.0000
# 3 31.4519 -2.3629 105.1420 0.0000 0.0000 0.0000
# 4 0.0000 0.0000 0.0000 13.7697 0.0000 0.0000
# 5 0.0000 0.0000 0.0000 0.0000 15.7351 0.0000
# 6 0.0000 0.0000 0.0000 0.0000 0.0000 10.1840
#
#
#
# Elastic Compliance Matrix: (Units=1/GPa)
#
#
# Indices 1 2 3 4 5 6 
#
# 1 0.020776 0.001503 -0.006181 0.000000 0.000000 0.000000
# 2 0.001503 0.022886 0.000065 0.000000 0.000000 0.000000
# 3 -0.006181 0.000065 0.011361 0.000000 0.000000 0.000000
# 4 0.000000 0.000000 0.000000 0.072623 0.000000 0.000000
# 5 0.000000 0.000000 0.000000 0.000000 0.063552 0.000000
# 6 0.000000 0.000000 0.000000 0.000000 0.000000 0.098194
#
#
# Mechanical properties :
#
#
# Convention : Reuss Voigt Hill
#
# Bulk Modulus (GPa) = 21.83581 28.58686 25.21133
# Shear Modulus (GPa) = 15.92944 20.04869 17.98907
#
# Velocity S-wave (km/s) = 2.81105 3.15363 2.98725
# Velocity P-wave (km/s) = 4.62254 5.23845 4.94010
#
# Compressibility (1/GPa) = 0.04579633
#
# Stress axis : x y z
#
# Youngs Moduli (GPa) = 48.13244 43.69554 88.01732
#
# Poissons Ratio (x) = -0.06568 0.54404
# Poissons Ratio (y) = -0.07234 -0.00570
# Poissons Ratio (z) = 0.29751 -0.00283
#
# Static dielectric constant tensor:
#      x y z
#    x 1.701630 0.000000 0.000000 
#    y 0.000000 1.788300 0.000000 
#    z 0.000000 0.000000 1.751880 
# 
# From -- ./inp_files/30742.got.cif
#   From: 2010.05.17/outbox.cif.g08.bks.cpg/sg59_16_cif.got.tgz:30742.got - 2010.06.03 14:40:33.
