data_PCOD9447388
_publ_section_title
;
Structure prediction by ZEFSAII (Michael W. Deem and Ramdas Pophale) SiO2 
 PCOD9447388
Probable space group: P M M N
;
_chemical_formula_sum "Si O2"
_cell_formula_units_Z 48
_cell_length_a 27.707677
_cell_length_b 8.773064
_cell_length_c 11.746587
_cell_angle_alpha 90.000000
_cell_angle_beta 90.000000
_cell_angle_gamma 90.000000
_cell_volume 2855.374741
_symmetry_space_group_name_H-M "P M M N"
_symmetry_group_IT_number 59
_space_group.IT_coordinate_system_code '2'
_symmetry_cell_setting 'orthorhombic'
loop_
_space_group_symop_operation_xyz
x,y,z
1/2-x,1/2-y,z
1/2+x,-y,-z
-x,1/2+y,-z
-x,-y,-z
1/2+x,1/2+y,-z
1/2-x,y,z
x,1/2-y,z
loop_
_atom_site_type_symbol
_atom_site_label
_atom_site_fract_x
_atom_site_fract_y
_atom_site_fract_z
Si Si1 0.450568 0.577426 0.530752
Si Si2 0.055196 0.433841 0.875826
Si Si3 0.625272 0.570983 0.311295
Si Si4 0.305935 0.565764 0.502317
Si Si5 0.119906 0.577812 0.316615
Si Si6 0.047920 0.431754 0.141239
O O1 0.500000 0.500000 0.500000
O O2 0.455323 0.750000 0.577700
O O3 0.421374 0.465779 0.612297
O O4 0.419626 0.588982 0.416284
O O5 0.052468 0.250000 0.866405
O O6 0.104323 0.482104 0.810866
O O7 0.004717 0.499650 0.826761
O O8 0.056471 0.475327 0.009072
O O9 0.635955 0.750000 0.305875
O O10 0.667838 0.490583 0.382288
O O11 0.250000 0.522220 0.500366
O O12 0.309805 0.750000 0.501397
O O13 0.334425 0.512692 0.388040
O O14 0.131627 0.750000 0.277120
O O15 0.092609 0.487967 0.217452
O O16 0.044446 0.250000 0.149076
#
# Coordination Sequence:
#
# PCOD9447388 Si02
#       6
#     8   8   8   8   8   8
#     4  10  19  29  42  64  95 126 155 190 233 280
#     4   9  19  33  46  66  99 133 161 192 231 272
#     4  10  19  31  48  69  94 124 157 193 235 285
#     4   9  19  36  55  73  94 120 152 196 248 293
#     4   9  18  31  46  66  93 123 152 188 237 284
#     4  10  19  30  47  70  96 129 166 197 224 265
#
# _framework density 16.810402
#
# number of rings (size 3 to 8) (size 9 to 14) (size 15 to 20)
#    0.000    2.500    0.000    3.500    0.000    9.667 
#    0.000    0.000    0.000    1.000    0.000    4.667 
#    0.000    0.000    0.000    0.000    0.000    0.000 
#
# Total GULP energy -267219.196131 kJ/mol
# GULP energy per Si atom -5567.066586 kJ/mol
# Density = 1.677214 g / cm^3
# Si number density = 16.810402 Si / 1000 Ang^3
#
#
#
# Elastic Constant Matrix: (Units=GPa)
#
#
# Indices 1 2 3 4 5 6 
#
# 1 126.3075 18.7551 46.7410 0.0000 0.0000 0.0000
# 2 18.7551 15.2019 15.4588 0.0000 0.0000 0.0000
# 3 46.7410 15.4588 73.9194 0.0000 0.0000 0.0000
# 4 0.0000 0.0000 0.0000 23.1479 0.0000 0.0000
# 5 0.0000 0.0000 0.0000 0.0000 24.0383 0.0000
# 6 0.0000 0.0000 0.0000 0.0000 0.0000 18.8996
#
#
#
# Elastic Compliance Matrix: (Units=1/GPa)
#
#
# Indices 1 2 3 4 5 6 
#
# 1 0.011109 -0.008335 -0.005282 0.000000 0.000000 0.000000
# 2 -0.008335 0.089803 -0.013510 0.000000 0.000000 0.000000
# 3 -0.005282 -0.013510 0.019693 0.000000 0.000000 0.000000
# 4 0.000000 0.000000 0.000000 0.043201 0.000000 0.000000
# 5 0.000000 0.000000 0.000000 0.000000 0.041600 0.000000
# 6 0.000000 0.000000 0.000000 0.000000 0.000000 0.052911
#
#
# Mechanical properties :
#
#
# Convention : Reuss Voigt Hill
#
# Bulk Modulus (GPa) = 15.07110 41.92650 28.49880
# Shear Modulus (GPa) = 14.93928 22.18211 18.56070
#
# Velocity S-wave (km/s) = 2.98433 3.63650 3.32643
# Velocity P-wave (km/s) = 4.56725 6.52894 5.63413
#
# Compressibility (1/GPa) = 0.06635217
#
# Stress axis : x y z
#
# Youngs Moduli (GPa) = 90.01446 11.13549 50.77890
#
# Poissons Ratio (x) = 0.09282 0.26819
# Poissons Ratio (y) = 0.75029 0.68602
# Poissons Ratio (z) = 0.47542 0.15044
#
# Static dielectric constant tensor:
#      x y z
#    x 1.534940 0.000000 0.000000 
#    y 0.000000 1.589170 0.000000 
#    z 0.000000 0.000000 1.597560 
# 
# From -- ./inp_files/14495.got.cif
#   From: 2010.05.17/outbox.cif.g08.bks.cpg/sg59_8_cif.got.tgz:14495.got - 2010.06.03 14:40:33.
