data_PCOD9447359
_publ_section_title
;
Structure prediction by ZEFSAII (Michael W. Deem and Ramdas Pophale) SiO2 
 PCOD9447359
Probable space group: P M M N
;
_chemical_formula_sum "Si O2"
_cell_formula_units_Z 64
_cell_length_a 14.148052
_cell_length_b 9.275069
_cell_length_c 32.297360
_cell_angle_alpha 90.000000
_cell_angle_beta 90.000000
_cell_angle_gamma 90.000000
_cell_volume 4238.193888
_symmetry_space_group_name_H-M "P M M N"
_symmetry_group_IT_number 59
_space_group.IT_coordinate_system_code '2'
_symmetry_cell_setting 'orthorhombic'
loop_
_space_group_symop_operation_xyz
x,y,z
1/2-x,1/2-y,z
1/2+x,-y,-z
-x,1/2+y,-z
-x,-y,-z
1/2+x,1/2+y,-z
1/2-x,y,z
x,1/2-y,z
loop_
_atom_site_type_symbol
_atom_site_label
_atom_site_fract_x
_atom_site_fract_y
_atom_site_fract_z
Si Si1 0.362599 0.078864 0.315447
Si Si2 0.046187 0.078113 0.062667
Si Si3 0.141915 0.077264 0.561527
Si Si4 0.638252 0.423644 0.860497
Si Si5 0.039262 0.576711 0.391720
Si Si6 0.636388 0.083093 0.522116
Si Si7 0.135362 0.584590 0.232843
Si Si8 0.141383 0.921509 0.985656
O O1 0.250000 0.049182 0.320279
O O2 0.375736 0.250000 0.316408
O O3 0.417880 0.002911 0.352560
O O4 0.393097 0.014579 0.271075
O O5 0.059540 0.250000 0.064746
O O6 0.937284 0.049411 0.049437
O O7 0.077831 0.003493 0.104962
O O8 0.109534 0.010857 0.025843
O O9 0.250000 0.031850 0.569378
O O10 0.140120 0.250000 0.556827
O O11 0.069477 0.040812 0.597969
O O12 0.109660 0.008564 0.518089
O O13 0.750000 0.458895 0.865622
O O14 0.630334 0.250000 0.864547
O O15 0.607980 0.461578 0.813534
O O16 0.048788 0.750000 0.386414
O O17 0.094014 0.536325 0.434055
O O18 0.750000 0.076515 0.525294
O O19 0.608492 0.250000 0.515626
O O20 0.250000 0.586049 0.232109
O O21 0.104612 0.750000 0.239714
O O22 0.250000 0.953220 0.974408
O O23 0.135285 0.750000 0.995333
#
# Coordination Sequence:
#
# PCOD9447359 Si02
#       8
#     8   8   8   8   8   8   8   8
#     4  10  20  31  44  66  93 115 137 171 213 253
#     4  10  19  28  42  66  89 112 149 192 226 255
#     4   9  18  31  45  62  84 110 143 182 217 245
#     4   9  17  29  45  65  90 120 148 172 207 258
#     4  10  19  30  45  63  85 116 147 172 205 253
#     4   9  17  28  42  61  84 111 143 175 207 247
#     4   8  15  29  47  64  85 116 147 170 201 254
#     4   9  18  32  45  57  83 123 157 184 220 265
#
# _framework density 15.100771999999999
#
# number of rings (size 3 to 8) (size 9 to 14) (size 15 to 20)
#    0.000    2.750    0.000    2.625    0.000    5.250 
#    0.000    2.500    0.000    0.000    0.000    0.875 
#    0.000    1.000    0.000    0.000    0.000    0.000 
#
# Total GULP energy -356653.435778 kJ/mol
# GULP energy per Si atom -5572.709934 kJ/mol
# Density = 1.506640 g / cm^3
# Si number density = 15.100772 Si / 1000 Ang^3
#
#
#
# Elastic Constant Matrix: (Units=GPa)
#
#
# Indices 1 2 3 4 5 6 
#
# 1 79.9344 42.9868 66.8249 0.0000 0.0000 0.0000
# 2 42.9868 44.1140 66.7202 0.0000 0.0000 0.0000
# 3 66.8249 66.7202 146.8615 0.0000 0.0000 0.0000
# 4 0.0000 0.0000 0.0000 29.6940 0.0000 0.0000
# 5 0.0000 0.0000 0.0000 0.0000 24.3271 0.0000
# 6 0.0000 0.0000 0.0000 0.0000 0.0000 17.7648
#
#
#
# Elastic Compliance Matrix: (Units=1/GPa)
#
#
# Indices 1 2 3 4 5 6 
#
# 1 0.026333 -0.024092 -0.001037 0.000000 0.000000 0.000000
# 2 -0.024092 0.094492 -0.031966 0.000000 0.000000 0.000000
# 3 -0.001037 -0.031966 0.021803 0.000000 0.000000 0.000000
# 4 0.000000 0.000000 0.000000 0.033677 0.000000 0.000000
# 5 0.000000 0.000000 0.000000 0.000000 0.041106 0.000000
# 6 0.000000 0.000000 0.000000 0.000000 0.000000 0.056291
#
#
# Mechanical properties :
#
#
# Convention : Reuss Voigt Hill
#
# Bulk Modulus (GPa) = 35.16352 69.33041 52.24696
# Shear Modulus (GPa) = 12.58265 20.64903 16.61584
#
# Velocity S-wave (km/s) = 2.88973 3.70187 3.32072
# Velocity P-wave (km/s) = 5.87116 8.01769 7.02687
#
# Compressibility (1/GPa) = 0.02843856
#
# Stress axis : x y z
#
# Youngs Moduli (GPa) = 37.97477 10.58291 45.86449
#
# Poissons Ratio (x) = 0.25496 0.04756
# Poissons Ratio (y) = 0.91489 1.46610
# Poissons Ratio (z) = 0.03938 0.33829
#
# Static dielectric constant tensor:
#      x y z
#    x 1.511820 0.000000 0.000000 
#    y 0.000000 1.503750 0.000000 
#    z 0.000000 0.000000 1.481520 
# 
# From -- ./inp_files/33330.got.cif
#   From: 2010.05.17/outbox.cif.g08.bks.cpg/sg59_17_cif.got.tgz:33330.got - 2010.06.03 14:40:33.
