data_PCOD9447098
_publ_section_title
;
Structure prediction by ZEFSAII (Michael W. Deem and Ramdas Pophale) SiO2 
 PCOD9447098
Probable space group: P M M N
;
_chemical_formula_sum "Si O2"
_cell_formula_units_Z 40
_cell_length_a 7.533636
_cell_length_b 10.441946
_cell_length_c 25.865276
_cell_angle_alpha 90.000000
_cell_angle_beta 90.000000
_cell_angle_gamma 90.000000
_cell_volume 2034.713154
_symmetry_space_group_name_H-M "P M M N"
_symmetry_group_IT_number 59
_space_group.IT_coordinate_system_code '2'
_symmetry_cell_setting 'orthorhombic'
loop_
_space_group_symop_operation_xyz
x,y,z
1/2-x,1/2-y,z
1/2+x,-y,-z
-x,1/2+y,-z
-x,-y,-z
1/2+x,1/2+y,-z
1/2-x,y,z
x,1/2-y,z
loop_
_atom_site_type_symbol
_atom_site_label
_atom_site_fract_x
_atom_site_fract_y
_atom_site_fract_z
Si Si1 0.036661 0.604021 0.543723
Si Si2 0.455528 0.594288 0.656575
Si Si3 0.533048 0.399954 0.231411
Si Si4 0.531917 0.250000 0.052951
Si Si5 0.961104 0.250000 0.934910
Si Si6 0.539716 0.487125 0.121905
O O1 0.250000 0.612237 0.548651
O O2 0.974228 0.750000 0.532354
O O3 0.966767 0.561847 0.600469
O O4 0.000000 0.500000 0.500000
O O5 0.250000 0.551246 0.656186
O O6 0.455002 0.750000 0.657825
O O7 0.532308 0.554771 0.712164
O O8 0.750000 0.404985 0.233969
O O9 0.487370 0.250000 0.224468
O O10 0.471131 0.473970 0.180477
O O11 0.750000 0.250000 0.051934
O O12 0.471870 0.375242 0.084275
O O13 0.469865 0.250000 0.993754
O O14 0.750000 0.250000 0.938506
O O15 0.013942 0.376473 0.904087
O O16 0.750000 0.463814 0.126097
#
# Coordination Sequence:
#
# PCOD9447098 Si02
#       6
#     8   8   8   4   4   8
#     4   9  17  29  46  69  97 126 156 191 230 276
#     4   7  11  21  40  68  95 115 142 189 243 278
#     4   8  12  22  46  75  94 109 142 198 249 277
#     4   9  18  33  53  75  95 117 156 203 238 272
#     4  11  23  35  45  65 103 139 156 179 228 288
#     4  10  18  32  54  76  93 117 157 201 238 275
#
# _framework density 19.658791000000001
#
# number of rings (size 3 to 8) (size 9 to 14) (size 15 to 20)
#    0.000    3.200    1.000    3.300    0.000    0.400 
#    0.000    1.500    2.200    1.200    0.000    2.800 
#    0.000    0.000    0.000    0.000    0.000    0.000 
#
# Total GULP energy -222824.008329 kJ/mol
# GULP energy per Si atom -5570.600208 kJ/mol
# Density = 1.961405 g / cm^3
# Si number density = 19.658791 Si / 1000 Ang^3
#
#
#
# Elastic Constant Matrix: (Units=GPa)
#
#
# Indices 1 2 3 4 5 6 
#
# 1 45.7001 -5.1232 8.5105 0.0000 0.0000 0.0000
# 2 -5.1232 107.2231 102.5255 0.0000 0.0000 0.0000
# 3 8.5105 102.5255 260.5949 0.0000 0.0000 0.0000
# 4 0.0000 0.0000 0.0000 38.9253 0.0000 0.0000
# 5 0.0000 0.0000 0.0000 0.0000 12.3910 0.0000
# 6 0.0000 0.0000 0.0000 0.0000 0.0000 -163.5482
#
#
#
# Elastic Compliance Matrix: (Units=1/GPa)
#
#
# Indices 1 2 3 4 5 6 
#
# 1 0.022548 0.002856 -0.001860 0.000000 0.000000 0.000000
# 2 0.002856 0.015312 -0.006118 0.000000 0.000000 0.000000
# 3 -0.001860 -0.006118 0.006305 0.000000 0.000000 0.000000
# 4 0.000000 0.000000 0.000000 0.025690 0.000000 0.000000
# 5 0.000000 0.000000 0.000000 0.000000 0.080704 0.000000
# 6 0.000000 0.000000 0.000000 0.000000 0.000000 -0.006114
#
#
# Mechanical properties :
#
#
# Convention : Reuss Voigt Hill
#
# Bulk Modulus (GPa) = 29.47920 69.48264 49.48092
# Shear Modulus (GPa) = 30.12121 -1.93937 14.09092
#
# Velocity S-wave (km/s) = 3.91858 -0.99431 2.68017
# Velocity P-wave (km/s) = 5.95833 5.83976 5.89934
#
# Compressibility (1/GPa) = 0.03392223
#
# Stress axis : x y z
#
# Youngs Moduli (GPa) = 44.34919 65.30669 158.60559
#
# Poissons Ratio (x) = -0.18650 0.29500
# Poissons Ratio (y) = -0.12665 0.97028
# Poissons Ratio (z) = 0.08249 0.39952
#
# Static dielectric constant tensor:
#      x y z
#    x 1.779760 0.000000 0.000000 
#    y 0.000000 1.612610 0.000000 
#    z 0.000000 0.000000 1.751930 
# 
# From -- ./inp_files/32400.got.cif
#   From: 2010.05.17/outbox.cif.g08.bks.cpg/sg59_17_cif.got.tgz:32400.got - 2010.06.03 14:40:33.
