data_PCOD9447543
_publ_section_title
;
Structure prediction by ZEFSAII (Michael W. Deem and Ramdas Pophale) SiO2 
 PCOD9447543
Probable space group: P M M N
;
_chemical_formula_sum "Si O2"
_cell_formula_units_Z 64
_cell_length_a 15.236184
_cell_length_b 7.538512
_cell_length_c 28.955156
_cell_angle_alpha 90.000000
_cell_angle_beta 90.000000
_cell_angle_gamma 90.000000
_cell_volume 3325.735822
_symmetry_space_group_name_H-M "P M M N"
_symmetry_group_IT_number 59
_space_group.IT_coordinate_system_code '2'
_symmetry_cell_setting 'orthorhombic'
loop_
_space_group_symop_operation_xyz
x,y,z
1/2-x,1/2-y,z
1/2+x,-y,-z
-x,1/2+y,-z
-x,-y,-z
1/2+x,1/2+y,-z
1/2-x,y,z
x,1/2-y,z
loop_
_atom_site_type_symbol
_atom_site_label
_atom_site_fract_x
_atom_site_fract_y
_atom_site_fract_z
Si Si1 0.540776 0.537829 0.613428
Si Si2 0.850108 0.464551 0.972921
Si Si3 0.347683 0.458964 0.921007
Si Si4 0.651122 0.963343 0.804680
Si Si5 0.844305 0.963984 0.419111
Si Si6 0.598559 0.538435 0.516671
Si Si7 0.528312 0.038453 0.890175
Si Si8 0.350876 0.033578 0.299854
O O1 0.552026 0.750000 0.613156
O O2 0.436642 0.509318 0.605265
O O3 0.596630 0.469222 0.569093
O O4 0.581461 0.471020 0.661225
O O5 0.750000 0.520673 0.962861
O O6 0.851523 0.250000 0.972940
O O7 0.915112 0.530944 0.933451
O O8 0.871458 0.523703 0.024781
O O9 0.250000 0.536536 0.914727
O O10 0.340758 0.250000 0.910702
O O11 0.429286 0.533123 0.892282
O O12 0.750000 0.026114 0.816725
O O13 0.654547 0.750000 0.803170
O O14 0.630025 0.024645 0.752611
O O15 0.580943 0.011261 0.843178
O O16 0.750000 0.021779 0.398812
O O17 0.843964 0.750000 0.420406
O O18 0.847843 0.028563 0.472564
O O19 0.500000 0.500000 0.500000
O O20 0.614840 0.750000 0.519264
O O21 0.521958 0.250000 0.897098
O O22 0.250000 0.984147 0.310786
O O23 0.353302 0.250000 0.299546
#
# Coordination Sequence:
#
# PCOD9447543 Si02
#       8
#     8   8   8   8   8   8   8   8
#     4   9  16  27  46  68  87 112 149 188 221 258
#     4   9  17  28  42  63  91 119 147 181 219 257
#     4   9  18  31  45  63  89 120 153 185 214 249
#     4   9  18  32  49  69  91 113 139 175 221 271
#     4   9  17  28  41  60  91 126 152 178 216 260
#     4   8  14  24  38  58  83 111 144 178 211 249
#     4  10  19  30  46  67  91 120 150 181 219 258
#     4   8  15  29  48  69  91 112 137 176 225 269
#
# _framework density 19.243862
#
# number of rings (size 3 to 8) (size 9 to 14) (size 15 to 20)
#    0.000    3.125    0.000    1.500    0.000    2.500 
#    0.000    4.375    0.000    1.875    0.000    7.000 
#    0.000    0.000    0.000    0.000    0.000    0.000 
#
# Total GULP energy -356475.980626 kJ/mol
# GULP energy per Si atom -5569.937197 kJ/mol
# Density = 1.920006 g / cm^3
# Si number density = 19.243862 Si / 1000 Ang^3
#
#
#
# Elastic Constant Matrix: (Units=GPa)
#
#
# Indices 1 2 3 4 5 6 
#
# 1 145.3548 2.8002 106.4728 0.0000 0.0000 0.0000
# 2 2.8002 46.1281 -2.4214 0.0000 0.0000 0.0000
# 3 106.4728 -2.4214 113.8138 0.0000 0.0000 0.0000
# 4 0.0000 0.0000 0.0000 8.9862 0.0000 0.0000
# 5 0.0000 0.0000 0.0000 0.0000 31.5105 0.0000
# 6 0.0000 0.0000 0.0000 0.0000 0.0000 6.9355
#
#
#
# Elastic Compliance Matrix: (Units=1/GPa)
#
#
# Indices 1 2 3 4 5 6 
#
# 1 0.022128 -0.002433 -0.020752 0.000000 0.000000 0.000000
# 2 -0.002433 0.021970 0.002743 0.000000 0.000000 0.000000
# 3 -0.020752 0.002743 0.028258 0.000000 0.000000 0.000000
# 4 0.000000 0.000000 0.000000 0.111282 0.000000 0.000000
# 5 0.000000 0.000000 0.000000 0.000000 0.031736 0.000000
# 6 0.000000 0.000000 0.000000 0.000000 0.000000 0.144185
#
#
# Mechanical properties :
#
#
# Convention : Reuss Voigt Hill
#
# Bulk Modulus (GPa) = 31.77319 57.66667 44.71993
# Shear Modulus (GPa) = 12.16744 22.71610 17.44177
#
# Velocity S-wave (km/s) = 2.51724 3.43947 3.01384
# Velocity P-wave (km/s) = 4.99953 6.76791 5.94979
#
# Compressibility (1/GPa) = 0.03147308
#
# Stress axis : x y z
#
# Youngs Moduli (GPa) = 45.19259 45.51572 35.38799
#
# Poissons Ratio (x) = 0.11072 0.73437
# Poissons Ratio (y) = 0.10994 -0.09707
# Poissons Ratio (z) = 0.93784 -0.12486
#
# Static dielectric constant tensor:
#      x y z
#    x 1.705180 0.000000 0.000000 
#    y 0.000000 1.722900 0.000000 
#    z 0.000000 0.000000 1.664980 
# 
# From -- ./inp_files/33317.got.cif
#   From: 2010.05.17/outbox.cif.g08.bks.cpg/sg59_17_cif.got.tgz:33317.got - 2010.06.03 14:40:33.
