data_PCOD9447578
_publ_section_title
;
Structure prediction by ZEFSAII (Michael W. Deem and Ramdas Pophale) SiO2 
 PCOD9447578
Probable space group: P M M N
;
_chemical_formula_sum "Si O2"
_cell_formula_units_Z 56
_cell_length_a 12.606096
_cell_length_b 20.466847
_cell_length_c 11.993680
_cell_angle_alpha 90.000000
_cell_angle_beta 90.000000
_cell_angle_gamma 90.000000
_cell_volume 3094.453853
_symmetry_space_group_name_H-M "P M M N"
_symmetry_group_IT_number 59
_space_group.IT_coordinate_system_code '2'
_symmetry_cell_setting 'orthorhombic'
loop_
_space_group_symop_operation_xyz
x,y,z
1/2-x,1/2-y,z
1/2+x,-y,-z
-x,1/2+y,-z
-x,-y,-z
1/2+x,1/2+y,-z
1/2-x,y,z
x,1/2-y,z
loop_
_atom_site_type_symbol
_atom_site_label
_atom_site_fract_x
_atom_site_fract_y
_atom_site_fract_z
Si Si1 0.630573 0.327856 0.476386
Si Si2 0.626820 0.954039 0.393660
Si Si3 0.469891 0.420912 0.375433
Si Si4 0.867664 0.458560 0.056614
Si Si5 0.421350 0.488608 0.173833
Si Si6 0.122724 0.677252 0.061156
Si Si7 0.552286 0.120900 0.713898
O O1 0.750000 0.348915 0.445100
O O2 0.626702 0.250000 0.476364
O O3 0.541061 0.357636 0.396594
O O4 0.605893 0.353020 0.601618
O O5 0.750000 0.963050 0.368769
O O6 0.609028 0.931435 0.521472
O O7 0.567255 0.899629 0.318688
O O8 0.556159 0.019689 0.382500
O O9 0.410513 0.428514 0.257869
O O10 0.750000 0.454816 0.104546
O O11 0.954733 0.487544 0.138112
O O12 0.866253 0.503004 0.944993
O O13 0.901880 0.385617 0.015987
O O14 0.394576 0.553141 0.244783
O O15 0.250000 0.673393 0.080595
O O16 0.099805 0.750000 0.016246
O O17 0.065938 0.667459 0.180195
#
# Coordination Sequence:
#
# PCOD9447578 Si02
#       7
#     8   8   8   8   8   8   8
#     4  10  19  30  46  71 102 130 154 184 226 282
#     4   9  17  29  45  68  95 120 151 190 228 270
#     4   9  18  30  46  67  93 124 153 186 228 274
#     4   9  18  31  47  69  96 121 151 197 242 280
#     4   9  18  31  45  66  92 120 156 194 236 277
#     4   9  16  28  48  72  97 125 153 183 229 289
#     4   9  17  28  45  68  94 123 154 189 231 275
#
# _framework density 18.096893999999999
#
# number of rings (size 3 to 8) (size 9 to 14) (size 15 to 20)
#    0.000    2.857    0.000    2.143    0.000    5.143 
#    0.000    4.286    0.000   12.429    0.000    0.000 
#    0.000   11.429    0.000    0.000    0.000    0.000 
#
# Total GULP energy -311870.119140 kJ/mol
# GULP energy per Si atom -5569.109270 kJ/mol
# Density = 1.805570 g / cm^3
# Si number density = 18.096894 Si / 1000 Ang^3
#
#
#
# Elastic Constant Matrix: (Units=GPa)
#
#
# Indices 1 2 3 4 5 6 
#
# 1 44.8538 14.2456 -4.8773 0.0000 0.0000 0.0000
# 2 14.2456 64.9056 18.2158 0.0000 0.0000 0.0000
# 3 -4.8773 18.2158 51.9014 0.0000 0.0000 0.0000
# 4 0.0000 0.0000 0.0000 18.3408 0.0000 0.0000
# 5 0.0000 0.0000 0.0000 0.0000 0.0613 0.0000
# 6 0.0000 0.0000 0.0000 0.0000 0.0000 18.8803
#
#
#
# Elastic Compliance Matrix: (Units=1/GPa)
#
#
# Indices 1 2 3 4 5 6 
#
# 1 0.024973 -0.006811 0.004737 0.000000 0.000000 0.000000
# 2 -0.006811 0.018948 -0.007290 0.000000 0.000000 0.000000
# 3 0.004737 -0.007290 0.022271 0.000000 0.000000 0.000000
# 4 0.000000 0.000000 0.000000 0.054523 0.000000 0.000000
# 5 0.000000 0.000000 0.000000 0.000000 16.308740 0.000000
# 6 0.000000 0.000000 0.000000 0.000000 0.000000 0.052965
#
#
# Mechanical properties :
#
#
# Convention : Reuss Voigt Hill
#
# Bulk Modulus (GPa) = 21.06840 24.09210 22.58025
# Shear Modulus (GPa) = 0.30272 16.39495 8.34883
#
# Velocity S-wave (km/s) = 0.40944 3.01317 2.15021
# Velocity P-wave (km/s) = 3.44830 5.04454 4.32077
#
# Compressibility (1/GPa) = 0.04746446
#
# Stress axis : x y z
#
# Youngs Moduli (GPa) = 40.04366 52.77673 44.90131
#
# Poissons Ratio (x) = 0.35944 -0.21270
# Poissons Ratio (y) = 0.27272 0.32733
# Poissons Ratio (z) = -0.18969 0.38475
#
# Static dielectric constant tensor:
#      x y z
#    x 1.617400 0.000000 0.000000 
#    y 0.000000 1.643830 0.000000 
#    z 0.000000 0.000000 1.651360 
# 
# From -- ./inp_files/15996.got.cif
#   From: 2010.05.17/outbox.cif.g08.bks.cpg/sg59_8_cif.got.tgz:15996.got - 2010.06.03 14:40:33.
