data_PCOD9447524
_publ_section_title
;
Structure prediction by ZEFSAII (Michael W. Deem and Ramdas Pophale) SiO2 
 PCOD9447524
Probable space group: P M M N
;
_chemical_formula_sum "Si O2"
_cell_formula_units_Z 56
_cell_length_a 9.002308
_cell_length_b 22.430741
_cell_length_c 17.569284
_cell_angle_alpha 90.000000
_cell_angle_beta 90.000000
_cell_angle_gamma 90.000000
_cell_volume 3547.738095
_symmetry_space_group_name_H-M "P M M N"
_symmetry_group_IT_number 59
_space_group.IT_coordinate_system_code '2'
_symmetry_cell_setting 'orthorhombic'
loop_
_space_group_symop_operation_xyz
x,y,z
1/2-x,1/2-y,z
1/2+x,-y,-z
-x,1/2+y,-z
-x,-y,-z
1/2+x,1/2+y,-z
1/2-x,y,z
x,1/2-y,z
loop_
_atom_site_type_symbol
_atom_site_label
_atom_site_fract_x
_atom_site_fract_y
_atom_site_fract_z
Si Si1 0.913661 0.683198 0.101080
Si Si2 0.431046 0.949665 0.444196
Si Si3 0.078643 0.588486 0.016524
Si Si4 0.071396 0.319124 0.585405
Si Si5 0.419678 0.519558 0.271657
Si Si6 0.577146 0.491787 0.123636
Si Si7 0.080062 0.660393 0.254522
O O1 0.750000 0.661819 0.124668
O O2 0.904289 0.750000 0.074152
O O3 0.978238 0.644042 0.034453
O O4 0.016525 0.682016 0.175125
O O5 0.250000 0.946059 0.451078
O O6 0.496305 0.880898 0.448730
O O7 0.465690 0.975764 0.359716
O O8 0.500000 0.000000 0.500000
O O9 0.250000 0.600807 0.033249
O O10 0.021243 0.539090 0.076600
O O11 0.065837 0.565658 0.930472
O O12 0.250000 0.325322 0.579483
O O13 0.034448 0.250000 0.558320
O O14 0.018887 0.321173 0.673520
O O15 0.250000 0.497492 0.267716
O O16 0.519265 0.486415 0.209456
O O17 0.421044 0.588933 0.248168
O O18 0.750000 0.510231 0.123715
O O19 0.250000 0.678993 0.267953
#
# Coordination Sequence:
#
# PCOD9447524 Si02
#       7
#     8   8   8   8   8   8   8
#     4  11  22  32  43  62  89 124 165 204 243 289
#     4  10  21  36  54  77 106 138 171 211 258 308
#     4  10  20  32  45  65  92 122 159 199 242 285
#     4  10  20  33  50  73 102 137 174 209 247 298
#     4   9  18  31  48  71  98 128 162 199 242 294
#     4  10  19  30  48  70  92 121 157 200 242 283
#     4  10  19  30  45  67  96 130 167 202 239 287
#
# _framework density 15.784705000000001
#
# number of rings (size 3 to 8) (size 9 to 14) (size 15 to 20)
#    0.000    2.000    1.429    3.857    0.000    8.571 
#    0.000    0.000    0.000    0.000    0.000    1.000 
#    0.000    5.714    0.000    0.000    0.000    0.000 
#
# Total GULP energy -311745.233000 kJ/mol
# GULP energy per Si atom -5566.879161 kJ/mol
# Density = 1.574878 g / cm^3
# Si number density = 15.784705 Si / 1000 Ang^3
#
#
#
# Elastic Constant Matrix: (Units=GPa)
#
#
# Indices 1 2 3 4 5 6 
#
# 1 44.4960 12.9604 10.8143 0.0000 0.0000 0.0000
# 2 12.9604 58.8047 21.4022 0.0000 0.0000 0.0000
# 3 10.8143 21.4022 48.3142 0.0000 0.0000 0.0000
# 4 0.0000 0.0000 0.0000 -36.4041 0.0000 0.0000
# 5 0.0000 0.0000 0.0000 0.0000 23.7437 0.0000
# 6 0.0000 0.0000 0.0000 0.0000 0.0000 18.5218
#
#
#
# Elastic Compliance Matrix: (Units=1/GPa)
#
#
# Indices 1 2 3 4 5 6 
#
# 1 0.024557 -0.004068 -0.003695 0.000000 0.000000 0.000000
# 2 -0.004068 0.020948 -0.008369 0.000000 0.000000 0.000000
# 3 -0.003695 -0.008369 0.025232 0.000000 0.000000 0.000000
# 4 0.000000 0.000000 0.000000 -0.027469 0.000000 0.000000
# 5 0.000000 0.000000 0.000000 0.000000 0.042116 0.000000
# 6 0.000000 0.000000 0.000000 0.000000 0.000000 0.053990
#
#
# Mechanical properties :
#
#
# Convention : Reuss Voigt Hill
#
# Bulk Modulus (GPa) = 25.99154 26.88543 26.43848
# Shear Modulus (GPa) = 27.10595 8.26815 17.68705
#
# Velocity S-wave (km/s) = 4.14844 2.29117 3.35105
# Velocity P-wave (km/s) = 6.28077 4.90600 5.63547
#
# Compressibility (1/GPa) = 0.03847406
#
# Stress axis : x y z
#
# Youngs Moduli (GPa) = 40.72213 47.73759 39.63193
#
# Poissons Ratio (x) = 0.19417 0.14643
# Poissons Ratio (y) = 0.16564 0.33168
# Poissons Ratio (z) = 0.15046 0.39952
#
# Static dielectric constant tensor:
#      x y z
#    x 1.554850 0.000000 0.000000 
#    y 0.000000 1.551920 0.000000 
#    z 0.000000 0.000000 1.512190 
# 
# From -- ./inp_files/26372.got.cif
#   From: 2010.05.17/outbox.cif.g08.bks.cpg/sg59_14_cif.got.tgz:26372.got - 2010.06.03 14:40:33.
