data_PCOD9447971
_publ_section_title
;
Structure prediction by ZEFSAII (Michael W. Deem and Ramdas Pophale) SiO2 
 PCOD9447971
Probable space group: P M M N
;
_chemical_formula_sum "Si O2"
_cell_formula_units_Z 56
_cell_length_a 7.976059
_cell_length_b 19.346897
_cell_length_c 18.718484
_cell_angle_alpha 90.000000
_cell_angle_beta 90.000000
_cell_angle_gamma 90.000000
_cell_volume 2888.486552
_symmetry_space_group_name_H-M "P M M N"
_symmetry_group_IT_number 59
_space_group.IT_coordinate_system_code '2'
_symmetry_cell_setting 'orthorhombic'
loop_
_space_group_symop_operation_xyz
x,y,z
1/2-x,1/2-y,z
1/2+x,-y,-z
-x,1/2+y,-z
-x,-y,-z
1/2+x,1/2+y,-z
1/2-x,y,z
x,1/2-y,z
loop_
_atom_site_type_symbol
_atom_site_label
_atom_site_fract_x
_atom_site_fract_y
_atom_site_fract_z
Si Si1 0.449942 0.918117 0.579069
Si Si2 0.546851 0.923271 0.841649
Si Si3 0.450759 0.328198 0.287812
Si Si4 0.548235 0.919283 0.997840
Si Si5 0.547147 0.074873 0.582905
Si Si6 0.549101 0.171958 0.709802
Si Si7 0.450558 0.415641 0.846441
O O1 0.250000 0.912603 0.577928
O O2 0.516056 0.864239 0.636535
O O3 0.512394 0.908528 0.497584
O O4 0.497144 0.996338 0.600393
O O5 0.750000 0.921772 0.841218
O O6 0.484222 0.877137 0.776032
O O7 0.489230 0.895363 0.919618
O O8 0.497698 0.003808 0.835220
O O9 0.250000 0.324688 0.278809
O O10 0.517065 0.250000 0.284928
O O11 0.750000 0.912902 0.997898
O O12 0.487250 0.891957 0.074592
O O13 0.500000 0.000000 0.000000
O O14 0.750000 0.077051 0.582096
O O15 0.484281 0.127569 0.642711
O O16 0.750000 0.175834 0.701336
O O17 0.482497 0.250000 0.711641
O O18 0.515413 0.131117 0.782570
O O19 0.250000 0.411733 0.846638
#
# Coordination Sequence:
#
# PCOD9447971 Si02
#       7
#     8   8   8   8   8   8   8
#     4  10  20  34  55  80 102 126 160 204 251 296
#     4   9  17  32  53  73  96 131 172 206 239 288
#     4  10  21  35  50  71 101 135 169 204 243 290
#     4   8  15  28  47  72  98 125 160 202 245 288
#     4   9  19  36  56  76  99 129 165 203 242 290
#     4  10  21  36  52  70  96 133 172 203 236 287
#     4  10  19  31  50  77 104 127 158 205 257 298
#
# _framework density 19.387315999999998
#
# number of rings (size 3 to 8) (size 9 to 14) (size 15 to 20)
#    0.000    2.571    0.000    1.714    0.000    6.857 
#    0.000    2.143    0.000    2.571    0.000    0.000 
#    0.000    0.000    0.000    0.000    0.000    0.000 
#
# Total GULP energy -312241.431746 kJ/mol
# GULP energy per Si atom -5575.739853 kJ/mol
# Density = 1.934319 g / cm^3
# Si number density = 19.387316 Si / 1000 Ang^3
#
#
#
# Elastic Constant Matrix: (Units=GPa)
#
#
# Indices 1 2 3 4 5 6 
#
# 1 15.9200 0.9462 0.8153 0.0000 0.0000 0.0000
# 2 0.9462 92.6156 71.9190 0.0000 0.0000 0.0000
# 3 0.8153 71.9190 117.4128 0.0000 0.0000 0.0000
# 4 0.0000 0.0000 0.0000 -3.8858 0.0000 0.0000
# 5 0.0000 0.0000 0.0000 0.0000 11.4631 0.0000
# 6 0.0000 0.0000 0.0000 0.0000 0.0000 10.6859
#
#
#
# Elastic Compliance Matrix: (Units=1/GPa)
#
#
# Indices 1 2 3 4 5 6 
#
# 1 0.062853 -0.000578 -0.000082 0.000000 0.000000 0.000000
# 2 -0.000578 0.020597 -0.012612 0.000000 0.000000 0.000000
# 3 -0.000082 -0.012612 0.016243 0.000000 0.000000 0.000000
# 4 0.000000 0.000000 0.000000 -0.257345 0.000000 0.000000
# 5 0.000000 0.000000 0.000000 0.000000 0.087236 0.000000
# 6 0.000000 0.000000 0.000000 0.000000 0.000000 0.093582
#
#
# Mechanical properties :
#
#
# Convention : Reuss Voigt Hill
#
# Bulk Modulus (GPa) = 13.67112 41.47885 27.57498
# Shear Modulus (GPa) = 67.48244 13.80382 40.64313
#
# Velocity S-wave (km/s) = 5.90619 2.67123 4.58359
# Velocity P-wave (km/s) = 7.31968 5.56375 6.50127
#
# Compressibility (1/GPa) = 0.07314688
#
# Stress axis : x y z
#
# Youngs Moduli (GPa) = 15.91025 48.55047 61.56502
#
# Poissons Ratio (x) = 0.02808 0.00506
# Poissons Ratio (y) = 0.00920 0.77648
# Poissons Ratio (z) = 0.00131 0.61234
#
# Static dielectric constant tensor:
#      x y z
#    x 1.690560 0.000000 0.000000 
#    y 0.000000 1.636270 0.000000 
#    z 0.000000 0.000000 1.718070 
# 
# From -- ./inp_files/26035.got.cif
#   From: 2010.05.17/outbox.cif.g08.bks.cpg/sg59_14_cif.got.tgz:26035.got - 2010.06.03 14:40:33.
