data_PCOD9447205
_publ_section_title
;
Structure prediction by ZEFSAII (Michael W. Deem and Ramdas Pophale) SiO2 
 PCOD9447205
Probable space group: P M M N
;
_chemical_formula_sum "Si O2"
_cell_formula_units_Z 48
_cell_length_a 13.964301
_cell_length_b 18.365613
_cell_length_c 10.563007
_cell_angle_alpha 90.000000
_cell_angle_beta 90.000000
_cell_angle_gamma 90.000000
_cell_volume 2709.019915
_symmetry_space_group_name_H-M "P M M N"
_symmetry_group_IT_number 59
_space_group.IT_coordinate_system_code '2'
_symmetry_cell_setting 'orthorhombic'
loop_
_space_group_symop_operation_xyz
x,y,z
1/2-x,1/2-y,z
1/2+x,-y,-z
-x,1/2+y,-z
-x,-y,-z
1/2+x,1/2+y,-z
1/2-x,y,z
x,1/2-y,z
loop_
_atom_site_type_symbol
_atom_site_label
_atom_site_fract_x
_atom_site_fract_y
_atom_site_fract_z
Si Si1 0.143211 0.336031 0.182525
Si Si2 0.362055 0.557347 0.955829
Si Si3 0.975772 0.663817 0.575235
Si Si4 0.364725 0.391654 0.664757
Si Si5 0.052681 0.105258 0.933371
Si Si6 0.361255 0.935055 0.660375
O O1 0.250000 0.368055 0.179509
O O2 0.151268 0.250000 0.203147
O O3 0.082884 0.363559 0.301424
O O4 0.091753 0.348398 0.049872
O O5 0.250000 0.563209 0.989955
O O6 0.395633 0.473274 0.951366
O O7 0.373130 0.583878 0.810111
O O8 0.438853 0.595774 0.046930
O O9 0.996427 0.750000 0.587274
O O10 0.911156 0.649560 0.452765
O O11 0.070921 0.615220 0.576805
O O12 0.250000 0.381263 0.672425
O O13 0.414208 0.368350 0.796227
O O14 0.382547 0.478685 0.648288
O O15 0.250000 0.924791 0.628739
#
# Coordination Sequence:
#
# PCOD9447205 Si02
#       6
#     8   8   8   8   8   8
#     4  10  20  33  50  75 107 140 180 226 269 321
#     4   9  17  31  55  83 109 138 174 223 273 317
#     4  11  22  36  54  79 110 145 184 226 277 327
#     4  10  21  36  55  80 112 147 181 224 281 333
#     4  10  18  33  55  79 108 140 177 220 265 321
#     4   9  18  36  58  80 108 143 186 228 270 327
#
# _framework density 17.718585999999998
#
# number of rings (size 3 to 8) (size 9 to 14) (size 15 to 20)
#    0.000    2.167    1.667    3.500    0.000    2.000 
#    0.000    0.833    0.000    0.500    0.000    0.000 
#    0.000    0.000    0.000    0.000    0.000    0.000 
#
# Total GULP energy -267645.985146 kJ/mol
# GULP energy per Si atom -5575.958024 kJ/mol
# Density = 1.767826 g / cm^3
# Si number density = 17.718586 Si / 1000 Ang^3
#
#
#
# Elastic Constant Matrix: (Units=GPa)
#
#
# Indices 1 2 3 4 5 6 
#
# 1 97.2524 9.8897 21.6623 0.0000 0.0000 0.0000
# 2 9.8897 9.0946 2.5542 0.0000 0.0000 0.0000
# 3 21.6623 2.5542 69.4063 0.0000 0.0000 0.0000
# 4 0.0000 0.0000 0.0000 20.6215 0.0000 0.0000
# 5 0.0000 0.0000 0.0000 0.0000 29.3609 0.0000
# 6 0.0000 0.0000 0.0000 0.0000 0.0000 18.7172
#
#
#
# Elastic Compliance Matrix: (Units=1/GPa)
#
#
# Indices 1 2 3 4 5 6 
#
# 1 0.012299 -0.012425 -0.003381 0.000000 0.000000 0.000000
# 2 -0.012425 0.123655 -0.000673 0.000000 0.000000 0.000000
# 3 -0.003381 -0.000673 0.015488 0.000000 0.000000 0.000000
# 4 0.000000 0.000000 0.000000 0.048493 0.000000 0.000000
# 5 0.000000 0.000000 0.000000 0.000000 0.034059 0.000000
# 6 0.000000 0.000000 0.000000 0.000000 0.000000 0.053427
#
#
# Mechanical properties :
#
#
# Convention : Reuss Voigt Hill
#
# Bulk Modulus (GPa) = 8.43991 27.10729 17.77360
# Shear Modulus (GPa) = 13.89376 23.18308 18.53842
#
# Velocity S-wave (km/s) = 2.80328 3.62111 3.23812
# Velocity P-wave (km/s) = 3.90531 5.72846 4.90238
#
# Compressibility (1/GPa) = 0.11848467
#
# Stress axis : x y z
#
# Youngs Moduli (GPa) = 81.30609 8.08701 64.56593
#
# Poissons Ratio (x) = 0.10048 0.21833
# Poissons Ratio (y) = 1.01021 0.04343
# Poissons Ratio (z) = 0.27493 0.00544
#
# Static dielectric constant tensor:
#      x y z
#    x 1.621020 0.000000 0.000000 
#    y 0.000000 1.600580 0.000000 
#    z 0.000000 0.000000 1.610300 
# 
# From -- ./inp_files/9199.got.cif
#   From: 2010.05.17/outbox.cif.g08.bks.cpg/sg59_5_cif.got.tgz:9199.got - 2010.06.03 14:40:33.
