data_PCOD9447778
_publ_section_title
;
Structure prediction by ZEFSAII (Michael W. Deem and Ramdas Pophale) SiO2 
 PCOD9447778
Probable space group: P M M N
;
_chemical_formula_sum "Si O2"
_cell_formula_units_Z 64
_cell_length_a 31.489565
_cell_length_b 7.787170
_cell_length_c 14.973481
_cell_angle_alpha 90.000000
_cell_angle_beta 90.000000
_cell_angle_gamma 90.000000
_cell_volume 3671.716092
_symmetry_space_group_name_H-M "P M M N"
_symmetry_group_IT_number 59
_space_group.IT_coordinate_system_code '2'
_symmetry_cell_setting 'orthorhombic'
loop_
_space_group_symop_operation_xyz
x,y,z
1/2-x,1/2-y,z
1/2+x,-y,-z
-x,1/2+y,-z
-x,-y,-z
1/2+x,1/2+y,-z
1/2-x,y,z
x,1/2-y,z
loop_
_atom_site_type_symbol
_atom_site_label
_atom_site_fract_x
_atom_site_fract_y
_atom_site_fract_z
Si Si1 0.379584 0.053515 0.558913
Si Si2 0.115161 0.544425 0.927956
Si Si3 0.542869 0.544341 0.555070
Si Si4 0.201514 0.460178 0.652724
Si Si5 0.297868 0.456561 0.857360
Si Si6 0.957725 0.043215 0.943163
Si Si7 0.919401 0.448838 0.260803
Si Si8 0.015457 0.546162 0.250504
O O1 0.372425 0.250000 0.529362
O O2 0.414625 0.974389 0.493088
O O3 0.333561 0.976562 0.582569
O O4 0.402274 0.052123 0.655356
O O5 0.110056 0.750000 0.926803
O O6 0.165142 0.507716 0.925189
O O7 0.097454 0.480122 0.832897
O O8 0.084357 0.478163 0.005862
O O9 0.500000 0.500000 0.500000
O O10 0.545212 0.750000 0.553516
O O11 0.539533 0.484941 0.656979
O O12 0.250000 0.508910 0.632775
O O13 0.199660 0.250000 0.652879
O O14 0.192082 0.515014 0.755298
O O15 0.250000 0.515972 0.878900
O O16 0.296973 0.250000 0.854494
O O17 0.955099 0.250000 0.940514
O O18 0.962673 0.984269 0.840963
O O19 0.000000 0.000000 0.000000
O O20 0.906088 0.250000 0.271259
O O21 0.969986 0.457079 0.258815
O O22 0.007822 0.750000 0.241925
#
# Coordination Sequence:
#
# PCOD9447778 Si02
#       8
#     8   8   8   8   8   8   8   8
#     4  10  19  31  48  69  94 127 164 195 232 283
#     4  10  20  32  46  70  99 128 161 199 244 288
#     4  11  22  33  48  71  98 127 164 203 238 285
#     4   8  14  26  45  68  93 120 152 190 229 276
#     4   9  17  29  47  71  97 127 161 194 233 287
#     4  10  21  35  50  70  95 126 166 204 243 292
#     4  11  20  29  46  69  98 129 159 198 238 280
#     4  11  22  35  50  67  93 130 167 203 241 284
#
# _framework density 17.430541000000002
#
# number of rings (size 3 to 8) (size 9 to 14) (size 15 to 20)
#    0.000    2.000    3.750    1.875    0.000    2.250 
#    0.000    0.000    0.000    0.375    0.000    0.875 
#    0.000    3.000    0.000    0.000    0.000    0.000 
#
# Total GULP energy -356896.251909 kJ/mol
# GULP energy per Si atom -5576.503936 kJ/mol
# Density = 1.739087 g / cm^3
# Si number density = 17.430541 Si / 1000 Ang^3
#
#
#
# Elastic Constant Matrix: (Units=GPa)
#
#
# Indices 1 2 3 4 5 6 
#
# 1 142.1742 -5.0026 62.9582 0.0000 0.0000 0.0000
# 2 -5.0026 28.9825 -0.0498 0.0000 0.0000 0.0000
# 3 62.9582 -0.0498 107.0350 0.0000 0.0000 0.0000
# 4 0.0000 0.0000 0.0000 7.5873 0.0000 0.0000
# 5 0.0000 0.0000 0.0000 0.0000 26.4816 0.0000
# 6 0.0000 0.0000 0.0000 0.0000 0.0000 15.3570
#
#
#
# Elastic Compliance Matrix: (Units=1/GPa)
#
#
# Indices 1 2 3 4 5 6 
#
# 1 0.009589 0.001645 -0.005639 0.000000 0.000000 0.000000
# 2 0.001645 0.034786 -0.000952 0.000000 0.000000 0.000000
# 3 -0.005639 -0.000952 0.012659 0.000000 0.000000 0.000000
# 4 0.000000 0.000000 0.000000 0.131798 0.000000 0.000000
# 5 0.000000 0.000000 0.000000 0.000000 0.037762 0.000000
# 6 0.000000 0.000000 0.000000 0.000000 0.000000 0.065117
#
#
# Mechanical properties :
#
#
# Convention : Reuss Voigt Hill
#
# Bulk Modulus (GPa) = 21.21213 43.77814 32.49513
# Shear Modulus (GPa) = 15.75711 24.57091 20.16401
#
# Velocity S-wave (km/s) = 3.00991 3.75860 3.40490
# Velocity P-wave (km/s) = 4.92700 6.63373 5.84302
#
# Compressibility (1/GPa) = 0.04714284
#
# Stress axis : x y z
#
# Youngs Moduli (GPa) = 104.28865 28.74728 78.99277
#
# Poissons Ratio (x) = -0.04730 0.44547
# Poissons Ratio (y) = -0.17160 0.07517
# Poissons Ratio (z) = 0.58812 0.02736
#
# Static dielectric constant tensor:
#      x y z
#    x 1.628070 0.000000 0.000000 
#    y 0.000000 1.642820 0.000000 
#    z 0.000000 0.000000 1.590730 
# 
# From -- ./inp_files/25054.got.cif
#   From: 2010.05.17/outbox.cif.g08.bks.cpg/sg59_13_cif.got.tgz:25054.got - 2010.06.03 14:40:33.
