data_PCOD9447150
_publ_section_title
;
Structure prediction by ZEFSAII (Michael W. Deem and Ramdas Pophale) SiO2 
 PCOD9447150
Probable space group: P M M N
;
_chemical_formula_sum "Si O2"
_cell_formula_units_Z 56
_cell_length_a 15.490566
_cell_length_b 7.521077
_cell_length_c 22.499138
_cell_angle_alpha 90.000000
_cell_angle_beta 90.000000
_cell_angle_gamma 90.000000
_cell_volume 2621.278714
_symmetry_space_group_name_H-M "P M M N"
_symmetry_group_IT_number 59
_space_group.IT_coordinate_system_code '2'
_symmetry_cell_setting 'orthorhombic'
loop_
_space_group_symop_operation_xyz
x,y,z
1/2-x,1/2-y,z
1/2+x,-y,-z
-x,1/2+y,-z
-x,-y,-z
1/2+x,1/2+y,-z
1/2-x,y,z
x,1/2-y,z
loop_
_atom_site_type_symbol
_atom_site_label
_atom_site_fract_x
_atom_site_fract_y
_atom_site_fract_z
Si Si1 0.062661 0.037017 0.944328
Si Si2 0.750000 0.533417 0.013185
Si Si3 0.750000 0.042168 0.873365
Si Si4 0.655898 0.533014 0.618611
Si Si5 0.514872 0.957860 0.711498
Si Si6 0.153597 0.465150 0.640007
Si Si7 0.100668 0.037569 0.509255
Si Si8 0.562378 0.456172 0.843173
O O1 0.071667 0.250000 0.938342
O O2 0.160196 0.971890 0.956661
O O3 0.010783 0.967020 0.886878
O O4 0.000000 0.000000 0.000000
O O5 0.750000 0.750000 0.012865
O O6 0.750000 0.473611 0.944632
O O7 0.750000 0.250000 0.855212
O O8 0.841318 0.965001 0.850575
O O9 0.750000 0.483956 0.642028
O O10 0.651105 0.750000 0.616641
O O11 0.579584 0.469595 0.660978
O O12 0.645755 0.470917 0.550681
O O13 0.534147 0.750000 0.718253
O O14 0.419117 0.978121 0.686048
O O15 0.531416 0.038895 0.775594
O O16 0.250000 0.522227 0.655839
O O17 0.152098 0.250000 0.638469
O O18 0.131122 0.530259 0.573240
O O19 0.114562 0.250000 0.510860
O O20 0.000000 0.000000 0.500000
O O21 0.571236 0.250000 0.861920
#
# Coordination Sequence:
#
# PCOD9447150 Si02
#       8
#     8   4   4   8   8   8   8   8
#     4  10  20  36  59  85 116 149 187 234 284 332
#     4  10  20  34  58  92 118 142 183 238 289 338
#     4  10  20  36  60  88 116 152 189 226 279 338
#     4   9  18  33  53  79 110 143 179 222 277 337
#     4  11  23  38  58  83 113 150 191 238 287 333
#     4  10  21  38  61  84 108 148 195 238 289 350
#     4  10  18  32  56  82 110 142 181 231 286 340
#     4  10  22  39  57  81 116 155 192 231 279 340
#
# _framework density 21.363619
#
# number of rings (size 3 to 8) (size 9 to 14) (size 15 to 20)
#    0.000    2.000    2.857    0.857    1.000    3.143 
#    1.286    0.000    0.000    3.000    0.000    0.000 
#    0.000    0.000    0.000    0.000    0.000    0.000 
#
# Total GULP energy -312736.436153 kJ/mol
# GULP energy per Si atom -5584.579217 kJ/mol
# Density = 2.131499 g / cm^3
# Si number density = 21.363619 Si / 1000 Ang^3
#
#
#
# Elastic Constant Matrix: (Units=GPa)
#
#
# Indices 1 2 3 4 5 6 
#
# 1 201.9550 -10.0124 84.3059 0.0000 0.0000 0.0000
# 2 -10.0124 51.4200 -10.7698 0.0000 0.0000 0.0000
# 3 84.3059 -10.7698 133.0774 0.0000 0.0000 0.0000
# 4 0.0000 0.0000 0.0000 2.9894 0.0000 0.0000
# 5 0.0000 0.0000 0.0000 0.0000 1.2440 0.0000
# 6 0.0000 0.0000 0.0000 0.0000 0.0000 12.1248
#
#
#
# Elastic Compliance Matrix: (Units=1/GPa)
#
#
# Indices 1 2 3 4 5 6 
#
# 1 0.006741 0.000425 -0.004236 0.000000 0.000000 0.000000
# 2 0.000425 0.019810 0.001334 0.000000 0.000000 0.000000
# 3 -0.004236 0.001334 0.010306 0.000000 0.000000 0.000000
# 4 0.000000 0.000000 0.000000 0.334513 0.000000 0.000000
# 5 0.000000 0.000000 0.000000 0.000000 0.803880 0.000000
# 6 0.000000 0.000000 0.000000 0.000000 0.000000 0.082476
#
#
# Mechanical properties :
#
#
# Convention : Reuss Voigt Hill
#
# Bulk Modulus (GPa) = 31.34521 57.05556 44.20038
# Shear Modulus (GPa) = 3.92676 24.80020 14.36348
#
# Velocity S-wave (km/s) = 1.35722 3.41084 2.59575
# Velocity P-wave (km/s) = 4.14248 6.50205 5.45146
#
# Compressibility (1/GPa) = 0.03190280
#
# Stress axis : x y z
#
# Youngs Moduli (GPa) = 148.34498 50.47996 97.03109
#
# Poissons Ratio (x) = -0.02147 0.41103
# Poissons Ratio (y) = -0.06310 -0.12941
# Poissons Ratio (z) = 0.62840 -0.06733
#
# Static dielectric constant tensor:
#      x y z
#    x 1.781040 0.000000 0.000000 
#    y 0.000000 1.837800 0.000000 
#    z 0.000000 0.000000 1.728590 
# 
# From -- ./inp_files/30471.got.cif
#   From: 2010.05.17/outbox.cif.g08.bks.cpg/sg59_16_cif.got.tgz:30471.got - 2010.06.03 14:40:33.
