data_PCOD9447899
_publ_section_title
;
Structure prediction by ZEFSAII (Michael W. Deem and Ramdas Pophale) SiO2 
 PCOD9447899
Probable space group: P M M N
;
_chemical_formula_sum "Si O2"
_cell_formula_units_Z 64
_cell_length_a 14.384178
_cell_length_b 7.732335
_cell_length_c 31.598944
_cell_angle_alpha 90.000000
_cell_angle_beta 90.000000
_cell_angle_gamma 90.000000
_cell_volume 3514.538291
_symmetry_space_group_name_H-M "P M M N"
_symmetry_group_IT_number 59
_space_group.IT_coordinate_system_code '2'
_symmetry_cell_setting 'orthorhombic'
loop_
_space_group_symop_operation_xyz
x,y,z
1/2-x,1/2-y,z
1/2+x,-y,-z
-x,1/2+y,-z
-x,-y,-z
1/2+x,1/2+y,-z
1/2-x,y,z
x,1/2-y,z
loop_
_atom_site_type_symbol
_atom_site_label
_atom_site_fract_x
_atom_site_fract_y
_atom_site_fract_z
Si Si1 0.468673 0.042536 0.933078
Si Si2 0.504225 0.043146 0.549097
Si Si3 0.644769 0.043608 0.243806
Si Si4 0.506017 0.053115 0.312051
Si Si5 0.854995 0.458961 0.983450
Si Si6 0.855130 0.540680 0.145988
Si Si7 0.854930 0.044067 0.620636
Si Si8 0.143791 0.459901 0.614979
O O1 0.476505 0.250000 0.929452
O O2 0.428241 0.976622 0.888777
O O3 0.395404 0.005461 0.970511
O O4 0.568426 0.976912 0.949627
O O5 0.510137 0.250000 0.551636
O O6 0.587008 0.975428 0.579824
O O7 0.408857 0.991017 0.572082
O O8 0.500000 0.000000 0.500000
O O9 0.750000 0.976233 0.253782
O O10 0.647757 0.250000 0.251831
O O11 0.559029 0.972228 0.271592
O O12 0.628239 0.015378 0.194105
O O13 0.481575 0.250000 0.301516
O O14 0.416820 0.980088 0.337007
O O15 0.586948 0.043162 0.347124
O O16 0.750000 0.522624 0.977589
O O17 0.853222 0.250000 0.980938
O O18 0.750000 0.485588 0.134376
O O19 0.856351 0.750000 0.145501
O O20 0.750000 0.974226 0.623604
O O21 0.847972 0.250000 0.614845
O O22 0.250000 0.511003 0.615206
O O23 0.137918 0.250000 0.619689
#
# Coordination Sequence:
#
# PCOD9447899 Si02
#       8
#     8   8   8   8   8   8   8   8
#     4   9  17  29  44  63  89 119 150 188 230 268
#     4   9  18  31  46  67  94 122 152 186 224 266
#     4   9  18  31  46  67  96 125 148 176 222 276
#     4  10  19  31  49  73  97 118 146 188 232 272
#     4   9  17  28  43  64  88 116 151 188 227 271
#     4   9  17  28  43  64  88 116 152 189 223 264
#     4   9  19  36  54  70  92 124 159 193 229 270
#     4   9  18  32  48  66  91 123 153 181 219 267
#
# _framework density 18.210072
#
# number of rings (size 3 to 8) (size 9 to 14) (size 15 to 20)
#    0.000    2.875    0.000    1.875    0.000    5.750 
#    0.000    2.500    0.000    0.750    0.000    1.750 
#    0.000    0.000    0.000    0.000    0.000    0.000 
#
# Total GULP energy -356501.328001 kJ/mol
# GULP energy per Si atom -5570.333250 kJ/mol
# Density = 1.816862 g / cm^3
# Si number density = 18.210072 Si / 1000 Ang^3
#
#
#
# Elastic Constant Matrix: (Units=GPa)
#
#
# Indices 1 2 3 4 5 6 
#
# 1 147.1398 5.3610 57.7092 0.0000 0.0000 0.0000
# 2 5.3610 21.5418 -4.9154 0.0000 0.0000 0.0000
# 3 57.7092 -4.9154 90.9417 0.0000 0.0000 0.0000
# 4 0.0000 0.0000 0.0000 22.1854 0.0000 0.0000
# 5 0.0000 0.0000 0.0000 0.0000 16.3838 0.0000
# 6 0.0000 0.0000 0.0000 0.0000 0.0000 13.6795
#
#
#
# Elastic Compliance Matrix: (Units=1/GPa)
#
#
# Indices 1 2 3 4 5 6 
#
# 1 0.009334 -0.003720 -0.006124 0.000000 0.000000 0.000000
# 2 -0.003720 0.048484 0.004981 0.000000 0.000000 0.000000
# 3 -0.006124 0.004981 0.015151 0.000000 0.000000 0.000000
# 4 0.000000 0.000000 0.000000 0.045075 0.000000 0.000000
# 5 0.000000 0.000000 0.000000 0.000000 0.061036 0.000000
# 6 0.000000 0.000000 0.000000 0.000000 0.000000 0.073102
#
#
# Mechanical properties :
#
#
# Convention : Reuss Voigt Hill
#
# Bulk Modulus (GPa) = 15.81198 41.77033 28.79115
# Shear Modulus (GPa) = 17.66855 23.88096 20.77475
#
# Velocity S-wave (km/s) = 3.11828 3.62527 3.38129
# Velocity P-wave (km/s) = 4.65477 6.36485 5.57576
#
# Compressibility (1/GPa) = 0.06324320
#
# Stress axis : x y z
#
# Youngs Moduli (GPa) = 107.13902 20.62539 66.00051
#
# Poissons Ratio (x) = 0.07673 0.40419
# Poissons Ratio (y) = 0.39858 -0.32877
# Poissons Ratio (z) = 0.65612 -0.10274
#
# Static dielectric constant tensor:
#      x y z
#    x 1.643080 0.000000 0.000000 
#    y 0.000000 1.670240 0.000000 
#    z 0.000000 0.000000 1.620850 
# 
# From -- ./inp_files/33196.got.cif
#   From: 2010.05.17/outbox.cif.g08.bks.cpg/sg59_17_cif.got.tgz:33196.got - 2010.06.03 14:40:33.
