data_PCOD9447570
_publ_section_title
;
Structure prediction by ZEFSAII (Michael W. Deem and Ramdas Pophale) SiO2 
 PCOD9447570
Probable space group: P M M N
;
_chemical_formula_sum "Si O2"
_cell_formula_units_Z 64
_cell_length_a 14.027801
_cell_length_b 19.725606
_cell_length_c 13.151858
_cell_angle_alpha 90.000000
_cell_angle_beta 90.000000
_cell_angle_gamma 90.000000
_cell_volume 3639.209535
_symmetry_space_group_name_H-M "P M M N"
_symmetry_group_IT_number 59
_space_group.IT_coordinate_system_code '2'
_symmetry_cell_setting 'orthorhombic'
loop_
_space_group_symop_operation_xyz
x,y,z
1/2-x,1/2-y,z
1/2+x,-y,-z
-x,1/2+y,-z
-x,-y,-z
1/2+x,1/2+y,-z
1/2-x,y,z
x,1/2-y,z
loop_
_atom_site_type_symbol
_atom_site_label
_atom_site_fract_x
_atom_site_fract_y
_atom_site_fract_z
Si Si1 0.145429 0.826599 0.672945
Si Si2 0.972071 0.570907 0.372815
Si Si3 0.858260 0.047080 0.475092
Si Si4 0.946232 0.631073 0.735253
Si Si5 0.363834 0.475169 0.989212
Si Si6 0.485806 0.987180 0.173301
Si Si7 0.637804 0.669053 0.515800
Si Si8 0.636733 0.675434 0.943222
O O1 0.250000 0.834442 0.722688
O O2 0.139739 0.750000 0.632734
O O3 0.140223 0.881836 0.584249
O O4 0.052878 0.839063 0.740426
O O5 0.898935 0.509800 0.398981
O O6 0.923180 0.635293 0.425823
O O7 0.069252 0.553040 0.432035
O O8 0.994937 0.572326 0.253575
O O9 0.750000 0.031254 0.505207
O O10 0.955173 0.551829 0.759855
O O11 0.903343 0.643181 0.623778
O O12 0.884664 0.665313 0.823677
O O13 0.250000 0.478769 0.985273
O O14 0.416501 0.500138 0.888151
O O15 0.406374 0.516730 0.084959
O O16 0.394965 0.395701 0.005564
O O17 0.750000 0.651513 0.507459
O O18 0.629068 0.750000 0.514364
O O19 0.750000 0.676995 0.958451
O O20 0.598838 0.750000 0.975291
#
# Coordination Sequence:
#
# PCOD9447570 Si02
#       8
#     8   8   8   8   8   8   8   8
#     4  10  19  30  46  70 102 139 177 216 259 307
#     4  11  20  35  53  75 106 145 181 220 262 315
#     4  10  20  33  49  75 107 143 182 218 256 309
#     4  11  18  32  53  75 109 142 175 221 268 319
#     4   9  20  37  55  76 107 137 170 232 287 325
#     4  10  21  35  53  79 102 136 185 224 271 329
#     4  11  23  36  52  80 117 152 182 216 264 323
#     4   9  17  30  52  80 104 134 175 215 269 337
#
# _framework density 17.586236
#
# number of rings (size 3 to 8) (size 9 to 14) (size 15 to 20)
#    0.000    1.875    2.500    2.625    0.000    3.500 
#    0.000    0.625    0.000    1.500    0.000    0.000 
#    0.000   11.000    0.000    0.000    0.000    0.000 
#
# Total GULP energy -356713.781261 kJ/mol
# GULP energy per Si atom -5573.652832 kJ/mol
# Density = 1.754621 g / cm^3
# Si number density = 17.586236 Si / 1000 Ang^3
#
#
#
# Elastic Constant Matrix: (Units=GPa)
#
#
# Indices 1 2 3 4 5 6 
#
# 1 70.2710 0.3254 -0.1623 0.0000 0.0000 0.0000
# 2 0.3254 47.6397 8.8610 0.0000 0.0000 0.0000
# 3 -0.1623 8.8610 39.9466 0.0000 0.0000 0.0000
# 4 0.0000 0.0000 0.0000 10.0561 0.0000 0.0000
# 5 0.0000 0.0000 0.0000 0.0000 11.1539 0.0000
# 6 0.0000 0.0000 0.0000 0.0000 0.0000 27.4752
#
#
#
# Elastic Compliance Matrix: (Units=1/GPa)
#
#
# Indices 1 2 3 4 5 6 
#
# 1 0.014231 -0.000113 0.000083 0.000000 0.000000 0.000000
# 2 -0.000113 0.021895 -0.004857 0.000000 0.000000 0.000000
# 3 0.000083 -0.004857 0.026111 0.000000 0.000000 0.000000
# 4 0.000000 0.000000 0.000000 0.099442 0.000000 0.000000
# 5 0.000000 0.000000 0.000000 0.000000 0.089655 0.000000
# 6 0.000000 0.000000 0.000000 0.000000 0.000000 0.036396
#
#
# Mechanical properties :
#
#
# Convention : Reuss Voigt Hill
#
# Bulk Modulus (GPa) = 19.06084 19.54503 19.30294
# Shear Modulus (GPa) = 15.87338 19.65926 17.76632
#
# Velocity S-wave (km/s) = 3.00759 3.34710 3.18188
# Velocity P-wave (km/s) = 4.78778 5.10640 4.94966
#
# Compressibility (1/GPa) = 0.05246358
#
# Stress axis : x y z
#
# Youngs Moduli (GPa) = 70.26743 45.67232 38.29777
#
# Poissons Ratio (x) = 0.00514 -0.00317
# Poissons Ratio (y) = 0.00791 0.18602
# Poissons Ratio (z) = -0.00582 0.22184
#
# Static dielectric constant tensor:
#      x y z
#    x 1.621130 0.000000 0.000000 
#    y 0.000000 1.636210 0.000000 
#    z 0.000000 0.000000 1.587150 
# 
# From -- ./inp_files/17233.got.cif
#   From: 2010.05.17/outbox.cif.g08.bks.cpg/sg59_9_cif.got.tgz:17233.got - 2010.06.03 14:40:33.
