data_PCOD9447471
_publ_section_title
;
Structure prediction by ZEFSAII (Michael W. Deem and Ramdas Pophale) SiO2 
 PCOD9447471
Probable space group: P M M N
;
_chemical_formula_sum "Si O2"
_cell_formula_units_Z 56
_cell_length_a 18.619392
_cell_length_b 8.888421
_cell_length_c 19.622564
_cell_angle_alpha 90.000000
_cell_angle_beta 90.000000
_cell_angle_gamma 90.000000
_cell_volume 3247.475373
_symmetry_space_group_name_H-M "P M M N"
_symmetry_group_IT_number 59
_space_group.IT_coordinate_system_code '2'
_symmetry_cell_setting 'orthorhombic'
loop_
_space_group_symop_operation_xyz
x,y,z
1/2-x,1/2-y,z
1/2+x,-y,-z
-x,1/2+y,-z
-x,-y,-z
1/2+x,1/2+y,-z
1/2-x,y,z
x,1/2-y,z
loop_
_atom_site_type_symbol
_atom_site_label
_atom_site_fract_x
_atom_site_fract_y
_atom_site_fract_z
Si Si1 0.610802 0.427200 0.271883
Si Si2 0.476769 0.069736 0.928683
Si Si3 0.070548 0.931361 0.582434
Si Si4 0.912285 0.429745 0.570287
Si Si5 0.667827 0.931448 0.695912
Si Si6 0.171102 0.430893 0.860722
Si Si7 0.956456 0.928035 0.798056
O O1 0.628310 0.250000 0.267280
O O2 0.614775 0.475980 0.350479
O O3 0.656631 0.515019 0.216257
O O4 0.527514 0.445208 0.248809
O O5 0.477151 0.250000 0.932967
O O6 0.396488 0.018105 0.906123
O O7 0.528314 0.015871 0.867501
O O8 0.500000 0.000000 0.000000
O O9 0.060433 0.750000 0.586255
O O10 0.104287 0.966511 0.508862
O O11 0.992185 0.006844 0.584060
O O12 0.912821 0.250000 0.577418
O O13 0.858894 0.500901 0.624716
O O14 0.750000 0.973061 0.710193
O O15 0.663124 0.750000 0.691567
O O16 0.612413 0.978803 0.755036
O O17 0.250000 0.482535 0.883531
O O18 0.170164 0.250000 0.861663
O O19 0.949380 0.750000 0.813210
#
# Coordination Sequence:
#
# PCOD9447471 Si02
#       7
#     8   8   8   8   8   8   8
#     4   9  16  29  51  74  98 129 167 211 252 297
#     4  10  20  35  57  82 106 134 167 204 247 296
#     4   9  17  31  48  70  99 132 170 215 263 313
#     4  10  19  29  47  72  99 131 172 222 269 308
#     4  10  20  35  53  71  99 141 181 218 264 316
#     4   9  19  35  53  76 106 135 164 203 250 300
#     4   9  17  32  53  75  99 129 168 211 250 297
#
# _framework density 17.244164000000001
#
# number of rings (size 3 to 8) (size 9 to 14) (size 15 to 20)
#    0.000    2.571    1.429    0.857    0.000    2.857 
#    0.000    1.429    0.000    8.571    0.000    0.000 
#    0.000    0.000    0.000    0.000    0.000    0.000 
#
# Total GULP energy -312188.118493 kJ/mol
# GULP energy per Si atom -5574.787830 kJ/mol
# Density = 1.720492 g / cm^3
# Si number density = 17.244164 Si / 1000 Ang^3
#
#
#
# Elastic Constant Matrix: (Units=GPa)
#
#
# Indices 1 2 3 4 5 6 
#
# 1 98.3051 24.8489 55.6342 0.0000 0.0000 0.0000
# 2 24.8489 17.9411 34.5331 0.0000 0.0000 0.0000
# 3 55.6342 34.5331 137.9320 0.0000 0.0000 0.0000
# 4 0.0000 0.0000 0.0000 30.9030 0.0000 0.0000
# 5 0.0000 0.0000 0.0000 0.0000 15.8918 0.0000
# 6 0.0000 0.0000 0.0000 0.0000 0.0000 19.3486
#
#
#
# Elastic Compliance Matrix: (Units=1/GPa)
#
#
# Indices 1 2 3 4 5 6 
#
# 1 0.015864 -0.018637 -0.001733 0.000000 0.000000 0.000000
# 2 -0.018637 0.129477 -0.024899 0.000000 0.000000 0.000000
# 3 -0.001733 -0.024899 0.014183 0.000000 0.000000 0.000000
# 4 0.000000 0.000000 0.000000 0.032359 0.000000 0.000000
# 5 0.000000 0.000000 0.000000 0.000000 0.062925 0.000000
# 6 0.000000 0.000000 0.000000 0.000000 0.000000 0.051683
#
#
# Mechanical properties :
#
#
# Convention : Reuss Voigt Hill
#
# Bulk Modulus (GPa) = 14.49571 53.80118 34.14844
# Shear Modulus (GPa) = 11.90408 22.50615 17.20512
#
# Velocity S-wave (km/s) = 2.63025 3.61660 3.16212
# Velocity P-wave (km/s) = 4.20104 6.97905 5.76003
#
# Compressibility (1/GPa) = 0.06898593
#
# Stress axis : x y z
#
# Youngs Moduli (GPa) = 63.03636 7.72339 70.50885
#
# Poissons Ratio (x) = 0.14394 0.12216
# Poissons Ratio (y) = 1.17481 1.75561
# Poissons Ratio (z) = 0.10922 0.19231
#
# Static dielectric constant tensor:
#      x y z
#    x 1.584280 0.000000 0.000000 
#    y 0.000000 1.582450 0.000000 
#    z 0.000000 0.000000 1.579540 
# 
# From -- ./inp_files/30599.got.cif
#   From: 2010.05.17/outbox.cif.g08.bks.cpg/sg59_16_cif.got.tgz:30599.got - 2010.06.03 14:40:33.
