data_PCOD9447978
_publ_section_title
;
Structure prediction by ZEFSAII (Michael W. Deem and Ramdas Pophale) SiO2 
 PCOD9447978
Probable space group: P M M N
;
_chemical_formula_sum "Si O2"
_cell_formula_units_Z 56
_cell_length_a 8.403852
_cell_length_b 23.396724
_cell_length_c 15.175133
_cell_angle_alpha 90.000000
_cell_angle_beta 90.000000
_cell_angle_gamma 90.000000
_cell_volume 2983.774194
_symmetry_space_group_name_H-M "P M M N"
_symmetry_group_IT_number 59
_space_group.IT_coordinate_system_code '2'
_symmetry_cell_setting 'orthorhombic'
loop_
_space_group_symop_operation_xyz
x,y,z
1/2-x,1/2-y,z
1/2+x,-y,-z
-x,1/2+y,-z
-x,-y,-z
1/2+x,1/2+y,-z
1/2-x,y,z
x,1/2-y,z
loop_
_atom_site_type_symbol
_atom_site_label
_atom_site_fract_x
_atom_site_fract_y
_atom_site_fract_z
Si Si1 0.441943 0.813634 0.574689
Si Si2 0.441857 0.018161 0.596170
Si Si3 0.942656 0.088742 0.289963
Si Si4 0.442161 0.313211 0.807618
Si Si5 0.059667 0.447746 0.108088
Si Si6 0.442293 0.352026 0.615960
Si Si7 0.060381 0.923183 0.085395
O O1 0.250000 0.815640 0.574308
O O2 0.493356 0.750000 0.600103
O O3 0.496920 0.860924 0.644700
O O4 0.497715 0.826454 0.475636
O O5 0.250000 0.018048 0.595412
O O6 0.495254 0.081871 0.618964
O O7 0.500000 0.000000 0.500000
O O8 0.495087 0.970738 0.665490
O O9 0.750000 0.089854 0.286799
O O10 0.007718 0.089134 0.191618
O O11 0.250000 0.313378 0.808058
O O12 0.495190 0.250000 0.838797
O O13 0.494216 0.321623 0.705847
O O14 0.494943 0.368067 0.863742
O O15 0.250000 0.448368 0.100267
O O16 0.004408 0.514151 0.120071
O O17 0.988573 0.424231 0.017152
O O18 0.250000 0.350344 0.613964
O O19 0.250000 0.921850 0.092792
#
# Coordination Sequence:
#
# PCOD9447978 Si02
#       7
#     8   8   8   8   8   8   8
#     4  10  21  36  53  74 104 144 187 227 267 317
#     4  10  19  31  50  77 107 141 180 223 272 321
#     4  10  20  35  54  78 109 144 181 225 276 326
#     4  10  21  37  57  82 114 151 189 229 274 329
#     4  10  21  37  60  87 111 140 180 227 280 336
#     4  10  20  34  54  79 108 145 186 226 272 325
#     4  10  21  38  60  86 113 142 178 225 279 336
#
# _framework density 18.768176
#
# number of rings (size 3 to 8) (size 9 to 14) (size 15 to 20)
#    0.000    2.000    1.429    2.143    0.000    5.714 
#    0.000    0.714    0.000    2.571    0.000    0.000 
#    0.000    0.000    0.000    0.000    0.000    0.000 
#
# Total GULP energy -312614.665614 kJ/mol
# GULP energy per Si atom -5582.404743 kJ/mol
# Density = 1.872546 g / cm^3
# Si number density = 18.768176 Si / 1000 Ang^3
#
#
#
# Elastic Constant Matrix: (Units=GPa)
#
#
# Indices 1 2 3 4 5 6 
#
# 1 8.8013 21.6596 10.4410 0.0000 0.0000 0.0000
# 2 21.6596 123.5150 62.7771 0.0000 0.0000 0.0000
# 3 10.4410 62.7771 118.6616 0.0000 0.0000 0.0000
# 4 0.0000 0.0000 0.0000 20.2916 0.0000 0.0000
# 5 0.0000 0.0000 0.0000 0.0000 30.9512 0.0000
# 6 0.0000 0.0000 0.0000 0.0000 0.0000 21.1736
#
#
#
# Elastic Compliance Matrix: (Units=1/GPa)
#
#
# Indices 1 2 3 4 5 6 
#
# 1 0.200024 -0.035741 0.001308 0.000000 0.000000 0.000000
# 2 -0.035741 0.017460 -0.006092 0.000000 0.000000 0.000000
# 3 0.001308 -0.006092 0.011535 0.000000 0.000000 0.000000
# 4 0.000000 0.000000 0.000000 0.049281 0.000000 0.000000
# 5 0.000000 0.000000 0.000000 0.000000 0.032309 0.000000
# 6 0.000000 0.000000 0.000000 0.000000 0.000000 0.047229
#
#
# Mechanical properties :
#
#
# Convention : Reuss Voigt Hill
#
# Bulk Modulus (GPa) = 6.75814 48.97037 27.86425
# Shear Modulus (GPa) = 10.24145 24.88996 17.56570
#
# Velocity S-wave (km/s) = 2.33852 3.64562 3.06262
# Velocity P-wave (km/s) = 3.30155 6.62342 5.23306
#
# Compressibility (1/GPa) = 0.14796964
#
# Stress axis : x y z
#
# Youngs Moduli (GPa) = 4.99939 57.27312 86.69050
#
# Poissons Ratio (x) = 2.04701 -0.11343
# Poissons Ratio (y) = 0.17868 0.52815
# Poissons Ratio (z) = -0.00654 0.34893
#
# Static dielectric constant tensor:
#      x y z
#    x 1.649180 0.000000 0.000000 
#    y 0.000000 1.651470 0.000000 
#    z 0.000000 0.000000 1.621900 
# 
# From -- ./inp_files/21010.got.cif
#   From: 2010.05.17/outbox.cif.g08.bks.cpg/sg59_11_cif.got.tgz:21010.got - 2010.06.03 14:40:33.
