data_PCOD9447750
_publ_section_title
;
Structure prediction by ZEFSAII (Michael W. Deem and Ramdas Pophale) SiO2 
 PCOD9447750
Probable space group: P M M N
;
_chemical_formula_sum "Si O2"
_cell_formula_units_Z 64
_cell_length_a 31.205715
_cell_length_b 8.743290
_cell_length_c 14.771066
_cell_angle_alpha 90.000000
_cell_angle_beta 90.000000
_cell_angle_gamma 90.000000
_cell_volume 4030.146745
_symmetry_space_group_name_H-M "P M M N"
_symmetry_group_IT_number 59
_space_group.IT_coordinate_system_code '2'
_symmetry_cell_setting 'orthorhombic'
loop_
_space_group_symop_operation_xyz
x,y,z
1/2-x,1/2-y,z
1/2+x,-y,-z
-x,1/2+y,-z
-x,-y,-z
1/2+x,1/2+y,-z
1/2-x,y,z
x,1/2-y,z
loop_
_atom_site_type_symbol
_atom_site_label
_atom_site_fract_x
_atom_site_fract_y
_atom_site_fract_z
Si Si1 0.118714 0.568222 0.433138
Si Si2 0.614835 0.570121 0.934411
Si Si3 0.298681 0.066000 0.356536
Si Si4 0.576786 0.074297 0.761512
Si Si5 0.041054 0.568275 0.945972
Si Si6 0.701500 0.563680 0.852118
Si Si7 0.459514 0.565802 0.556092
Si Si8 0.474128 0.072094 0.751818
O O1 0.124122 0.750000 0.443695
O O2 0.165164 0.493616 0.423825
O O3 0.095912 0.540969 0.336543
O O4 0.084903 0.515467 0.508515
O O5 0.614519 0.750000 0.956322
O O6 0.593801 0.541410 0.836161
O O7 0.663788 0.515492 0.919666
O O8 0.584490 0.482064 0.003725
O O9 0.250000 0.018511 0.378716
O O10 0.299834 0.250000 0.355812
O O11 0.307355 0.015027 0.252130
O O12 0.588519 0.250000 0.786971
O O13 0.525747 0.067067 0.755970
O O14 0.036723 0.750000 0.947140
O O15 0.041533 0.506441 0.843761
O O16 0.000000 0.500000 0.000000
O O17 0.750000 0.516266 0.875272
O O18 0.700815 0.750000 0.851261
O O19 0.500000 0.500000 0.500000
O O20 0.461879 0.750000 0.551501
O O21 0.460884 0.509726 0.659164
O O22 0.461157 0.250000 0.749873
#
# Coordination Sequence:
#
# PCOD9447750 Si02
#       8
#     8   8   8   8   8   8   8   8
#     4  10  20  33  48  71 103 137 172 206 250 299
#     4  11  20  31  51  76 100 136 176 208 251 303
#     4   9  17  30  48  72 101 132 168 209 251 298
#     4  10  19  31  47  69 103 137 167 210 250 291
#     4  12  24  37  52  73 102 136 172 213 254 301
#     4   8  15  28  46  71 102 132 165 206 249 297
#     4  11  22  36  52  74 103 138 176 214 254 301
#     4  11  22  38  54  73 101 134 173 218 256 300
#
# _framework density 15.880316000000001
#
# number of rings (size 3 to 8) (size 9 to 14) (size 15 to 20)
#    0.000    1.750    3.750    3.000    0.000    1.750 
#    0.000    0.000    0.000    1.500    0.000    0.875 
#    0.000    5.000    0.000    0.000    0.000    0.000 
#
# Total GULP energy -357035.098698 kJ/mol
# GULP energy per Si atom -5578.673417 kJ/mol
# Density = 1.584417 g / cm^3
# Si number density = 15.880316 Si / 1000 Ang^3
#
#
#
# Elastic Constant Matrix: (Units=GPa)
#
#
# Indices 1 2 3 4 5 6 
#
# 1 125.0799 36.8681 62.3674 0.0000 0.0000 0.0000
# 2 36.8681 57.1653 36.9588 0.0000 0.0000 0.0000
# 3 62.3674 36.9588 91.6601 0.0000 0.0000 0.0000
# 4 0.0000 0.0000 0.0000 24.5216 0.0000 0.0000
# 5 0.0000 0.0000 0.0000 0.0000 21.8650 0.0000
# 6 0.0000 0.0000 0.0000 0.0000 0.0000 22.0873
#
#
#
# Elastic Compliance Matrix: (Units=1/GPa)
#
#
# Indices 1 2 3 4 5 6 
#
# 1 0.012595 -0.003493 -0.007162 0.000000 0.000000 0.000000
# 2 -0.003493 0.024630 -0.007555 0.000000 0.000000 0.000000
# 3 -0.007162 -0.007555 0.018829 0.000000 0.000000 0.000000
# 4 0.000000 0.000000 0.000000 0.040780 0.000000 0.000000
# 5 0.000000 0.000000 0.000000 0.000000 0.045735 0.000000
# 6 0.000000 0.000000 0.000000 0.000000 0.000000 0.045275
#
#
# Mechanical properties :
#
#
# Convention : Reuss Voigt Hill
#
# Bulk Modulus (GPa) = 50.92706 60.69932 55.81319
# Shear Modulus (GPa) = 21.66293 22.87552 22.26923
#
# Velocity S-wave (km/s) = 3.69743 3.79950 3.74881
# Velocity P-wave (km/s) = 7.09696 7.58645 7.34579
#
# Compressibility (1/GPa) = 0.01963593
#
# Stress axis : x y z
#
# Youngs Moduli (GPa) = 79.39347 40.60067 53.10962
#
# Poissons Ratio (x) = 0.14182 0.38036
# Poissons Ratio (y) = 0.27733 0.40122
# Poissons Ratio (z) = 0.56860 0.30672
#
# Static dielectric constant tensor:
#      x y z
#    x 1.546500 0.000000 0.000000 
#    y 0.000000 1.550810 0.000000 
#    z 0.000000 0.000000 1.510340 
# 
# From -- ./inp_files/25024.got.cif
#   From: 2010.05.17/outbox.cif.g08.bks.cpg/sg59_13_cif.got.tgz:25024.got - 2010.06.03 14:40:33.
