data_PCOD9447661
_publ_section_title
;
Structure prediction by ZEFSAII (Michael W. Deem and Ramdas Pophale) SiO2 
 PCOD9447661
Probable space group: P M M N
;
_chemical_formula_sum "Si O2"
_cell_formula_units_Z 48
_cell_length_a 24.474698
_cell_length_b 7.512047
_cell_length_c 13.101493
_cell_angle_alpha 90.000000
_cell_angle_beta 90.000000
_cell_angle_gamma 90.000000
_cell_volume 2408.776066
_symmetry_space_group_name_H-M "P M M N"
_symmetry_group_IT_number 59
_space_group.IT_coordinate_system_code '2'
_symmetry_cell_setting 'orthorhombic'
loop_
_space_group_symop_operation_xyz
x,y,z
1/2-x,1/2-y,z
1/2+x,-y,-z
-x,1/2+y,-z
-x,-y,-z
1/2+x,1/2+y,-z
1/2-x,y,z
x,1/2-y,z
loop_
_atom_site_type_symbol
_atom_site_label
_atom_site_fract_x
_atom_site_fract_y
_atom_site_fract_z
Si Si1 0.812215 0.536080 0.118469
Si Si2 0.880702 0.532079 0.311040
Si Si3 0.113388 0.959594 0.295073
Si Si4 0.187969 0.537317 0.114797
Si Si5 0.312592 0.465380 0.490207
Si Si6 0.999223 0.536197 0.379131
O O1 0.750000 0.470160 0.134595
O O2 0.810267 0.750000 0.126837
O O3 0.853222 0.472222 0.205684
O O4 0.828116 0.493546 0.002473
O O5 0.881318 0.750000 0.310650
O O6 0.843232 0.477612 0.406749
O O7 0.942522 0.471385 0.330749
O O8 0.104858 0.750000 0.275153
O O9 0.145115 0.034762 0.197027
O O10 0.054293 0.034514 0.326294
O O11 0.153066 0.976826 0.392220
O O12 0.250000 0.467221 0.129110
O O13 0.191008 0.750000 0.129990
O O14 0.250000 0.526914 0.486316
O O15 0.312006 0.250000 0.490457
O O16 0.999468 0.750000 0.368756
O O17 0.000000 0.500000 0.500000
#
# Coordination Sequence:
#
# PCOD9447661 Si02
#       6
#     8   8   8   8   8   8
#     4   9  17  31  52  74  95 124 164 205 245 293
#     4   9  17  31  50  72  99 128 160 202 249 292
#     4  10  20  33  50  72  99 132 167 201 243 295
#     4   9  18  33  50  68  96 131 162 198 246 294
#     4  10  19  30  48  74 101 128 160 201 248 296
#     4  10  19  33  52  72  97 133 169 201 243 294
#
# _framework density 19.927133999999999
#
# number of rings (size 3 to 8) (size 9 to 14) (size 15 to 20)
#    0.000    2.500    1.667    1.000    0.000    3.667 
#    0.000    4.167    0.000    2.000    0.000    0.000 
#    0.000    0.000    0.000    0.000    0.000    0.000 
#
# Total GULP energy -267963.704955 kJ/mol
# GULP energy per Si atom -5582.577187 kJ/mol
# Density = 1.988178 g / cm^3
# Si number density = 19.927134 Si / 1000 Ang^3
#
#
#
# Elastic Constant Matrix: (Units=GPa)
#
#
# Indices 1 2 3 4 5 6 
#
# 1 187.1040 1.7024 118.8120 0.0000 0.0000 0.0000
# 2 1.7024 51.8503 -5.6153 0.0000 0.0000 0.0000
# 3 118.8120 -5.6153 174.3738 0.0000 0.0000 0.0000
# 4 0.0000 0.0000 0.0000 12.8325 0.0000 0.0000
# 5 0.0000 0.0000 0.0000 0.0000 20.5265 0.0000
# 6 0.0000 0.0000 0.0000 0.0000 0.0000 24.4133
#
#
#
# Elastic Compliance Matrix: (Units=1/GPa)
#
#
# Indices 1 2 3 4 5 6 
#
# 1 0.009473 -0.001014 -0.006487 0.000000 0.000000 0.000000
# 2 -0.001014 0.019462 0.001317 0.000000 0.000000 0.000000
# 3 -0.006487 0.001317 0.010198 0.000000 0.000000 0.000000
# 4 0.000000 0.000000 0.000000 0.077927 0.000000 0.000000
# 5 0.000000 0.000000 0.000000 0.000000 0.048718 0.000000
# 6 0.000000 0.000000 0.000000 0.000000 0.000000 0.040961
#
#
# Mechanical properties :
#
#
# Convention : Reuss Voigt Hill
#
# Bulk Modulus (GPa) = 37.36114 71.45845 54.40980
# Shear Modulus (GPa) = 21.92708 31.44972 26.68840
#
# Velocity S-wave (km/s) = 3.32077 3.97701 3.66361
# Velocity P-wave (km/s) = 5.78731 7.55159 6.72754
#
# Compressibility (1/GPa) = 0.02676578
#
# Stress axis : x y z
#
# Youngs Moduli (GPa) = 105.55832 51.38155 98.06251
#
# Poissons Ratio (x) = 0.05208 0.63618
# Poissons Ratio (y) = 0.10700 -0.12919
# Poissons Ratio (z) = 0.68481 -0.06769
#
# Static dielectric constant tensor:
#      x y z
#    x 1.703080 0.000000 0.000000 
#    y 0.000000 1.772020 0.000000 
#    z 0.000000 0.000000 1.660160 
# 
# From -- ./inp_files/12030.got.cif
#   From: 2010.05.17/outbox.cif.g08.bks.cpg/sg59_7_cif.got.tgz:12030.got - 2010.06.03 14:40:33.
