data_PCOD9447538
_publ_section_title
;
Structure prediction by ZEFSAII (Michael W. Deem and Ramdas Pophale) SiO2 
 PCOD9447538
Probable space group: P M M N
;
_chemical_formula_sum "Si O2"
_cell_formula_units_Z 64
_cell_length_a 8.666640
_cell_length_b 19.442790
_cell_length_c 20.209787
_cell_angle_alpha 90.000000
_cell_angle_beta 90.000000
_cell_angle_gamma 90.000000
_cell_volume 3405.423108
_symmetry_space_group_name_H-M "P M M N"
_symmetry_group_IT_number 59
_space_group.IT_coordinate_system_code '2'
_symmetry_cell_setting 'orthorhombic'
loop_
_space_group_symop_operation_xyz
x,y,z
1/2-x,1/2-y,z
1/2+x,-y,-z
-x,1/2+y,-z
-x,-y,-z
1/2+x,1/2+y,-z
1/2-x,y,z
x,1/2-y,z
loop_
_atom_site_type_symbol
_atom_site_label
_atom_site_fract_x
_atom_site_fract_y
_atom_site_fract_z
Si Si1 0.936588 0.071711 0.766071
Si Si2 0.920914 0.170103 0.165216
Si Si3 0.072376 0.926351 0.082676
Si Si4 0.571156 0.032696 0.326132
Si Si5 0.429222 0.951976 0.443382
Si Si6 0.076663 0.410340 0.053084
Si Si7 0.928930 0.828829 0.698332
Si Si8 0.437913 0.829453 0.356894
O O1 0.750000 0.061628 0.763663
O O2 0.976214 0.088782 0.841973
O O3 0.978059 0.130311 0.711579
O O4 0.021808 0.001775 0.743387
O O5 0.750000 0.153083 0.192303
O O6 0.920961 0.250000 0.146631
O O7 0.959289 0.125987 0.101914
O O8 0.044998 0.162071 0.223164
O O9 0.250000 0.903006 0.074662
O O10 0.072211 0.008755 0.070878
O O11 0.968872 0.898717 0.023079
O O12 0.750000 0.017709 0.339916
O O13 0.536614 0.113086 0.331935
O O14 0.457703 0.995441 0.377113
O O15 0.250000 0.943650 0.459084
O O16 0.490254 0.876709 0.419491
O O17 0.500000 0.000000 0.500000
O O18 0.250000 0.385314 0.065646
O O19 0.750000 0.840203 0.681535
O O20 0.970416 0.750000 0.682172
O O21 0.250000 0.829195 0.358853
O O22 0.489612 0.750000 0.358263
#
# Coordination Sequence:
#
# PCOD9447538 Si02
#       8
#     8   8   8   8   8   8   8   8
#     4   9  17  31  52  75 101 134 173 218 264 313
#     4  10  20  33  49  69  94 126 165 207 252 307
#     4   9  18  31  46  67  95 126 163 209 261 310
#     4  11  21  33  53  79 107 138 172 211 254 304
#     4  10  20  36  58  82 110 142 177 216 257 306
#     4  10  19  30  46  66  92 128 168 211 258 310
#     4  10  20  34  52  74 102 135 171 213 261 311
#     4   8  15  30  54  82 107 133 169 213 260 309
#
# _framework density 18.793552999999999
#
# number of rings (size 3 to 8) (size 9 to 14) (size 15 to 20)
#    0.000    2.375    0.000    4.125    0.000    3.500 
#    0.000    1.250    0.000   13.875    0.000    0.000 
#    0.000    0.000    0.000    0.000    0.000    0.000 
#
# Total GULP energy -356568.750341 kJ/mol
# GULP energy per Si atom -5571.386724 kJ/mol
# Density = 1.875078 g / cm^3
# Si number density = 18.793553 Si / 1000 Ang^3
#
#
#
# Elastic Constant Matrix: (Units=GPa)
#
#
# Indices 1 2 3 4 5 6 
#
# 1 21.3760 8.4262 -9.4159 0.0000 0.0000 0.0000
# 2 8.4262 80.7978 15.8587 0.0000 0.0000 0.0000
# 3 -9.4159 15.8587 42.1656 0.0000 0.0000 0.0000
# 4 0.0000 0.0000 0.0000 19.1355 0.0000 0.0000
# 5 0.0000 0.0000 0.0000 0.0000 26.6176 0.0000
# 6 0.0000 0.0000 0.0000 0.0000 0.0000 16.9629
#
#
#
# Elastic Compliance Matrix: (Units=1/GPa)
#
#
# Indices 1 2 3 4 5 6 
#
# 1 0.057606 -0.009212 0.016329 0.000000 0.000000 0.000000
# 2 -0.009212 0.014836 -0.007637 0.000000 0.000000 0.000000
# 3 0.016329 -0.007637 0.030235 0.000000 0.000000 0.000000
# 4 0.000000 0.000000 0.000000 0.052259 0.000000 0.000000
# 5 0.000000 0.000000 0.000000 0.000000 0.037569 0.000000
# 6 0.000000 0.000000 0.000000 0.000000 0.000000 0.058952
#
#
# Mechanical properties :
#
#
# Convention : Reuss Voigt Hill
#
# Bulk Modulus (GPa) = 9.83916 19.34193 14.59055
# Shear Modulus (GPa) = 17.45949 21.17457 19.31703
#
# Velocity S-wave (km/s) = 3.05128 3.36027 3.20949
# Velocity P-wave (km/s) = 4.20244 5.03680 4.63842
#
# Compressibility (1/GPa) = 0.10163466
#
# Stress axis : x y z
#
# Youngs Moduli (GPa) = 17.35943 67.40210 33.07446
#
# Poissons Ratio (x) = 0.62094 -0.54006
# Poissons Ratio (y) = 0.15992 0.25260
# Poissons Ratio (z) = -0.28346 0.51477
#
# Static dielectric constant tensor:
#      x y z
#    x 1.636600 0.000000 0.000000 
#    y 0.000000 1.674440 0.000000 
#    z 0.000000 0.000000 1.672590 
# 
# From -- ./inp_files/29536.got.cif
#   From: 2010.05.17/outbox.cif.g08.bks.cpg/sg59_15_cif.got.tgz:29536.got - 2010.06.03 14:40:33.
