data_PCOD9447527
_publ_section_title
;
Structure prediction by ZEFSAII (Michael W. Deem and Ramdas Pophale) SiO2 
 PCOD9447527
Probable space group: P M M N
;
_chemical_formula_sum "Si O2"
_cell_formula_units_Z 64
_cell_length_a 8.078041
_cell_length_b 30.954499
_cell_length_c 15.223833
_cell_angle_alpha 90.000000
_cell_angle_beta 90.000000
_cell_angle_gamma 90.000000
_cell_volume 3806.745506
_symmetry_space_group_name_H-M "P M M N"
_symmetry_group_IT_number 59
_space_group.IT_coordinate_system_code '2'
_symmetry_cell_setting 'orthorhombic'
loop_
_space_group_symop_operation_xyz
x,y,z
1/2-x,1/2-y,z
1/2+x,-y,-z
-x,1/2+y,-z
-x,-y,-z
1/2+x,1/2+y,-z
1/2-x,y,z
x,1/2-y,z
loop_
_atom_site_type_symbol
_atom_site_label
_atom_site_fract_x
_atom_site_fract_y
_atom_site_fract_z
Si Si1 0.553536 0.298135 0.006044
Si Si2 0.555943 0.889071 0.041253
Si Si3 0.946436 0.530286 0.366624
Si Si4 0.552096 0.702493 0.794054
Si Si5 0.450806 0.439177 0.449949
Si Si6 0.452450 0.442962 0.127743
Si Si7 0.952199 0.884042 0.708067
Si Si8 0.444439 0.538636 0.168759
O O1 0.750000 0.296297 0.016305
O O2 0.497684 0.250000 0.975542
O O3 0.514112 0.340807 0.950569
O O4 0.477846 0.305474 0.102791
O O5 0.750000 0.883535 0.026046
O O6 0.527384 0.920410 0.123235
O O7 0.489146 0.915145 0.955723
O O8 0.750000 0.535300 0.354218
O O9 0.002464 0.560297 0.448322
O O10 0.983517 0.482261 0.402454
O O11 0.030869 0.537626 0.273426
O O12 0.750000 0.703696 0.781285
O O13 0.483890 0.750000 0.773027
O O14 0.486305 0.662697 0.737881
O O15 0.250000 0.441923 0.449304
O O16 0.502723 0.399809 0.388062
O O17 0.250000 0.443898 0.125930
O O18 0.501298 0.418693 0.217401
O O19 0.508740 0.492725 0.130536
O O20 0.750000 0.883336 0.709454
O O21 0.250000 0.541062 0.149111
#
# Coordination Sequence:
#
# PCOD9447527 Si02
#       8
#     8   8   8   8   8   8   8   8
#     4  10  20  33  48  68  95 125 157 192 233 281
#     4  11  21  34  50  70  94 123 161 201 235 275
#     4  10  19  30  45  68  91 117 157 200 237 276
#     4   9  16  27  46  69  92 120 154 192 230 271
#     4   9  17  30  48  65  89 123 154 190 238 283
#     4   9  17  29  46  67  94 128 161 190 226 277
#     4   9  14  26  46  68  92 122 157 187 228 283
#     4  11  21  34  49  65  93 131 163 195 238 283
#
# _framework density 16.812263000000002
#
# number of rings (size 3 to 8) (size 9 to 14) (size 15 to 20)
#    0.000    2.250    2.500    1.875    0.000    1.250 
#    0.000    3.750    0.000    0.000    0.000    0.875 
#    0.000    3.000    0.000    0.000    0.000    0.000 
#
# Total GULP energy -356808.425915 kJ/mol
# GULP energy per Si atom -5575.131655 kJ/mol
# Density = 1.677400 g / cm^3
# Si number density = 16.812263 Si / 1000 Ang^3
#
#
#
# Elastic Constant Matrix: (Units=GPa)
#
#
# Indices 1 2 3 4 5 6 
#
# 1 13.0385 5.4121 -2.6482 0.0000 0.0000 0.0000
# 2 5.4121 127.7712 34.8676 0.0000 0.0000 0.0000
# 3 -2.6482 34.8676 52.3226 0.0000 0.0000 0.0000
# 4 0.0000 0.0000 0.0000 23.9071 0.0000 0.0000
# 5 0.0000 0.0000 0.0000 0.0000 12.2449 0.0000
# 6 0.0000 0.0000 0.0000 0.0000 0.0000 15.1210
#
#
#
# Elastic Compliance Matrix: (Units=1/GPa)
#
#
# Indices 1 2 3 4 5 6 
#
# 1 0.080569 -0.005531 0.007764 0.000000 0.000000 0.000000
# 2 -0.005531 0.009946 -0.006908 0.000000 0.000000 0.000000
# 3 0.007764 -0.006908 0.024109 0.000000 0.000000 0.000000
# 4 0.000000 0.000000 0.000000 0.041829 0.000000 0.000000
# 5 0.000000 0.000000 0.000000 0.000000 0.081667 0.000000
# 6 0.000000 0.000000 0.000000 0.000000 0.000000 0.066133
#
#
# Mechanical properties :
#
#
# Convention : Reuss Voigt Hill
#
# Bulk Modulus (GPa) = 9.49913 29.82170 19.66041
# Shear Modulus (GPa) = 14.33925 20.62133 17.48029
#
# Velocity S-wave (km/s) = 2.92362 3.50603 3.22799
# Velocity P-wave (km/s) = 4.13027 5.84519 5.06090
#
# Compressibility (1/GPa) = 0.10527278
#
# Stress axis : x y z
#
# Youngs Moduli (GPa) = 12.41172 100.54406 41.47910
#
# Poissons Ratio (x) = 0.55616 -0.32204
# Poissons Ratio (y) = 0.06866 0.28653
# Poissons Ratio (z) = -0.09636 0.69454
#
# Static dielectric constant tensor:
#      x y z
#    x 1.594940 0.000000 0.000000 
#    y 0.000000 1.593690 0.000000 
#    z 0.000000 0.000000 1.557180 
# 
# From -- ./inp_files/21912.got.cif
#   From: 2010.05.17/outbox.cif.g08.bks.cpg/sg59_11_cif.got.tgz:21912.got - 2010.06.03 14:40:33.
