data_PCOD9447907
_publ_section_title
;
Structure prediction by ZEFSAII (Michael W. Deem and Ramdas Pophale) SiO2 
 PCOD9447907
Probable space group: P M M N
;
_chemical_formula_sum "Si O2"
_cell_formula_units_Z 64
_cell_length_a 8.763109
_cell_length_b 24.607862
_cell_length_c 15.757617
_cell_angle_alpha 90.000000
_cell_angle_beta 90.000000
_cell_angle_gamma 90.000000
_cell_volume 3397.994228
_symmetry_space_group_name_H-M "P M M N"
_symmetry_group_IT_number 59
_space_group.IT_coordinate_system_code '2'
_symmetry_cell_setting 'orthorhombic'
loop_
_space_group_symop_operation_xyz
x,y,z
1/2-x,1/2-y,z
1/2+x,-y,-z
-x,1/2+y,-z
-x,-y,-z
1/2+x,1/2+y,-z
1/2-x,y,z
x,1/2-y,z
loop_
_atom_site_type_symbol
_atom_site_label
_atom_site_fract_x
_atom_site_fract_y
_atom_site_fract_z
Si Si1 0.567798 0.311140 0.925974
Si Si2 0.423361 0.346175 0.098726
Si Si3 0.432306 0.382547 0.284279
Si Si4 0.928389 0.003299 0.253072
Si Si5 0.927894 0.315230 0.628404
Si Si6 0.566534 0.186112 0.436572
Si Si7 0.430789 0.381913 0.776438
Si Si8 0.076196 0.472683 0.079193
O O1 0.750000 0.314953 0.921984
O O2 0.522298 0.250000 0.896747
O O3 0.500963 0.357176 0.863075
O O4 0.515722 0.317188 0.024030
O O5 0.250000 0.323970 0.103048
O O6 0.485188 0.353528 0.195451
O O7 0.414348 0.408405 0.067878
O O8 0.250000 0.385226 0.276344
O O9 0.491284 0.444472 0.295123
O O10 0.485005 0.347739 0.363995
O O11 0.750000 0.004454 0.274935
O O12 0.986179 0.941081 0.257633
O O13 0.961355 0.015992 0.155208
O O14 0.750000 0.330521 0.642261
O O15 0.934631 0.250000 0.631337
O O16 0.973051 0.331516 0.532625
O O17 0.029346 0.340614 0.701349
O O18 0.750000 0.180837 0.428313
O O19 0.529559 0.250000 0.428182
O O20 0.250000 0.387061 0.790297
O O21 0.250000 0.492017 0.096872
O O22 0.000000 0.500000 0.000000
#
# Coordination Sequence:
#
# PCOD9447907 Si02
#       8
#     8   8   8   8   8   8   8   8
#     4  11  24  38  53  77 108 144 187 230 273 328
#     4   9  20  36  51  72 104 139 175 217 264 313
#     4  10  21  37  58  85 115 147 185 229 277 328
#     4  10  21  36  53  76 108 144 184 228 274 329
#     4   9  19  37  60  85 112 143 182 227 275 330
#     4   9  19  37  61  87 114 145 180 221 273 330
#     4  11  23  37  56  82 110 144 185 229 279 331
#     4  10  19  31  49  74 101 132 175 222 267 316
#
# _framework density 18.834641000000001
#
# number of rings (size 3 to 8) (size 9 to 14) (size 15 to 20)
#    0.000    2.125    0.000    4.500    0.000   12.000 
#    0.000    4.375    0.000    0.000    0.000    0.000 
#    0.000    0.000    0.000    0.000    0.000    0.000 
#
# Total GULP energy -356714.552379 kJ/mol
# GULP energy per Si atom -5573.664881 kJ/mol
# Density = 1.879177 g / cm^3
# Si number density = 18.834641 Si / 1000 Ang^3
#
#
#
# Elastic Constant Matrix: (Units=GPa)
#
#
# Indices 1 2 3 4 5 6 
#
# 1 27.7101 18.2400 22.0809 0.0000 0.0000 0.0000
# 2 18.2400 55.3801 35.8992 0.0000 0.0000 0.0000
# 3 22.0809 35.8992 68.3866 0.0000 0.0000 0.0000
# 4 0.0000 0.0000 0.0000 26.5949 0.0000 0.0000
# 5 0.0000 0.0000 0.0000 0.0000 28.7371 0.0000
# 6 0.0000 0.0000 0.0000 0.0000 0.0000 21.0689
#
#
#
# Elastic Compliance Matrix: (Units=1/GPa)
#
#
# Indices 1 2 3 4 5 6 
#
# 1 0.051625 -0.009395 -0.011737 0.000000 0.000000 0.000000
# 2 -0.009395 0.029081 -0.012232 0.000000 0.000000 0.000000
# 3 -0.011737 -0.012232 0.024834 0.000000 0.000000 0.000000
# 4 0.000000 0.000000 0.000000 0.037601 0.000000 0.000000
# 5 0.000000 0.000000 0.000000 0.000000 0.034798 0.000000
# 6 0.000000 0.000000 0.000000 0.000000 0.000000 0.047463
#
#
# Mechanical properties :
#
#
# Convention : Reuss Voigt Hill
#
# Bulk Modulus (GPa) = 25.76603 33.76857 29.76730
# Shear Modulus (GPa) = 16.38985 20.29729 18.34357
#
# Velocity S-wave (km/s) = 2.95311 3.28633 3.12417
# Velocity P-wave (km/s) = 5.03365 5.68928 5.37148
#
# Compressibility (1/GPa) = 0.03881079
#
# Stress axis : x y z
#
# Youngs Moduli (GPa) = 19.37063 34.38704 40.26787
#
# Poissons Ratio (x) = 0.32306 0.47262
# Poissons Ratio (y) = 0.18198 0.49257
# Poissons Ratio (z) = 0.22735 0.42063
#
# Static dielectric constant tensor:
#      x y z
#    x 1.453250 0.000000 0.000000 
#    y 0.000000 1.612980 0.000000 
#    z 0.000000 0.000000 1.460200 
# 
# From -- ./inp_files/21582.got.cif
#   From: 2010.05.17/outbox.cif.g08.bks.cpg/sg59_11_cif.got.tgz:21582.got - 2010.06.03 14:40:33.
