data_PCOD9447177
_publ_section_title
;
Structure prediction by ZEFSAII (Michael W. Deem and Ramdas Pophale) SiO2 
 PCOD9447177
Probable space group: P M M N
;
_chemical_formula_sum "Si O2"
_cell_formula_units_Z 48
_cell_length_a 7.366023
_cell_length_b 25.238363
_cell_length_c 10.820679
_cell_angle_alpha 90.000000
_cell_angle_beta 90.000000
_cell_angle_gamma 90.000000
_cell_volume 2011.633071
_symmetry_space_group_name_H-M "P M M N"
_symmetry_group_IT_number 59
_space_group.IT_coordinate_system_code '2'
_symmetry_cell_setting 'orthorhombic'
loop_
_space_group_symop_operation_xyz
x,y,z
1/2-x,1/2-y,z
1/2+x,-y,-z
-x,1/2+y,-z
-x,-y,-z
1/2+x,1/2+y,-z
1/2-x,y,z
x,1/2-y,z
loop_
_atom_site_type_symbol
_atom_site_label
_atom_site_fract_x
_atom_site_fract_y
_atom_site_fract_z
Si Si1 0.964713 0.886189 0.572293
Si Si2 0.971037 0.808758 0.786022
Si Si3 0.972692 0.884331 0.302714
Si Si4 0.035415 0.553783 0.930076
Si Si5 0.547913 0.839426 0.051138
Si Si6 0.467894 0.993394 0.677437
O O1 0.750000 0.877805 0.574939
O O2 0.037867 0.853592 0.690255
O O3 0.028726 0.865503 0.439030
O O4 0.989611 0.950434 0.570748
O O5 0.750000 0.813731 0.794487
O O6 0.012424 0.750000 0.738836
O O7 0.036551 0.813183 0.928482
O O8 0.750000 0.884514 0.295883
O O9 0.035038 0.848638 0.187029
O O10 0.031944 0.946481 0.299635
O O11 0.250000 0.565279 0.926628
O O12 0.967627 0.541871 0.793404
O O13 0.000000 0.500000 0.000000
O O14 0.940399 0.600536 0.001308
O O15 0.750000 0.816425 0.068177
O O16 0.250000 0.996921 0.680320
#
# Coordination Sequence:
#
# PCOD9447177 Si02
#       6
#     8   8   8   8   8   8
#     4  10  19  32  51  72  98 133 170 202 242 295
#     4   9  18  32  52  76  97 123 166 216 257 298
#     4   9  18  31  47  72 103 134 162 199 246 292
#     4  11  20  30  48  74 104 136 169 203 241 291
#     4  10  18  33  52  70  99 133 166 208 254 297
#     4  10  19  31  47  70 105 135 165 204 239 289
#
# _framework density 23.861208999999999
#
# number of rings (size 3 to 8) (size 9 to 14) (size 15 to 20)
#    0.000    2.167    3.333    1.000    0.000    0.667 
#    0.000    1.667    0.000    7.000    0.000    0.000 
#    0.000    2.667    0.000    0.000    0.000    0.000 
#
# Total GULP energy -267643.505901 kJ/mol
# GULP energy per Si atom -5575.906373 kJ/mol
# Density = 2.380690 g / cm^3
# Si number density = 23.861209 Si / 1000 Ang^3
#
#
#
# Elastic Constant Matrix: (Units=GPa)
#
#
# Indices 1 2 3 4 5 6 
#
# 1 95.3004 -3.7728 8.6480 0.0000 0.0000 0.0000
# 2 -3.7728 104.4618 38.1487 0.0000 0.0000 0.0000
# 3 8.6480 38.1487 153.6513 0.0000 0.0000 0.0000
# 4 0.0000 0.0000 0.0000 24.3487 0.0000 0.0000
# 5 0.0000 0.0000 0.0000 0.0000 -1.7916 0.0000
# 6 0.0000 0.0000 0.0000 0.0000 0.0000 5.5120
#
#
#
# Elastic Compliance Matrix: (Units=1/GPa)
#
#
# Indices 1 2 3 4 5 6 
#
# 1 0.010588 0.000660 -0.000760 0.000000 0.000000 0.000000
# 2 0.000660 0.010569 -0.002661 0.000000 0.000000 0.000000
# 3 -0.000760 -0.002661 0.007212 0.000000 0.000000 0.000000
# 4 0.000000 0.000000 0.000000 0.041070 0.000000 0.000000
# 5 0.000000 0.000000 0.000000 0.000000 -0.558169 0.000000
# 6 0.000000 0.000000 0.000000 0.000000 0.000000 0.181422
#
#
# Mechanical properties :
#
#
# Convention : Reuss Voigt Hill
#
# Bulk Modulus (GPa) = 43.77049 48.82901 46.29975
# Shear Modulus (GPa) = -16.99692 26.30647 4.65477
#
# Velocity S-wave (km/s) = -2.67184 3.32396 1.39822
# Velocity P-wave (km/s) = 2.97747 5.93631 4.69602
#
# Compressibility (1/GPa) = 0.02284644
#
# Stress axis : x y z
#
# Youngs Moduli (GPa) = 94.44470 94.62052 138.66339
#
# Poissons Ratio (x) = -0.06244 0.10535
# Poissons Ratio (y) = -0.06232 0.36900
# Poissons Ratio (z) = 0.07176 0.25180
#
# Static dielectric constant tensor:
#      x y z
#    x 1.860030 0.000000 0.000000 
#    y 0.000000 1.889130 0.000000 
#    z 0.000000 0.000000 2.035210 
# 
# From -- ./inp_files/14487.got.cif
#   From: 2010.05.17/outbox.cif.g08.bks.cpg/sg59_8_cif.got.tgz:14487.got - 2010.06.03 14:40:33.
