data_PCOD9447810
_publ_section_title
;
Structure prediction by ZEFSAII (Michael W. Deem and Ramdas Pophale) SiO2 
 PCOD9447810
Probable space group: P M M N
;
_chemical_formula_sum "Si O2"
_cell_formula_units_Z 56
_cell_length_a 7.608493
_cell_length_b 23.574447
_cell_length_c 15.131291
_cell_angle_alpha 90.000000
_cell_angle_beta 90.000000
_cell_angle_gamma 90.000000
_cell_volume 2714.039368
_symmetry_space_group_name_H-M "P M M N"
_symmetry_group_IT_number 59
_space_group.IT_coordinate_system_code '2'
_symmetry_cell_setting 'orthorhombic'
loop_
_space_group_symop_operation_xyz
x,y,z
1/2-x,1/2-y,z
1/2+x,-y,-z
-x,1/2+y,-z
-x,-y,-z
1/2+x,1/2+y,-z
1/2-x,y,z
x,1/2-y,z
loop_
_atom_site_type_symbol
_atom_site_label
_atom_site_fract_x
_atom_site_fract_y
_atom_site_fract_z
Si Si1 0.465784 0.091517 0.205657
Si Si2 0.462130 0.186786 0.069119
Si Si3 0.455261 0.312463 0.684839
Si Si4 0.540986 0.554204 0.610664
Si Si5 0.537188 0.573989 0.411997
Si Si6 0.041522 0.855712 0.127131
Si Si7 0.539287 0.017718 0.899766
O O1 0.250000 0.092234 0.205238
O O2 0.525273 0.141462 0.141042
O O3 0.524877 0.090944 0.307031
O O4 0.524093 0.032281 0.162893
O O5 0.250000 0.186464 0.072942
O O6 0.524971 0.250000 0.088587
O O7 0.510133 0.170357 0.969216
O O8 0.250000 0.310467 0.659767
O O9 0.531419 0.250000 0.663558
O O10 0.527707 0.369564 0.638131
O O11 0.465092 0.322147 0.790146
O O12 0.750000 0.562541 0.606199
O O13 0.472093 0.570260 0.513667
O O14 0.512257 0.487147 0.628464
O O15 0.750000 0.575397 0.411784
O O16 0.250000 0.857268 0.141967
O O17 0.970447 0.920091 0.123533
O O18 0.750000 0.020413 0.891439
O O19 0.500000 0.000000 0.000000
#
# Coordination Sequence:
#
# PCOD9447810 Si02
#       7
#     8   8   8   8   8   8   8
#     4   9  17  31  50  72  99 128 161 201 243 292
#     4  10  20  34  51  69  95 135 174 204 241 294
#     4  10  21  36  52  72 102 140 176 209 251 304
#     4   9  17  32  55  78 102 131 161 203 259 306
#     4   9  18  33  53  78 103 129 164 207 252 302
#     4  11  22  34  51  76 101 130 170 212 255 300
#     4  10  19  31  48  71  98 128 161 200 247 291
#
# _framework density 20.633451000000001
#
# number of rings (size 3 to 8) (size 9 to 14) (size 15 to 20)
#    0.000    2.286    1.429    1.714    0.000    4.571 
#    0.000    2.143    0.000    4.286    0.000    0.000 
#    0.000    3.429    0.000    0.000    0.000    0.000 
#
# Total GULP energy -312611.509910 kJ/mol
# GULP energy per Si atom -5582.348391 kJ/mol
# Density = 2.058649 g / cm^3
# Si number density = 20.633451 Si / 1000 Ang^3
#
#
#
# Elastic Constant Matrix: (Units=GPa)
#
#
# Indices 1 2 3 4 5 6 
#
# 1 43.5767 -3.3608 -7.2305 0.0000 0.0000 0.0000
# 2 -3.3608 123.5332 57.8469 0.0000 0.0000 0.0000
# 3 -7.2305 57.8469 114.5643 0.0000 0.0000 0.0000
# 4 0.0000 0.0000 0.0000 17.2930 0.0000 0.0000
# 5 0.0000 0.0000 0.0000 0.0000 7.6495 0.0000
# 6 0.0000 0.0000 0.0000 0.0000 0.0000 14.8736
#
#
#
# Elastic Compliance Matrix: (Units=1/GPa)
#
#
# Indices 1 2 3 4 5 6 
#
# 1 0.023191 -0.000071 0.001500 0.000000 0.000000 0.000000
# 2 -0.000071 0.010602 -0.005358 0.000000 0.000000 0.000000
# 3 0.001500 -0.005358 0.011529 0.000000 0.000000 0.000000
# 4 0.000000 0.000000 0.000000 0.057827 0.000000 0.000000
# 5 0.000000 0.000000 0.000000 0.000000 0.130728 0.000000
# 6 0.000000 0.000000 0.000000 0.000000 0.000000 0.067233
#
#
# Mechanical properties :
#
#
# Convention : Reuss Voigt Hill
#
# Bulk Modulus (GPa) = 26.69285 41.79838 34.24562
# Shear Modulus (GPa) = 15.55420 23.59112 19.57266
#
# Velocity S-wave (km/s) = 2.74858 3.38500 3.08326
# Velocity P-wave (km/s) = 4.79976 5.96483 5.41373
#
# Compressibility (1/GPa) = 0.03746322
#
# Stress axis : x y z
#
# Youngs Moduli (GPa) = 43.11948 94.32262 86.74053
#
# Poissons Ratio (x) = 0.00673 -0.13008
# Poissons Ratio (y) = 0.00308 0.46473
# Poissons Ratio (z) = -0.06467 0.50535
#
# Static dielectric constant tensor:
#      x y z
#    x 1.764150 0.000000 0.000000 
#    y 0.000000 1.732910 0.000000 
#    z 0.000000 0.000000 1.728660 
# 
# From -- ./inp_files/20912.got.cif
#   From: 2010.05.17/outbox.cif.g08.bks.cpg/sg59_11_cif.got.tgz:20912.got - 2010.06.03 14:40:33.
