data_PCOD9447842
_publ_section_title
;
Structure prediction by ZEFSAII (Michael W. Deem and Ramdas Pophale) SiO2 
 PCOD9447842
Probable space group: P M M N
;
_chemical_formula_sum "Si O2"
_cell_formula_units_Z 64
_cell_length_a 23.933535
_cell_length_b 9.193000
_cell_length_c 18.507009
_cell_angle_alpha 90.000000
_cell_angle_beta 90.000000
_cell_angle_gamma 90.000000
_cell_volume 4071.930391
_symmetry_space_group_name_H-M "P M M N"
_symmetry_group_IT_number 59
_space_group.IT_coordinate_system_code '2'
_symmetry_cell_setting 'orthorhombic'
loop_
_space_group_symop_operation_xyz
x,y,z
1/2-x,1/2-y,z
1/2+x,-y,-z
-x,1/2+y,-z
-x,-y,-z
1/2+x,1/2+y,-z
1/2-x,y,z
x,1/2-y,z
loop_
_atom_site_type_symbol
_atom_site_label
_atom_site_fract_x
_atom_site_fract_y
_atom_site_fract_z
Si Si1 0.314543 0.927288 0.225742
Si Si2 0.883911 0.074819 0.635169
Si Si3 0.817924 0.916479 0.077946
Si Si4 0.875705 0.575642 0.358730
Si Si5 0.816136 0.076400 0.225670
Si Si6 0.503965 0.575136 0.421798
Si Si7 0.684874 0.923777 0.508585
Si Si8 0.817986 0.417941 0.934866
O O1 0.250000 0.972881 0.238767
O O2 0.313961 0.750000 0.224015
O O3 0.355159 0.973640 0.290103
O O4 0.333061 0.972985 0.145285
O O5 0.879160 0.250000 0.632010
O O6 0.948911 0.037804 0.624327
O O7 0.850375 0.006532 0.568673
O O8 0.750000 0.916549 0.075494
O O9 0.836421 0.750000 0.084730
O O10 0.833075 0.008889 0.148492
O O11 0.837080 0.988107 0.002875
O O12 0.873382 0.750000 0.346321
O O13 0.851813 0.493411 0.289705
O O14 0.938913 0.535843 0.380938
O O15 0.837961 0.542289 0.428874
O O16 0.750000 0.042506 0.236908
O O17 0.821886 0.250000 0.224216
O O18 0.500000 0.500000 0.500000
O O19 0.504946 0.750000 0.432729
O O20 0.750000 0.960600 0.514542
O O21 0.678384 0.750000 0.518811
O O22 0.750000 0.417022 0.935129
O O23 0.835802 0.250000 0.943257
#
# Coordination Sequence:
#
# PCOD9447842 Si02
#       8
#     8   8   8   8   8   8   8   8
#     4   8  14  25  42  66  96 125 151 185 231 277
#     4  10  19  31  49  71  92 119 158 201 239 275
#     4   9  16  26  42  65  94 126 154 181 220 271
#     4  10  20  34  49  65  90 125 159 192 236 285
#     4  10  20  32  47  70  97 122 153 193 233 277
#     4  10  20  34  52  70  89 118 159 203 241 280
#     4  10  20  32  46  65  92 126 157 186 231 289
#     4   8  13  23  40  61  88 123 156 182 214 264
#
# _framework density 15.717362
#
# number of rings (size 3 to 8) (size 9 to 14) (size 15 to 20)
#    0.000    2.625    1.250    2.250    0.000    4.500 
#    0.000    0.625    0.000    2.250    0.000    0.875 
#    0.000    0.000    0.000    0.000    0.000    0.000 
#
# Total GULP energy -356669.535975 kJ/mol
# GULP energy per Si atom -5572.961500 kJ/mol
# Density = 1.568159 g / cm^3
# Si number density = 15.717362 Si / 1000 Ang^3
#
#
#
# Elastic Constant Matrix: (Units=GPa)
#
#
# Indices 1 2 3 4 5 6 
#
# 1 59.8959 25.3842 37.5073 0.0000 0.0000 0.0000
# 2 25.3842 33.6875 44.6135 0.0000 0.0000 0.0000
# 3 37.5073 44.6135 128.9778 0.0000 0.0000 0.0000
# 4 0.0000 0.0000 0.0000 13.9009 0.0000 0.0000
# 5 0.0000 0.0000 0.0000 0.0000 2.1155 0.0000
# 6 0.0000 0.0000 0.0000 0.0000 0.0000 16.2465
#
#
#
# Elastic Compliance Matrix: (Units=1/GPa)
#
#
# Indices 1 2 3 4 5 6 
#
# 1 0.024660 -0.016764 -0.001373 0.000000 0.000000 0.000000
# 2 -0.016764 0.066174 -0.018015 0.000000 0.000000 0.000000
# 3 -0.001373 -0.018015 0.014384 0.000000 0.000000 0.000000
# 4 0.000000 0.000000 0.000000 0.071938 0.000000 0.000000
# 5 0.000000 0.000000 0.000000 0.000000 0.472705 0.000000
# 6 0.000000 0.000000 0.000000 0.000000 0.000000 0.061552
#
#
# Mechanical properties :
#
#
# Convention : Reuss Voigt Hill
#
# Bulk Modulus (GPa) = 30.38103 48.61901 39.50002
# Shear Modulus (GPa) = 6.29179 14.12299 10.20739
#
# Velocity S-wave (km/s) = 2.00294 3.00085 2.55116
# Velocity P-wave (km/s) = 4.97198 6.55799 5.81927
#
# Compressibility (1/GPa) = 0.03291528
#
# Stress axis : x y z
#
# Youngs Moduli (GPa) = 40.55191 15.11169 69.52336
#
# Poissons Ratio (x) = 0.25333 0.09542
# Poissons Ratio (y) = 0.67981 1.25243
# Poissons Ratio (z) = 0.05566 0.27223
#
# Static dielectric constant tensor:
#      x y z
#    x 1.510040 0.000000 0.000000 
#    y 0.000000 1.528620 0.000000 
#    z 0.000000 0.000000 1.516100 
# 
# From -- ./inp_files/28446.got.cif
#   From: 2010.05.17/outbox.cif.g08.bks.cpg/sg59_15_cif.got.tgz:28446.got - 2010.06.03 14:40:33.
