data_PCOD9447932
_publ_section_title
;
Structure prediction by ZEFSAII (Michael W. Deem and Ramdas Pophale) SiO2 
 PCOD9447932
Probable space group: P M M N
;
_chemical_formula_sum "Si O2"
_cell_formula_units_Z 64
_cell_length_a 7.525477
_cell_length_b 20.184775
_cell_length_c 20.918775
_cell_angle_alpha 90.000000
_cell_angle_beta 90.000000
_cell_angle_gamma 90.000000
_cell_volume 3177.563178
_symmetry_space_group_name_H-M "P M M N"
_symmetry_group_IT_number 59
_space_group.IT_coordinate_system_code '2'
_symmetry_cell_setting 'orthorhombic'
loop_
_space_group_symop_operation_xyz
x,y,z
1/2-x,1/2-y,z
1/2+x,-y,-z
-x,1/2+y,-z
-x,-y,-z
1/2+x,1/2+y,-z
1/2-x,y,z
x,1/2-y,z
loop_
_atom_site_type_symbol
_atom_site_label
_atom_site_fract_x
_atom_site_fract_y
_atom_site_fract_z
Si Si1 0.532083 0.173214 0.606837
Si Si2 0.464127 0.825446 0.672125
Si Si3 0.959966 0.941357 0.769347
Si Si4 0.454797 0.830504 0.533491
Si Si5 0.952277 0.104536 0.962590
Si Si6 0.532498 0.324435 0.841287
Si Si7 0.032979 0.583006 0.275348
Si Si8 0.542403 0.462849 0.085942
O O1 0.750000 0.173486 0.605360
O O2 0.480610 0.250000 0.619225
O O3 0.468777 0.152451 0.535881
O O4 0.474945 0.123047 0.661962
O O5 0.250000 0.822340 0.666546
O O6 0.526168 0.750000 0.684007
O O7 0.506012 0.876388 0.727865
O O8 0.532890 0.849323 0.602353
O O9 0.750000 0.949588 0.776236
O O10 0.029918 0.939341 0.841604
O O11 0.027149 0.007381 0.733170
O O12 0.250000 0.853663 0.532760
O O13 0.452385 0.750000 0.534502
O O14 0.750000 0.127078 0.973568
O O15 0.033135 0.154619 0.911449
O O16 0.029143 0.088009 0.032310
O O17 0.952310 0.033770 0.925692
O O18 0.750000 0.326771 0.842690
O O19 0.480965 0.250000 0.824478
O O20 0.476906 0.376201 0.787368
O O21 0.250000 0.583308 0.277048
O O22 0.750000 0.473746 0.070496
#
# Coordination Sequence:
#
# PCOD9447932 Si02
#       8
#     8   8   8   8   8   8   8   8
#     4   8  12  20  38  66  97 127 161 199 239 281
#     4   9  18  34  54  73  93 120 159 205 249 296
#     4  11  21  33  49  71 102 131 159 201 246 294
#     4   7  11  22  42  66  91 120 155 198 243 285
#     4   9  17  31  49  72  97 122 163 210 247 285
#     4   9  15  25  44  69  98 129 160 197 240 281
#     4   9  16  25  39  65 100 132 160 195 236 280
#     4  10  19  31  50  71  94 128 167 203 244 293
#
# _framework density 20.141219
#
# number of rings (size 3 to 8) (size 9 to 14) (size 15 to 20)
#    0.000    3.000    1.250    2.625    0.000    2.250 
#    0.000    1.250    0.000    2.625    0.000    0.875 
#    0.000    2.000    0.000    0.000    0.000    0.000 
#
# Total GULP energy -356689.884590 kJ/mol
# GULP energy per Si atom -5573.279447 kJ/mol
# Density = 2.009538 g / cm^3
# Si number density = 20.141219 Si / 1000 Ang^3
#
#
#
# Elastic Constant Matrix: (Units=GPa)
#
#
# Indices 1 2 3 4 5 6 
#
# 1 54.7061 -2.8497 -2.5309 0.0000 0.0000 0.0000
# 2 -2.8497 88.2567 65.4812 0.0000 0.0000 0.0000
# 3 -2.5309 65.4812 167.2316 0.0000 0.0000 0.0000
# 4 0.0000 0.0000 0.0000 32.3951 0.0000 0.0000
# 5 0.0000 0.0000 0.0000 0.0000 -5.4178 0.0000
# 6 0.0000 0.0000 0.0000 0.0000 0.0000 7.2372
#
#
#
# Elastic Compliance Matrix: (Units=1/GPa)
#
#
# Indices 1 2 3 4 5 6 
#
# 1 0.018311 0.000544 0.000064 0.000000 0.000000 0.000000
# 2 0.000544 0.015986 -0.006251 0.000000 0.000000 0.000000
# 3 0.000064 -0.006251 0.008428 0.000000 0.000000 0.000000
# 4 0.000000 0.000000 0.000000 0.030869 0.000000 0.000000
# 5 0.000000 0.000000 0.000000 0.000000 -0.184577 0.000000
# 6 0.000000 0.000000 0.000000 0.000000 0.000000 0.138175
#
#
# Mechanical properties :
#
#
# Convention : Reuss Voigt Hill
#
# Bulk Modulus (GPa) = 31.80814 47.82173 39.81493
# Shear Modulus (GPa) = 102.12561 23.51582 62.82071
#
# Velocity S-wave (km/s) = 7.12845 3.42065 5.59087
# Velocity P-wave (km/s) = 9.14221 6.27661 7.84142
#
# Compressibility (1/GPa) = 0.03143849
#
# Stress axis : x y z
#
# Youngs Moduli (GPa) = 54.61262 62.55364 118.64527
#
# Poissons Ratio (x) = -0.03400 -0.00763
# Poissons Ratio (y) = -0.02968 0.74169
# Poissons Ratio (z) = -0.00351 0.39105
#
# Static dielectric constant tensor:
#      x y z
#    x 1.771470 0.000000 0.000000 
#    y 0.000000 1.678480 0.000000 
#    z 0.000000 0.000000 1.740240 
# 
# From -- ./inp_files/29709.got.cif
#   From: 2010.05.17/outbox.cif.g08.bks.cpg/sg59_15_cif.got.tgz:29709.got - 2010.06.03 14:40:33.
