data_PCOD9447642
_publ_section_title
;
Structure prediction by ZEFSAII (Michael W. Deem and Ramdas Pophale) SiO2 
 PCOD9447642
Probable space group: P M M N
;
_chemical_formula_sum "Si O2"
_cell_formula_units_Z 64
_cell_length_a 29.111705
_cell_length_b 8.733296
_cell_length_c 16.149217
_cell_angle_alpha 90.000000
_cell_angle_beta 90.000000
_cell_angle_gamma 90.000000
_cell_volume 4105.795289
_symmetry_space_group_name_H-M "P M M N"
_symmetry_group_IT_number 59
_space_group.IT_coordinate_system_code '2'
_symmetry_cell_setting 'orthorhombic'
loop_
_space_group_symop_operation_xyz
x,y,z
1/2-x,1/2-y,z
1/2+x,-y,-z
-x,1/2+y,-z
-x,-y,-z
1/2+x,1/2+y,-z
1/2-x,y,z
x,1/2-y,z
loop_
_atom_site_type_symbol
_atom_site_label
_atom_site_fract_x
_atom_site_fract_y
_atom_site_fract_z
Si Si1 0.945471 0.566010 0.319088
Si Si2 0.551388 0.934098 0.500746
Si Si3 0.197566 0.566827 0.095794
Si Si4 0.108606 0.566705 0.835738
Si Si5 0.197468 0.067200 0.911532
Si Si6 0.048702 0.435193 0.318065
Si Si7 0.448740 0.566087 0.000402
Si Si8 0.893692 0.933668 0.843036
O O1 0.945049 0.750000 0.313056
O O2 0.928316 0.519667 0.411700
O O3 0.915115 0.495654 0.246638
O O4 0.998052 0.507869 0.310487
O O5 0.549365 0.750000 0.499368
O O6 0.569646 0.977862 0.591720
O O7 0.500000 0.000000 0.500000
O O8 0.250000 0.527490 0.119601
O O9 0.192878 0.750000 0.095522
O O10 0.158244 0.493413 0.151603
O O11 0.190489 0.506493 0.002184
O O12 0.110979 0.750000 0.833038
O O13 0.158923 0.498378 0.851337
O O14 0.077586 0.523577 0.915668
O O15 0.250000 0.032952 0.886106
O O16 0.192630 0.250000 0.918796
O O17 0.043348 0.250000 0.315879
O O18 0.080484 0.479739 0.241249
O O19 0.450325 0.750000 0.005228
O O20 0.420988 0.501638 0.078659
O O21 0.500000 0.500000 0.000000
O O22 0.894150 0.750000 0.848779
#
# Coordination Sequence:
#
# PCOD9447642 Si02
#       8
#     8   8   8   8   8   8   8   8
#     4  10  19  30  48  72  96 127 164 202 239 280
#     4   8  15  29  47  67  93 123 157 198 242 283
#     4  10  20  34  51  70  94 124 157 196 242 286
#     4  11  22  34  48  68  96 131 163 194 238 285
#     4  10  20  34  53  74  94 119 156 201 242 282
#     4   9  18  32  48  69  98 129 160 197 241 288
#     4  11  23  35  46  63  93 132 167 197 232 277
#     4  11  21  32  49  71  95 126 162 198 237 281
#
# _framework density 15.587724
#
# number of rings (size 3 to 8) (size 9 to 14) (size 15 to 20)
#    0.000    2.000    1.250    3.000    0.000    7.500 
#    0.000    0.000    0.000    0.000    0.000    0.875 
#    0.000    3.000    0.000    0.000    0.000    0.000 
#
# Total GULP energy -356941.540896 kJ/mol
# GULP energy per Si atom -5577.211576 kJ/mol
# Density = 1.555225 g / cm^3
# Si number density = 15.587724 Si / 1000 Ang^3
#
#
#
# Elastic Constant Matrix: (Units=GPa)
#
#
# Indices 1 2 3 4 5 6 
#
# 1 97.1299 31.9052 61.5254 0.0000 0.0000 0.0000
# 2 31.9052 34.9582 36.7206 0.0000 0.0000 0.0000
# 3 61.5254 36.7206 138.2629 0.0000 0.0000 0.0000
# 4 0.0000 0.0000 0.0000 13.7874 0.0000 0.0000
# 5 0.0000 0.0000 0.0000 0.0000 7.6231 0.0000
# 6 0.0000 0.0000 0.0000 0.0000 0.0000 26.7594
#
#
#
# Elastic Compliance Matrix: (Units=1/GPa)
#
#
# Indices 1 2 3 4 5 6 
#
# 1 0.016628 -0.010268 -0.004672 0.000000 0.000000 0.000000
# 2 -0.010268 0.046014 -0.007652 0.000000 0.000000 0.000000
# 3 -0.004672 -0.007652 0.011344 0.000000 0.000000 0.000000
# 4 0.000000 0.000000 0.000000 0.072530 0.000000 0.000000
# 5 0.000000 0.000000 0.000000 0.000000 0.131179 0.000000
# 6 0.000000 0.000000 0.000000 0.000000 0.000000 0.037370
#
#
# Mechanical properties :
#
#
# Convention : Reuss Voigt Hill
#
# Bulk Modulus (GPa) = 34.71938 58.96147 46.84043
# Shear Modulus (GPa) = 13.51903 18.98064 16.24983
#
# Velocity S-wave (km/s) = 2.94817 3.49329 3.23224
# Velocity P-wave (km/s) = 5.82330 7.36060 6.63661
#
# Compressibility (1/GPa) = 0.02880236
#
# Stress axis : x y z
#
# Youngs Moduli (GPa) = 60.14018 21.73253 88.15389
#
# Poissons Ratio (x) = 0.22315 0.41187
# Poissons Ratio (y) = 0.61751 0.67451
# Poissons Ratio (z) = 0.28099 0.16629
#
# Static dielectric constant tensor:
#      x y z
#    x 1.499770 0.000000 0.000000 
#    y 0.000000 1.521360 0.000000 
#    z 0.000000 0.000000 1.534320 
# 
# From -- ./inp_files/21807.got.cif
#   From: 2010.05.17/outbox.cif.g08.bks.cpg/sg59_11_cif.got.tgz:21807.got - 2010.06.03 14:40:33.
