data_PCOD9447854
_publ_section_title
;
Structure prediction by ZEFSAII (Michael W. Deem and Ramdas Pophale) SiO2 
 PCOD9447854
Probable space group: P M M N
;
_chemical_formula_sum "Si O2"
_cell_formula_units_Z 64
_cell_length_a 8.622781
_cell_length_b 25.135763
_cell_length_c 15.603268
_cell_angle_alpha 90.000000
_cell_angle_beta 90.000000
_cell_angle_gamma 90.000000
_cell_volume 3381.855109
_symmetry_space_group_name_H-M "P M M N"
_symmetry_group_IT_number 59
_space_group.IT_coordinate_system_code '2'
_symmetry_cell_setting 'orthorhombic'
loop_
_space_group_symop_operation_xyz
x,y,z
1/2-x,1/2-y,z
1/2+x,-y,-z
-x,1/2+y,-z
-x,-y,-z
1/2+x,1/2+y,-z
1/2-x,y,z
x,1/2-y,z
loop_
_atom_site_type_symbol
_atom_site_label
_atom_site_fract_x
_atom_site_fract_y
_atom_site_fract_z
Si Si1 0.436301 0.808228 0.428685
Si Si2 0.562685 0.614747 0.785757
Si Si3 0.424553 0.545198 0.555747
Si Si4 0.061107 0.189163 0.059411
Si Si5 0.564755 0.686979 0.135834
Si Si6 0.422866 0.502942 0.748544
Si Si7 0.066301 0.887177 0.281760
Si Si8 0.430279 0.152340 0.400731
O O1 0.250000 0.809396 0.424513
O O2 0.488819 0.750000 0.395620
O O3 0.492846 0.856961 0.368355
O O4 0.484945 0.812534 0.528119
O O5 0.750000 0.614730 0.782099
O O6 0.509446 0.648663 0.867407
O O7 0.509486 0.553350 0.790789
O O8 0.510641 0.644286 0.697140
O O9 0.500000 0.500000 0.500000
O O10 0.250000 0.560970 0.526808
O O11 0.411720 0.522374 0.650727
O O12 0.541417 0.594025 0.560058
O O13 0.250000 0.189571 0.060881
O O14 0.011140 0.250000 0.076474
O O15 0.017648 0.174445 0.962269
O O16 0.750000 0.677182 0.144288
O O17 0.539713 0.750000 0.148332
O O18 0.474386 0.652616 0.204691
O O19 0.250000 0.498078 0.785368
O O20 0.498192 0.444840 0.741916
O O21 0.250000 0.893738 0.291129
O O22 0.250000 0.167114 0.397268
#
# Coordination Sequence:
#
# PCOD9447854 Si02
#       8
#     8   8   8   8   8   8   8   8
#     4  10  22  38  53  72 103 142 179 218 267 319
#     4   9  18  34  56  81 110 142 176 215 258 307
#     4  10  19  31  49  71  96 129 169 214 258 301
#     4   8  15  31  57  85 109 135 169 210 259 315
#     4   9  18  34  57  83 108 135 170 214 265 319
#     4  10  21  35  51  74 105 139 177 219 263 313
#     4  11  22  36  55  77 103 138 180 223 268 316
#     4  10  20  32  49  75 104 135 171 210 252 300
#
# _framework density 18.924524000000002
#
# number of rings (size 3 to 8) (size 9 to 14) (size 15 to 20)
#    0.000    2.375    0.000    3.375    0.000    6.500 
#    0.000    2.500    0.000    1.125    0.000    0.000 
#    0.000    0.000    0.000    0.000    0.000    0.000 
#
# Total GULP energy -356639.308089 kJ/mol
# GULP energy per Si atom -5572.489189 kJ/mol
# Density = 1.888145 g / cm^3
# Si number density = 18.924524 Si / 1000 Ang^3
#
#
#
# Elastic Constant Matrix: (Units=GPa)
#
#
# Indices 1 2 3 4 5 6 
#
# 1 21.3108 11.8315 11.4114 0.0000 0.0000 0.0000
# 2 11.8315 78.2402 44.0406 0.0000 0.0000 0.0000
# 3 11.4114 44.0406 78.8482 0.0000 0.0000 0.0000
# 4 0.0000 0.0000 0.0000 33.4011 0.0000 0.0000
# 5 0.0000 0.0000 0.0000 0.0000 18.6297 0.0000
# 6 0.0000 0.0000 0.0000 0.0000 0.0000 21.0098
#
#
#
# Elastic Compliance Matrix: (Units=1/GPa)
#
#
# Indices 1 2 3 4 5 6 
#
# 1 0.052345 -0.005326 -0.004601 0.000000 0.000000 0.000000
# 2 -0.005326 0.019184 -0.009945 0.000000 0.000000 0.000000
# 3 -0.004601 -0.009945 0.018903 0.000000 0.000000 0.000000
# 4 0.000000 0.000000 0.000000 0.029939 0.000000 0.000000
# 5 0.000000 0.000000 0.000000 0.000000 0.053678 0.000000
# 6 0.000000 0.000000 0.000000 0.000000 0.000000 0.047597
#
#
# Mechanical properties :
#
#
# Convention : Reuss Voigt Hill
#
# Bulk Modulus (GPa) = 19.72791 34.77402 27.25097
# Shear Modulus (GPa) = 17.96718 22.01583 19.99151
#
# Velocity S-wave (km/s) = 3.08460 3.41449 3.25373
# Velocity P-wave (km/s) = 4.80973 5.82752 5.34291
#
# Compressibility (1/GPa) = 0.05068960
#
# Stress axis : x y z
#
# Youngs Moduli (GPa) = 19.10402 52.12624 52.90166
#
# Poissons Ratio (x) = 0.27761 0.24340
# Poissons Ratio (y) = 0.10174 0.52608
# Poissons Ratio (z) = 0.08790 0.51837
#
# Static dielectric constant tensor:
#      x y z
#    x 1.673660 0.000000 0.000000 
#    y 0.000000 1.647100 0.000000 
#    z 0.000000 0.000000 1.657320 
# 
# From -- ./inp_files/21442.got.cif
#   From: 2010.05.17/outbox.cif.g08.bks.cpg/sg59_11_cif.got.tgz:21442.got - 2010.06.03 14:40:33.
