data_PCOD9447934
_publ_section_title
;
Structure prediction by ZEFSAII (Michael W. Deem and Ramdas Pophale) SiO2 
 PCOD9447934
Probable space group: P M M N
;
_chemical_formula_sum "Si O2"
_cell_formula_units_Z 64
_cell_length_a 19.206687
_cell_length_b 7.523693
_cell_length_c 21.629464
_cell_angle_alpha 90.000000
_cell_angle_beta 90.000000
_cell_angle_gamma 90.000000
_cell_volume 3125.570379
_symmetry_space_group_name_H-M "P M M N"
_symmetry_group_IT_number 59
_space_group.IT_coordinate_system_code '2'
_symmetry_cell_setting 'orthorhombic'
loop_
_space_group_symop_operation_xyz
x,y,z
1/2-x,1/2-y,z
1/2+x,-y,-z
-x,1/2+y,-z
-x,-y,-z
1/2+x,1/2+y,-z
1/2-x,y,z
x,1/2-y,z
loop_
_atom_site_type_symbol
_atom_site_label
_atom_site_fract_x
_atom_site_fract_y
_atom_site_fract_z
Si Si1 0.557758 0.542362 0.606022
Si Si2 0.829578 0.968193 0.506236
Si Si3 0.397050 0.044436 0.619134
Si Si4 0.583753 0.962915 0.246524
Si Si5 0.834841 0.041794 0.991688
Si Si6 0.573874 0.465204 0.745088
Si Si7 0.829056 0.036490 0.124824
Si Si8 0.169468 0.532197 0.142772
O O1 0.546524 0.750000 0.593173
O O2 0.613161 0.472927 0.556404
O O3 0.480308 0.460238 0.605796
O O4 0.588448 0.521847 0.674971
O O5 0.750000 0.021668 0.518976
O O6 0.830627 0.750000 0.507075
O O7 0.855251 0.030795 0.438807
O O8 0.375194 0.250000 0.622444
O O9 0.387194 0.966662 0.687911
O O10 0.580097 0.750000 0.253439
O O11 0.504523 0.026373 0.240395
O O12 0.626881 0.998982 0.185359
O O13 0.750000 0.033537 0.992217
O O14 0.854286 0.250000 0.990873
O O15 0.857087 0.967794 0.058423
O O16 0.856560 0.969007 0.924815
O O17 0.575128 0.250000 0.745410
O O18 0.625246 0.527098 0.798654
O O19 0.750000 0.970897 0.133127
O O20 0.825608 0.250000 0.118603
O O21 0.250000 0.480932 0.149465
O O22 0.167835 0.750000 0.141391
#
# Coordination Sequence:
#
# PCOD9447934 Si02
#       8
#     8   8   8   8   8   8   8   8
#     4  10  19  31  50  72  94 123 155 187 225 272
#     4   9  18  32  50  73  98 122 151 188 229 272
#     4   9  18  34  54  70  88 121 160 192 222 264
#     4   9  18  30  44  65  92 121 151 185 225 268
#     4   7  11  22  41  65  89 113 147 188 227 268
#     4   9  18  32  48  68  95 123 153 189 226 267
#     4   9  17  29  46  67  90 117 150 190 232 272
#     4   8  13  24  46  71  90 114 153 196 229 260
#
# _framework density 20.476262999999999
#
# number of rings (size 3 to 8) (size 9 to 14) (size 15 to 20)
#    0.000    3.250    0.000    3.000    0.000    3.250 
#    0.000    2.500    0.000    3.750    0.000    1.750 
#    0.000    0.000    0.000    0.000    0.000    0.000 
#
# Total GULP energy -356652.938209 kJ/mol
# GULP energy per Si atom -5572.702160 kJ/mol
# Density = 2.042966 g / cm^3
# Si number density = 20.476263 Si / 1000 Ang^3
#
#
#
# Elastic Constant Matrix: (Units=GPa)
#
#
# Indices 1 2 3 4 5 6 
#
# 1 23.6725 -8.3395 31.7312 0.0000 0.0000 0.0000
# 2 -8.3395 48.8695 -8.5103 0.0000 0.0000 0.0000
# 3 31.7312 -8.5103 112.9639 0.0000 0.0000 0.0000
# 4 0.0000 0.0000 0.0000 39.9639 0.0000 0.0000
# 5 0.0000 0.0000 0.0000 0.0000 41.5324 0.0000
# 6 0.0000 0.0000 0.0000 0.0000 0.0000 6.4394
#
#
#
# Elastic Compliance Matrix: (Units=1/GPa)
#
#
# Indices 1 2 3 4 5 6 
#
# 1 0.071299 0.008795 -0.019365 0.000000 0.000000 0.000000
# 2 0.008795 0.021820 -0.000827 0.000000 0.000000 0.000000
# 3 -0.019365 -0.000827 0.014230 0.000000 0.000000 0.000000
# 4 0.000000 0.000000 0.000000 0.025023 0.000000 0.000000
# 5 0.000000 0.000000 0.000000 0.000000 0.024078 0.000000
# 6 0.000000 0.000000 0.000000 0.000000 0.000000 0.155294
#
#
# Mechanical properties :
#
#
# Convention : Reuss Voigt Hill
#
# Bulk Modulus (GPa) = 11.82673 23.91873 17.87273
# Shear Modulus (GPa) = 13.78468 28.96208 21.37338
#
# Velocity S-wave (km/s) = 2.59743 3.76496 3.23431
# Velocity P-wave (km/s) = 3.84498 5.53231 4.76395
#
# Compressibility (1/GPa) = 0.08455424
#
# Stress axis : x y z
#
# Youngs Moduli (GPa) = 14.02546 45.83050 70.27556
#
# Poissons Ratio (x) = -0.40307 1.36089
# Poissons Ratio (y) = -0.12335 0.05809
# Poissons Ratio (z) = 0.27160 0.03788
#
# Static dielectric constant tensor:
#      x y z
#    x 1.689840 0.000000 0.000000 
#    y 0.000000 1.777010 0.000000 
#    z 0.000000 0.000000 1.759080 
# 
# From -- ./inp_files/30716.got.cif
#   From: 2010.05.17/outbox.cif.g08.bks.cpg/sg59_16_cif.got.tgz:30716.got - 2010.06.03 14:40:33.
