data_PCOD9447286
_publ_section_title
;
Structure prediction by ZEFSAII (Michael W. Deem and Ramdas Pophale) SiO2 
 PCOD9447286
Probable space group: P M M N
;
_chemical_formula_sum "Si O2"
_cell_formula_units_Z 64
_cell_length_a 7.993320
_cell_length_b 31.788811
_cell_length_c 12.371383
_cell_angle_alpha 90.000000
_cell_angle_beta 90.000000
_cell_angle_gamma 90.000000
_cell_volume 3143.545394
_symmetry_space_group_name_H-M "P M M N"
_symmetry_group_IT_number 59
_space_group.IT_coordinate_system_code '2'
_symmetry_cell_setting 'orthorhombic'
loop_
_space_group_symop_operation_xyz
x,y,z
1/2-x,1/2-y,z
1/2+x,-y,-z
-x,1/2+y,-z
-x,-y,-z
1/2+x,1/2+y,-z
1/2-x,y,z
x,1/2-y,z
loop_
_atom_site_type_symbol
_atom_site_label
_atom_site_fract_x
_atom_site_fract_y
_atom_site_fract_z
Si Si1 0.545014 0.203828 0.987481
Si Si2 0.950679 0.047185 0.970962
Si Si3 0.552211 0.912604 0.251994
Si Si4 0.450723 0.623112 0.878285
Si Si5 0.555157 0.317901 0.750411
Si Si6 0.952547 0.203271 0.511660
Si Si7 0.048523 0.452287 0.522914
Si Si8 0.949119 0.877313 0.629278
O O1 0.750000 0.202017 0.985390
O O2 0.498211 0.250000 0.029177
O O3 0.486407 0.164736 0.059440
O O4 0.485346 0.199063 0.863486
O O5 0.750000 0.049751 0.964862
O O6 0.022282 0.060891 0.855549
O O7 0.010437 0.081145 0.060110
O O8 0.000000 0.000000 0.000000
O O9 0.750000 0.903652 0.263352
O O10 0.459638 0.868187 0.243947
O O11 0.493702 0.937247 0.358380
O O12 0.250000 0.623451 0.888290
O O13 0.491086 0.623719 0.752223
O O14 0.750000 0.305238 0.749009
O O15 0.484488 0.303598 0.634893
O O16 0.750000 0.202211 0.514398
O O17 0.003624 0.250000 0.474547
O O18 0.006643 0.164968 0.436066
O O19 0.250000 0.450488 0.521755
O O20 0.984836 0.418155 0.435846
O O21 0.000000 0.500000 0.500000
O O22 0.750000 0.880601 0.631298
#
# Coordination Sequence:
#
# PCOD9447286 Si02
#       8
#     8   8   8   8   8   8   8   8
#     4   9  17  33  59  88 117 149 188 238 293 345
#     4  11  24  42  63  91 122 156 199 244 297 353
#     4  11  22  39  62  90 123 157 194 243 298 356
#     4  10  22  40  60  86 118 155 199 245 291 347
#     4  10  18  34  60  91 121 153 194 244 295 348
#     4  10  21  37  61  92 121 155 202 249 296 356
#     4  10  24  42  61  87 118 155 199 246 298 355
#     4  11  24  42  60  85 120 159 200 246 301 357
#
# _framework density 20.359176999999999
#
# number of rings (size 3 to 8) (size 9 to 14) (size 15 to 20)
#    0.000    1.750    2.500    1.500    1.750    5.250 
#    0.000    1.250    0.000    1.875    0.000    0.000 
#    0.000    0.000    0.000    0.000    0.000    0.000 
#
# Total GULP energy -357537.553121 kJ/mol
# GULP energy per Si atom -5586.524268 kJ/mol
# Density = 2.031284 g / cm^3
# Si number density = 20.359177 Si / 1000 Ang^3
#
#
#
# Elastic Constant Matrix: (Units=GPa)
#
#
# Indices 1 2 3 4 5 6 
#
# 1 20.6552 2.0252 4.8130 0.0000 0.0000 0.0000
# 2 2.0252 192.9216 94.8539 0.0000 0.0000 0.0000
# 3 4.8130 94.8539 168.2219 0.0000 0.0000 0.0000
# 4 0.0000 0.0000 0.0000 49.5491 0.0000 0.0000
# 5 0.0000 0.0000 0.0000 0.0000 15.9467 0.0000
# 6 0.0000 0.0000 0.0000 0.0000 0.0000 14.7230
#
#
#
# Elastic Compliance Matrix: (Units=1/GPa)
#
#
# Indices 1 2 3 4 5 6 
#
# 1 0.048747 0.000241 -0.001530 0.000000 0.000000 0.000000
# 2 0.000241 0.007173 -0.004051 0.000000 0.000000 0.000000
# 3 -0.001530 -0.004051 0.008273 0.000000 0.000000 0.000000
# 4 0.000000 0.000000 0.000000 0.020182 0.000000 0.000000
# 5 0.000000 0.000000 0.000000 0.000000 0.062709 0.000000
# 6 0.000000 0.000000 0.000000 0.000000 0.000000 0.067921
#
#
# Mechanical properties :
#
#
# Convention : Reuss Voigt Hill
#
# Bulk Modulus (GPa) = 18.68798 65.02032 41.85415
# Shear Modulus (GPa) = 20.53192 34.71753 27.62472
#
# Velocity S-wave (km/s) = 3.17911 4.13395 3.68757
# Velocity P-wave (km/s) = 4.76180 7.40216 6.22361
#
# Compressibility (1/GPa) = 0.05351032
#
# Stress axis : x y z
#
# Youngs Moduli (GPa) = 20.51414 139.41393 120.87881
#
# Poissons Ratio (x) = -0.03356 0.18500
# Poissons Ratio (y) = -0.00494 0.48973
# Poissons Ratio (z) = 0.03140 0.56482
#
# Static dielectric constant tensor:
#      x y z
#    x 1.752900 0.000000 0.000000 
#    y 0.000000 1.700640 0.000000 
#    z 0.000000 0.000000 1.693440 
# 
# From -- ./inp_files/14900.got.cif
#   From: 2010.05.17/outbox.cif.g08.bks.cpg/sg59_8_cif.got.tgz:14900.got - 2010.06.03 14:40:33.
