data_PCOD9447761
_publ_section_title
;
Structure prediction by ZEFSAII (Michael W. Deem and Ramdas Pophale) SiO2 
 PCOD9447761
Probable space group: P M M N
;
_chemical_formula_sum "Si O2"
_cell_formula_units_Z 64
_cell_length_a 19.185716
_cell_length_b 8.909200
_cell_length_c 20.503398
_cell_angle_alpha 90.000000
_cell_angle_beta 90.000000
_cell_angle_gamma 90.000000
_cell_volume 3504.633128
_symmetry_space_group_name_H-M "P M M N"
_symmetry_group_IT_number 59
_space_group.IT_coordinate_system_code '2'
_symmetry_cell_setting 'orthorhombic'
loop_
_space_group_symop_operation_xyz
x,y,z
1/2-x,1/2-y,z
1/2+x,-y,-z
-x,1/2+y,-z
-x,-y,-z
1/2+x,1/2+y,-z
1/2-x,y,z
x,1/2-y,z
loop_
_atom_site_type_symbol
_atom_site_label
_atom_site_fract_x
_atom_site_fract_y
_atom_site_fract_z
Si Si1 0.914740 0.570205 0.448709
Si Si2 0.062272 0.427417 0.411128
Si Si3 0.562521 0.929319 0.860035
Si Si4 0.073848 0.428103 0.915603
Si Si5 0.829278 0.932666 0.964347
Si Si6 0.462915 0.924957 0.279766
Si Si7 0.670692 0.077538 0.186386
Si Si8 0.871383 0.576029 0.311393
O O1 0.931927 0.750000 0.445679
O O2 0.893673 0.537691 0.523258
O O3 0.863412 0.542833 0.388215
O O4 0.984115 0.476426 0.432220
O O5 0.064720 0.250000 0.399617
O O6 0.076111 0.510677 0.343391
O O7 0.558345 0.750000 0.857892
O O8 0.634006 0.973160 0.896320
O O9 0.499116 0.990232 0.904263
O O10 0.554428 0.992468 0.787380
O O11 0.062341 0.250000 0.920399
O O12 0.120559 0.467223 0.852718
O O13 0.119450 0.480764 0.977270
O O14 0.750000 0.986849 0.971207
O O15 0.827258 0.750000 0.967650
O O16 0.447953 0.750000 0.272233
O O17 0.545883 0.938959 0.294890
O O18 0.750000 0.062246 0.163023
O O19 0.648090 0.250000 0.177302
O O20 0.666993 0.032691 0.261978
O O21 0.851748 0.750000 0.299669
#
# Coordination Sequence:
#
# PCOD9447761 Si02
#       8
#     8   8   8   8   8   8   8   8
#     4   8  15  26  40  62  94 129 166 208 254 305
#     4   9  15  24  41  66  96 130 166 207 255 304
#     4  11  21  34  56  82 107 137 173 218 264 308
#     4  11  21  36  58  80 105 139 173 211 260 318
#     4   9  20  38  58  81 107 136 173 214 259 314
#     4  10  19  31  47  71 104 136 169 211 256 310
#     4  11  23  35  48  71 103 137 178 226 267 310
#     4   9  17  30  47  66  94 134 173 213 258 310
#
# _framework density 18.261541000000001
#
# number of rings (size 3 to 8) (size 9 to 14) (size 15 to 20)
#    0.000    2.250    1.250    3.375    0.000    4.000 
#    0.000    1.875    0.000    4.500    0.000    0.875 
#    0.000    3.000    0.000    0.000    0.000    0.000 
#
# Total GULP energy -356803.856939 kJ/mol
# GULP energy per Si atom -5575.060265 kJ/mol
# Density = 1.821998 g / cm^3
# Si number density = 18.261541 Si / 1000 Ang^3
#
#
#
# Elastic Constant Matrix: (Units=GPa)
#
#
# Indices 1 2 3 4 5 6 
#
# 1 37.6287 14.2867 41.7963 0.0000 0.0000 0.0000
# 2 14.2867 44.9090 35.3531 0.0000 0.0000 0.0000
# 3 41.7963 35.3531 122.0584 0.0000 0.0000 0.0000
# 4 0.0000 0.0000 0.0000 19.6076 0.0000 0.0000
# 5 0.0000 0.0000 0.0000 0.0000 6.6830 0.0000
# 6 0.0000 0.0000 0.0000 0.0000 0.0000 8.9560
#
#
#
# Elastic Compliance Matrix: (Units=1/GPa)
#
#
# Indices 1 2 3 4 5 6 
#
# 1 0.043142 -0.002714 -0.013987 0.000000 0.000000 0.000000
# 2 -0.002714 0.029015 -0.007475 0.000000 0.000000 0.000000
# 3 -0.013987 -0.007475 0.015147 0.000000 0.000000 0.000000
# 4 0.000000 0.000000 0.000000 0.051001 0.000000 0.000000
# 5 0.000000 0.000000 0.000000 0.000000 0.149634 0.000000
# 6 0.000000 0.000000 0.000000 0.000000 0.000000 0.111656
#
#
# Mechanical properties :
#
#
# Convention : Reuss Voigt Hill
#
# Bulk Modulus (GPa) = 25.67177 43.05202 34.36189
# Shear Modulus (GPa) = 10.84764 14.59332 12.72048
#
# Velocity S-wave (km/s) = 2.43989 2.82995 2.64213
# Velocity P-wave (km/s) = 4.69316 5.85701 5.30709
#
# Compressibility (1/GPa) = 0.03895330
#
# Stress axis : x y z
#
# Youngs Moduli (GPa) = 23.17929 34.46529 66.01840
#
# Poissons Ratio (x) = 0.09353 0.92340
# Poissons Ratio (y) = 0.06290 0.49346
# Poissons Ratio (z) = 0.32421 0.25761
#
# Static dielectric constant tensor:
#      x y z
#    x 1.612630 0.000000 0.000000 
#    y 0.000000 1.614060 0.000000 
#    z 0.000000 0.000000 1.675880 
# 
# From -- ./inp_files/30797.got.cif
#   From: 2010.05.17/outbox.cif.g08.bks.cpg/sg59_16_cif.got.tgz:30797.got - 2010.06.03 14:40:33.
