data_PCOD9447989
_publ_section_title
;
Structure prediction by ZEFSAII (Michael W. Deem and Ramdas Pophale) SiO2 
 PCOD9447989
Probable space group: P M M N
;
_chemical_formula_sum "Si O2"
_cell_formula_units_Z 52
_cell_length_a 14.640177
_cell_length_b 17.410866
_cell_length_c 11.352813
_cell_angle_alpha 90.000000
_cell_angle_beta 90.000000
_cell_angle_gamma 90.000000
_cell_volume 2893.811144
_symmetry_space_group_name_H-M "P M M N"
_symmetry_group_IT_number 59
_space_group.IT_coordinate_system_code '2'
_symmetry_cell_setting 'orthorhombic'
loop_
_space_group_symop_operation_xyz
x,y,z
1/2-x,1/2-y,z
1/2+x,-y,-z
-x,1/2+y,-z
-x,-y,-z
1/2+x,1/2+y,-z
1/2-x,y,z
x,1/2-y,z
loop_
_atom_site_type_symbol
_atom_site_label
_atom_site_fract_x
_atom_site_fract_y
_atom_site_fract_z
Si Si1 0.947645 0.995803 0.378367
Si Si2 0.063666 0.334058 0.986726
Si Si3 0.355001 0.495986 0.005806
Si Si4 0.436725 0.888325 0.824935
Si Si5 0.250000 0.658598 0.342441
Si Si6 0.250000 0.668375 0.755934
Si Si7 0.750000 0.037341 0.437771
Si Si8 0.571322 0.100117 0.794146
O O1 0.997272 0.931128 0.299634
O O2 0.955130 0.074754 0.302217
O O3 0.841419 0.988265 0.415095
O O4 0.000000 0.000000 0.500000
O O5 0.103459 0.250000 0.968372
O O6 0.983946 0.349560 0.890014
O O7 0.131244 0.406061 0.985222
O O8 0.016278 0.340941 0.114702
O O9 0.250000 0.517438 0.987882
O O10 0.387217 0.527838 0.132272
O O11 0.416600 0.539341 0.910067
O O12 0.343399 0.840194 0.826766
O O13 0.250000 0.750000 0.377653
O O14 0.250000 0.592268 0.445680
O O15 0.342649 0.642019 0.267264
O O16 0.250000 0.750000 0.693007
O O17 0.250000 0.598575 0.667200
#
# Coordination Sequence:
#
# PCOD9447989 Si02
#       8
#     8   8   8   8   4   4   4   8
#     4  11  20  36  61  84 113 157 202 238 287 339
#     4  11  22  35  55  82 114 151 190 241 301 348
#     4  11  20  36  59  80 111 150 197 242 287 347
#     4  10  19  35  54  81 110 144 185 232 280 349
#     4  12  23  37  58  91 126 151 186 248 312 359
#     4  10  19  31  50  79 114 141 172 223 283 342
#     4  10  23  34  56  86 115 152 198 237 280 355
#     4  11  21  39  58  85 120 155 196 242 297 364
#
# _framework density 17.969382
#
# number of rings (size 3 to 8) (size 9 to 14) (size 15 to 20)
#    0.000    1.231    6.154    2.077    0.000    0.308 
#    0.000    2.308    0.000    0.000    0.000    0.000 
#    0.000    0.000    0.000    0.000    0.000    0.000 
#
# Total GULP energy -289824.921070 kJ/mol
# GULP energy per Si atom -5573.556174 kJ/mol
# Density = 1.792848 g / cm^3
# Si number density = 17.969382 Si / 1000 Ang^3
#
#
#
# Elastic Constant Matrix: (Units=GPa)
#
#
# Indices 1 2 3 4 5 6 
#
# 1 78.1107 16.8384 20.1949 0.0000 0.0000 0.0000
# 2 16.8384 92.3363 13.6612 0.0000 0.0000 0.0000
# 3 20.1949 13.6612 78.8534 0.0000 0.0000 0.0000
# 4 0.0000 0.0000 0.0000 8.2695 0.0000 0.0000
# 5 0.0000 0.0000 0.0000 0.0000 25.8183 0.0000
# 6 0.0000 0.0000 0.0000 0.0000 0.0000 17.3287
#
#
#
# Elastic Compliance Matrix: (Units=1/GPa)
#
#
# Indices 1 2 3 4 5 6 
#
# 1 0.014092 -0.002089 -0.003247 0.000000 0.000000 0.000000
# 2 -0.002089 0.011425 -0.001444 0.000000 0.000000 0.000000
# 3 -0.003247 -0.001444 0.013764 0.000000 0.000000 0.000000
# 4 0.000000 0.000000 0.000000 0.120926 0.000000 0.000000
# 5 0.000000 0.000000 0.000000 0.000000 0.038732 0.000000
# 6 0.000000 0.000000 0.000000 0.000000 0.000000 0.057708
#
#
# Mechanical properties :
#
#
# Convention : Reuss Voigt Hill
#
# Bulk Modulus (GPa) = 38.88177 38.96551 38.92364
# Shear Modulus (GPa) = 17.93518 23.52368 20.72943
#
# Velocity S-wave (km/s) = 3.16269 3.62207 3.40015
# Velocity P-wave (km/s) = 5.91791 6.26291 6.09285
#
# Compressibility (1/GPa) = 0.02571899
#
# Stress axis : x y z
#
# Youngs Moduli (GPa) = 70.96080 87.52987 72.65546
#
# Poissons Ratio (x) = 0.18289 0.23592
# Poissons Ratio (y) = 0.14827 0.10493
# Poissons Ratio (z) = 0.23042 0.12641
#
# Static dielectric constant tensor:
#      x y z
#    x 1.661620 0.000000 0.000000 
#    y 0.000000 1.647750 0.000000 
#    z 0.000000 0.000000 1.634810 
# 
# From -- ./inp_files/17138.got.cif
#   From: 2010.05.17/outbox.cif.g08.bks.cpg/sg59_9_cif.got.tgz:17138.got - 2010.06.03 14:40:33.
