data_PCOD9447083
_publ_section_title
;
Structure prediction by ZEFSAII (Michael W. Deem and Ramdas Pophale) SiO2 
 PCOD9447083
Probable space group: P M M N
;
_chemical_formula_sum "Si O2"
_cell_formula_units_Z 56
_cell_length_a 20.136626
_cell_length_b 7.512436
_cell_length_c 18.169640
_cell_angle_alpha 90.000000
_cell_angle_beta 90.000000
_cell_angle_gamma 90.000000
_cell_volume 2748.614364
_symmetry_space_group_name_H-M "P M M N"
_symmetry_group_IT_number 59
_space_group.IT_coordinate_system_code '2'
_symmetry_cell_setting 'orthorhombic'
loop_
_space_group_symop_operation_xyz
x,y,z
1/2-x,1/2-y,z
1/2+x,-y,-z
-x,1/2+y,-z
-x,-y,-z
1/2+x,1/2+y,-z
1/2-x,y,z
x,1/2-y,z
loop_
_atom_site_type_symbol
_atom_site_label
_atom_site_fract_x
_atom_site_fract_y
_atom_site_fract_z
Si Si1 0.434163 0.042667 0.692569
Si Si2 0.056417 0.538303 0.102280
Si Si3 0.919298 0.032031 0.735395
Si Si4 0.675102 0.968230 0.193163
Si Si5 0.326316 0.967927 0.396417
Si Si6 0.075215 0.538506 0.525033
Si Si7 0.909786 0.963533 0.057624
O O1 0.439531 0.250000 0.713085
O O2 0.508343 0.971492 0.706079
O O3 0.377308 0.968889 0.745568
O O4 0.415473 0.030843 0.607360
O O5 0.049506 0.750000 0.110841
O O6 0.085234 0.473244 0.179695
O O7 0.981907 0.468083 0.085488
O O8 0.097633 0.507305 0.028095
O O9 0.917810 0.250000 0.733610
O O10 0.862381 0.974945 0.678969
O O11 0.750000 0.028242 0.205980
O O12 0.676218 0.750000 0.194876
O O13 0.646651 0.023165 0.113734
O O14 0.250000 0.024854 0.401671
O O15 0.326562 0.750000 0.397190
O O16 0.372090 0.027439 0.464768
O O17 0.082506 0.750000 0.528485
O O18 0.000000 0.500000 0.500000
O O19 0.912316 0.750000 0.062380
#
# Coordination Sequence:
#
# PCOD9447083 Si02
#       7
#     8   8   8   8   8   8   8
#     4  10  18  32  53  76 100 128 169 211 249 294
#     4   9  16  27  47  72  95 122 161 207 248 286
#     4   9  15  28  50  72  95 127 164 204 244 291
#     4   9  17  30  50  74 101 136 173 206 248 308
#     4   9  18  32  51  74  99 130 166 202 244 297
#     4  11  21  34  54  79 104 132 168 208 250 299
#     4   9  16  28  46  69  97 128 165 202 242 293
#
# _framework density 20.373904
#
# number of rings (size 3 to 8) (size 9 to 14) (size 15 to 20)
#    0.000    2.571    2.857    0.429    0.000    0.571 
#    0.000    2.143    0.000    3.429    0.000    0.000 
#    0.000    0.000    0.000    0.000    0.000    0.000 
#
# Total GULP energy -312475.727312 kJ/mol
# GULP energy per Si atom -5579.923702 kJ/mol
# Density = 2.032753 g / cm^3
# Si number density = 20.373904 Si / 1000 Ang^3
#
#
#
# Elastic Constant Matrix: (Units=GPa)
#
#
# Indices 1 2 3 4 5 6 
#
# 1 161.9486 0.7245 97.6929 0.0000 0.0000 0.0000
# 2 0.7245 47.7390 -11.2774 0.0000 0.0000 0.0000
# 3 97.6929 -11.2774 178.8583 0.0000 0.0000 0.0000
# 4 0.0000 0.0000 0.0000 20.8098 0.0000 0.0000
# 5 0.0000 0.0000 0.0000 0.0000 30.0231 0.0000
# 6 0.0000 0.0000 0.0000 0.0000 0.0000 3.6209
#
#
#
# Elastic Compliance Matrix: (Units=1/GPa)
#
#
# Indices 1 2 3 4 5 6 
#
# 1 0.009295 -0.001361 -0.005163 0.000000 0.000000 0.000000
# 2 -0.001361 0.021463 0.002097 0.000000 0.000000 0.000000
# 3 -0.005163 0.002097 0.008543 0.000000 0.000000 0.000000
# 4 0.000000 0.000000 0.000000 0.048054 0.000000 0.000000
# 5 0.000000 0.000000 0.000000 0.000000 0.033308 0.000000
# 6 0.000000 0.000000 0.000000 0.000000 0.000000 0.276172
#
#
# Mechanical properties :
#
#
# Convention : Reuss Voigt Hill
#
# Bulk Modulus (GPa) = 32.84345 62.53621 47.68983
# Shear Modulus (GPa) = 12.02390 30.98451 21.50420
#
# Velocity S-wave (km/s) = 2.43196 3.90397 3.25234
# Velocity P-wave (km/s) = 4.90319 7.14718 6.12876
#
# Compressibility (1/GPa) = 0.03044747
#
# Stress axis : x y z
#
# Youngs Moduli (GPa) = 107.58071 46.59148 117.05185
#
# Poissons Ratio (x) = 0.06340 0.60433
# Poissons Ratio (y) = 0.14639 -0.24540
# Poissons Ratio (z) = 0.55543 -0.09768
#
# Static dielectric constant tensor:
#      x y z
#    x 1.694120 0.000000 0.000000 
#    y 0.000000 1.787310 0.000000 
#    z 0.000000 0.000000 1.712610 
# 
# From -- ./inp_files/28109.got.cif
#   From: 2010.05.17/outbox.cif.g08.bks.cpg/sg59_15_cif.got.tgz:28109.got - 2010.06.03 14:40:33.
