data_PCOD9447470
_publ_section_title
;
Structure prediction by ZEFSAII (Michael W. Deem and Ramdas Pophale) SiO2 
 PCOD9447470
Probable space group: P M M N
;
_chemical_formula_sum "Si O2"
_cell_formula_units_Z 48
_cell_length_a 8.954879
_cell_length_b 21.705111
_cell_length_c 15.571084
_cell_angle_alpha 90.000000
_cell_angle_beta 90.000000
_cell_angle_gamma 90.000000
_cell_volume 3026.499320
_symmetry_space_group_name_H-M "P M M N"
_symmetry_group_IT_number 59
_space_group.IT_coordinate_system_code '2'
_symmetry_cell_setting 'orthorhombic'
loop_
_space_group_symop_operation_xyz
x,y,z
1/2-x,1/2-y,z
1/2+x,-y,-z
-x,1/2+y,-z
-x,-y,-z
1/2+x,1/2+y,-z
1/2-x,y,z
x,1/2-y,z
loop_
_atom_site_type_symbol
_atom_site_label
_atom_site_fract_x
_atom_site_fract_y
_atom_site_fract_z
Si Si1 0.571703 0.098686 0.154837
Si Si2 0.929204 0.932643 0.014939
Si Si3 0.427497 0.455277 0.797183
Si Si4 0.571968 0.677457 0.693774
Si Si5 0.427543 0.911383 0.561836
Si Si6 0.926956 0.461017 0.621958
O O1 0.750000 0.104949 0.149580
O O2 0.503844 0.143911 0.225282
O O3 0.540264 0.027909 0.184362
O O4 0.498589 0.107711 0.061080
O O5 0.750000 0.935948 0.006258
O O6 0.963015 0.918920 0.114783
O O7 0.000000 0.000000 0.000000
O O8 0.250000 0.450507 0.781841
O O9 0.516248 0.436236 0.712783
O O10 0.750000 0.668554 0.698115
O O11 0.539774 0.750000 0.693849
O O12 0.508244 0.644350 0.609171
O O13 0.250000 0.907738 0.576117
O O14 0.456313 0.917473 0.460022
O O15 0.488132 0.974931 0.602944
O O16 0.750000 0.473123 0.624745
#
# Coordination Sequence:
#
# PCOD9447470 Si02
#       6
#     8   8   8   8   8   8
#     4  10  19  31  47  68  95 127 161 197 239 287
#     4   9  17  28  43  65  95 128 159 192 232 278
#     4   9  17  28  44  69  98 128 159 191 234 288
#     4  11  23  36  51  71  94 126 167 206 245 291
#     4  10  20  33  47  68  96 127 163 200 243 293
#     4  10  19  29  47  71  97 129 161 197 243 292
#
# _framework density 15.859909
#
# number of rings (size 3 to 8) (size 9 to 14) (size 15 to 20)
#    0.000    2.167    1.667    3.500    0.000    6.667 
#    0.000    0.000    0.000    0.000    0.000    1.167 
#    0.000    6.667    0.000    0.000    0.000    0.000 
#
# Total GULP energy -267618.945116 kJ/mol
# GULP energy per Si atom -5575.394690 kJ/mol
# Density = 1.582381 g / cm^3
# Si number density = 15.859909 Si / 1000 Ang^3
#
#
#
# Elastic Constant Matrix: (Units=GPa)
#
#
# Indices 1 2 3 4 5 6 
#
# 1 66.7824 38.1134 68.2636 0.0000 0.0000 0.0000
# 2 38.1134 52.2449 41.9622 0.0000 0.0000 0.0000
# 3 68.2636 41.9622 152.0623 0.0000 0.0000 0.0000
# 4 0.0000 0.0000 0.0000 13.9213 0.0000 0.0000
# 5 0.0000 0.0000 0.0000 0.0000 33.7620 0.0000
# 6 0.0000 0.0000 0.0000 0.0000 0.0000 17.9285
#
#
#
# Elastic Compliance Matrix: (Units=1/GPa)
#
#
# Indices 1 2 3 4 5 6 
#
# 1 0.037036 -0.017556 -0.011782 0.000000 0.000000 0.000000
# 2 -0.017556 0.032912 -0.001201 0.000000 0.000000 0.000000
# 3 -0.011782 -0.001201 0.012197 0.000000 0.000000 0.000000
# 4 0.000000 0.000000 0.000000 0.071833 0.000000 0.000000
# 5 0.000000 0.000000 0.000000 0.000000 0.029619 0.000000
# 6 0.000000 0.000000 0.000000 0.000000 0.000000 0.055777
#
#
# Mechanical properties :
#
#
# Convention : Reuss Voigt Hill
#
# Bulk Modulus (GPa) = 47.46463 63.08534 55.27498
# Shear Modulus (GPa) = 16.26154 21.30573 18.78363
#
# Velocity S-wave (km/s) = 3.20554 3.66918 3.44517
# Velocity P-wave (km/s) = 6.61007 7.60352 7.12413
#
# Compressibility (1/GPa) = 0.02106832
#
# Stress axis : x y z
#
# Youngs Moduli (GPa) = 27.00066 30.38361 81.98880
#
# Poissons Ratio (x) = 0.53340 0.96597
# Poissons Ratio (y) = 0.47401 0.09850
# Poissons Ratio (z) = 0.31811 0.03650
#
# Static dielectric constant tensor:
#      x y z
#    x 1.525810 0.000000 0.000000 
#    y 0.000000 1.493110 0.000000 
#    z 0.000000 0.000000 1.573550 
# 
# From -- ./inp_files/20703.got.cif
#   From: 2010.05.17/outbox.cif.g08.bks.cpg/sg59_11_cif.got.tgz:20703.got - 2010.06.03 14:40:33.
