data_PCOD9447652
_publ_section_title
;
Structure prediction by ZEFSAII (Michael W. Deem and Ramdas Pophale) SiO2 
 PCOD9447652
Probable space group: P M M N
;
_chemical_formula_sum "Si O2"
_cell_formula_units_Z 48
_cell_length_a 23.807096
_cell_length_b 9.060213
_cell_length_c 14.110667
_cell_angle_alpha 90.000000
_cell_angle_beta 90.000000
_cell_angle_gamma 90.000000
_cell_volume 3043.633629
_symmetry_space_group_name_H-M "P M M N"
_symmetry_group_IT_number 59
_space_group.IT_coordinate_system_code '2'
_symmetry_cell_setting 'orthorhombic'
loop_
_space_group_symop_operation_xyz
x,y,z
1/2-x,1/2-y,z
1/2+x,-y,-z
-x,1/2+y,-z
-x,-y,-z
1/2+x,1/2+y,-z
1/2-x,y,z
x,1/2-y,z
loop_
_atom_site_type_symbol
_atom_site_label
_atom_site_fract_x
_atom_site_fract_y
_atom_site_fract_z
Si Si1 0.087136 0.574617 0.461465
Si Si2 0.015823 0.573570 0.644306
Si Si3 0.588822 0.925449 0.968161
Si Si4 0.815878 0.074096 0.847801
Si Si5 0.528008 0.426003 0.138251
Si Si6 0.683982 0.575369 0.645254
O O1 0.092571 0.750000 0.449799
O O2 0.064553 0.544463 0.567496
O O3 0.144445 0.494904 0.433850
O O4 0.038904 0.512377 0.391802
O O5 0.003895 0.750000 0.642015
O O6 0.031483 0.534065 0.751432
O O7 0.597310 0.750000 0.971491
O O8 0.535101 0.955362 0.899876
O O9 0.642867 0.004883 0.924974
O O10 0.570332 0.987739 0.070058
O O11 0.750000 0.044505 0.868094
O O12 0.823602 0.250000 0.842243
O O13 0.828826 0.001464 0.745889
O O14 0.537703 0.250000 0.128473
O O15 0.750000 0.552237 0.625718
O O16 0.673624 0.750000 0.653404
#
# Coordination Sequence:
#
# PCOD9447652 Si02
#       6
#     8   8   8   8   8   8
#     4  10  19  30  48  73  98 125 158 197 238 281
#     4   9  18  32  49  70  97 129 162 195 234 280
#     4  10  19  30  48  73  98 125 156 193 237 282
#     4  10  20  33  50  72  97 125 157 194 235 280
#     4   9  18  32  48  67  95 128 160 194 232 277
#     4  10  20  33  49  69  95 127 159 193 236 284
#
# _framework density 15.770623000000001
#
# number of rings (size 3 to 8) (size 9 to 14) (size 15 to 20)
#    0.000    2.333    0.000    3.000    0.000    5.333 
#    0.000    0.000    0.000    1.000    0.000    2.333 
#    0.000    0.000    0.000    0.000    0.000    0.000 
#
# Total GULP energy -267833.466065 kJ/mol
# GULP energy per Si atom -5579.863876 kJ/mol
# Density = 1.573473 g / cm^3
# Si number density = 15.770623 Si / 1000 Ang^3
#
#
#
# Elastic Constant Matrix: (Units=GPa)
#
#
# Indices 1 2 3 4 5 6 
#
# 1 72.9478 55.1547 60.3256 0.0000 0.0000 0.0000
# 2 55.1547 67.1520 59.1663 0.0000 0.0000 0.0000
# 3 60.3256 59.1663 126.4886 0.0000 0.0000 0.0000
# 4 0.0000 0.0000 0.0000 24.4551 0.0000 0.0000
# 5 0.0000 0.0000 0.0000 0.0000 22.2915 0.0000
# 6 0.0000 0.0000 0.0000 0.0000 0.0000 30.3612
#
#
#
# Elastic Compliance Matrix: (Units=1/GPa)
#
#
# Indices 1 2 3 4 5 6 
#
# 1 0.038765 -0.026451 -0.006115 0.000000 0.000000 0.000000
# 2 -0.026451 0.043381 -0.007676 0.000000 0.000000 0.000000
# 3 -0.006115 -0.007676 0.014413 0.000000 0.000000 0.000000
# 4 0.000000 0.000000 0.000000 0.040891 0.000000 0.000000
# 5 0.000000 0.000000 0.000000 0.000000 0.044860 0.000000
# 6 0.000000 0.000000 0.000000 0.000000 0.000000 0.032937
#
#
# Mechanical properties :
#
#
# Convention : Reuss Voigt Hill
#
# Bulk Modulus (GPa) = 62.21648 68.43128 65.32388
# Shear Modulus (GPa) = 16.60635 21.55102 19.07869
#
# Velocity S-wave (km/s) = 3.24851 3.70067 3.48194
# Velocity P-wave (km/s) = 7.32167 7.85785 7.59449
#
# Compressibility (1/GPa) = 0.01607291
#
# Stress axis : x y z
#
# Youngs Moduli (GPa) = 25.79665 23.05177 69.38169
#
# Poissons Ratio (x) = 0.60975 0.42427
# Poissons Ratio (y) = 0.68235 0.53261
# Poissons Ratio (z) = 0.15775 0.17696
#
# Static dielectric constant tensor:
#      x y z
#    x 1.510720 0.000000 0.000000 
#    y 0.000000 1.522810 0.000000 
#    z 0.000000 0.000000 1.509220 
# 
# From -- ./inp_files/18617.got.cif
#   From: 2010.05.17/outbox.cif.g08.bks.cpg/sg59_10_cif.got.tgz:18617.got - 2010.06.03 14:40:33.
