data_PCOD9447397
_publ_section_title
;
Structure prediction by ZEFSAII (Michael W. Deem and Ramdas Pophale) SiO2 
 PCOD9447397
Probable space group: P M M N
;
_chemical_formula_sum "Si O2"
_cell_formula_units_Z 56
_cell_length_a 8.316269
_cell_length_b 14.467671
_cell_length_c 20.840252
_cell_angle_alpha 90.000000
_cell_angle_beta 90.000000
_cell_angle_gamma 90.000000
_cell_volume 2507.437514
_symmetry_space_group_name_H-M "P M M N"
_symmetry_group_IT_number 59
_space_group.IT_coordinate_system_code '2'
_symmetry_cell_setting 'orthorhombic'
loop_
_space_group_symop_operation_xyz
x,y,z
1/2-x,1/2-y,z
1/2+x,-y,-z
-x,1/2+y,-z
-x,-y,-z
1/2+x,1/2+y,-z
1/2-x,y,z
x,1/2-y,z
loop_
_atom_site_type_symbol
_atom_site_label
_atom_site_fract_x
_atom_site_fract_y
_atom_site_fract_z
Si Si1 0.931585 0.395376 0.923284
Si Si2 0.441822 0.054726 0.789341
Si Si3 0.063189 0.848501 0.812650
Si Si4 0.555683 0.444700 0.652916
Si Si5 0.943218 0.396531 0.515112
Si Si6 0.058440 0.347914 0.380210
Si Si7 0.571196 0.883121 0.944107
O O1 0.750000 0.361180 0.926272
O O2 0.929640 0.505655 0.937530
O O3 0.997097 0.389342 0.851164
O O4 0.030973 0.356868 0.983147
O O5 0.250000 0.049770 0.794470
O O6 0.507754 0.947884 0.792262
O O7 0.492729 0.092033 0.720308
O O8 0.250000 0.848596 0.793341
O O9 0.989293 0.750000 0.791976
O O10 0.051014 0.850397 0.890033
O O11 0.750000 0.447649 0.653845
O O12 0.510645 0.385380 0.589786
O O13 0.496273 0.552061 0.643997
O O14 0.750000 0.386647 0.510183
O O15 0.000000 0.500000 0.500000
O O16 0.024600 0.344861 0.456374
O O17 0.250000 0.349450 0.369569
O O18 0.993072 0.250000 0.353623
O O19 0.750000 0.852454 0.926548
#
# Coordination Sequence:
#
# PCOD9447397 Si02
#       7
#     8   8   8   8   8   8   8
#     4   9  16  27  43  61  83 110 139 176 222 264
#     4  10  19  29  43  64  89 118 153 189 221 259
#     4   9  18  31  43  58  86 121 152 182 219 263
#     4   9  18  31  45  64  93 126 156 187 229 279
#     4   9  17  30  48  68  91 120 155 195 235 276
#     4   9  18  32  49  70  96 124 155 193 235 278
#     4   9  16  26  42  63  83 105 140 183 220 255
#
# _framework density 22.333559000000001
#
# number of rings (size 3 to 8) (size 9 to 14) (size 15 to 20)
#    0.000    2.857    0.000    2.571    0.000    8.000 
#    0.000    0.000    0.000    0.000    0.000    1.000 
#    0.000    3.429    0.000    0.000    0.000    0.000 
#
# Total GULP energy -312038.949108 kJ/mol
# GULP energy per Si atom -5572.124091 kJ/mol
# Density = 2.228273 g / cm^3
# Si number density = 22.333559 Si / 1000 Ang^3
#
#
#
# Elastic Constant Matrix: (Units=GPa)
#
#
# Indices 1 2 3 4 5 6 
#
# 1 22.9469 -9.1274 1.1043 0.0000 0.0000 0.0000
# 2 -9.1274 37.6428 -12.1556 0.0000 0.0000 0.0000
# 3 1.1043 -12.1556 155.9006 0.0000 0.0000 0.0000
# 4 0.0000 0.0000 0.0000 -14.8269 0.0000 0.0000
# 5 0.0000 0.0000 0.0000 0.0000 27.4723 0.0000
# 6 0.0000 0.0000 0.0000 0.0000 0.0000 -5.7712
#
#
#
# Elastic Compliance Matrix: (Units=1/GPa)
#
#
# Indices 1 2 3 4 5 6 
#
# 1 0.048283 0.011896 0.000586 0.000000 0.000000 0.000000
# 2 0.011896 0.030183 0.002269 0.000000 0.000000 0.000000
# 3 0.000586 0.002269 0.006587 0.000000 0.000000 0.000000
# 4 0.000000 0.000000 0.000000 -0.067445 0.000000 0.000000
# 5 0.000000 0.000000 0.000000 0.000000 0.036400 0.000000
# 6 0.000000 0.000000 0.000000 0.000000 0.000000 -0.173274
#
#
# Mechanical properties :
#
#
# Convention : Reuss Voigt Hill
#
# Bulk Modulus (GPa) = 8.72947 19.57032 14.14990
# Shear Modulus (GPa) = -45.21455 17.15279 -14.03088
#
# Velocity S-wave (km/s) = -4.50434 2.77434 -2.50919
# Velocity P-wave (km/s) = 4.80988 4.36398 1.43013
#
# Compressibility (1/GPa) = 0.11455444
#
# Stress axis : x y z
#
# Youngs Moduli (GPa) = 20.71140 33.13148 151.81148
#
# Poissons Ratio (x) = -0.39414 -0.08890
# Poissons Ratio (y) = -0.24639 -0.34448
# Poissons Ratio (z) = -0.01213 -0.07518
#
# Static dielectric constant tensor:
#      x y z
#    x 1.772250 0.000000 0.000000 
#    y 0.000000 1.879160 0.000000 
#    z 0.000000 0.000000 1.834640 
# 
# From -- ./inp_files/29339.got.cif
#   From: 2010.05.17/outbox.cif.g08.bks.cpg/sg59_15_cif.got.tgz:29339.got - 2010.06.03 14:40:33.
