data_PCOD9447940
_publ_section_title
;
Structure prediction by ZEFSAII (Michael W. Deem and Ramdas Pophale) SiO2 
 PCOD9447940
Probable space group: P M M N
;
_chemical_formula_sum "Si O2"
_cell_formula_units_Z 64
_cell_length_a 17.954265
_cell_length_b 8.843762
_cell_length_c 23.539509
_cell_angle_alpha 90.000000
_cell_angle_beta 90.000000
_cell_angle_gamma 90.000000
_cell_volume 3737.679661
_symmetry_space_group_name_H-M "P M M N"
_symmetry_group_IT_number 59
_space_group.IT_coordinate_system_code '2'
_symmetry_cell_setting 'orthorhombic'
loop_
_space_group_symop_operation_xyz
x,y,z
1/2-x,1/2-y,z
1/2+x,-y,-z
-x,1/2+y,-z
-x,-y,-z
1/2+x,1/2+y,-z
1/2-x,y,z
x,1/2-y,z
loop_
_atom_site_type_symbol
_atom_site_label
_atom_site_fract_x
_atom_site_fract_y
_atom_site_fract_z
Si Si1 0.946510 0.069314 0.127034
Si Si2 0.517629 0.068932 0.634516
Si Si3 0.474449 0.070473 0.242493
Si Si4 0.663073 0.930262 0.045377
Si Si5 0.335301 0.928086 0.183213
Si Si6 0.087027 0.572038 0.064599
Si Si7 0.067596 0.568561 0.536652
Si Si8 0.833969 0.066653 0.565503
O O1 0.942578 0.250000 0.123503
O O2 0.969422 0.027438 0.191287
O O3 0.872380 0.994851 0.102877
O O4 0.012979 0.010336 0.086499
O O5 0.515176 0.250000 0.630007
O O6 0.597767 0.018673 0.606868
O O7 0.512919 0.015447 0.698995
O O8 0.449621 0.999400 0.598146
O O9 0.479333 0.250000 0.251341
O O10 0.393288 0.025939 0.218567
O O11 0.750000 0.967719 0.040843
O O12 0.654272 0.750000 0.043697
O O13 0.619630 0.002577 0.992421
O O14 0.250000 0.967678 0.194170
O O15 0.346425 0.750000 0.196978
O O16 0.354657 0.945104 0.116578
O O17 0.071822 0.750000 0.056917
O O18 0.062400 0.750000 0.538712
O O19 0.140250 0.529425 0.499092
O O20 0.000000 0.500000 0.500000
O O21 0.750000 0.011963 0.578232
O O22 0.832209 0.250000 0.569230
#
# Coordination Sequence:
#
# PCOD9447940 Si02
#       8
#     8   8   8   8   8   8   8   8
#     4  10  21  37  55  74  99 132 169 210 255 302
#     4  10  19  31  50  73  98 131 167 204 244 290
#     4  10  21  35  51  72  97 128 169 212 250 290
#     4  11  23  36  52  76 103 129 160 204 259 313
#     4   9  18  32  49  70  98 133 169 202 241 293
#     4  10  19  33  54  77 102 132 167 205 247 301
#     4   9  16  28  48  71  97 129 164 201 238 279
#     4   8  15  28  47  73 102 130 160 194 234 279
#
# _framework density 17.122923
#
# number of rings (size 3 to 8) (size 9 to 14) (size 15 to 20)
#    0.000    2.375    0.000    3.750    0.000    4.250 
#    0.000    1.250    0.000   13.875    0.000    1.750 
#    0.000    0.000    0.000    0.000    0.000    0.000 
#
# Total GULP energy -356881.316611 kJ/mol
# GULP energy per Si atom -5576.270572 kJ/mol
# Density = 1.708395 g / cm^3
# Si number density = 17.122923 Si / 1000 Ang^3
#
#
#
# Elastic Constant Matrix: (Units=GPa)
#
#
# Indices 1 2 3 4 5 6 
#
# 1 31.8822 14.5364 35.9106 0.0000 0.0000 0.0000
# 2 14.5364 39.0952 36.4130 0.0000 0.0000 0.0000
# 3 35.9106 36.4130 108.1283 0.0000 0.0000 0.0000
# 4 0.0000 0.0000 0.0000 31.0909 0.0000 0.0000
# 5 0.0000 0.0000 0.0000 0.0000 6.2457 0.0000
# 6 0.0000 0.0000 0.0000 0.0000 0.0000 21.9546
#
#
#
# Elastic Compliance Matrix: (Units=1/GPa)
#
#
# Indices 1 2 3 4 5 6 
#
# 1 0.050675 -0.004614 -0.015276 0.000000 0.000000 0.000000
# 2 -0.004614 0.037688 -0.011159 0.000000 0.000000 0.000000
# 3 -0.015276 -0.011159 0.018080 0.000000 0.000000 0.000000
# 4 0.000000 0.000000 0.000000 0.032164 0.000000 0.000000
# 5 0.000000 0.000000 0.000000 0.000000 0.160109 0.000000
# 6 0.000000 0.000000 0.000000 0.000000 0.000000 0.045548
#
#
# Mechanical properties :
#
#
# Convention : Reuss Voigt Hill
#
# Bulk Modulus (GPa) = 22.55100 39.20286 30.87693
# Shear Modulus (GPa) = 11.87242 18.00798 14.94020
#
# Velocity S-wave (km/s) = 2.63604 3.24649 2.95706
# Velocity P-wave (km/s) = 4.73958 6.08257 5.45258
#
# Compressibility (1/GPa) = 0.04434393
#
# Stress axis : x y z
#
# Youngs Moduli (GPa) = 19.73347 26.53373 55.31109
#
# Poissons Ratio (x) = 0.12243 0.84493
# Poissons Ratio (y) = 0.09105 0.61723
# Poissons Ratio (z) = 0.30145 0.29610
#
# Static dielectric constant tensor:
#      x y z
#    x 1.578300 0.000000 0.000000 
#    y 0.000000 1.575530 0.000000 
#    z 0.000000 0.000000 1.666280 
# 
# From -- ./inp_files/32330.got.cif
#   From: 2010.05.17/outbox.cif.g08.bks.cpg/sg59_17_cif.got.tgz:32330.got - 2010.06.03 14:40:33.
