data_PCOD9447784
_publ_section_title
;
Structure prediction by ZEFSAII (Michael W. Deem and Ramdas Pophale) SiO2 
 PCOD9447784
Probable space group: P M M N
;
_chemical_formula_sum "Si O2"
_cell_formula_units_Z 56
_cell_length_a 9.450100
_cell_length_b 15.234061
_cell_length_c 18.940276
_cell_angle_alpha 90.000000
_cell_angle_beta 90.000000
_cell_angle_gamma 90.000000
_cell_volume 2726.706527
_symmetry_space_group_name_H-M "P M M N"
_symmetry_group_IT_number 59
_space_group.IT_coordinate_system_code '2'
_symmetry_cell_setting 'orthorhombic'
loop_
_space_group_symop_operation_xyz
x,y,z
1/2-x,1/2-y,z
1/2+x,-y,-z
-x,1/2+y,-z
-x,-y,-z
1/2+x,1/2+y,-z
1/2-x,y,z
x,1/2-y,z
loop_
_atom_site_type_symbol
_atom_site_label
_atom_site_fract_x
_atom_site_fract_y
_atom_site_fract_z
Si Si1 0.412201 0.855029 0.648754
Si Si2 0.087671 0.891273 0.068113
Si Si3 0.586686 0.142748 0.508070
Si Si4 0.907567 0.853826 0.360998
Si Si5 0.580090 0.599760 0.204138
Si Si6 0.590149 0.893424 0.934979
Si Si7 0.918456 0.918095 0.781209
O O1 0.250000 0.886769 0.663123
O O2 0.402783 0.750000 0.645192
O O3 0.458713 0.885422 0.570524
O O4 0.522620 0.876704 0.709835
O O5 0.250000 0.864314 0.075000
O O6 0.995694 0.861328 0.135173
O O7 0.086137 0.999022 0.067090
O O8 0.018708 0.863527 0.994199
O O9 0.750000 0.118163 0.516081
O O10 0.581154 0.250000 0.508935
O O11 0.499851 0.109552 0.575169
O O12 0.750000 0.892629 0.363084
O O13 0.896908 0.750000 0.373697
O O14 0.960338 0.862533 0.280832
O O15 0.750000 0.604080 0.196504
O O16 0.518911 0.501910 0.208558
O O17 0.750000 0.868931 0.955366
O O18 0.564046 0.864509 0.854356
O O19 0.750000 0.939507 0.776813
#
# Coordination Sequence:
#
# PCOD9447784 Si02
#       7
#     8   8   8   8   8   8   8
#     4   9  18  33  52  73  97 125 157 192 234 285
#     4   9  16  26  43  67  92 119 155 195 231 274
#     4   8  15  29  49  71  93 120 155 193 232 276
#     4   9  18  32  50  72  95 121 157 197 235 279
#     4  10  19  31  48  69  97 129 156 190 240 288
#     4   8  15  27  42  63  91 121 153 190 232 275
#     4  10  20  32  48  72  99 125 158 198 235 276
#
# _framework density 20.537597999999999
#
# number of rings (size 3 to 8) (size 9 to 14) (size 15 to 20)
#    0.000    3.000    0.000    3.000    0.000    6.000 
#    0.000    2.143    0.000    0.857    0.000    2.000 
#    0.000    0.000    0.000    0.000    0.000    0.000 
#
# Total GULP energy -312046.140954 kJ/mol
# GULP energy per Si atom -5572.252517 kJ/mol
# Density = 2.049085 g / cm^3
# Si number density = 20.537598 Si / 1000 Ang^3
#
#
#
# Elastic Constant Matrix: (Units=GPa)
#
#
# Indices 1 2 3 4 5 6 
#
# 1 102.7363 4.6855 110.6688 0.0000 0.0000 0.0000
# 2 4.6855 27.1621 2.9608 0.0000 0.0000 0.0000
# 3 110.6688 2.9608 203.4821 0.0000 0.0000 0.0000
# 4 0.0000 0.0000 0.0000 19.7888 0.0000 0.0000
# 5 0.0000 0.0000 0.0000 0.0000 41.0975 0.0000
# 6 0.0000 0.0000 0.0000 0.0000 0.0000 5.2843
#
#
#
# Elastic Compliance Matrix: (Units=1/GPa)
#
#
# Indices 1 2 3 4 5 6 
#
# 1 0.023698 -0.002687 -0.012850 0.000000 0.000000 0.000000
# 2 -0.002687 0.037179 0.000921 0.000000 0.000000 0.000000
# 3 -0.012850 0.000921 0.011890 0.000000 0.000000 0.000000
# 4 0.000000 0.000000 0.000000 0.050534 0.000000 0.000000
# 5 0.000000 0.000000 0.000000 0.000000 0.024332 0.000000
# 6 0.000000 0.000000 0.000000 0.000000 0.000000 0.189239
#
#
# Mechanical properties :
#
#
# Convention : Reuss Voigt Hill
#
# Bulk Modulus (GPa) = 22.97047 63.33452 43.15250
# Shear Modulus (GPa) = 13.13660 27.57181 20.35421
#
# Velocity S-wave (km/s) = 2.53185 3.66800 3.15154
# Velocity P-wave (km/s) = 4.44476 6.98886 5.85662
#
# Compressibility (1/GPa) = 0.04353416
#
# Stress axis : x y z
#
# Youngs Moduli (GPa) = 42.19754 26.89673 84.10667
#
# Poissons Ratio (x) = 0.07228 1.08074
# Poissons Ratio (y) = 0.11340 -0.07743
# Poissons Ratio (z) = 0.54223 -0.02476
#
# Static dielectric constant tensor:
#      x y z
#    x 1.634800 0.000000 0.000000 
#    y 0.000000 1.799870 0.000000 
#    z 0.000000 0.000000 1.763790 
# 
# From -- ./inp_files/26125.got.cif
#   From: 2010.05.17/outbox.cif.g08.bks.cpg/sg59_14_cif.got.tgz:26125.got - 2010.06.03 14:40:33.
