data_PCOD9447268
_publ_section_title
;
Structure prediction by ZEFSAII (Michael W. Deem and Ramdas Pophale) SiO2 
 PCOD9447268
Probable space group: P M M N
;
_chemical_formula_sum "Si O2"
_cell_formula_units_Z 40
_cell_length_a 19.019015
_cell_length_b 11.102453
_cell_length_c 10.088663
_cell_angle_alpha 90.000000
_cell_angle_beta 90.000000
_cell_angle_gamma 90.000000
_cell_volume 2130.299078
_symmetry_space_group_name_H-M "P M M N"
_symmetry_group_IT_number 59
_space_group.IT_coordinate_system_code '2'
_symmetry_cell_setting 'orthorhombic'
loop_
_space_group_symop_operation_xyz
x,y,z
1/2-x,1/2-y,z
1/2+x,-y,-z
-x,1/2+y,-z
-x,-y,-z
1/2+x,1/2+y,-z
1/2-x,y,z
x,1/2-y,z
loop_
_atom_site_type_symbol
_atom_site_label
_atom_site_fract_x
_atom_site_fract_y
_atom_site_fract_z
Si Si1 0.537978 0.385600 0.162591
Si Si2 0.830037 0.750000 0.960332
Si Si3 0.104139 0.499104 0.073769
Si Si4 0.670144 0.750000 0.639932
Si Si5 0.450517 0.613774 0.534193
Si Si6 0.666615 0.018341 0.644688
O O1 0.509391 0.250000 0.152094
O O2 0.472270 0.473761 0.138683
O O3 0.567175 0.399415 0.310030
O O4 0.592946 0.408538 0.045252
O O5 0.750000 0.750000 0.010150
O O6 0.868885 0.874323 0.991471
O O7 0.826993 0.750000 0.799805
O O8 0.152789 0.533888 0.197839
O O9 0.750000 0.750000 0.588805
O O10 0.640917 0.618597 0.607929
O O11 0.500000 0.500000 0.500000
O O12 0.481097 0.750000 0.517409
O O13 0.381903 0.603681 0.442237
O O14 0.750000 0.027724 0.620445
#
# Coordination Sequence:
#
# PCOD9447268 Si02
#       6
#     8   4   8   4   8   8
#     4  10  21  37  56  82 121 153 187 236 303 354
#     4   9  16  30  55  85 115 149 188 242 298 343
#     4  10  18  34  57  88 114 151 195 243 293 350
#     4   7  14  28  55  85 111 145 186 236 296 345
#     4  11  24  41  60  88 122 161 199 246 302 362
#     4  10  20  37  62  90 118 157 205 252 295 354
#
# _framework density 18.776706000000001
#
# number of rings (size 3 to 8) (size 9 to 14) (size 15 to 20)
#    0.000    2.200    3.000    1.800    1.400    1.200 
#    1.800    2.000    0.000    5.400    0.000    0.000 
#    0.000    0.000    0.000    0.000    0.000    0.000 
#
# Total GULP energy -222798.902894 kJ/mol
# GULP energy per Si atom -5569.972572 kJ/mol
# Density = 1.873397 g / cm^3
# Si number density = 18.776706 Si / 1000 Ang^3
#
#
#
# Elastic Constant Matrix: (Units=GPa)
#
#
# Indices 1 2 3 4 5 6 
#
# 1 67.4008 21.9998 26.7939 0.0000 0.0000 0.0000
# 2 21.9998 77.5775 42.6547 0.0000 0.0000 0.0000
# 3 26.7939 42.6547 84.4098 0.0000 0.0000 0.0000
# 4 0.0000 0.0000 0.0000 28.5662 0.0000 0.0000
# 5 0.0000 0.0000 0.0000 0.0000 18.5503 0.0000
# 6 0.0000 0.0000 0.0000 0.0000 0.0000 25.3963
#
#
#
# Elastic Compliance Matrix: (Units=1/GPa)
#
#
# Indices 1 2 3 4 5 6 
#
# 1 0.017356 -0.002621 -0.004185 0.000000 0.000000 0.000000
# 2 -0.002621 0.018246 -0.008388 0.000000 0.000000 0.000000
# 3 -0.004185 -0.008388 0.017414 0.000000 0.000000 0.000000
# 4 0.000000 0.000000 0.000000 0.035006 0.000000 0.000000
# 5 0.000000 0.000000 0.000000 0.000000 0.053907 0.000000
# 6 0.000000 0.000000 0.000000 0.000000 0.000000 0.039376
#
#
# Mechanical properties :
#
#
# Convention : Reuss Voigt Hill
#
# Bulk Modulus (GPa) = 44.19325 45.80944 45.00134
# Shear Modulus (GPa) = 22.80658 23.69856 23.25257
#
# Velocity S-wave (km/s) = 3.48892 3.55650 3.52287
# Velocity P-wave (km/s) = 6.31010 6.42766 6.36915
#
# Compressibility (1/GPa) = 0.02262789
#
# Stress axis : x y z
#
# Youngs Moduli (GPa) = 57.61820 54.80758 57.42483
#
# Poissons Ratio (x) = 0.14364 0.24031
# Poissons Ratio (y) = 0.15101 0.48169
# Poissons Ratio (z) = 0.24112 0.45973
#
# Static dielectric constant tensor:
#      x y z
#    x 1.675690 0.000000 0.000000 
#    y 0.000000 1.740500 0.000000 
#    z 0.000000 0.000000 1.628850 
# 
# From -- ./inp_files/7416.got.cif
#   From: 2010.05.17/outbox.cif.g08.bks.cpg/sg59_4_cif.got.tgz:7416.got - 2010.06.03 14:40:33.
