data_PCOD9447601
_publ_section_title
;
Structure prediction by ZEFSAII (Michael W. Deem and Ramdas Pophale) SiO2 
 PCOD9447601
Probable space group: P M M N
;
_chemical_formula_sum "Si O2"
_cell_formula_units_Z 56
_cell_length_a 7.320760
_cell_length_b 25.984578
_cell_length_c 13.119337
_cell_angle_alpha 90.000000
_cell_angle_beta 90.000000
_cell_angle_gamma 90.000000
_cell_volume 2495.650273
_symmetry_space_group_name_H-M "P M M N"
_symmetry_group_IT_number 59
_space_group.IT_coordinate_system_code '2'
_symmetry_cell_setting 'orthorhombic'
loop_
_space_group_symop_operation_xyz
x,y,z
1/2-x,1/2-y,z
1/2+x,-y,-z
-x,1/2+y,-z
-x,-y,-z
1/2+x,1/2+y,-z
1/2-x,y,z
x,1/2-y,z
loop_
_atom_site_type_symbol
_atom_site_label
_atom_site_fract_x
_atom_site_fract_y
_atom_site_fract_z
Si Si1 0.038088 0.385135 0.856897
Si Si2 0.027725 0.193342 0.240169
Si Si3 0.529165 0.503193 0.807207
Si Si4 0.026590 0.105261 0.082980
Si Si5 0.967082 0.958556 0.587108
Si Si6 0.472969 0.343818 0.460412
Si Si7 0.527084 0.808178 0.316621
O O1 0.250000 0.370020 0.864936
O O2 0.962726 0.349886 0.766133
O O3 0.030516 0.445461 0.830009
O O4 0.961594 0.379609 0.970644
O O5 0.250000 0.192083 0.239507
O O6 0.971646 0.250000 0.204152
O O7 0.969266 0.146394 0.168367
O O8 0.971649 0.185176 0.357388
O O9 0.750000 0.502212 0.807262
O O10 0.471078 0.547414 0.886321
O O11 0.464638 0.521550 0.695783
O O12 0.250000 0.105060 0.082568
O O13 0.750000 0.952492 0.600183
O O14 0.034120 0.902740 0.553292
O O15 0.000000 0.000000 0.500000
O O16 0.250000 0.342642 0.462138
O O17 0.532981 0.321380 0.568448
O O18 0.750000 0.810093 0.318933
O O19 0.475000 0.750000 0.289508
#
# Coordination Sequence:
#
# PCOD9447601 Si02
#       7
#     8   8   8   8   8   8   8
#     4  10  20  32  49  72  99 128 162 203 241 283
#     4   9  15  24  42  67  93 123 159 197 240 290
#     4  10  19  33  50  69  98 132 164 199 240 288
#     4   9  17  30  45  66  96 129 162 199 243 285
#     4  10  19  30  47  70  99 130 160 198 241 287
#     4   9  15  26  42  63  93 125 156 192 237 289
#     4   9  17  28  43  66  96 127 156 192 242 290
#
# _framework density 22.439041
#
# number of rings (size 3 to 8) (size 9 to 14) (size 15 to 20)
#    0.000    2.571    1.429    1.714    0.000    4.000 
#    0.000    2.857    0.000    0.429    0.000    0.000 
#    0.000    5.714    0.000    0.000    0.000    0.000 
#
# Total GULP energy -312933.526628 kJ/mol
# GULP energy per Si atom -5588.098690 kJ/mol
# Density = 2.238797 g / cm^3
# Si number density = 22.439041 Si / 1000 Ang^3
#
#
#
# Elastic Constant Matrix: (Units=GPa)
#
#
# Indices 1 2 3 4 5 6 
#
# 1 86.6358 -9.0305 3.0096 0.0000 0.0000 0.0000
# 2 -9.0305 160.7523 89.4766 0.0000 0.0000 0.0000
# 3 3.0096 89.4766 180.2535 0.0000 0.0000 0.0000
# 4 0.0000 0.0000 0.0000 12.1614 0.0000 0.0000
# 5 0.0000 0.0000 0.0000 0.0000 -7.2607 0.0000
# 6 0.0000 0.0000 0.0000 0.0000 0.0000 8.1192
#
#
#
# Elastic Compliance Matrix: (Units=1/GPa)
#
#
# Indices 1 2 3 4 5 6 
#
# 1 0.011678 0.001056 -0.000719 0.000000 0.000000 0.000000
# 2 0.001056 0.008691 -0.004332 0.000000 0.000000 0.000000
# 3 -0.000719 -0.004332 0.007710 0.000000 0.000000 0.000000
# 4 0.000000 0.000000 0.000000 0.082227 0.000000 0.000000
# 5 0.000000 0.000000 0.000000 0.000000 -0.137727 0.000000
# 6 0.000000 0.000000 0.000000 0.000000 0.000000 0.123165
#
#
# Mechanical properties :
#
#
# Convention : Reuss Voigt Hill
#
# Bulk Modulus (GPa) = 49.77776 66.06144 57.91960
# Shear Modulus (GPa) = 45.27715 25.54968 35.41342
#
# Velocity S-wave (km/s) = 4.49685 3.37801 3.97697
# Velocity P-wave (km/s) = 7.01384 6.68722 6.85248
#
# Compressibility (1/GPa) = 0.02008929
#
# Stress axis : x y z
#
# Youngs Moduli (GPa) = 85.63345 115.05742 129.69991
#
# Poissons Ratio (x) = -0.12155 0.09330
# Poissons Ratio (y) = -0.09047 0.56185
# Poissons Ratio (z) = 0.06160 0.49842
#
# Static dielectric constant tensor:
#      x y z
#    x 1.868650 0.000000 0.000000 
#    y 0.000000 1.763000 0.000000 
#    z 0.000000 0.000000 1.781960 
# 
# From -- ./inp_files/16032.got.cif
#   From: 2010.05.17/outbox.cif.g08.bks.cpg/sg59_9_cif.got.tgz:16032.got - 2010.06.03 14:40:33.
