data_PCOD9447416
_publ_section_title
;
Structure prediction by ZEFSAII (Michael W. Deem and Ramdas Pophale) SiO2 
 PCOD9447416
Probable space group: P M M N
;
_chemical_formula_sum "Si O2"
_cell_formula_units_Z 48
_cell_length_a 24.347224
_cell_length_b 7.633233
_cell_length_c 14.410050
_cell_angle_alpha 90.000000
_cell_angle_beta 90.000000
_cell_angle_gamma 90.000000
_cell_volume 2678.079458
_symmetry_space_group_name_H-M "P M M N"
_symmetry_group_IT_number 59
_space_group.IT_coordinate_system_code '2'
_symmetry_cell_setting 'orthorhombic'
loop_
_space_group_symop_operation_xyz
x,y,z
1/2-x,1/2-y,z
1/2+x,-y,-z
-x,1/2+y,-z
-x,-y,-z
1/2+x,1/2+y,-z
1/2-x,y,z
x,1/2-y,z
loop_
_atom_site_type_symbol
_atom_site_label
_atom_site_fract_x
_atom_site_fract_y
_atom_site_fract_z
Si Si1 0.916505 0.537232 0.959958
Si Si2 0.982502 0.954549 0.348858
Si Si3 0.687654 0.536195 0.845437
Si Si4 0.028746 0.457570 0.855665
Si Si5 0.312020 0.461294 0.366600
Si Si6 0.580498 0.456152 0.523962
O O1 0.915993 0.750000 0.961415
O O2 0.859371 0.476898 0.915678
O O3 0.967280 0.482989 0.894774
O O4 0.931155 0.472716 0.063525
O O5 0.995136 0.750000 0.332264
O O6 0.968702 0.031535 0.248330
O O7 0.036225 0.029288 0.401338
O O8 0.933829 0.966283 0.423757
O O9 0.750000 0.481531 0.867768
O O10 0.687368 0.750000 0.845926
O O11 0.675285 0.481816 0.739245
O O12 0.040335 0.250000 0.850515
O O13 0.250000 0.520201 0.389138
O O14 0.311578 0.250000 0.365940
O O15 0.358923 0.517885 0.437009
O O16 0.569829 0.250000 0.514699
#
# Coordination Sequence:
#
# PCOD9447416 Si02
#       6
#     8   8   8   8   8   8
#     4   9  16  26  43  65  86 111 142 174 209 250
#     4   9  18  31  44  60  87 118 144 175 217 263
#     4   8  14  25  42  64  87 110 138 171 205 244
#     4   9  17  28  42  62  88 115 140 171 213 255
#     4   9  17  29  45  64  87 115 141 168 210 259
#     4  10  19  29  44  65  85 110 145 182 218 253
#
# _framework density 17.923292
#
# number of rings (size 3 to 8) (size 9 to 14) (size 15 to 20)
#    0.000    3.000    0.000    2.500    0.000    1.667 
#    0.000    0.000    0.000    2.500    0.000    4.667 
#    0.000    0.000    0.000    0.000    0.000    0.000 
#
# Total GULP energy -267505.412133 kJ/mol
# GULP energy per Si atom -5573.029419 kJ/mol
# Density = 1.788250 g / cm^3
# Si number density = 17.923292 Si / 1000 Ang^3
#
#
#
# Elastic Constant Matrix: (Units=GPa)
#
#
# Indices 1 2 3 4 5 6 
#
# 1 99.0736 -14.5667 72.9166 0.0000 0.0000 0.0000
# 2 -14.5667 28.9972 -6.3410 0.0000 0.0000 0.0000
# 3 72.9166 -6.3410 159.1365 0.0000 0.0000 0.0000
# 4 0.0000 0.0000 0.0000 3.0951 0.0000 0.0000
# 5 0.0000 0.0000 0.0000 0.0000 25.1237 0.0000
# 6 0.0000 0.0000 0.0000 0.0000 0.0000 16.4237
#
#
#
# Elastic Compliance Matrix: (Units=1/GPa)
#
#
# Indices 1 2 3 4 5 6 
#
# 1 0.016412 0.006658 -0.007255 0.000000 0.000000 0.000000
# 2 0.006658 0.037490 -0.001557 0.000000 0.000000 0.000000
# 3 -0.007255 -0.001557 0.009546 0.000000 0.000000 0.000000
# 4 0.000000 0.000000 0.000000 0.323090 0.000000 0.000000
# 5 0.000000 0.000000 0.000000 0.000000 0.039803 0.000000
# 6 0.000000 0.000000 0.000000 0.000000 0.000000 0.060888
#
#
# Mechanical properties :
#
#
# Convention : Reuss Voigt Hill
#
# Bulk Modulus (GPa) = 16.90878 43.46948 30.18913
# Shear Modulus (GPa) = 9.77997 24.60839 17.19418
#
# Velocity S-wave (km/s) = 2.33846 3.70940 3.10065
# Velocity P-wave (km/s) = 4.09215 6.53084 5.44966
#
# Compressibility (1/GPa) = 0.05914087
#
# Stress axis : x y z
#
# Youngs Moduli (GPa) = 60.93237 26.67364 104.75680
#
# Poissons Ratio (x) = -0.17759 0.75996
# Poissons Ratio (y) = -0.40568 0.16309
# Poissons Ratio (z) = 0.44204 0.04153
#
# Static dielectric constant tensor:
#      x y z
#    x 1.596630 0.000000 0.000000 
#    y 0.000000 1.678730 0.000000 
#    z 0.000000 0.000000 1.627730 
# 
# From -- ./inp_files/15945.got.cif
#   From: 2010.05.17/outbox.cif.g08.bks.cpg/sg59_8_cif.got.tgz:15945.got - 2010.06.03 14:40:33.
