data_PCOD9447406
_publ_section_title
;
Structure prediction by ZEFSAII (Michael W. Deem and Ramdas Pophale) SiO2 
 PCOD9447406
Probable space group: P M M N
;
_chemical_formula_sum "Si O2"
_cell_formula_units_Z 56
_cell_length_a 18.809084
_cell_length_b 9.135925
_cell_length_c 19.379998
_cell_angle_alpha 90.000000
_cell_angle_beta 90.000000
_cell_angle_gamma 90.000000
_cell_volume 3330.227475
_symmetry_space_group_name_H-M "P M M N"
_symmetry_group_IT_number 59
_space_group.IT_coordinate_system_code '2'
_symmetry_cell_setting 'orthorhombic'
loop_
_space_group_symop_operation_xyz
x,y,z
1/2-x,1/2-y,z
1/2+x,-y,-z
-x,1/2+y,-z
-x,-y,-z
1/2+x,1/2+y,-z
1/2-x,y,z
x,1/2-y,z
loop_
_atom_site_type_symbol
_atom_site_label
_atom_site_fract_x
_atom_site_fract_y
_atom_site_fract_z
Si Si1 0.399394 0.075795 0.278297
Si Si2 0.831616 0.925176 0.869006
Si Si3 0.033000 0.924936 0.066937
Si Si4 0.669136 0.928234 0.296757
Si Si5 0.965853 0.925537 0.213595
Si Si6 0.835860 0.420232 0.588594
Si Si7 0.836497 0.581597 0.449975
O O1 0.405059 0.250000 0.285173
O O2 0.349654 0.044931 0.211497
O O3 0.474912 0.005438 0.259212
O O4 0.368061 0.007072 0.347371
O O5 0.750000 0.964356 0.883777
O O6 0.840099 0.750000 0.879261
O O7 0.889687 0.010036 0.914104
O O8 0.036889 0.750000 0.058499
O O9 0.983991 0.957107 0.134029
O O10 0.000000 0.000000 0.000000
O O11 0.750000 0.979101 0.284802
O O12 0.671707 0.750000 0.298907
O O13 0.612133 0.970098 0.239318
O O14 0.643755 0.973135 0.373541
O O15 0.972868 0.750000 0.222890
O O16 0.750000 0.432485 0.591519
O O17 0.854798 0.250000 0.593248
O O18 0.859311 0.486644 0.515127
O O19 0.750000 0.583096 0.449311
O O20 0.859963 0.750000 0.458432
#
# Coordination Sequence:
#
# PCOD9447406 Si02
#       7
#     8   8   8   8   8   8   8
#     4  10  19  31  48  70  98 131 165 200 242 292
#     4   9  18  33  53  76 100 128 165 207 248 291
#     4  10  20  34  53  76 104 137 167 197 239 291
#     4   8  14  28  52  76  94 117 155 203 249 291
#     4   9  18  33  52  74  98 124 159 201 244 291
#     4  10  19  29  43  66  96 128 162 201 242 284
#     4   8  14  26  45  67  90 119 156 197 242 290
#
# _framework density 16.815667999999999
#
# number of rings (size 3 to 8) (size 9 to 14) (size 15 to 20)
#    0.000    2.857    0.000    2.571    0.000    2.857 
#    0.000    2.143    0.000    3.857    0.000    0.000 
#    0.000    0.000    0.000    0.000    0.000    0.000 
#
# Total GULP energy -312093.869499 kJ/mol
# GULP energy per Si atom -5573.104812 kJ/mol
# Density = 1.677740 g / cm^3
# Si number density = 16.815668 Si / 1000 Ang^3
#
#
#
# Elastic Constant Matrix: (Units=GPa)
#
#
# Indices 1 2 3 4 5 6 
#
# 1 100.1947 48.0051 81.1179 0.0000 0.0000 0.0000
# 2 48.0051 50.6558 56.7465 0.0000 0.0000 0.0000
# 3 81.1179 56.7465 118.6616 0.0000 0.0000 0.0000
# 4 0.0000 0.0000 0.0000 19.9420 0.0000 0.0000
# 5 0.0000 0.0000 0.0000 0.0000 23.3542 0.0000
# 6 0.0000 0.0000 0.0000 0.0000 0.0000 21.4675
#
#
#
# Elastic Compliance Matrix: (Units=1/GPa)
#
#
# Indices 1 2 3 4 5 6 
#
# 1 0.024311 -0.009523 -0.012065 0.000000 0.000000 0.000000
# 2 -0.009523 0.046250 -0.015608 0.000000 0.000000 0.000000
# 3 -0.012065 -0.015608 0.024139 0.000000 0.000000 0.000000
# 4 0.000000 0.000000 0.000000 0.050145 0.000000 0.000000
# 5 0.000000 0.000000 0.000000 0.000000 0.042819 0.000000
# 6 0.000000 0.000000 0.000000 0.000000 0.000000 0.046582
#
#
# Mechanical properties :
#
#
# Convention : Reuss Voigt Hill
#
# Bulk Modulus (GPa) = 49.24057 71.25012 60.24535
# Shear Modulus (GPa) = 15.85243 18.52892 17.19067
#
# Velocity S-wave (km/s) = 3.07370 3.32306 3.20081
# Velocity P-wave (km/s) = 6.47634 7.56220 7.04024
#
# Compressibility (1/GPa) = 0.02030846
#
# Stress axis : x y z
#
# Youngs Moduli (GPa) = 41.13299 21.62141 41.42663
#
# Poissons Ratio (x) = 0.20591 0.49982
# Poissons Ratio (y) = 0.39173 0.64657
# Poissons Ratio (z) = 0.49628 0.33746
#
# Static dielectric constant tensor:
#      x y z
#    x 1.560550 0.000000 0.000000 
#    y 0.000000 1.558680 0.000000 
#    z 0.000000 0.000000 1.557160 
# 
# From -- ./inp_files/30627.got.cif
#   From: 2010.05.17/outbox.cif.g08.bks.cpg/sg59_16_cif.got.tgz:30627.got - 2010.06.03 14:40:33.
