data_PCOD9447108
_publ_section_title
;
Structure prediction by ZEFSAII (Michael W. Deem and Ramdas Pophale) SiO2 
 PCOD9447108
Probable space group: P M M N
;
_chemical_formula_sum "Si O2"
_cell_formula_units_Z 64
_cell_length_a 7.861481
_cell_length_b 19.611673
_cell_length_c 20.263924
_cell_angle_alpha 90.000000
_cell_angle_beta 90.000000
_cell_angle_gamma 90.000000
_cell_volume 3124.226850
_symmetry_space_group_name_H-M "P M M N"
_symmetry_group_IT_number 59
_space_group.IT_coordinate_system_code '2'
_symmetry_cell_setting 'orthorhombic'
loop_
_space_group_symop_operation_xyz
x,y,z
1/2-x,1/2-y,z
1/2+x,-y,-z
-x,1/2+y,-z
-x,-y,-z
1/2+x,1/2+y,-z
1/2-x,y,z
x,1/2-y,z
loop_
_atom_site_type_symbol
_atom_site_label
_atom_site_fract_x
_atom_site_fract_y
_atom_site_fract_z
Si Si1 0.046439 0.673090 0.122096
Si Si2 0.041858 0.828036 0.717443
Si Si3 0.547338 0.827407 0.973844
Si Si4 0.047526 0.909137 0.845208
Si Si5 0.953588 0.447395 0.786948
Si Si6 0.045249 0.910609 0.589026
Si Si7 0.041576 0.671400 0.459426
Si Si8 0.045528 0.555642 0.362622
O O1 0.250000 0.676325 0.130821
O O2 0.978084 0.750000 0.130388
O O3 0.978385 0.618131 0.173769
O O4 0.014646 0.651985 0.046444
O O5 0.250000 0.828425 0.717274
O O6 0.987844 0.750000 0.710200
O O7 0.983219 0.860131 0.786367
O O8 0.984803 0.873791 0.655993
O O9 0.750000 0.824258 0.976396
O O10 0.482012 0.750000 0.960446
O O11 0.498779 0.878388 0.915754
O O12 0.250000 0.910246 0.840719
O O13 0.985960 0.984742 0.828799
O O14 0.750000 0.439747 0.781703
O O15 0.020766 0.453658 0.712070
O O16 0.250000 0.907206 0.588496
O O17 0.985861 0.868669 0.525335
O O18 0.997270 0.989666 0.593559
O O19 0.250000 0.672428 0.459939
O O20 0.985758 0.750000 0.457928
O O21 0.986953 0.625051 0.397660
O O22 0.250000 0.558830 0.359530
#
# Coordination Sequence:
#
# PCOD9447108 Si02
#       8
#     8   8   8   8   8   8   8   8
#     4   9  19  37  59  80 102 136 183 228 269 318
#     4   9  17  29  48  75 103 134 176 220 257 297
#     4  10  21  37  57  82 112 143 174 217 274 327
#     4  11  21  34  54  79 109 145 183 223 262 315
#     4  10  21  36  54  78 110 143 178 224 274 323
#     4  10  18  32  54  78 105 140 179 221 264 315
#     4   9  18  32  53  81 108 138 181 227 268 314
#     4  10  20  34  53  78 110 144 176 219 273 324
#
# _framework density 20.485068999999999
#
# number of rings (size 3 to 8) (size 9 to 14) (size 15 to 20)
#    0.000    2.250    1.250    1.875    0.000    4.250 
#    0.000    2.500    0.000    3.375    0.000    1.750 
#    0.000    0.000    0.000    0.000    0.000    0.000 
#
# Total GULP energy -357372.454845 kJ/mol
# GULP energy per Si atom -5583.944607 kJ/mol
# Density = 2.043844 g / cm^3
# Si number density = 20.485069 Si / 1000 Ang^3
#
#
#
# Elastic Constant Matrix: (Units=GPa)
#
#
# Indices 1 2 3 4 5 6 
#
# 1 25.6367 -0.2648 -2.9486 0.0000 0.0000 0.0000
# 2 -0.2648 161.9974 89.4747 0.0000 0.0000 0.0000
# 3 -2.9486 89.4747 97.5774 0.0000 0.0000 0.0000
# 4 0.0000 0.0000 0.0000 37.5872 0.0000 0.0000
# 5 0.0000 0.0000 0.0000 0.0000 5.7272 0.0000
# 6 0.0000 0.0000 0.0000 0.0000 0.0000 17.0415
#
#
#
# Elastic Compliance Matrix: (Units=1/GPa)
#
#
# Indices 1 2 3 4 5 6 
#
# 1 0.039257 -0.001198 0.002284 0.000000 0.000000 0.000000
# 2 -0.001198 0.012544 -0.011539 0.000000 0.000000 0.000000
# 3 0.002284 -0.011539 0.020898 0.000000 0.000000 0.000000
# 4 0.000000 0.000000 0.000000 0.026605 0.000000 0.000000
# 5 0.000000 0.000000 0.000000 0.000000 0.174606 0.000000
# 6 0.000000 0.000000 0.000000 0.000000 0.000000 0.058680
#
#
# Mechanical properties :
#
#
# Convention : Reuss Voigt Hill
#
# Bulk Modulus (GPa) = 19.30683 50.85936 35.08310
# Shear Modulus (GPa) = 13.48589 25.33454 19.41021
#
# Velocity S-wave (km/s) = 2.56857 3.52054 3.08154
# Velocity P-wave (km/s) = 4.27107 6.43483 5.46118
#
# Compressibility (1/GPa) = 0.05179513
#
# Stress axis : x y z
#
# Youngs Moduli (GPa) = 25.47324 79.71971 47.85224
#
# Poissons Ratio (x) = 0.09547 -0.10931
# Poissons Ratio (y) = 0.03050 0.55214
# Poissons Ratio (z) = -0.05819 0.91985
#
# Static dielectric constant tensor:
#      x y z
#    x 1.747030 0.000000 0.000000 
#    y 0.000000 1.706400 0.000000 
#    z 0.000000 0.000000 1.738120 
# 
# From -- ./inp_files/29374.got.cif
#   From: 2010.05.17/outbox.cif.g08.bks.cpg/sg59_15_cif.got.tgz:29374.got - 2010.06.03 14:40:33.
