data_PCOD9447431
_publ_section_title
;
Structure prediction by ZEFSAII (Michael W. Deem and Ramdas Pophale) SiO2 
 PCOD9447431
Probable space group: P M M N
;
_chemical_formula_sum "Si O2"
_cell_formula_units_Z 64
_cell_length_a 19.332272
_cell_length_b 7.419585
_cell_length_c 21.657090
_cell_angle_alpha 90.000000
_cell_angle_beta 90.000000
_cell_angle_gamma 90.000000
_cell_volume 3106.437447
_symmetry_space_group_name_H-M "P M M N"
_symmetry_group_IT_number 59
_space_group.IT_coordinate_system_code '2'
_symmetry_cell_setting 'orthorhombic'
loop_
_space_group_symop_operation_xyz
x,y,z
1/2-x,1/2-y,z
1/2+x,-y,-z
-x,1/2+y,-z
-x,-y,-z
1/2+x,1/2+y,-z
1/2-x,y,z
x,1/2-y,z
loop_
_atom_site_type_symbol
_atom_site_label
_atom_site_fract_x
_atom_site_fract_y
_atom_site_fract_z
Si Si1 0.670628 0.530552 0.436958
Si Si2 0.830143 0.471156 0.803254
Si Si3 0.329626 0.966604 0.929162
Si Si4 0.328812 0.032571 0.423487
Si Si5 0.828839 0.964058 0.206143
Si Si6 0.424577 0.960769 0.308150
Si Si7 0.834116 0.461921 0.938763
Si Si8 0.580344 0.528666 0.321374
O O1 0.750000 0.476809 0.423679
O O2 0.670171 0.750000 0.436909
O O3 0.653237 0.473512 0.506832
O O4 0.618608 0.470705 0.383966
O O5 0.750000 0.524142 0.793528
O O6 0.829856 0.250000 0.803975
O O7 0.878996 0.534982 0.748215
O O8 0.853852 0.533644 0.871477
O O9 0.250000 0.032744 0.925575
O O10 0.327330 0.750000 0.933773
O O11 0.360209 0.008339 0.862247
O O12 0.359129 0.033967 0.994763
O O13 0.250000 0.973170 0.409966
O O14 0.328374 0.250000 0.423705
O O15 0.381284 0.974259 0.371022
O O16 0.750000 0.037378 0.207795
O O17 0.823430 0.750000 0.214702
O O18 0.875748 0.030951 0.261907
O O19 0.433554 0.750000 0.293645
O O20 0.501506 0.034403 0.316518
O O21 0.750000 0.474017 0.940592
O O22 0.851805 0.250000 0.937629
O O23 0.580291 0.750000 0.322257
#
# Coordination Sequence:
#
# PCOD9447431 Si02
#       8
#     8   8   8   8   8   8   8   8
#     4   8  14  27  47  66  84 112 149 181 207 245
#     4   8  13  22  38  60  83 107 137 170 204 248
#     4   8  13  22  38  60  82 102 130 173 218 253
#     4   9  18  32  49  67  86 111 144 178 210 250
#     4   9  16  26  42  62  83 110 143 178 215 254
#     4  10  19  29  44  67  92 115 139 175 221 258
#     4   7  10  18  34  56  79 102 132 170 206 243
#     4   9  17  28  42  63  89 114 144 180 213 249
#
# _framework density 20.602378000000002
#
# number of rings (size 3 to 8) (size 9 to 14) (size 15 to 20)
#    0.000    3.500    0.000    3.000    0.000    2.750 
#    0.000    0.625    0.000    2.250    0.000    5.250 
#    0.000    0.000    0.000    0.000    0.000    0.000 
#
# Total GULP energy -356616.126573 kJ/mol
# GULP energy per Si atom -5572.126978 kJ/mol
# Density = 2.055549 g / cm^3
# Si number density = 20.602378 Si / 1000 Ang^3
#
#
#
# Elastic Constant Matrix: (Units=GPa)
#
#
# Indices 1 2 3 4 5 6 
#
# 1 99.9202 1.5674 109.2517 0.0000 0.0000 0.0000
# 2 1.5674 63.2403 -3.2834 0.0000 0.0000 0.0000
# 3 109.2517 -3.2834 207.5187 0.0000 0.0000 0.0000
# 4 0.0000 0.0000 0.0000 14.0202 0.0000 0.0000
# 5 0.0000 0.0000 0.0000 0.0000 -5.3403 0.0000
# 6 0.0000 0.0000 0.0000 0.0000 0.0000 -1.2012
#
#
#
# Elastic Compliance Matrix: (Units=1/GPa)
#
#
# Indices 1 2 3 4 5 6 
#
# 1 0.023679 -0.001235 -0.012486 0.000000 0.000000 0.000000
# 2 -0.001235 0.015890 0.000902 0.000000 0.000000 0.000000
# 3 -0.012486 0.000902 0.011407 0.000000 0.000000 0.000000
# 4 0.000000 0.000000 0.000000 0.071325 0.000000 0.000000
# 5 0.000000 0.000000 0.000000 0.000000 -0.187255 0.000000
# 6 0.000000 0.000000 0.000000 0.000000 0.000000 -0.832501
#
#
# Mechanical properties :
#
#
# Convention : Reuss Voigt Hill
#
# Bulk Modulus (GPa) = 39.46767 65.08341 52.27554
# Shear Modulus (GPa) = -5.79126 19.03865 6.62370
#
# Velocity S-wave (km/s) = -1.67841 3.04320 1.79499
# Velocity P-wave (km/s) = 3.92968 6.63377 5.45203
#
# Compressibility (1/GPa) = 0.02533719
#
# Stress axis : x y z
#
# Youngs Moduli (GPa) = 42.23092 62.93219 87.66907
#
# Poissons Ratio (x) = 0.07773 1.09463
# Poissons Ratio (y) = 0.05216 -0.07905
# Poissons Ratio (z) = 0.52729 -0.05675
#
# Static dielectric constant tensor:
#      x y z
#    x 1.687740 0.000000 0.000000 
#    y 0.000000 1.806700 0.000000 
#    z 0.000000 0.000000 1.759900 
# 
# From -- ./inp_files/30901.got.cif
#   From: 2010.05.17/outbox.cif.g08.bks.cpg/sg59_16_cif.got.tgz:30901.got - 2010.06.03 14:40:33.
