data_PCOD9447412
_publ_section_title
;
Structure prediction by ZEFSAII (Michael W. Deem and Ramdas Pophale) SiO2 
 PCOD9447412
Probable space group: P M M N
;
_chemical_formula_sum "Si O2"
_cell_formula_units_Z 56
_cell_length_a 9.287357
_cell_length_b 14.992212
_cell_length_c 19.185165
_cell_angle_alpha 90.000000
_cell_angle_beta 90.000000
_cell_angle_gamma 90.000000
_cell_volume 2671.304485
_symmetry_space_group_name_H-M "P M M N"
_symmetry_group_IT_number 59
_space_group.IT_coordinate_system_code '2'
_symmetry_cell_setting 'orthorhombic'
loop_
_space_group_symop_operation_xyz
x,y,z
1/2-x,1/2-y,z
1/2+x,-y,-z
-x,1/2+y,-z
-x,-y,-z
1/2+x,1/2+y,-z
1/2-x,y,z
x,1/2-y,z
loop_
_atom_site_type_symbol
_atom_site_label
_atom_site_fract_x
_atom_site_fract_y
_atom_site_fract_z
Si Si1 0.414671 0.110197 0.647160
Si Si2 0.417825 0.642840 0.069563
Si Si3 0.412131 0.895080 0.220023
Si Si4 0.424220 0.403291 0.494487
Si Si5 0.587673 0.892785 0.778290
Si Si6 0.084561 0.642694 0.918158
Si Si7 0.083207 0.608568 0.642902
O O1 0.250000 0.135725 0.658713
O O2 0.507179 0.141081 0.712541
O O3 0.457122 0.140611 0.569431
O O4 0.418806 0.000862 0.644885
O O5 0.250000 0.613007 0.070570
O O6 0.418811 0.750000 0.069258
O O7 0.483476 0.616465 0.143850
O O8 0.474547 0.612529 0.994003
O O9 0.250000 0.857971 0.216501
O O10 0.402172 0.000826 0.230945
O O11 0.500000 0.500000 0.500000
O O12 0.250000 0.411245 0.488824
O O13 0.492215 0.362670 0.424753
O O14 0.750000 0.856778 0.776805
O O15 0.512837 0.879178 0.852502
O O16 0.490673 0.859557 0.714233
O O17 0.250000 0.610424 0.909081
O O18 0.092255 0.750000 0.921200
O O19 0.250000 0.634929 0.638003
#
# Coordination Sequence:
#
# PCOD9447412 Si02
#       7
#     8   8   8   8   8   8   8
#     4   8  15  25  37  57  87 120 148 178 221 268
#     4   8  15  30  50  68  87 115 152 190 224 261
#     4   9  17  28  44  67  92 118 150 186 224 268
#     4   9  15  23  36  56  84 118 153 186 223 267
#     4  10  19  29  43  67  97 121 144 182 230 275
#     4   9  18  33  51  67  85 115 154 189 221 265
#     4   9  16  26  40  59  85 118 153 185 221 267
#
# _framework density 20.963539999999998
#
# number of rings (size 3 to 8) (size 9 to 14) (size 15 to 20)
#    0.000    3.143    0.000    3.000    0.000    5.429 
#    0.000    0.714    0.000    1.286    0.000    1.000 
#    0.000    3.429    0.000    0.000    0.000    0.000 
#
# Total GULP energy -312012.089900 kJ/mol
# GULP energy per Si atom -5571.644462 kJ/mol
# Density = 2.091583 g / cm^3
# Si number density = 20.963540 Si / 1000 Ang^3
#
#
#
# Elastic Constant Matrix: (Units=GPa)
#
#
# Indices 1 2 3 4 5 6 
#
# 1 104.5831 4.7926 109.0251 0.0000 0.0000 0.0000
# 2 4.7926 43.7408 3.5199 0.0000 0.0000 0.0000
# 3 109.0251 3.5199 256.0937 0.0000 0.0000 0.0000
# 4 0.0000 0.0000 0.0000 63.9862 0.0000 0.0000
# 5 0.0000 0.0000 0.0000 0.0000 30.7139 0.0000
# 6 0.0000 0.0000 0.0000 0.0000 0.0000 -6.8658
#
#
#
# Elastic Compliance Matrix: (Units=1/GPa)
#
#
# Indices 1 2 3 4 5 6 
#
# 1 0.017265 -0.001302 -0.007332 0.000000 0.000000 0.000000
# 2 -0.001302 0.022985 0.000238 0.000000 0.000000 0.000000
# 3 -0.007332 0.000238 0.007023 0.000000 0.000000 0.000000
# 4 0.000000 0.000000 0.000000 0.015628 0.000000 0.000000
# 5 0.000000 0.000000 0.000000 0.000000 0.032559 0.000000
# 6 0.000000 0.000000 0.000000 0.000000 0.000000 -0.145649
#
#
# Mechanical properties :
#
#
# Convention : Reuss Voigt Hill
#
# Bulk Modulus (GPa) = 32.80608 71.01030 51.90819
# Shear Modulus (GPa) = -215.17825 36.70552 -89.23636
#
# Velocity S-wave (km/s) = -10.14233 4.18894 -6.53145
# Velocity P-wave (km/s) = 11.02147 7.57252 5.66258
#
# Compressibility (1/GPa) = 0.03048215
#
# Stress axis : x y z
#
# Youngs Moduli (GPa) = 57.92021 43.50588 142.38791
#
# Poissons Ratio (x) = 0.05663 1.04403
# Poissons Ratio (y) = 0.07539 -0.03392
# Poissons Ratio (z) = 0.42469 -0.01036
#
# Static dielectric constant tensor:
#      x y z
#    x 1.734560 0.000000 0.000000 
#    y 0.000000 1.797710 0.000000 
#    z 0.000000 0.000000 1.791540 
# 
# From -- ./inp_files/26007.got.cif
#   From: 2010.05.17/outbox.cif.g08.bks.cpg/sg59_14_cif.got.tgz:26007.got - 2010.06.03 14:40:33.
