data_PCOD9447355
_publ_section_title
;
Structure prediction by ZEFSAII (Michael W. Deem and Ramdas Pophale) SiO2 
 PCOD9447355
Probable space group: P M M N
;
_chemical_formula_sum "Si O2"
_cell_formula_units_Z 56
_cell_length_a 9.173658
_cell_length_b 14.018947
_cell_length_c 30.077401
_cell_angle_alpha 90.000000
_cell_angle_beta 90.000000
_cell_angle_gamma 90.000000
_cell_volume 3868.104917
_symmetry_space_group_name_H-M "P M M N"
_symmetry_group_IT_number 59
_space_group.IT_coordinate_system_code '2'
_symmetry_cell_setting 'orthorhombic'
loop_
_space_group_symop_operation_xyz
x,y,z
1/2-x,1/2-y,z
1/2+x,-y,-z
-x,1/2+y,-z
-x,-y,-z
1/2+x,1/2+y,-z
1/2-x,y,z
x,1/2-y,z
loop_
_atom_site_type_symbol
_atom_site_label
_atom_site_fract_x
_atom_site_fract_y
_atom_site_fract_z
Si Si1 0.918263 0.134165 0.748560
Si Si2 0.924886 0.861843 0.340963
Si Si3 0.576180 0.546906 0.068116
Si Si4 0.923573 0.358816 0.015558
Si Si5 0.075113 0.857630 0.517094
Si Si6 0.573965 0.362619 0.847761
Si Si7 0.425596 0.047787 0.566579
O O1 0.750000 0.105107 0.743644
O O2 0.921108 0.250000 0.749154
O O3 0.970357 0.106117 0.797847
O O4 0.008050 0.103814 0.705523
O O5 0.750000 0.866512 0.337988
O O6 0.964562 0.750000 0.347291
O O7 0.972147 0.920531 0.384321
O O8 0.750000 0.558934 0.070845
O O9 0.511241 0.611669 0.028461
O O10 0.501237 0.577462 0.113760
O O11 0.544591 0.438094 0.052932
O O12 0.750000 0.365458 0.005742
O O13 0.955778 0.250000 0.028402
O O14 0.250000 0.861506 0.510726
O O15 0.035590 0.750000 0.530031
O O16 0.037620 0.939179 0.552972
O O17 0.998001 0.886725 0.471156
O O18 0.750000 0.370001 0.850370
O O19 0.538210 0.250000 0.853374
O O20 0.250000 0.058544 0.564130
#
# Coordination Sequence:
#
# PCOD9447355 Si02
#       7
#     8   8   8   8   8   8   8
#     4   8  15  27  41  57  78 105 134 160 190 235
#     4   9  16  25  38  57  80 104 129 160 199 238
#     4  10  19  28  42  65  85 104 137 174 201 230
#     4   9  18  32  45  57  81 115 141 163 198 241
#     4   9  17  28  41  58  80 106 137 170 198 229
#     4   9  17  29  43  59  83 113 137 159 197 246
#     4   9  17  28  41  58  81 108 135 163 200 242
#
# _framework density 14.477373999999999
#
# number of rings (size 3 to 8) (size 9 to 14) (size 15 to 20)
#    0.000    3.000    0.000    2.143    0.000    4.857 
#    0.000    2.857    0.000    0.000    0.000    1.000 
#    0.000    5.714    0.000    0.000    0.000    0.000 
#
# Total GULP energy -311820.028970 kJ/mol
# GULP energy per Si atom -5568.214803 kJ/mol
# Density = 1.444442 g / cm^3
# Si number density = 14.477374 Si / 1000 Ang^3
#
#
#
# Elastic Constant Matrix: (Units=GPa)
#
#
# Indices 1 2 3 4 5 6 
#
# 1 19.6903 29.7646 45.2855 0.0000 0.0000 0.0000
# 2 29.7646 85.6342 62.3659 0.0000 0.0000 0.0000
# 3 45.2855 62.3659 153.9413 0.0000 0.0000 0.0000
# 4 0.0000 0.0000 0.0000 20.7128 0.0000 0.0000
# 5 0.0000 0.0000 0.0000 0.0000 28.2027 0.0000
# 6 0.0000 0.0000 0.0000 0.0000 0.0000 16.4449
#
#
#
# Elastic Compliance Matrix: (Units=1/GPa)
#
#
# Indices 1 2 3 4 5 6 
#
# 1 0.237599 -0.044940 -0.051689 0.000000 0.000000 0.000000
# 2 -0.044940 0.025065 0.003066 0.000000 0.000000 0.000000
# 3 -0.051689 0.003066 0.020460 0.000000 0.000000 0.000000
# 4 0.000000 0.000000 0.000000 0.048279 0.000000 0.000000
# 5 0.000000 0.000000 0.000000 0.000000 0.035458 0.000000
# 6 0.000000 0.000000 0.000000 0.000000 0.000000 0.060809
#
#
# Mechanical properties :
#
#
# Convention : Reuss Voigt Hill
#
# Bulk Modulus (GPa) = 10.41703 59.34421 34.88062
# Shear Modulus (GPa) = 7.73041 21.19538 14.46290
#
# Velocity S-wave (km/s) = 2.31328 3.83042 3.16413
# Velocity P-wave (km/s) = 3.78761 7.78735 6.12327
#
# Compressibility (1/GPa) = 0.09599664
#
# Stress axis : x y z
#
# Youngs Moduli (GPa) = 4.20877 39.89594 48.87691
#
# Poissons Ratio (x) = 1.79293 2.52640
# Poissons Ratio (y) = 0.18914 -0.14984
# Poissons Ratio (z) = 0.21755 -0.12231
#
# Static dielectric constant tensor:
#      x y z
#    x 1.483070 0.000000 0.000000 
#    y 0.000000 1.475680 0.000000 
#    z 0.000000 0.000000 1.468210 
# 
# From -- ./inp_files/33166.got.cif
#   From: 2010.05.17/outbox.cif.g08.bks.cpg/sg59_17_cif.got.tgz:33166.got - 2010.06.03 14:40:33.
