data_PCOD9447588
_publ_section_title
;
Structure prediction by ZEFSAII (Michael W. Deem and Ramdas Pophale) SiO2 
 PCOD9447588
Probable space group: P M M N
;
_chemical_formula_sum "Si O2"
_cell_formula_units_Z 64
_cell_length_a 9.405495
_cell_length_b 14.897077
_cell_length_c 21.978168
_cell_angle_alpha 90.000000
_cell_angle_beta 90.000000
_cell_angle_gamma 90.000000
_cell_volume 3079.457454
_symmetry_space_group_name_H-M "P M M N"
_symmetry_group_IT_number 59
_space_group.IT_coordinate_system_code '2'
_symmetry_cell_setting 'orthorhombic'
loop_
_space_group_symop_operation_xyz
x,y,z
1/2-x,1/2-y,z
1/2+x,-y,-z
-x,1/2+y,-z
-x,-y,-z
1/2+x,1/2+y,-z
1/2-x,y,z
x,1/2-y,z
loop_
_atom_site_type_symbol
_atom_site_label
_atom_site_fract_x
_atom_site_fract_y
_atom_site_fract_z
Si Si1 0.909285 0.897069 0.126224
Si Si2 0.083330 0.607474 0.377494
Si Si3 0.423125 0.402821 0.504684
Si Si4 0.583375 0.610891 0.626354
Si Si5 0.085716 0.607644 0.241548
Si Si6 0.910481 0.143703 0.992318
Si Si7 0.084714 0.111702 0.242310
Si Si8 0.910555 0.110556 0.126978
O O1 0.750000 0.860873 0.121108
O O2 0.991502 0.860699 0.185259
O O3 0.900253 0.003883 0.135567
O O4 0.995294 0.885680 0.064054
O O5 0.250000 0.629700 0.387458
O O6 0.074863 0.498131 0.375611
O O7 0.041848 0.637418 0.309442
O O8 0.985776 0.638241 0.433387
O O9 0.500000 0.500000 0.500000
O O10 0.250000 0.410710 0.506984
O O11 0.464361 0.357301 0.440212
O O12 0.750000 0.633576 0.629807
O O13 0.522633 0.639386 0.691655
O O14 0.250000 0.633654 0.232433
O O15 0.083029 0.497994 0.241938
O O16 0.750000 0.103842 0.989340
O O17 0.898161 0.250000 0.987336
O O18 0.971415 0.124761 0.059412
O O19 0.250000 0.137784 0.238206
O O20 0.000553 0.144599 0.183675
O O21 0.750000 0.147268 0.126674
#
# Coordination Sequence:
#
# PCOD9447588 Si02
#       8
#     8   8   8   8   8   8   8   8
#     4  10  19  30  47  70  92 111 138 182 224 255
#     4   8  13  21  31  45  67  97 134 172 206 242
#     4   9  14  19  27  40  63  97 135 172 207 247
#     4   7  11  19  29  43  66  97 133 168 202 244
#     4   8  14  25  40  56  78 108 140 173 209 255
#     4  10  21  36  51  65  86 118 148 172 207 261
#     4   8  13  23  39  56  75 104 140 174 210 252
#     4   9  18  31  46  67  90 110 140 181 220 256
#
# _framework density 20.782881
#
# number of rings (size 3 to 8) (size 9 to 14) (size 15 to 20)
#    0.000    3.375    0.000    3.375    0.000    1.750 
#    0.000    6.875    0.000    0.000    0.000    0.000 
#    0.000    0.000    0.000    1.125    0.000   19.000 
#
# Total GULP energy -356480.315439 kJ/mol
# GULP energy per Si atom -5570.004929 kJ/mol
# Density = 2.073558 g / cm^3
# Si number density = 20.782881 Si / 1000 Ang^3
#
#
#
# Elastic Constant Matrix: (Units=GPa)
#
#
# Indices 1 2 3 4 5 6 
#
# 1 81.3166 4.2107 108.3310 0.0000 0.0000 0.0000
# 2 4.2107 53.3741 5.1283 0.0000 0.0000 0.0000
# 3 108.3310 5.1283 266.4020 0.0000 0.0000 0.0000
# 4 0.0000 0.0000 0.0000 -39.2754 0.0000 0.0000
# 5 0.0000 0.0000 0.0000 0.0000 4.1821 0.0000
# 6 0.0000 0.0000 0.0000 0.0000 0.0000 -15.8640
#
#
#
# Elastic Compliance Matrix: (Units=1/GPa)
#
#
# Indices 1 2 3 4 5 6 
#
# 1 0.026897 -0.001073 -0.010917 0.000000 0.000000 0.000000
# 2 -0.001073 0.018813 0.000074 0.000000 0.000000 0.000000
# 3 -0.010917 0.000074 0.008192 0.000000 0.000000 0.000000
# 4 0.000000 0.000000 0.000000 -0.025461 0.000000 0.000000
# 5 0.000000 0.000000 0.000000 0.000000 0.239112 0.000000
# 6 0.000000 0.000000 0.000000 0.000000 0.000000 -0.063036
#
#
# Mechanical properties :
#
#
# Convention : Reuss Voigt Hill
#
# Bulk Modulus (GPa) = 33.25545 70.71474 51.98510
# Shear Modulus (GPa) = 20.97574 8.70338 14.83956
#
# Velocity S-wave (km/s) = 3.18036 2.04862 2.67503
# Velocity P-wave (km/s) = 5.43345 6.30041 5.88292
#
# Compressibility (1/GPa) = 0.03007026
#
# Stress axis : x y z
#
# Youngs Moduli (GPa) = 37.17950 53.15420 122.07750
#
# Poissons Ratio (x) = 0.05703 1.33268
# Poissons Ratio (y) = 0.03989 -0.00905
# Poissons Ratio (z) = 0.40588 -0.00394
#
# Static dielectric constant tensor:
#      x y z
#    x 1.716420 0.000000 0.000000 
#    y 0.000000 1.781610 0.000000 
#    z 0.000000 0.000000 1.786940 
# 
# From -- ./inp_files/29745.got.cif
#   From: 2010.05.17/outbox.cif.g08.bks.cpg/sg59_15_cif.got.tgz:29745.got - 2010.06.03 14:40:33.
