data_PCOD9447462
_publ_section_title
;
Structure prediction by ZEFSAII (Michael W. Deem and Ramdas Pophale) SiO2 
 PCOD9447462
Probable space group: P M M N
;
_chemical_formula_sum "Si O2"
_cell_formula_units_Z 64
_cell_length_a 7.448297
_cell_length_b 16.823866
_cell_length_c 23.292127
_cell_angle_alpha 90.000000
_cell_angle_beta 90.000000
_cell_angle_gamma 90.000000
_cell_volume 2918.716651
_symmetry_space_group_name_H-M "P M M N"
_symmetry_group_IT_number 59
_space_group.IT_coordinate_system_code '2'
_symmetry_cell_setting 'orthorhombic'
loop_
_space_group_symop_operation_xyz
x,y,z
1/2-x,1/2-y,z
1/2+x,-y,-z
-x,1/2+y,-z
-x,-y,-z
1/2+x,1/2+y,-z
1/2-x,y,z
x,1/2-y,z
loop_
_atom_site_type_symbol
_atom_site_label
_atom_site_fract_x
_atom_site_fract_y
_atom_site_fract_z
Si Si1 0.967874 0.341585 0.269057
Si Si2 0.452637 0.658807 0.505256
Si Si3 0.470368 0.571604 0.615869
Si Si4 0.452286 0.344674 0.742051
Si Si5 0.464216 0.998594 0.932468
Si Si6 0.470358 0.157987 0.868365
Si Si7 0.962688 0.609176 0.379952
Si Si8 0.469063 0.657386 0.862060
O O1 0.750000 0.346157 0.268473
O O2 0.016620 0.250000 0.279626
O O3 0.030422 0.392806 0.323199
O O4 0.023920 0.361353 0.203961
O O5 0.250000 0.627895 0.502409
O O6 0.453288 0.750000 0.523009
O O7 0.539940 0.612914 0.558027
O O8 0.512336 0.654117 0.439612
O O9 0.250000 0.577991 0.616481
O O10 0.520226 0.480494 0.611041
O O11 0.250000 0.380646 0.743660
O O12 0.434808 0.250000 0.742683
O O13 0.533563 0.363352 0.803758
O O14 0.540115 0.363604 0.681067
O O15 0.250000 0.998236 0.922971
O O16 0.528414 0.083660 0.907223
O O17 0.529257 0.916033 0.902525
O O18 0.500000 0.000000 0.000000
O O19 0.250000 0.159990 0.867923
O O20 0.524314 0.250000 0.882467
O O21 0.750000 0.611991 0.371242
O O22 0.250000 0.658927 0.863616
O O23 0.524008 0.750000 0.875224
#
# Coordination Sequence:
#
# PCOD9447462 Si02
#       8
#     8   8   8   8   8   8   8   8
#     4   8  13  23  41  66  94 120 149 189 234 276
#     4  10  20  33  46  60  87 127 161 187 222 275
#     4   9  17  27  42  66  92 118 150 190 234 277
#     4   8  14  25  42  66  92 114 142 186 234 271
#     4  10  20  32  49  72  98 127 158 191 228 277
#     4   8  15  28  46  69  96 124 156 195 234 272
#     4  10  19  29  46  71  94 115 146 193 241 278
#     4   8  15  27  44  69  99 126 153 192 239 280
#
# _framework density 21.927444999999999
#
# number of rings (size 3 to 8) (size 9 to 14) (size 15 to 20)
#    0.000    3.125    0.000    2.625    1.750    2.750 
#    0.000    0.000    0.000    0.750    0.000    2.625 
#    0.000    2.000    0.000    0.000    0.000    0.000 
#
# Total GULP energy -356456.505471 kJ/mol
# GULP energy per Si atom -5569.632898 kJ/mol
# Density = 2.187754 g / cm^3
# Si number density = 21.927445 Si / 1000 Ang^3
#
#
#
# Elastic Constant Matrix: (Units=GPa)
#
#
# Indices 1 2 3 4 5 6 
#
# 1 58.4075 12.3992 4.4642 0.0000 0.0000 0.0000
# 2 12.3992 85.1646 90.1143 0.0000 0.0000 0.0000
# 3 4.4642 90.1143 161.8982 0.0000 0.0000 0.0000
# 4 0.0000 0.0000 0.0000 49.3305 0.0000 0.0000
# 5 0.0000 0.0000 0.0000 0.0000 3.8783 0.0000
# 6 0.0000 0.0000 0.0000 0.0000 0.0000 -3.5062
#
#
#
# Elastic Compliance Matrix: (Units=1/GPa)
#
#
# Indices 1 2 3 4 5 6 
#
# 1 0.018026 -0.005105 0.002345 0.000000 0.000000 0.000000
# 2 -0.005105 0.030012 -0.016565 0.000000 0.000000 0.000000
# 3 0.002345 -0.016565 0.015332 0.000000 0.000000 0.000000
# 4 0.000000 0.000000 0.000000 0.020271 0.000000 0.000000
# 5 0.000000 0.000000 0.000000 0.000000 0.257845 0.000000
# 6 0.000000 0.000000 0.000000 0.000000 0.000000 -0.285206
#
#
# Mechanical properties :
#
#
# Convention : Reuss Voigt Hill
#
# Bulk Modulus (GPa) = 40.45324 57.71397 49.08360
# Shear Modulus (GPa) = 48.46319 23.17336 35.81827
#
# Velocity S-wave (km/s) = 4.70634 3.25440 4.04603
# Velocity P-wave (km/s) = 6.92976 6.36389 6.65284
#
# Compressibility (1/GPa) = 0.02471990
#
# Stress axis : x y z
#
# Youngs Moduli (GPa) = 55.47645 33.31946 65.22278
#
# Poissons Ratio (x) = 0.17010 -0.15292
# Poissons Ratio (y) = 0.28322 1.08038
# Poissons Ratio (z) = -0.13007 0.55192
#
# Static dielectric constant tensor:
#      x y z
#    x 1.911000 0.000000 0.000000 
#    y 0.000000 1.761640 0.000000 
#    z 0.000000 0.000000 1.828490 
# 
# From -- ./inp_files/27189.got.cif
#   From: 2010.05.17/outbox.cif.g08.bks.cpg/sg59_14_cif.got.tgz:27189.got - 2010.06.03 14:40:33.
