data_PCOD9447680
_publ_section_title
;
Structure prediction by ZEFSAII (Michael W. Deem and Ramdas Pophale) SiO2 
 PCOD9447680
Probable space group: P M M N
;
_chemical_formula_sum "Si O2"
_cell_formula_units_Z 64
_cell_length_a 24.396517
_cell_length_b 14.200956
_cell_length_c 9.608868
_cell_angle_alpha 90.000000
_cell_angle_beta 90.000000
_cell_angle_gamma 90.000000
_cell_volume 3329.029452
_symmetry_space_group_name_H-M "P M M N"
_symmetry_group_IT_number 59
_space_group.IT_coordinate_system_code '2'
_symmetry_cell_setting 'orthorhombic'
loop_
_space_group_symop_operation_xyz
x,y,z
1/2-x,1/2-y,z
1/2+x,-y,-z
-x,1/2+y,-z
-x,-y,-z
1/2+x,1/2+y,-z
1/2-x,y,z
x,1/2-y,z
loop_
_atom_site_type_symbol
_atom_site_label
_atom_site_fract_x
_atom_site_fract_y
_atom_site_fract_z
Si Si1 0.013160 0.640170 0.297477
Si Si2 0.313767 0.496140 0.797139
Si Si3 0.683978 0.144060 0.979631
Si Si4 0.311256 0.637736 0.322815
Si Si5 0.596895 0.639963 0.109651
Si Si6 0.987121 0.139173 0.376124
Si Si7 0.957154 0.523774 0.875510
Si Si8 0.139980 0.640976 0.603366
O O1 0.030356 0.750000 0.297660
O O2 0.955359 0.632118 0.214283
O O3 0.005206 0.611393 0.460089
O O4 0.053050 0.574912 0.204708
O O5 0.250000 0.475434 0.821438
O O6 0.351649 0.405911 0.811635
O O7 0.321599 0.559261 0.660854
O O8 0.336800 0.572076 0.907882
O O9 0.750000 0.151338 0.999373
O O10 0.661315 0.250000 0.993960
O O11 0.676616 0.099631 0.828477
O O12 0.250000 0.607584 0.368812
O O13 0.307081 0.750000 0.298470
O O14 0.356710 0.626837 0.438259
O O15 0.604581 0.750000 0.080526
O O16 0.586250 0.584452 0.964408
O O17 0.001137 0.250000 0.368722
O O18 0.018118 0.084683 0.253131
O O19 0.922067 0.129493 0.347986
O O20 0.000000 0.500000 0.000000
O O21 0.158093 0.750000 0.632361
#
# Coordination Sequence:
#
# PCOD9447680 Si02
#       8
#     8   8   8   8   8   8   8   8
#     4   9  19  36  58  84 115 144 174 218 273 334
#     4  11  22  35  52  75 102 137 182 226 269 314
#     4   8  15  29  48  71 102 138 173 209 253 308
#     4   8  14  26  44  67 101 145 180 204 241 300
#     4  10  22  40  58  77 102 137 182 230 279 325
#     4  10  20  34  54  83 115 147 181 219 263 320
#     4  10  19  34  56  80 108 142 179 219 268 323
#     4  10  19  30  48  79 115 142 168 204 253 317
#
# _framework density 19.224822
#
# number of rings (size 3 to 8) (size 9 to 14) (size 15 to 20)
#    0.000    2.500    0.000    3.750    0.000    3.000 
#    0.000    2.500    0.000    0.000    0.000    0.000 
#    0.000    6.000    0.000    0.000    0.000    0.000 
#
# Total GULP energy -356506.101186 kJ/mol
# GULP energy per Si atom -5570.407831 kJ/mol
# Density = 1.918107 g / cm^3
# Si number density = 19.224822 Si / 1000 Ang^3
#
#
#
# Elastic Constant Matrix: (Units=GPa)
#
#
# Indices 1 2 3 4 5 6 
#
# 1 51.6563 31.7456 9.2950 0.0000 0.0000 0.0000
# 2 31.7456 92.5776 36.2023 0.0000 0.0000 0.0000
# 3 9.2950 36.2023 97.5760 0.0000 0.0000 0.0000
# 4 0.0000 0.0000 0.0000 22.9040 0.0000 0.0000
# 5 0.0000 0.0000 0.0000 0.0000 18.5608 0.0000
# 6 0.0000 0.0000 0.0000 0.0000 0.0000 19.6566
#
#
#
# Elastic Compliance Matrix: (Units=1/GPa)
#
#
# Indices 1 2 3 4 5 6 
#
# 1 0.024598 -0.008794 0.000920 0.000000 0.000000 0.000000
# 2 -0.008794 0.015779 -0.005017 0.000000 0.000000 0.000000
# 3 0.000920 -0.005017 0.012022 0.000000 0.000000 0.000000
# 4 0.000000 0.000000 0.000000 0.043661 0.000000 0.000000
# 5 0.000000 0.000000 0.000000 0.000000 0.053877 0.000000
# 6 0.000000 0.000000 0.000000 0.000000 0.000000 0.050874
#
#
# Mechanical properties :
#
#
# Convention : Reuss Voigt Hill
#
# Bulk Modulus (GPa) = 37.57071 44.03285 40.80178
# Shear Modulus (GPa) = 21.23456 23.19539 22.21498
#
# Velocity S-wave (km/s) = 3.32707 3.47729 3.40301
# Velocity P-wave (km/s) = 5.86041 6.25107 6.05889
#
# Compressibility (1/GPa) = 0.02661648
#
# Stress axis : x y z
#
# Youngs Moduli (GPa) = 40.65380 63.37469 83.18056
#
# Poissons Ratio (x) = 0.55735 -0.07650
# Poissons Ratio (y) = 0.35753 0.41728
# Poissons Ratio (z) = -0.03739 0.31792
#
# Static dielectric constant tensor:
#      x y z
#    x 1.700810 0.000000 0.000000 
#    y 0.000000 1.708000 0.000000 
#    z 0.000000 0.000000 1.712170 
# 
# From -- ./inp_files/12214.got.cif
#   From: 2010.05.17/outbox.cif.g08.bks.cpg/sg59_7_cif.got.tgz:12214.got - 2010.06.03 14:40:33.
