data_PCOD9447052
_publ_section_title
;
Structure prediction by ZEFSAII (Michael W. Deem and Ramdas Pophale) SiO2 
 PCOD9447052
Probable space group: P M M N
;
_chemical_formula_sum "Si O2"
_cell_formula_units_Z 64
_cell_length_a 32.025425
_cell_length_b 7.804840
_cell_length_c 12.617469
_cell_angle_alpha 90.000000
_cell_angle_beta 90.000000
_cell_angle_gamma 90.000000
_cell_volume 3153.778242
_symmetry_space_group_name_H-M "P M M N"
_symmetry_group_IT_number 59
_space_group.IT_coordinate_system_code '2'
_symmetry_cell_setting 'orthorhombic'
loop_
_space_group_symop_operation_xyz
x,y,z
1/2-x,1/2-y,z
1/2+x,-y,-z
-x,1/2+y,-z
-x,-y,-z
1/2+x,1/2+y,-z
1/2-x,y,z
x,1/2-y,z
loop_
_atom_site_type_symbol
_atom_site_label
_atom_site_fract_x
_atom_site_fract_y
_atom_site_fract_z
Si Si1 0.983435 0.044022 0.616206
Si Si2 0.049082 0.454587 0.987572
Si Si3 0.609637 0.046336 0.645074
Si Si4 0.629422 0.553311 0.415264
Si Si5 0.798361 0.456074 0.265952
Si Si6 0.298067 0.540477 0.974921
Si Si7 0.127964 0.545311 0.126188
Si Si8 0.939189 0.959899 0.249045
O O1 0.982002 0.250000 0.622496
O O2 0.937163 0.974920 0.632640
O O3 0.016021 0.986695 0.704966
O O4 0.000000 0.000000 0.500000
O O5 0.051207 0.250000 0.987781
O O6 0.064928 0.517975 0.871988
O O7 0.082057 0.516187 0.075692
O O8 0.000000 0.500000 0.000000
O O9 0.605791 0.250000 0.660904
O O10 0.629495 0.978006 0.753364
O O11 0.631491 0.023147 0.532186
O O12 0.617425 0.750000 0.431417
O O13 0.672258 0.538587 0.352386
O O14 0.594898 0.477719 0.334252
O O15 0.750000 0.495375 0.284073
O O16 0.803469 0.250000 0.271402
O O17 0.808552 0.511028 0.145788
O O18 0.250000 0.488141 0.998862
O O19 0.297718 0.750000 0.975514
O O20 0.334295 0.477808 0.053142
O O21 0.134054 0.750000 0.128537
O O22 0.937212 0.750000 0.247527
#
# Coordination Sequence:
#
# PCOD9447052 Si02
#       8
#     8   8   8   8   8   8   8   8
#     4  10  18  32  50  69  98 136 178 218 260 308
#     4  11  22  37  55  77 109 145 182 224 275 331
#     4  10  21  35  52  75 108 147 181 222 270 317
#     4  11  21  34  54  78 105 137 176 219 261 311
#     4   9  18  34  56  81 109 136 165 210 265 317
#     4   8  15  31  58  88 111 135 174 222 268 323
#     4  10  20  36  57  80 110 146 184 226 275 326
#     4   9  19  34  52  75 105 136 168 217 272 313
#
# _framework density 20.293119999999998
#
# number of rings (size 3 to 8) (size 9 to 14) (size 15 to 20)
#    0.000    2.250    1.250    3.000    0.000    2.750 
#    0.000    5.000    0.000    3.375    0.000    0.000 
#    0.000    0.000    0.000    0.000    0.000    0.000 
#
# Total GULP energy -357193.353843 kJ/mol
# GULP energy per Si atom -5581.146154 kJ/mol
# Density = 2.024693 g / cm^3
# Si number density = 20.293120 Si / 1000 Ang^3
#
#
#
# Elastic Constant Matrix: (Units=GPa)
#
#
# Indices 1 2 3 4 5 6 
#
# 1 78.6767 1.2314 68.5212 0.0000 0.0000 0.0000
# 2 1.2314 21.2191 3.6411 0.0000 0.0000 0.0000
# 3 68.5212 3.6411 159.6740 0.0000 0.0000 0.0000
# 4 0.0000 0.0000 0.0000 11.9004 0.0000 0.0000
# 5 0.0000 0.0000 0.0000 0.0000 36.4710 0.0000
# 6 0.0000 0.0000 0.0000 0.0000 0.0000 16.3750
#
#
#
# Elastic Compliance Matrix: (Units=1/GPa)
#
#
# Indices 1 2 3 4 5 6 
#
# 1 0.020298 0.000318 -0.008718 0.000000 0.000000 0.000000
# 2 0.000318 0.047318 -0.001215 0.000000 0.000000 0.000000
# 3 -0.008718 -0.001215 0.010031 0.000000 0.000000 0.000000
# 4 0.000000 0.000000 0.000000 0.084031 0.000000 0.000000
# 5 0.000000 0.000000 0.000000 0.000000 0.027419 0.000000
# 6 0.000000 0.000000 0.000000 0.000000 0.000000 0.061069
#
#
# Mechanical properties :
#
#
# Convention : Reuss Voigt Hill
#
# Bulk Modulus (GPa) = 17.11845 45.15078 31.13462
# Shear Modulus (GPa) = 17.30897 25.36101 21.33499
#
# Velocity S-wave (km/s) = 2.92370 3.53899 3.24596
# Velocity P-wave (km/s) = 4.45547 6.24475 5.42440
#
# Compressibility (1/GPa) = 0.05841649
#
# Stress axis : x y z
#
# Youngs Moduli (GPa) = 49.26691 21.13381 99.68627
#
# Poissons Ratio (x) = -0.00672 0.86902
# Poissons Ratio (y) = -0.01567 0.12116
# Poissons Ratio (z) = 0.42949 0.02569
#
# Static dielectric constant tensor:
#      x y z
#    x 1.715900 0.000000 0.000000 
#    y 0.000000 1.807560 0.000000 
#    z 0.000000 0.000000 1.738960 
# 
# From -- ./inp_files/19321.got.cif
#   From: 2010.05.17/outbox.cif.g08.bks.cpg/sg59_10_cif.got.tgz:19321.got - 2010.06.03 14:40:33.
