data_PCOD9447153
_publ_section_title
;
Structure prediction by ZEFSAII (Michael W. Deem and Ramdas Pophale) SiO2 
 PCOD9447153
Probable space group: P M M N
;
_chemical_formula_sum "Si O2"
_cell_formula_units_Z 56
_cell_length_a 8.105602
_cell_length_b 15.479929
_cell_length_c 22.631409
_cell_angle_alpha 90.000000
_cell_angle_beta 90.000000
_cell_angle_gamma 90.000000
_cell_volume 2839.656660
_symmetry_space_group_name_H-M "P M M N"
_symmetry_group_IT_number 59
_space_group.IT_coordinate_system_code '2'
_symmetry_cell_setting 'orthorhombic'
loop_
_space_group_symop_operation_xyz
x,y,z
1/2-x,1/2-y,z
1/2+x,-y,-z
-x,1/2+y,-z
-x,-y,-z
1/2+x,1/2+y,-z
1/2-x,y,z
x,1/2-y,z
loop_
_atom_site_type_symbol
_atom_site_label
_atom_site_fract_x
_atom_site_fract_y
_atom_site_fract_z
Si Si1 0.446586 0.987466 0.792059
Si Si2 0.449451 0.653660 0.140031
Si Si3 0.446042 0.435370 0.338407
Si Si4 0.946262 0.250000 0.385808
Si Si5 0.551082 0.401633 0.989990
Si Si6 0.050370 0.942201 0.443641
Si Si7 0.548608 0.343688 0.116951
Si Si8 0.451879 0.750000 0.477932
O O1 0.250000 0.980265 0.791643
O O2 0.494076 0.082161 0.813976
O O3 0.508026 0.962642 0.727555
O O4 0.511747 0.920560 0.841646
O O5 0.250000 0.652368 0.138502
O O6 0.503673 0.750000 0.155528
O O7 0.509134 0.631036 0.073531
O O8 0.250000 0.435635 0.343679
O O9 0.502841 0.338566 0.354046
O O10 0.510622 0.505477 0.386093
O O11 0.750000 0.250000 0.388803
O O12 0.007867 0.250000 0.453606
O O13 0.750000 0.395076 0.988618
O O14 0.494097 0.353058 0.049053
O O15 0.500000 0.500000 0.000000
O O16 0.250000 0.939558 0.442174
O O17 0.994925 0.841980 0.449781
O O18 0.000000 0.000000 0.500000
O O19 0.750000 0.347426 0.116159
O O20 0.500609 0.250000 0.140595
O O21 0.250000 0.750000 0.476976
#
# Coordination Sequence:
#
# PCOD9447153 Si02
#       8
#     8   8   8   4   8   8   8   4
#     4  11  23  39  60  84 115 156 200 244 293 351
#     4  10  21  38  61  85 112 151 197 246 304 363
#     4  11  24  40  59  88 125 160 197 245 296 350
#     4  11  21  37  65  93 121 157 196 235 288 359
#     4  10  18  32  56  83 112 145 186 239 296 355
#     4  10  20  37  61  87 118 153 193 239 292 346
#     4   9  18  33  54  81 110 144 187 232 284 348
#     4   9  18  35  61  91 117 149 192 239 290 349
#
# _framework density 19.720694999999999
#
# number of rings (size 3 to 8) (size 9 to 14) (size 15 to 20)
#    0.000    1.857    2.857    1.500    1.000    2.571 
#    1.286    0.357    0.000    3.000    0.000    0.000 
#    0.000    0.000    0.000    0.000    0.000    0.000 
#
# Total GULP energy -312646.090576 kJ/mol
# GULP energy per Si atom -5582.965903 kJ/mol
# Density = 1.967581 g / cm^3
# Si number density = 19.720695 Si / 1000 Ang^3
#
#
#
# Elastic Constant Matrix: (Units=GPa)
#
#
# Indices 1 2 3 4 5 6 
#
# 1 16.2055 12.4824 15.2561 0.0000 0.0000 0.0000
# 2 12.4824 204.2989 96.0633 0.0000 0.0000 0.0000
# 3 15.2561 96.0633 146.0712 0.0000 0.0000 0.0000
# 4 0.0000 0.0000 0.0000 10.8646 0.0000 0.0000
# 5 0.0000 0.0000 0.0000 0.0000 20.6443 0.0000
# 6 0.0000 0.0000 0.0000 0.0000 0.0000 20.9435
#
#
#
# Elastic Compliance Matrix: (Units=1/GPa)
#
#
# Indices 1 2 3 4 5 6 
#
# 1 0.068636 -0.001191 -0.006385 0.000000 0.000000 0.000000
# 2 -0.001191 0.007107 -0.004549 0.000000 0.000000 0.000000
# 3 -0.006385 -0.004549 0.010505 0.000000 0.000000 0.000000
# 4 0.000000 0.000000 0.000000 0.092042 0.000000 0.000000
# 5 0.000000 0.000000 0.000000 0.000000 0.048439 0.000000
# 6 0.000000 0.000000 0.000000 0.000000 0.000000 0.047747
#
#
# Mechanical properties :
#
#
# Convention : Reuss Voigt Hill
#
# Bulk Modulus (GPa) = 16.13001 68.24214 42.18608
# Shear Modulus (GPa) = 15.65467 26.67540 21.16504
#
# Velocity S-wave (km/s) = 2.82054 3.68184 3.27959
# Velocity P-wave (km/s) = 4.33638 7.26320 5.98157
#
# Compressibility (1/GPa) = 0.06199624
#
# Stress axis : x y z
#
# Youngs Moduli (GPa) = 14.56957 140.71259 95.19566
#
# Poissons Ratio (x) = 0.16762 0.60784
# Poissons Ratio (y) = 0.01736 0.43307
# Poissons Ratio (z) = 0.09303 0.64014
#
# Static dielectric constant tensor:
#      x y z
#    x 1.710560 0.000000 0.000000 
#    y 0.000000 1.700640 0.000000 
#    z 0.000000 0.000000 1.691620 
# 
# From -- ./inp_files/29213.got.cif
#   From: 2010.05.17/outbox.cif.g08.bks.cpg/sg59_15_cif.got.tgz:29213.got - 2010.06.03 14:40:33.
