data_PCOD9447745
_publ_section_title
;
Structure prediction by ZEFSAII (Michael W. Deem and Ramdas Pophale) SiO2 
 PCOD9447745
Probable space group: P M M N
;
_chemical_formula_sum "Si O2"
_cell_formula_units_Z 40
_cell_length_a 8.083471
_cell_length_b 7.494256
_cell_length_c 30.462620
_cell_angle_alpha 90.000000
_cell_angle_beta 90.000000
_cell_angle_gamma 90.000000
_cell_volume 1845.413366
_symmetry_space_group_name_H-M "P M M N"
_symmetry_group_IT_number 59
_space_group.IT_coordinate_system_code '2'
_symmetry_cell_setting 'orthorhombic'
loop_
_space_group_symop_operation_xyz
x,y,z
1/2-x,1/2-y,z
1/2+x,-y,-z
-x,1/2+y,-z
-x,-y,-z
1/2+x,1/2+y,-z
1/2-x,y,z
x,1/2-y,z
loop_
_atom_site_type_symbol
_atom_site_label
_atom_site_fract_x
_atom_site_fract_y
_atom_site_fract_z
Si Si1 0.750000 0.032298 0.296313
Si Si2 0.250000 0.968233 0.804661
Si Si3 0.058639 0.469315 0.355655
Si Si4 0.564032 0.036373 0.048618
Si Si5 0.069454 0.468069 0.140487
Si Si6 0.449098 0.052619 0.451274
O O1 0.750000 0.250000 0.296700
O O2 0.750000 0.975230 0.245805
O O3 0.582631 0.976813 0.321528
O O4 0.250000 0.750000 0.805296
O O5 0.414427 0.025887 0.830441
O O6 0.250000 0.521865 0.346287
O O7 0.061045 0.250000 0.356709
O O8 0.009678 0.536348 0.404698
O O9 0.750000 0.966463 0.053169
O O10 0.570499 0.250000 0.052684
O O11 0.457219 0.974262 0.089964
O O12 0.500000 0.000000 0.000000
O O13 0.250000 0.525304 0.156319
O O14 0.068200 0.250000 0.141080
O O15 0.250000 0.055974 0.451180
O O16 0.519655 0.250000 0.446871
O O17 0.500000 0.000000 0.500000
#
# Coordination Sequence:
#
# PCOD9447745 Si02
#       6
#     4   4   8   8   8   8
#     4   9  16  24  40  60  81 117 155 185 228 279
#     4   9  16  26  38  60  87 113 155 193 222 279
#     4   8  15  27  39  56  85 115 146 186 228 273
#     4  10  19  31  47  68  96 127 161 198 233 279
#     4   9  16  27  42  59  86 121 150 186 235 276
#     4   9  18  30  44  65  92 122 157 193 230 277
#
# _framework density 21.675359
#
# number of rings (size 3 to 8) (size 9 to 14) (size 15 to 20)
#    0.000    3.000    1.000    1.800    1.400    2.400 
#    0.000    4.000    0.000    0.000    0.000    0.000 
#    0.000    3.200    0.000    5.600    0.000    6.400 
#
# Total GULP energy -222995.320714 kJ/mol
# GULP energy per Si atom -5574.883018 kJ/mol
# Density = 2.162603 g / cm^3
# Si number density = 21.675359 Si / 1000 Ang^3
#
#
#
# Elastic Constant Matrix: (Units=GPa)
#
#
# Indices 1 2 3 4 5 6 
#
# 1 173.6540 5.4371 114.2955 0.0000 0.0000 0.0000
# 2 5.4371 50.9705 5.1297 0.0000 0.0000 0.0000
# 3 114.2955 5.1297 203.0806 0.0000 0.0000 0.0000
# 4 0.0000 0.0000 0.0000 9.8688 0.0000 0.0000
# 5 0.0000 0.0000 0.0000 0.0000 35.1485 0.0000
# 6 0.0000 0.0000 0.0000 0.0000 0.0000 -0.4869
#
#
#
# Elastic Compliance Matrix: (Units=1/GPa)
#
#
# Indices 1 2 3 4 5 6 
#
# 1 0.009158 -0.000459 -0.005142 0.000000 0.000000 0.000000
# 2 -0.000459 0.019692 -0.000239 0.000000 0.000000 0.000000
# 3 -0.005142 -0.000239 0.007824 0.000000 0.000000 0.000000
# 4 0.000000 0.000000 0.000000 0.101330 0.000000 0.000000
# 5 0.000000 0.000000 0.000000 0.000000 0.028451 0.000000
# 6 0.000000 0.000000 0.000000 0.000000 0.000000 -2.054000
#
#
# Mechanical properties :
#
#
# Convention : Reuss Voigt Hill
#
# Bulk Modulus (GPa) = 40.01120 75.26995 57.64057
# Shear Modulus (GPa) = -2.67733 29.09560 13.20914
#
# Velocity S-wave (km/s) = -1.11260 3.66776 2.47130
# Velocity P-wave (km/s) = 4.10474 7.26210 5.89860
#
# Compressibility (1/GPa) = 0.02499300
#
# Stress axis : x y z
#
# Youngs Moduli (GPa) = 109.19960 50.78141 127.80632
#
# Poissons Ratio (x) = 0.02333 0.65722
# Poissons Ratio (y) = 0.05016 0.03053
# Poissons Ratio (z) = 0.56154 0.01213
#
# Static dielectric constant tensor:
#      x y z
#    x 1.775300 0.000000 0.000000 
#    y 0.000000 2.196890 0.000000 
#    z 0.000000 0.000000 1.788090 
# 
# From -- ./inp_files/32386.got.cif
#   From: 2010.05.17/outbox.cif.g08.bks.cpg/sg59_17_cif.got.tgz:32386.got - 2010.06.03 14:40:33.
