data_PCOD9447454
_publ_section_title
;
Structure prediction by ZEFSAII (Michael W. Deem and Ramdas Pophale) SiO2 
 PCOD9447454
Probable space group: P M M N
;
_chemical_formula_sum "Si O2"
_cell_formula_units_Z 64
_cell_length_a 14.302913
_cell_length_b 8.528602
_cell_length_c 31.504640
_cell_angle_alpha 90.000000
_cell_angle_beta 90.000000
_cell_angle_gamma 90.000000
_cell_volume 3843.057356
_symmetry_space_group_name_H-M "P M M N"
_symmetry_group_IT_number 59
_space_group.IT_coordinate_system_code '2'
_symmetry_cell_setting 'orthorhombic'
loop_
_space_group_symop_operation_xyz
x,y,z
1/2-x,1/2-y,z
1/2+x,-y,-z
-x,1/2+y,-z
-x,-y,-z
1/2+x,1/2+y,-z
1/2-x,y,z
x,1/2-y,z
loop_
_atom_site_type_symbol
_atom_site_label
_atom_site_fract_x
_atom_site_fract_y
_atom_site_fract_z
Si Si1 0.987068 0.061810 0.952588
Si Si2 0.641150 0.561779 0.877049
Si Si3 0.462493 0.062524 0.565035
Si Si4 0.646698 0.940444 0.110218
Si Si5 0.644588 0.060576 0.516181
Si Si6 0.356732 0.939171 0.742319
Si Si7 0.513706 0.938014 0.185919
Si Si8 0.644425 0.438856 0.356434
O O1 0.979194 0.250000 0.953261
O O2 0.082070 0.014293 0.928645
O O3 0.905852 0.999185 0.921028
O O4 0.000000 0.000000 0.000000
O O5 0.750000 0.513954 0.874434
O O6 0.636544 0.750000 0.877446
O O7 0.580470 0.501748 0.836616
O O8 0.459722 0.250000 0.563403
O O9 0.566123 0.010279 0.550237
O O10 0.391892 0.996431 0.529477
O O11 0.429916 0.006426 0.610934
O O12 0.750000 0.003959 0.107568
O O13 0.650370 0.750000 0.110532
O O14 0.594304 0.987588 0.152735
O O15 0.750000 0.005790 0.524626
O O16 0.645357 0.250000 0.515634
O O17 0.250000 0.990552 0.755269
O O18 0.357350 0.750000 0.745088
O O19 0.368670 0.983015 0.692814
O O20 0.442878 0.003541 0.769911
O O21 0.506391 0.750000 0.186781
O O22 0.750000 0.488000 0.368986
O O23 0.641296 0.250000 0.358496
#
# Coordination Sequence:
#
# PCOD9447454 Si02
#       8
#     8   8   8   8   8   8   8   8
#     4  10  20  33  50  73 101 132 165 201 241 286
#     4  10  21  37  56  75  97 131 173 212 249 290
#     4  10  19  29  45  70  94 118 157 206 245 281
#     4   8  15  28  45  66  92 121 151 183 224 275
#     4   9  18  32  47  63  89 126 160 191 238 297
#     4   9  18  32  50  73 101 133 166 197 234 289
#     4  10  19  31  51  77 102 126 155 198 248 294
#     4   9  18  32  48  67  96 133 164 191 234 290
#
# _framework density 16.653407000000001
#
# number of rings (size 3 to 8) (size 9 to 14) (size 15 to 20)
#    0.000    2.625    0.000    3.750    0.000    5.250 
#    0.000    2.500    0.000    7.875    0.000    3.500 
#    0.000    0.000    0.000    0.000    0.000    0.000 
#
# Total GULP energy -356513.675382 kJ/mol
# GULP energy per Si atom -5570.526178 kJ/mol
# Density = 1.661550 g / cm^3
# Si number density = 16.653407 Si / 1000 Ang^3
#
#
#
# Elastic Constant Matrix: (Units=GPa)
#
#
# Indices 1 2 3 4 5 6 
#
# 1 153.8681 32.2433 70.3026 0.0000 0.0000 0.0000
# 2 32.2433 29.9317 24.8661 0.0000 0.0000 0.0000
# 3 70.3026 24.8661 97.1347 0.0000 0.0000 0.0000
# 4 0.0000 0.0000 0.0000 28.1212 0.0000 0.0000
# 5 0.0000 0.0000 0.0000 0.0000 13.1420 0.0000
# 6 0.0000 0.0000 0.0000 0.0000 0.0000 21.6731
#
#
#
# Elastic Compliance Matrix: (Units=1/GPa)
#
#
# Indices 1 2 3 4 5 6 
#
# 1 0.010596 -0.006406 -0.006029 0.000000 0.000000 0.000000
# 2 -0.006406 0.046306 -0.007218 0.000000 0.000000 0.000000
# 3 -0.006029 -0.007218 0.016507 0.000000 0.000000 0.000000
# 4 0.000000 0.000000 0.000000 0.035560 0.000000 0.000000
# 5 0.000000 0.000000 0.000000 0.000000 0.076092 0.000000
# 6 0.000000 0.000000 0.000000 0.000000 0.000000 0.046140
#
#
# Mechanical properties :
#
#
# Convention : Reuss Voigt Hill
#
# Bulk Modulus (GPa) = 29.32294 59.52871 44.42583
# Shear Modulus (GPa) = 17.73837 22.82209 20.28023
#
# Velocity S-wave (km/s) = 3.26720 3.70593 3.49346
# Velocity P-wave (km/s) = 5.64613 7.35766 6.55797
#
# Compressibility (1/GPa) = 0.03410299
#
# Stress axis : x y z
#
# Youngs Moduli (GPa) = 94.37350 21.59541 60.58180
#
# Poissons Ratio (x) = 0.13833 0.36527
# Poissons Ratio (y) = 0.60452 0.43728
# Poissons Ratio (z) = 0.56901 0.15588
#
# Static dielectric constant tensor:
#      x y z
#    x 1.572420 0.000000 0.000000 
#    y 0.000000 1.572830 0.000000 
#    z 0.000000 0.000000 1.568260 
# 
# From -- ./inp_files/33336.got.cif
#   From: 2010.05.17/outbox.cif.g08.bks.cpg/sg59_17_cif.got.tgz:33336.got - 2010.06.03 14:40:33.
