data_PCOD9447633
_publ_section_title
;
Structure prediction by ZEFSAII (Michael W. Deem and Ramdas Pophale) SiO2 
 PCOD9447633
Probable space group: P M M N
;
_chemical_formula_sum "Si O2"
_cell_formula_units_Z 56
_cell_length_a 21.580525
_cell_length_b 7.608521
_cell_length_c 14.514113
_cell_angle_alpha 90.000000
_cell_angle_beta 90.000000
_cell_angle_gamma 90.000000
_cell_volume 2383.157522
_symmetry_space_group_name_H-M "P M M N"
_symmetry_group_IT_number 59
_space_group.IT_coordinate_system_code '2'
_symmetry_cell_setting 'orthorhombic'
loop_
_space_group_symop_operation_xyz
x,y,z
1/2-x,1/2-y,z
1/2+x,-y,-z
-x,1/2+y,-z
-x,-y,-z
1/2+x,1/2+y,-z
1/2-x,y,z
x,1/2-y,z
loop_
_atom_site_type_symbol
_atom_site_label
_atom_site_fract_x
_atom_site_fract_y
_atom_site_fract_z
Si Si1 0.819794 0.461180 0.529258
Si Si2 0.682627 0.046743 0.180568
Si Si3 0.635989 0.037324 0.729060
Si Si4 0.577059 0.947342 0.049761
Si Si5 0.998694 0.964854 0.215960
Si Si6 0.112972 0.458467 0.651970
Si Si7 0.317514 0.041753 0.076235
O O1 0.750000 0.525073 0.505754
O O2 0.816642 0.250000 0.533509
O O3 0.839668 0.524952 0.630498
O O4 0.872020 0.503242 0.453617
O O5 0.750000 0.975470 0.160925
O O6 0.678668 0.250000 0.151459
O O7 0.629843 0.941677 0.129086
O O8 0.668697 0.038328 0.288431
O O9 0.635406 0.250000 0.726674
O O10 0.566403 0.977579 0.753163
O O11 0.677421 0.981773 0.814951
O O12 0.558915 0.750000 0.023039
O O13 0.521329 0.024974 0.112200
O O14 0.618945 0.032832 0.969266
O O15 0.998013 0.750000 0.212199
O O16 0.949196 0.020688 0.294808
O O17 0.113981 0.250000 0.662762
O O18 0.250000 0.970999 0.045591
O O19 0.318351 0.250000 0.054824
#
# Coordination Sequence:
#
# PCOD9447633 Si02
#       7
#     8   8   8   8   8   8   8
#     4  10  21  36  53  76 106 139 177 221 268 316
#     4  10  19  30  47  75 109 140 173 217 264 312
#     4  10  21  38  58  77 104 144 183 222 267 314
#     4   9  18  34  55  77 106 143 177 214 265 320
#     4   8  17  35  56  80 108 137 175 219 262 315
#     4  10  20  34  54  78 105 138 174 215 265 320
#     4  10  21  36  54  79 110 142 179 224 269 313
#
# _framework density 23.498235999999999
#
# number of rings (size 3 to 8) (size 9 to 14) (size 15 to 20)
#    0.000    2.429    0.000    3.000    0.000    6.857 
#    0.000    3.571    0.000    0.000    0.000    0.000 
#    0.000    0.000    0.000    0.000    0.000    0.000 
#
# Total GULP energy -312589.793668 kJ/mol
# GULP energy per Si atom -5581.960601 kJ/mol
# Density = 2.344475 g / cm^3
# Si number density = 23.498236 Si / 1000 Ang^3
#
#
#
# Elastic Constant Matrix: (Units=GPa)
#
#
# Indices 1 2 3 4 5 6 
#
# 1 127.7765 11.5117 29.4564 0.0000 0.0000 0.0000
# 2 11.5117 63.0075 2.0980 0.0000 0.0000 0.0000
# 3 29.4564 2.0980 137.5189 0.0000 0.0000 0.0000
# 4 0.0000 0.0000 0.0000 33.4905 0.0000 0.0000
# 5 0.0000 0.0000 0.0000 0.0000 11.5023 0.0000
# 6 0.0000 0.0000 0.0000 0.0000 0.0000 -5.6458
#
#
#
# Elastic Compliance Matrix: (Units=1/GPa)
#
#
# Indices 1 2 3 4 5 6 
#
# 1 0.008367 -0.001470 -0.001770 0.000000 0.000000 0.000000
# 2 -0.001470 0.016137 0.000069 0.000000 0.000000 0.000000
# 3 -0.001770 0.000069 0.007650 0.000000 0.000000 0.000000
# 4 0.000000 0.000000 0.000000 0.029859 0.000000 0.000000
# 5 0.000000 0.000000 0.000000 0.000000 0.086939 0.000000
# 6 0.000000 0.000000 0.000000 0.000000 0.000000 -0.177124
#
#
# Mechanical properties :
#
#
# Convention : Reuss Voigt Hill
#
# Bulk Modulus (GPa) = 38.74145 46.04834 42.39490
# Shear Modulus (GPa) = -378.03226 26.88519 -175.57353
#
# Velocity S-wave (km/s) = -12.69748 3.38618 -8.65332
# Velocity P-wave (km/s) = 14.08707 5.90993 9.04207
#
# Compressibility (1/GPa) = 0.02581215
#
# Stress axis : x y z
#
# Youngs Moduli (GPa) = 119.52375 61.96806 130.72333
#
# Poissons Ratio (x) = 0.09107 0.23134
# Poissons Ratio (y) = 0.17566 -0.00897
# Poissons Ratio (z) = 0.21152 -0.00425
#
# Static dielectric constant tensor:
#      x y z
#    x 1.961550 0.000000 0.000000 
#    y 0.000000 1.874320 0.000000 
#    z 0.000000 0.000000 1.902410 
# 
# From -- ./inp_files/24221.got.cif
#   From: 2010.05.17/outbox.cif.g08.bks.cpg/sg59_13_cif.got.tgz:24221.got - 2010.06.03 14:40:33.
