data_PCOD9447074
_publ_section_title
;
Structure prediction by ZEFSAII (Michael W. Deem and Ramdas Pophale) SiO2 
 PCOD9447074
Probable space group: P M M N
;
_chemical_formula_sum "Si O2"
_cell_formula_units_Z 64
_cell_length_a 29.583965
_cell_length_b 7.486189
_cell_length_c 13.185229
_cell_angle_alpha 90.000000
_cell_angle_beta 90.000000
_cell_angle_gamma 90.000000
_cell_volume 2920.147874
_symmetry_space_group_name_H-M "P M M N"
_symmetry_group_IT_number 59
_space_group.IT_coordinate_system_code '2'
_symmetry_cell_setting 'orthorhombic'
loop_
_space_group_symop_operation_xyz
x,y,z
1/2-x,1/2-y,z
1/2+x,-y,-z
-x,1/2+y,-z
-x,-y,-z
1/2+x,1/2+y,-z
1/2-x,y,z
x,1/2-y,z
loop_
_atom_site_type_symbol
_atom_site_label
_atom_site_fract_x
_atom_site_fract_y
_atom_site_fract_z
Si Si1 0.369189 0.968408 0.916774
Si Si2 0.198200 0.531941 0.329858
Si Si3 0.448457 0.552757 0.484174
Si Si4 0.472602 0.964256 0.896199
Si Si5 0.647336 0.030426 0.465698
Si Si6 0.363242 0.533808 0.144443
Si Si7 0.197989 0.531770 0.738807
Si Si8 0.545813 0.542083 0.742207
O O1 0.369921 0.750000 0.915042
O O2 0.421010 0.028192 0.899712
O O3 0.334265 0.025974 0.830757
O O4 0.354590 0.023485 0.029629
O O5 0.250000 0.474337 0.332471
O O6 0.197979 0.750000 0.329645
O O7 0.171590 0.475005 0.430361
O O8 0.172496 0.473384 0.228435
O O9 0.500000 0.500000 0.500000
O O10 0.446748 0.750000 0.527520
O O11 0.404411 0.462506 0.532536
O O12 0.441539 0.550481 0.362895
O O13 0.471008 0.750000 0.886322
O O14 0.501887 0.030275 0.800577
O O15 0.500000 0.000000 0.000000
O O16 0.646859 0.250000 0.467035
O O17 0.675448 0.976704 0.367328
O O18 0.363635 0.750000 0.145339
O O19 0.412612 0.473738 0.180681
O O20 0.250000 0.473882 0.747787
O O21 0.198396 0.750000 0.739431
O O22 0.538585 0.750000 0.716706
#
# Coordination Sequence:
#
# PCOD9447074 Si02
#       8
#     8   8   8   8   8   8   8   8
#     4   9  18  30  47  71 106 144 177 218 272 324
#     4   9  16  27  47  76 103 131 175 226 272 319
#     4  11  23  38  56  81 113 147 181 222 277 334
#     4  10  20  33  52  77 106 142 182 222 265 318
#     4   9  17  30  50  74 105 142 176 216 268 323
#     4  10  18  32  52  77 109 145 178 219 274 329
#     4   9  17  29  47  74 108 142 177 222 275 328
#     4  11  22  35  54  79 109 145 184 226 272 329
#
# _framework density 21.916699000000001
#
# number of rings (size 3 to 8) (size 9 to 14) (size 15 to 20)
#    0.000    2.250    2.500    1.125    1.750    2.500 
#    0.000    2.500    0.000    0.375    0.000    0.000 
#    0.000    4.500    0.000    0.000    0.000    0.000 
#
# Total GULP energy -357489.709323 kJ/mol
# GULP energy per Si atom -5585.776708 kJ/mol
# Density = 2.186682 g / cm^3
# Si number density = 21.916699 Si / 1000 Ang^3
#
#
#
# Elastic Constant Matrix: (Units=GPa)
#
#
# Indices 1 2 3 4 5 6 
#
# 1 220.7291 6.3403 106.8167 0.0000 0.0000 0.0000
# 2 6.3403 58.6054 -4.9087 0.0000 0.0000 0.0000
# 3 106.8167 -4.9087 128.1746 0.0000 0.0000 0.0000
# 4 0.0000 0.0000 0.0000 -1.2444 0.0000 0.0000
# 5 0.0000 0.0000 0.0000 0.0000 34.5524 0.0000
# 6 0.0000 0.0000 0.0000 0.0000 0.0000 10.8747
#
#
#
# Elastic Compliance Matrix: (Units=1/GPa)
#
#
# Indices 1 2 3 4 5 6 
#
# 1 0.007701 -0.001375 -0.006471 0.000000 0.000000 0.000000
# 2 -0.001375 0.017364 0.001811 0.000000 0.000000 0.000000
# 3 -0.006471 0.001811 0.013264 0.000000 0.000000 0.000000
# 4 0.000000 0.000000 0.000000 -0.803590 0.000000 0.000000
# 5 0.000000 0.000000 0.000000 0.000000 0.028942 0.000000
# 6 0.000000 0.000000 0.000000 0.000000 0.000000 0.091956
#
#
# Mechanical properties :
#
#
# Convention : Reuss Voigt Hill
#
# Bulk Modulus (GPa) = 38.08217 69.33397 53.70807
# Shear Modulus (GPa) = -8.01872 28.78728 10.38428
#
# Velocity S-wave (km/s) = -1.91485 3.62814 2.17907
# Velocity P-wave (km/s) = 3.53903 7.01820 5.55787
#
# Compressibility (1/GPa) = 0.02625900
#
# Stress axis : x y z
#
# Youngs Moduli (GPa) = 129.84883 57.59135 75.39398
#
# Poissons Ratio (x) = 0.07920 0.48785
# Poissons Ratio (y) = 0.17856 -0.13654
# Poissons Ratio (z) = 0.84021 -0.10430
#
# Static dielectric constant tensor:
#      x y z
#    x 1.790910 0.000000 0.000000 
#    y 0.000000 1.860530 0.000000 
#    z 0.000000 0.000000 1.763270 
# 
# From -- ./inp_files/19354.got.cif
#   From: 2010.05.17/outbox.cif.g08.bks.cpg/sg59_10_cif.got.tgz:19354.got - 2010.06.03 14:40:33.
