data_PCOD9447128
_publ_section_title
;
Structure prediction by ZEFSAII (Michael W. Deem and Ramdas Pophale) SiO2 
 PCOD9447128
Probable space group: P M M N
;
_chemical_formula_sum "Si O2"
_cell_formula_units_Z 48
_cell_length_a 21.237997
_cell_length_b 7.726023
_cell_length_c 14.924145
_cell_angle_alpha 90.000000
_cell_angle_beta 90.000000
_cell_angle_gamma 90.000000
_cell_volume 2448.832113
_symmetry_space_group_name_H-M "P M M N"
_symmetry_group_IT_number 59
_space_group.IT_coordinate_system_code '2'
_symmetry_cell_setting 'orthorhombic'
loop_
_space_group_symop_operation_xyz
x,y,z
1/2-x,1/2-y,z
1/2+x,-y,-z
-x,1/2+y,-z
-x,-y,-z
1/2+x,1/2+y,-z
1/2-x,y,z
x,1/2-y,z
loop_
_atom_site_type_symbol
_atom_site_label
_atom_site_fract_x
_atom_site_fract_y
_atom_site_fract_z
Si Si1 0.627272 0.540804 0.252237
Si Si2 0.179232 0.462042 0.555807
Si Si3 0.437376 0.541364 0.056196
Si Si4 0.516641 0.456310 0.754547
Si Si5 0.561283 0.955831 0.559103
Si Si6 0.319891 0.542729 0.941661
O O1 0.625789 0.750000 0.255228
O O2 0.661096 0.483371 0.343305
O O3 0.555093 0.476226 0.250052
O O4 0.662011 0.489825 0.161468
O O5 0.250000 0.516948 0.532882
O O6 0.178597 0.250000 0.555121
O O7 0.124386 0.522902 0.489016
O O8 0.431893 0.750000 0.059140
O O9 0.447833 0.476294 0.157403
O O10 0.500000 0.500000 0.000000
O O11 0.375827 0.473719 0.004684
O O12 0.511061 0.250000 0.766373
O O13 0.550664 0.485790 0.660558
O O14 0.566031 0.750000 0.560227
O O15 0.500000 0.000000 0.500000
O O16 0.250000 0.473844 0.960638
O O17 0.318022 0.750000 0.953877
#
# Coordination Sequence:
#
# PCOD9447128 Si02
#       6
#     8   8   8   8   8   8
#     4  10  18  32  55  80 107 138 174 217 265 319
#     4   9  18  33  52  75 104 138 174 212 261 316
#     4  10  20  35  55  76 105 141 177 220 264 313
#     4  10  20  35  54  81 109 135 177 224 264 313
#     4  11  21  35  56  80 107 141 178 219 265 317
#     4  10  21  35  51  77 111 143 176 217 270 324
#
# _framework density 19.601179999999999
#
# number of rings (size 3 to 8) (size 9 to 14) (size 15 to 20)
#    0.000    2.000    3.333    1.000    0.000    2.333 
#    0.000    0.833    0.000    4.000    0.000    0.000 
#    0.000    0.000    0.000    0.000    0.000    0.000 
#
# Total GULP energy -268024.928260 kJ/mol
# GULP energy per Si atom -5583.852672 kJ/mol
# Density = 1.955657 g / cm^3
# Si number density = 19.601180 Si / 1000 Ang^3
#
#
#
# Elastic Constant Matrix: (Units=GPa)
#
#
# Indices 1 2 3 4 5 6 
#
# 1 204.8746 1.0670 103.2475 0.0000 0.0000 0.0000
# 2 1.0670 24.1742 -7.0388 0.0000 0.0000 0.0000
# 3 103.2475 -7.0388 163.3622 0.0000 0.0000 0.0000
# 4 0.0000 0.0000 0.0000 19.6544 0.0000 0.0000
# 5 0.0000 0.0000 0.0000 0.0000 24.6663 0.0000
# 6 0.0000 0.0000 0.0000 0.0000 0.0000 7.2653
#
#
#
# Elastic Compliance Matrix: (Units=1/GPa)
#
#
# Indices 1 2 3 4 5 6 
#
# 1 0.007228 -0.001670 -0.004640 0.000000 0.000000 0.000000
# 2 -0.001670 0.042278 0.002877 0.000000 0.000000 0.000000
# 3 -0.004640 0.002877 0.009178 0.000000 0.000000 0.000000
# 4 0.000000 0.000000 0.000000 0.050879 0.000000 0.000000
# 5 0.000000 0.000000 0.000000 0.000000 0.040541 0.000000
# 6 0.000000 0.000000 0.000000 0.000000 0.000000 0.137640
#
#
# Mechanical properties :
#
#
# Convention : Reuss Voigt Hill
#
# Bulk Modulus (GPa) = 19.29843 65.21804 42.25823
# Shear Modulus (GPa) = 16.03160 29.99289 23.01225
#
# Velocity S-wave (km/s) = 2.86298 3.91597 3.43012
# Velocity P-wave (km/s) = 4.56024 7.33424 6.10684
#
# Compressibility (1/GPa) = 0.05181769
#
# Stress axis : x y z
#
# Youngs Moduli (GPa) = 138.34614 23.65300 108.95508
#
# Poissons Ratio (x) = 0.03950 0.50559
# Poissons Ratio (y) = 0.23106 -0.31348
# Poissons Ratio (z) = 0.64197 -0.06805
#
# Static dielectric constant tensor:
#      x y z
#    x 1.690640 0.000000 0.000000 
#    y 0.000000 1.732650 0.000000 
#    z 0.000000 0.000000 1.649880 
# 
# From -- ./inp_files/20700.got.cif
#   From: 2010.05.17/outbox.cif.g08.bks.cpg/sg59_11_cif.got.tgz:20700.got - 2010.06.03 14:40:33.
