data_PCOD9447667
_publ_section_title
;
Structure prediction by ZEFSAII (Michael W. Deem and Ramdas Pophale) SiO2 
 PCOD9447667
Probable space group: P M M N
;
_chemical_formula_sum "Si O2"
_cell_formula_units_Z 64
_cell_length_a 14.018133
_cell_length_b 17.853002
_cell_length_c 14.514590
_cell_angle_alpha 90.000000
_cell_angle_beta 90.000000
_cell_angle_gamma 90.000000
_cell_volume 3632.504846
_symmetry_space_group_name_H-M "P M M N"
_symmetry_group_IT_number 59
_space_group.IT_coordinate_system_code '2'
_symmetry_cell_setting 'orthorhombic'
loop_
_space_group_symop_operation_xyz
x,y,z
1/2-x,1/2-y,z
1/2+x,-y,-z
-x,1/2+y,-z
-x,-y,-z
1/2+x,1/2+y,-z
1/2-x,y,z
x,1/2-y,z
loop_
_atom_site_type_symbol
_atom_site_label
_atom_site_fract_x
_atom_site_fract_y
_atom_site_fract_z
Si Si1 0.855514 0.661325 0.319274
Si Si2 0.137983 0.561381 0.730721
Si Si3 0.107945 0.525382 0.516933
Si Si4 0.864980 0.837779 0.961671
Si Si5 0.646746 0.621232 0.588548
Si Si6 0.041896 0.160933 0.236439
Si Si7 0.638603 0.574881 0.138133
Si Si8 0.518210 0.335446 0.545481
O O1 0.750000 0.631289 0.348791
O O2 0.852834 0.750000 0.334458
O O3 0.865462 0.641473 0.212818
O O4 0.949390 0.634822 0.372597
O O5 0.250000 0.579347 0.746491
O O6 0.131465 0.531042 0.625160
O O7 0.105521 0.497426 0.803951
O O8 0.063426 0.628566 0.743820
O O9 0.155881 0.460336 0.458043
O O10 0.000000 0.500000 0.500000
O O11 0.105553 0.609539 0.476460
O O12 0.750000 0.847053 0.948062
O O13 0.878328 0.750000 0.988258
O O14 0.921738 0.851042 0.867417
O O15 0.900066 0.893780 0.042127
O O16 0.750000 0.658792 0.578347
O O17 0.614376 0.619747 0.694016
O O18 0.558674 0.661839 0.537882
O O19 0.045573 0.250000 0.254202
O O20 0.750000 0.559542 0.120316
O O21 0.547253 0.250000 0.562188
#
# Coordination Sequence:
#
# PCOD9447667 Si02
#       8
#     8   8   8   8   8   8   8   8
#     4   9  16  25  42  73 108 137 168 210 260 313
#     4  11  22  36  55  76 103 141 181 221 258 303
#     4  10  19  34  51  74 106 144 175 216 264 313
#     4   9  18  34  55  79 110 138 161 203 264 325
#     4  11  21  33  53  76 102 137 176 218 265 315
#     4  11  23  37  53  77 106 139 179 217 262 318
#     4   9  17  30  51  76 102 134 171 208 259 316
#     4  10  19  30  48  74 105 140 177 217 260 312
#
# _framework density 17.618696
#
# number of rings (size 3 to 8) (size 9 to 14) (size 15 to 20)
#    0.000    2.000    2.500    3.375    0.000    5.250 
#    0.000    0.000    0.000    1.125    0.000    0.000 
#    0.000    0.000    0.000    0.000    0.000    0.000 
#
# Total GULP energy -356276.320425 kJ/mol
# GULP energy per Si atom -5566.817507 kJ/mol
# Density = 1.757860 g / cm^3
# Si number density = 17.618696 Si / 1000 Ang^3
#
#
#
# Elastic Constant Matrix: (Units=GPa)
#
#
# Indices 1 2 3 4 5 6 
#
# 1 53.0033 24.6381 26.0123 0.0000 0.0000 0.0000
# 2 24.6381 84.5596 44.4533 0.0000 0.0000 0.0000
# 3 26.0123 44.4533 109.9377 0.0000 0.0000 0.0000
# 4 0.0000 0.0000 0.0000 25.5303 0.0000 0.0000
# 5 0.0000 0.0000 0.0000 0.0000 21.1221 0.0000
# 6 0.0000 0.0000 0.0000 0.0000 0.0000 7.6676
#
#
#
# Elastic Compliance Matrix: (Units=1/GPa)
#
#
# Indices 1 2 3 4 5 6 
#
# 1 0.022803 -0.004836 -0.003440 0.000000 0.000000 0.000000
# 2 -0.004836 0.016044 -0.005343 0.000000 0.000000 0.000000
# 3 -0.003440 -0.005343 0.012071 0.000000 0.000000 0.000000
# 4 0.000000 0.000000 0.000000 0.039169 0.000000 0.000000
# 5 0.000000 0.000000 0.000000 0.000000 0.047344 0.000000
# 6 0.000000 0.000000 0.000000 0.000000 0.000000 0.130420
#
#
# Mechanical properties :
#
#
# Convention : Reuss Voigt Hill
#
# Bulk Modulus (GPa) = 42.23065 48.63421 45.43243
# Shear Modulus (GPa) = 16.50270 21.02377 18.76323
#
# Velocity S-wave (km/s) = 3.06381 3.45811 3.26692
# Velocity P-wave (km/s) = 6.04460 6.60367 6.33031
#
# Compressibility (1/GPa) = 0.02367949
#
# Stress axis : x y z
#
# Youngs Moduli (GPa) = 43.85418 62.32914 82.84637
#
# Poissons Ratio (x) = 0.30140 0.28500
# Poissons Ratio (y) = 0.21206 0.44266
# Poissons Ratio (z) = 0.15086 0.33304
#
# Static dielectric constant tensor:
#      x y z
#    x 1.672080 0.000000 0.000000 
#    y 0.000000 1.679150 0.000000 
#    z 0.000000 0.000000 1.629370 
# 
# From -- ./inp_files/23438.got.cif
#   From: 2010.05.17/outbox.cif.g08.bks.cpg/sg59_12_cif.got.tgz:23438.got - 2010.06.03 14:40:33.
