data_PCOD9447688
_publ_section_title
;
Structure prediction by ZEFSAII (Michael W. Deem and Ramdas Pophale) SiO2 
 PCOD9447688
Probable space group: P M M N
;
_chemical_formula_sum "Si O2"
_cell_formula_units_Z 64
_cell_length_a 16.963433
_cell_length_b 13.693305
_cell_length_c 15.664798
_cell_angle_alpha 90.000000
_cell_angle_beta 90.000000
_cell_angle_gamma 90.000000
_cell_volume 3638.704839
_symmetry_space_group_name_H-M "P M M N"
_symmetry_group_IT_number 59
_space_group.IT_coordinate_system_code '2'
_symmetry_cell_setting 'orthorhombic'
loop_
_space_group_symop_operation_xyz
x,y,z
1/2-x,1/2-y,z
1/2+x,-y,-z
-x,1/2+y,-z
-x,-y,-z
1/2+x,1/2+y,-z
1/2-x,y,z
x,1/2-y,z
loop_
_atom_site_type_symbol
_atom_site_label
_atom_site_fract_x
_atom_site_fract_y
_atom_site_fract_z
Si Si1 0.410511 0.638176 0.593915
Si Si2 0.659344 0.550994 0.819789
Si Si3 0.161903 0.051271 0.646782
Si Si4 0.497172 0.140678 0.229288
Si Si5 0.500841 0.366969 0.578682
Si Si6 0.580227 0.363135 0.754235
Si Si7 0.076733 0.054162 0.825717
Si Si8 0.156245 0.136148 0.993827
O O1 0.383738 0.750000 0.581655
O O2 0.343144 0.561740 0.617994
O O3 0.468435 0.635850 0.675361
O O4 0.459137 0.605797 0.510525
O O5 0.750000 0.575185 0.801640
O O6 0.594875 0.614731 0.770027
O O7 0.640815 0.438937 0.795747
O O8 0.643366 0.576752 0.918829
O O9 0.250000 0.089885 0.632056
O O10 0.088040 0.097970 0.596347
O O11 0.137952 0.060798 0.746640
O O12 0.510117 0.250000 0.195970
O O13 0.541428 0.055684 0.176789
O O14 0.498171 0.250000 0.580959
O O15 0.556531 0.396624 0.658224
O O16 0.604697 0.250000 0.754106
O O17 0.497473 0.376676 0.803820
O O18 0.113770 0.086295 0.914252
O O19 0.250000 0.135934 0.977779
O O20 0.132098 0.250000 0.004275
#
# Coordination Sequence:
#
# PCOD9447688 Si02
#       8
#     8   8   8   8   8   8   8   8
#     4   9  18  34  53  71  98 137 173 202 237 289
#     4  10  21  35  50  71  99 129 164 207 250 295
#     4  10  19  30  49  76 103 128 157 203 256 297
#     4   9  18  33  53  74  97 131 170 205 246 292
#     4   9  18  34  53  72  99 135 171 203 240 292
#     4   9  18  33  53  74  97 130 167 203 247 294
#     4   9  18  33  51  74 100 126 163 204 245 300
#     4  10  20  34  53  75 101 133 164 199 247 298
#
# _framework density 17.588676
#
# number of rings (size 3 to 8) (size 9 to 14) (size 15 to 20)
#    0.000    2.625    0.000    2.250    0.000    4.000 
#    0.000    4.375    0.000    6.375    0.000    0.000 
#    0.000    0.000    0.000    0.000    0.000    0.000 
#
# Total GULP energy -356653.666874 kJ/mol
# GULP energy per Si atom -5572.713545 kJ/mol
# Density = 1.754864 g / cm^3
# Si number density = 17.588676 Si / 1000 Ang^3
#
#
#
# Elastic Constant Matrix: (Units=GPa)
#
#
# Indices 1 2 3 4 5 6 
#
# 1 64.4121 14.3657 38.0828 0.0000 0.0000 0.0000
# 2 14.3657 73.0160 28.0566 0.0000 0.0000 0.0000
# 3 38.0828 28.0566 52.4409 0.0000 0.0000 0.0000
# 4 0.0000 0.0000 0.0000 24.1592 0.0000 0.0000
# 5 0.0000 0.0000 0.0000 0.0000 11.9928 0.0000
# 6 0.0000 0.0000 0.0000 0.0000 0.0000 11.5312
#
#
#
# Elastic Compliance Matrix: (Units=1/GPa)
#
#
# Indices 1 2 3 4 5 6 
#
# 1 0.027675 0.002867 -0.021632 0.000000 0.000000 0.000000
# 2 0.002867 0.017537 -0.011464 0.000000 0.000000 0.000000
# 3 -0.021632 -0.011464 0.040912 0.000000 0.000000 0.000000
# 4 0.000000 0.000000 0.000000 0.041392 0.000000 0.000000
# 5 0.000000 0.000000 0.000000 0.000000 0.083383 0.000000
# 6 0.000000 0.000000 0.000000 0.000000 0.000000 0.086721
#
#
# Mechanical properties :
#
#
# Convention : Reuss Voigt Hill
#
# Bulk Modulus (GPa) = 38.96295 38.98657 38.97476
# Shear Modulus (GPa) = 13.63761 16.82758 15.23259
#
# Velocity S-wave (km/s) = 2.78756 3.09646 2.94606
# Velocity P-wave (km/s) = 5.70622 5.91590 5.81201
#
# Compressibility (1/GPa) = 0.02566541
#
# Stress axis : x y z
#
# Youngs Moduli (GPa) = 36.13378 57.02296 24.44295
#
# Poissons Ratio (x) = -0.16349 0.52874
# Poissons Ratio (y) = -0.10360 0.28022
# Poissons Ratio (z) = 0.78163 0.65374
#
# Static dielectric constant tensor:
#      x y z
#    x 1.576750 0.000000 0.000000 
#    y 0.000000 1.640840 0.000000 
#    z 0.000000 0.000000 1.599890 
# 
# From -- ./inp_files/24010.got.cif
#   From: 2010.05.17/outbox.cif.g08.bks.cpg/sg59_13_cif.got.tgz:24010.got - 2010.06.03 14:40:33.
