data_PCOD9447568
_publ_section_title
;
Structure prediction by ZEFSAII (Michael W. Deem and Ramdas Pophale) SiO2 
 PCOD9447568
Probable space group: P M M N
;
_chemical_formula_sum "Si O2"
_cell_formula_units_Z 48
_cell_length_a 7.667723
_cell_length_b 21.366188
_cell_length_c 15.832169
_cell_angle_alpha 90.000000
_cell_angle_beta 90.000000
_cell_angle_gamma 90.000000
_cell_volume 2593.784424
_symmetry_space_group_name_H-M "P M M N"
_symmetry_group_IT_number 59
_space_group.IT_coordinate_system_code '2'
_symmetry_cell_setting 'orthorhombic'
loop_
_space_group_symop_operation_xyz
x,y,z
1/2-x,1/2-y,z
1/2+x,-y,-z
-x,1/2+y,-z
-x,-y,-z
1/2+x,1/2+y,-z
1/2-x,y,z
x,1/2-y,z
loop_
_atom_site_type_symbol
_atom_site_label
_atom_site_fract_x
_atom_site_fract_y
_atom_site_fract_z
Si Si1 0.044587 0.051445 0.571205
Si Si2 0.540172 0.043075 0.079571
Si Si3 0.957181 0.491711 0.262746
Si Si4 0.543418 0.346496 0.302426
Si Si5 0.539654 0.317440 0.487744
Si Si6 0.963532 0.181999 0.114734
O O1 0.250000 0.045710 0.581333
O O2 0.006073 0.120818 0.539112
O O3 0.967168 0.035383 0.663587
O O4 0.000000 0.000000 0.500000
O O5 0.750000 0.046632 0.087461
O O6 0.472257 0.012518 0.167276
O O7 0.479917 0.115828 0.074029
O O8 0.500000 0.000000 0.000000
O O9 0.750000 0.505416 0.253651
O O10 0.972861 0.421320 0.298663
O O11 0.750000 0.331401 0.302474
O O12 0.471959 0.323454 0.391394
O O13 0.477769 0.321548 0.212877
O O14 0.750000 0.317218 0.483135
O O15 0.482956 0.250000 0.522725
O O16 0.750000 0.181349 0.114181
O O17 0.017429 0.250000 0.079575
#
# Coordination Sequence:
#
# PCOD9447568 Si02
#       6
#     8   8   8   8   8   8
#     4  11  20  32  50  70  96 129 167 204 236 280
#     4   9  17  30  49  71  94 119 151 194 238 284
#     4   8  15  28  47  68  91 121 157 192 229 281
#     4   8  12  22  41  66  92 118 150 184 224 277
#     4  10  19  30  46  69  98 130 164 202 243 286
#     4   8  13  22  41  68  92 116 149 186 224 274
#
# _framework density 18.505777999999999
#
# number of rings (size 3 to 8) (size 9 to 14) (size 15 to 20)
#    0.000    3.000    1.667    3.000    0.000    2.333 
#    0.000    1.667    0.000    1.500    0.000    4.667 
#    0.000    0.000    0.000    0.000    0.000    0.000 
#
# Total GULP energy -267267.135955 kJ/mol
# GULP energy per Si atom -5568.065332 kJ/mol
# Density = 1.846366 g / cm^3
# Si number density = 18.505778 Si / 1000 Ang^3
#
#
#
# Elastic Constant Matrix: (Units=GPa)
#
#
# Indices 1 2 3 4 5 6 
#
# 1 33.5365 6.6857 6.4091 0.0000 0.0000 0.0000
# 2 6.6857 141.3380 92.3914 0.0000 0.0000 0.0000
# 3 6.4091 92.3914 115.1583 0.0000 0.0000 0.0000
# 4 0.0000 0.0000 0.0000 24.6771 0.0000 0.0000
# 5 0.0000 0.0000 0.0000 0.0000 14.7861 0.0000
# 6 0.0000 0.0000 0.0000 0.0000 0.0000 14.5569
#
#
#
# Elastic Compliance Matrix: (Units=1/GPa)
#
#
# Indices 1 2 3 4 5 6 
#
# 1 0.030171 -0.000693 -0.001123 0.000000 0.000000 0.000000
# 2 -0.000693 0.014894 -0.011911 0.000000 0.000000 0.000000
# 3 -0.001123 -0.011911 0.018302 0.000000 0.000000 0.000000
# 4 0.000000 0.000000 0.000000 0.040523 0.000000 0.000000
# 5 0.000000 0.000000 0.000000 0.000000 0.067631 0.000000
# 6 0.000000 0.000000 0.000000 0.000000 0.000000 0.068696
#
#
# Mechanical properties :
#
#
# Convention : Reuss Voigt Hill
#
# Bulk Modulus (GPa) = 27.84485 55.66724 41.75604
# Shear Modulus (GPa) = 17.87994 23.10714 20.49354
#
# Velocity S-wave (km/s) = 3.11172 3.53745 3.33139
# Velocity P-wave (km/s) = 5.29052 6.84332 6.11640
#
# Compressibility (1/GPa) = 0.03591329
#
# Stress axis : x y z
#
# Youngs Moduli (GPa) = 33.14436 67.14072 54.63783
#
# Poissons Ratio (x) = 0.04653 0.06137
# Poissons Ratio (y) = 0.02297 0.65079
# Poissons Ratio (z) = 0.03723 0.79971
#
# Static dielectric constant tensor:
#      x y z
#    x 1.709940 0.000000 0.000000 
#    y 0.000000 1.613570 0.000000 
#    z 0.000000 0.000000 1.673410 
# 
# From -- ./inp_files/20725.got.cif
#   From: 2010.05.17/outbox.cif.g08.bks.cpg/sg59_11_cif.got.tgz:20725.got - 2010.06.03 14:40:33.
