data_PCOD9447476
_publ_section_title
;
Structure prediction by ZEFSAII (Michael W. Deem and Ramdas Pophale) SiO2 
 PCOD9447476
Probable space group: P M M N
;
_chemical_formula_sum "Si O2"
_cell_formula_units_Z 42
_cell_length_a 24.875159
_cell_length_b 7.840241
_cell_length_c 12.842280
_cell_angle_alpha 90.000000
_cell_angle_beta 90.000000
_cell_angle_gamma 90.000000
_cell_volume 2504.594443
_symmetry_space_group_name_H-M "P M M N"
_symmetry_group_IT_number 59
_space_group.IT_coordinate_system_code '2'
_symmetry_cell_setting 'orthorhombic'
loop_
_space_group_symop_operation_xyz
x,y,z
1/2-x,1/2-y,z
1/2+x,-y,-z
-x,1/2+y,-z
-x,-y,-z
1/2+x,1/2+y,-z
1/2-x,y,z
x,1/2-y,z
loop_
_atom_site_type_symbol
_atom_site_label
_atom_site_fract_x
_atom_site_fract_y
_atom_site_fract_z
Si Si1 0.419596 0.449780 0.421023
Si Si2 0.250000 0.250000 0.249339
Si Si3 0.576328 0.949680 0.912129
Si Si4 0.461524 0.453847 0.640207
Si Si5 0.545346 0.046365 0.131756
Si Si6 0.837425 0.440014 0.749583
O O1 0.405637 0.250000 0.422877
O O2 0.427540 0.511760 0.539751
O O3 0.478772 0.468696 0.370081
O O4 0.375758 0.542680 0.351692
O O5 0.296583 0.402397 0.249244
O O6 0.578623 0.750000 0.884339
O O7 0.516596 0.015017 0.882018
O O8 0.622524 0.041269 0.848232
O O9 0.579151 0.970622 0.036623
O O10 0.467308 0.250000 0.631973
O O11 0.437539 0.499547 0.751960
O O12 0.545256 0.250000 0.119787
O O13 0.813557 0.250000 0.750825
#
# Coordination Sequence:
#
# PCOD9447476 Si02
#       6
#     8   2   8   8   8   8
#     4  10  19  33  50  75 114 151 184 231 281 331
#     4  12  26  44  60  82 110 148 202 248 288 330
#     4  10  19  33  51  75 113 150 182 230 281 329
#     4  10  19  29  48  78 113 154 189 216 271 353
#     4  10  19  29  47  77 113 152 189 217 267 350
#     4  12  23  39  61  83 110 147 190 242 292 332
#
# _framework density 16.769181
#
# number of rings (size 3 to 8) (size 9 to 14) (size 15 to 20)
#    0.000    1.524    3.810    2.571    0.000    3.810 
#    0.000    0.000    0.000    0.000    0.000    2.667 
#    0.000    3.048    0.000    0.000    0.000    0.000 
#
# Total GULP energy -233861.914615 kJ/mol
# GULP energy per Si atom -5568.140824 kJ/mol
# Density = 1.673101 g / cm^3
# Si number density = 16.769181 Si / 1000 Ang^3
#
#
#
# Elastic Constant Matrix: (Units=GPa)
#
#
# Indices 1 2 3 4 5 6 
#
# 1 75.0976 36.7154 36.4560 0.0000 0.0000 0.0000
# 2 36.7154 103.1688 14.1608 0.0000 0.0000 0.0000
# 3 36.4560 14.1608 118.5398 0.0000 0.0000 0.0000
# 4 0.0000 0.0000 0.0000 14.5754 0.0000 0.0000
# 5 0.0000 0.0000 0.0000 0.0000 -2.0436 0.0000
# 6 0.0000 0.0000 0.0000 0.0000 0.0000 16.9655
#
#
#
# Elastic Compliance Matrix: (Units=1/GPa)
#
#
# Indices 1 2 3 4 5 6 
#
# 1 0.018668 -0.005953 -0.005030 0.000000 0.000000 0.000000
# 2 -0.005953 0.011753 0.000427 0.000000 0.000000 0.000000
# 3 -0.005030 0.000427 0.009932 0.000000 0.000000 0.000000
# 4 0.000000 0.000000 0.000000 0.068609 0.000000 0.000000
# 5 0.000000 0.000000 0.000000 0.000000 -0.489328 0.000000
# 6 0.000000 0.000000 0.000000 0.000000 0.000000 0.058943
#
#
# Mechanical properties :
#
#
# Convention : Reuss Voigt Hill
#
# Bulk Modulus (GPa) = 51.97437 52.38561 52.17999
# Shear Modulus (GPa) = -17.01279 19.86438 1.42579
#
# Velocity S-wave (km/s) = -3.18862 3.44550 0.92309
# Velocity P-wave (km/s) = 4.18388 6.86554 5.68509
#
# Compressibility (1/GPa) = 0.01924025
#
# Stress axis : x y z
#
# Youngs Moduli (GPa) = 53.56635 85.08553 100.68484
#
# Poissons Ratio (x) = 0.50653 0.50646
# Poissons Ratio (y) = 0.31889 -0.04298
# Poissons Ratio (z) = 0.26945 -0.03632
#
# Static dielectric constant tensor:
#      x y z
#    x 1.523310 0.000000 0.000000 
#    y 0.000000 1.601840 0.000000 
#    z 0.000000 0.000000 1.600750 
# 
# From -- ./inp_files/18551.got.cif
#   From: 2010.05.17/outbox.cif.g08.bks.cpg/sg59_10_cif.got.tgz:18551.got - 2010.06.03 14:40:33.
