data_PCOD9447941
_publ_section_title
;
Structure prediction by ZEFSAII (Michael W. Deem and Ramdas Pophale) SiO2 
 PCOD9447941
Probable space group: P M M N
;
_chemical_formula_sum "Si O2"
_cell_formula_units_Z 56
_cell_length_a 17.344947
_cell_length_b 8.846712
_cell_length_c 21.356900
_cell_angle_alpha 90.000000
_cell_angle_beta 90.000000
_cell_angle_gamma 90.000000
_cell_volume 3277.125554
_symmetry_space_group_name_H-M "P M M N"
_symmetry_group_IT_number 59
_space_group.IT_coordinate_system_code '2'
_symmetry_cell_setting 'orthorhombic'
loop_
_space_group_symop_operation_xyz
x,y,z
1/2-x,1/2-y,z
1/2+x,-y,-z
-x,1/2+y,-z
-x,-y,-z
1/2+x,1/2+y,-z
1/2-x,y,z
x,1/2-y,z
loop_
_atom_site_type_symbol
_atom_site_label
_atom_site_fract_x
_atom_site_fract_y
_atom_site_fract_z
Si Si1 0.483952 0.931851 0.652174
Si Si2 0.835033 0.066811 0.428394
Si Si3 0.114219 0.578930 0.033336
Si Si4 0.561923 0.922941 0.085408
Si Si5 0.431692 0.568457 0.457461
Si Si6 0.009939 0.931901 0.212450
Si Si7 0.836217 0.929343 0.843416
O O1 0.486906 0.750000 0.652175
O O2 0.404490 0.981224 0.617354
O O3 0.554170 0.996156 0.610087
O O4 0.488023 0.996183 0.721677
O O5 0.750000 0.010129 0.412039
O O6 0.834162 0.250000 0.424667
O O7 0.857144 0.031050 0.500481
O O8 0.143340 0.750000 0.037492
O O9 0.156276 0.473701 0.083427
O O10 0.024893 0.580372 0.056617
O O11 0.112383 0.519586 0.962489
O O12 0.589769 0.750000 0.086636
O O13 0.547904 0.978944 0.156028
O O14 0.500000 0.500000 0.500000
O O15 0.438428 0.750000 0.453596
O O16 0.008659 0.750000 0.215138
O O17 0.095388 0.985352 0.192361
O O18 0.750000 0.969357 0.821764
O O19 0.847232 0.750000 0.836521
#
# Coordination Sequence:
#
# PCOD9447941 Si02
#       7
#     8   8   8   8   8   8   8
#     4  10  19  31  50  73  99 131 164 202 245 292
#     4   8  15  29  50  75  98 122 157 199 242 288
#     4   9  16  26  44  68  91 117 150 191 237 284
#     4   8  15  27  43  65  90 116 150 192 235 277
#     4   9  16  28  48  71  96 125 157 196 239 285
#     4  10  20  33  50  71  97 131 169 206 242 291
#     4  10  20  33  49  69  95 127 163 206 255 302
#
# _framework density 17.088145999999998
#
# number of rings (size 3 to 8) (size 9 to 14) (size 15 to 20)
#    0.000    2.857    0.000    3.857    0.000    5.143 
#    0.000    0.714    0.000   18.857    0.000    4.000 
#    0.000    0.000    0.000    0.000    0.000    0.000 
#
# Total GULP energy -311778.680237 kJ/mol
# GULP energy per Si atom -5567.476433 kJ/mol
# Density = 1.704925 g / cm^3
# Si number density = 17.088146 Si / 1000 Ang^3
#
#
#
# Elastic Constant Matrix: (Units=GPa)
#
#
# Indices 1 2 3 4 5 6 
#
# 1 58.8360 16.5817 32.4097 0.0000 0.0000 0.0000
# 2 16.5817 47.1472 33.1380 0.0000 0.0000 0.0000
# 3 32.4097 33.1380 142.0371 0.0000 0.0000 0.0000
# 4 0.0000 0.0000 0.0000 30.1149 0.0000 0.0000
# 5 0.0000 0.0000 0.0000 0.0000 11.9470 0.0000
# 6 0.0000 0.0000 0.0000 0.0000 0.0000 13.6128
#
#
#
# Elastic Compliance Matrix: (Units=1/GPa)
#
#
# Indices 1 2 3 4 5 6 
#
# 1 0.020253 -0.004635 -0.003540 0.000000 0.000000 0.000000
# 2 -0.004635 0.026431 -0.005109 0.000000 0.000000 0.000000
# 3 -0.003540 -0.005109 0.009040 0.000000 0.000000 0.000000
# 4 0.000000 0.000000 0.000000 0.033206 0.000000 0.000000
# 5 0.000000 0.000000 0.000000 0.000000 0.083703 0.000000
# 6 0.000000 0.000000 0.000000 0.000000 0.000000 0.073460
#
#
# Mechanical properties :
#
#
# Convention : Reuss Voigt Hill
#
# Bulk Modulus (GPa) = 34.29767 45.80880 40.05323
# Shear Modulus (GPa) = 17.70666 22.19432 19.95049
#
# Velocity S-wave (km/s) = 3.22249 3.60782 3.42058
# Velocity P-wave (km/s) = 5.82757 6.64986 6.25225
#
# Compressibility (1/GPa) = 0.02915650
#
# Stress axis : x y z
#
# Youngs Moduli (GPa) = 49.37650 37.83412 110.61848
#
# Poissons Ratio (x) = 0.17535 0.39157
# Poissons Ratio (y) = 0.22885 0.56515
# Poissons Ratio (z) = 0.17479 0.19329
#
# Static dielectric constant tensor:
#      x y z
#    x 1.597190 0.000000 0.000000 
#    y 0.000000 1.574600 0.000000 
#    z 0.000000 0.000000 1.601740 
# 
# From -- ./inp_files/30554.got.cif
#   From: 2010.05.17/outbox.cif.g08.bks.cpg/sg59_16_cif.got.tgz:30554.got - 2010.06.03 14:40:33.
