data_PCOD9447811
_publ_section_title
;
Structure prediction by ZEFSAII (Michael W. Deem and Ramdas Pophale) SiO2 
 PCOD9447811
Probable space group: P M M N
;
_chemical_formula_sum "Si O2"
_cell_formula_units_Z 64
_cell_length_a 29.105337
_cell_length_b 8.707361
_cell_length_c 16.150628
_cell_angle_alpha 90.000000
_cell_angle_beta 90.000000
_cell_angle_gamma 90.000000
_cell_volume 4093.064576
_symmetry_space_group_name_H-M "P M M N"
_symmetry_group_IT_number 59
_space_group.IT_coordinate_system_code '2'
_symmetry_cell_setting 'orthorhombic'
loop_
_space_group_symop_operation_xyz
x,y,z
1/2-x,1/2-y,z
1/2+x,-y,-z
-x,1/2+y,-z
-x,-y,-z
1/2+x,1/2+y,-z
1/2-x,y,z
x,1/2-y,z
loop_
_atom_site_type_symbol
_atom_site_label
_atom_site_fract_x
_atom_site_fract_y
_atom_site_fract_z
Si Si1 0.697704 0.932941 0.090342
Si Si2 0.448536 0.565428 0.500904
Si Si3 0.108264 0.564993 0.840245
Si Si4 0.302677 0.933472 0.093655
Si Si5 0.548507 0.063985 0.317754
Si Si6 0.893489 0.932708 0.838236
Si Si7 0.051257 0.565520 0.005212
Si Si8 0.054983 0.934640 0.319258
O O1 0.750000 0.968570 0.116783
O O2 0.693871 0.750000 0.079699
O O3 0.658394 0.992451 0.150910
O O4 0.690379 0.011750 0.000979
O O5 0.500000 0.500000 0.500000
O O6 0.450479 0.750000 0.499426
O O7 0.430470 0.521895 0.592010
O O8 0.428123 0.518926 0.411983
O O9 0.112476 0.750000 0.839424
O O10 0.080482 0.517482 0.758543
O O11 0.079224 0.522644 0.922220
O O12 0.250000 0.972009 0.116245
O O13 0.308204 0.750000 0.096834
O O14 0.341310 0.012096 0.148931
O O15 0.543329 0.250000 0.314722
O O16 0.497780 0.991499 0.310611
O O17 0.896183 0.750000 0.841531
O O18 0.914988 0.993308 0.753172
O O19 0.922686 0.001433 0.914630
O O20 0.049692 0.750000 0.009910
O O21 0.000000 0.500000 0.000000
O O22 0.055890 0.750000 0.312704
#
# Coordination Sequence:
#
# PCOD9447811 Si02
#       8
#     8   8   8   8   8   8   8   8
#     4  10  20  33  50  71  94 122 158 199 241 285
#     4   8  15  28  47  69  95 125 157 200 245 285
#     4  10  20  32  48  69  95 128 162 195 236 283
#     4  10  20  35  54  73  94 121 156 201 249 294
#     4   9  17  31  49  72 100 128 162 200 241 290
#     4  12  23  34  49  70  97 131 166 202 241 284
#     4  11  22  34  47  67  98 134 168 197 232 280
#     4  10  19  31  48  71  98 130 166 202 243 289
#
# _framework density 15.636206
#
# number of rings (size 3 to 8) (size 9 to 14) (size 15 to 20)
#    0.000    2.000    1.250    3.375    0.000    4.000 
#    0.000    0.000    0.000    0.000    0.000    0.875 
#    0.000    3.000    0.000    0.000    0.000    0.000 
#
# Total GULP energy -356945.304955 kJ/mol
# GULP energy per Si atom -5577.270390 kJ/mol
# Density = 1.560062 g / cm^3
# Si number density = 15.636206 Si / 1000 Ang^3
#
#
#
# Elastic Constant Matrix: (Units=GPa)
#
#
# Indices 1 2 3 4 5 6 
#
# 1 98.0310 36.1567 65.0205 0.0000 0.0000 0.0000
# 2 36.1567 43.7549 40.7140 0.0000 0.0000 0.0000
# 3 65.0205 40.7140 142.2646 0.0000 0.0000 0.0000
# 4 0.0000 0.0000 0.0000 12.0795 0.0000 0.0000
# 5 0.0000 0.0000 0.0000 0.0000 7.7716 0.0000
# 6 0.0000 0.0000 0.0000 0.0000 0.0000 26.9964
#
#
#
# Elastic Compliance Matrix: (Units=1/GPa)
#
#
# Indices 1 2 3 4 5 6 
#
# 1 0.017030 -0.009309 -0.005119 0.000000 0.000000 0.000000
# 2 -0.009309 0.036238 -0.006116 0.000000 0.000000 0.000000
# 3 -0.005119 -0.006116 0.011119 0.000000 0.000000 0.000000
# 4 0.000000 0.000000 0.000000 0.082785 0.000000 0.000000
# 5 0.000000 0.000000 0.000000 0.000000 0.128674 0.000000
# 6 0.000000 0.000000 0.000000 0.000000 0.000000 0.037042
#
#
# Mechanical properties :
#
#
# Convention : Reuss Voigt Hill
#
# Bulk Modulus (GPa) = 42.92162 63.09254 53.00708
# Shear Modulus (GPa) = 13.82199 18.84679 16.33439
#
# Velocity S-wave (km/s) = 2.97639 3.47555 3.23561
# Velocity P-wave (km/s) = 6.27070 7.51956 6.92335
#
# Compressibility (1/GPa) = 0.02329828
#
# Stress axis : x y z
#
# Youngs Moduli (GPa) = 58.72120 27.59513 89.93478
#
# Poissons Ratio (x) = 0.25688 0.46039
# Poissons Ratio (y) = 0.54664 0.55006
# Poissons Ratio (z) = 0.30060 0.16878
#
# Static dielectric constant tensor:
#      x y z
#    x 1.500960 0.000000 0.000000 
#    y 0.000000 1.521530 0.000000 
#    z 0.000000 0.000000 1.537400 
# 
# From -- ./inp_files/21841.got.cif
#   From: 2010.05.17/outbox.cif.g08.bks.cpg/sg59_11_cif.got.tgz:21841.got - 2010.06.03 14:40:33.
