data_PCOD9447115
_publ_section_title
;
Structure prediction by ZEFSAII (Michael W. Deem and Ramdas Pophale) SiO2 
 PCOD9447115
Probable space group: P M M N
;
_chemical_formula_sum "Si O2"
_cell_formula_units_Z 64
_cell_length_a 7.960901
_cell_length_b 15.245246
_cell_length_c 26.879771
_cell_angle_alpha 90.000000
_cell_angle_beta 90.000000
_cell_angle_gamma 90.000000
_cell_volume 3262.287441
_symmetry_space_group_name_H-M "P M M N"
_symmetry_group_IT_number 59
_space_group.IT_coordinate_system_code '2'
_symmetry_cell_setting 'orthorhombic'
loop_
_space_group_symop_operation_xyz
x,y,z
1/2-x,1/2-y,z
1/2+x,-y,-z
-x,1/2+y,-z
-x,-y,-z
1/2+x,1/2+y,-z
1/2-x,y,z
x,1/2-y,z
loop_
_atom_site_type_symbol
_atom_site_label
_atom_site_fract_x
_atom_site_fract_y
_atom_site_fract_z
Si Si1 0.550771 0.499917 0.442616
Si Si2 0.946375 0.994619 0.180531
Si Si3 0.951544 0.149351 0.633126
Si Si4 0.547165 0.848290 0.888236
Si Si5 0.451520 0.350671 0.366746
Si Si6 0.452051 0.398595 0.001966
Si Si7 0.044865 0.153716 0.893207
Si Si8 0.050170 0.999910 0.293689
O O1 0.500000 0.500000 0.500000
O O2 0.750000 0.499738 0.438342
O O3 0.486534 0.587555 0.414543
O O4 0.486087 0.412431 0.414465
O O5 0.750000 0.976528 0.187293
O O6 0.018875 0.919509 0.144397
O O7 0.021652 0.999523 0.235165
O O8 0.969945 0.082806 0.149265
O O9 0.750000 0.156207 0.637781
O O10 0.016359 0.250000 0.631063
O O11 0.015502 0.088170 0.678853
O O12 0.750000 0.859726 0.888013
O O13 0.508761 0.750000 0.872592
O O14 0.487930 0.861788 0.945216
O O15 0.250000 0.343723 0.361949
O O16 0.516305 0.250000 0.368841
O O17 0.515650 0.411943 0.321060
O O18 0.250000 0.388111 0.002206
O O19 0.500000 0.500000 0.000000
O O20 0.513734 0.358140 0.950122
O O21 0.250000 0.146919 0.894979
O O22 0.000737 0.250000 0.875232
O O23 0.250000 0.000072 0.302457
#
# Coordination Sequence:
#
# PCOD9447115 Si02
#       8
#     8   8   8   8   8   8   8   8
#     4  11  22  36  56  85 122 158 191 230 274 323
#     4  11  22  35  53  79 108 139 174 220 272 317
#     4   9  19  38  62  85 111 147 190 233 279 328
#     4  10  21  36  55  77 101 135 177 217 262 321
#     4   9  19  38  62  84 108 144 190 236 282 330
#     4  10  18  32  55  77 100 132 169 211 261 318
#     4   9  18  33  52  74 102 136 171 207 256 320
#     4   9  19  36  57  81 110 144 180 223 274 329
#
# _framework density 19.618136
#
# number of rings (size 3 to 8) (size 9 to 14) (size 15 to 20)
#    0.000    2.250    1.250    2.625    0.000    5.750 
#    0.000    1.250    0.000    3.750    0.000    0.000 
#    0.000    0.000    0.000    0.000    0.000    0.000 
#
# Total GULP energy -356956.849395 kJ/mol
# GULP energy per Si atom -5577.450772 kJ/mol
# Density = 1.957348 g / cm^3
# Si number density = 19.618136 Si / 1000 Ang^3
#
#
#
# Elastic Constant Matrix: (Units=GPa)
#
#
# Indices 1 2 3 4 5 6 
#
# 1 15.3443 8.7584 -2.7572 0.0000 0.0000 0.0000
# 2 8.7584 167.4644 78.4720 0.0000 0.0000 0.0000
# 3 -2.7572 78.4720 154.5338 0.0000 0.0000 0.0000
# 4 0.0000 0.0000 0.0000 25.3533 0.0000 0.0000
# 5 0.0000 0.0000 0.0000 0.0000 14.0613 0.0000
# 6 0.0000 0.0000 0.0000 0.0000 0.0000 19.4577
#
#
#
# Elastic Compliance Matrix: (Units=1/GPa)
#
#
# Indices 1 2 3 4 5 6 
#
# 1 0.069030 -0.005495 0.004022 0.000000 0.000000 0.000000
# 2 -0.005495 0.008273 -0.004299 0.000000 0.000000 0.000000
# 3 0.004022 -0.004299 0.008726 0.000000 0.000000 0.000000
# 4 0.000000 0.000000 0.000000 0.039443 0.000000 0.000000
# 5 0.000000 0.000000 0.000000 0.000000 0.071117 0.000000
# 6 0.000000 0.000000 0.000000 0.000000 0.000000 0.051393
#
#
# Mechanical properties :
#
#
# Convention : Reuss Voigt Hill
#
# Bulk Modulus (GPa) = 13.42558 56.25432 34.83995
# Shear Modulus (GPa) = 17.58364 28.63242 23.10803
#
# Velocity S-wave (km/s) = 2.99707 3.82447 3.43577
# Velocity P-wave (km/s) = 4.33991 6.94543 5.79111
#
# Compressibility (1/GPa) = 0.07448469
#
# Stress axis : x y z
#
# Youngs Moduli (GPa) = 14.48651 120.86951 114.60019
#
# Poissons Ratio (x) = 0.66417 -0.46092
# Poissons Ratio (y) = 0.07960 0.49270
# Poissons Ratio (z) = -0.05826 0.51965
#
# Static dielectric constant tensor:
#      x y z
#    x 1.716230 0.000000 0.000000 
#    y 0.000000 1.707040 0.000000 
#    z 0.000000 0.000000 1.687180 
# 
# From -- ./inp_files/31646.got.cif
#   From: 2010.05.17/outbox.cif.g08.bks.cpg/sg59_16_cif.got.tgz:31646.got - 2010.06.03 14:40:33.
