data_PCOD9447681
_publ_section_title
;
Structure prediction by ZEFSAII (Michael W. Deem and Ramdas Pophale) SiO2 
 PCOD9447681
Probable space group: P M M N
;
_chemical_formula_sum "Si O2"
_cell_formula_units_Z 48
_cell_length_a 22.348656
_cell_length_b 16.000982
_cell_length_c 7.287382
_cell_angle_alpha 90.000000
_cell_angle_beta 90.000000
_cell_angle_gamma 90.000000
_cell_volume 2605.971027
_symmetry_space_group_name_H-M "P M M N"
_symmetry_group_IT_number 59
_space_group.IT_coordinate_system_code '2'
_symmetry_cell_setting 'orthorhombic'
loop_
_space_group_symop_operation_xyz
x,y,z
1/2-x,1/2-y,z
1/2+x,-y,-z
-x,1/2+y,-z
-x,-y,-z
1/2+x,1/2+y,-z
1/2-x,y,z
x,1/2-y,z
loop_
_atom_site_type_symbol
_atom_site_label
_atom_site_fract_x
_atom_site_fract_y
_atom_site_fract_z
Si Si1 0.502831 0.837511 0.936008
Si Si2 0.820670 0.152797 0.460231
Si Si3 0.915415 0.654766 0.585411
Si Si4 0.384792 0.582561 0.875034
Si Si5 0.972167 0.553185 0.264625
Si Si6 0.886691 0.019069 0.719234
O O1 0.520186 0.750000 0.024582
O O2 0.532689 0.840784 0.738588
O O3 0.431875 0.845604 0.927891
O O4 0.526205 0.911780 0.058990
O O5 0.750000 0.150113 0.496097
O O6 0.840797 0.250000 0.477616
O O7 0.833900 0.119661 0.253965
O O8 0.854144 0.089868 0.598864
O O9 0.890735 0.750000 0.570360
O O10 0.946124 0.622772 0.399616
O O11 0.874338 0.576614 0.653961
O O12 0.425890 0.522689 0.746721
O O13 0.370306 0.536345 0.066786
O O14 0.040992 0.530449 0.308259
#
# Coordination Sequence:
#
# PCOD9447681 Si02
#       6
#     8   8   8   8   8   8
#     4  10  19  30  48  83 122 154 188 230 284 353
#     4  11  26  44  62  86 115 154 208 255 290 341
#     4  11  20  31  52  84 121 157 187 226 284 352
#     4  11  20  36  60  82 120 158 195 239 295 355
#     4  11  19  33  53  87 121 158 193 232 292 365
#     4  11  21  38  60  87 120 157 195 246 296 355
#
# _framework density 18.419236999999999
#
# number of rings (size 3 to 8) (size 9 to 14) (size 15 to 20)
#    0.000    1.167    5.000    3.500    0.000    6.000 
#    0.000    1.667    0.000    0.500    0.000    0.000 
#    0.000    0.000    0.000    0.000    0.000    0.000 
#
# Total GULP energy -267542.041892 kJ/mol
# GULP energy per Si atom -5573.792539 kJ/mol
# Density = 1.837731 g / cm^3
# Si number density = 18.419237 Si / 1000 Ang^3
#
#
#
# Elastic Constant Matrix: (Units=GPa)
#
#
# Indices 1 2 3 4 5 6 
#
# 1 39.3791 33.3276 19.5158 0.0000 0.0000 0.0000
# 2 33.3276 164.0773 47.3905 0.0000 0.0000 0.0000
# 3 19.5158 47.3905 98.4337 0.0000 0.0000 0.0000
# 4 0.0000 0.0000 0.0000 24.7527 0.0000 0.0000
# 5 0.0000 0.0000 0.0000 0.0000 16.8329 0.0000
# 6 0.0000 0.0000 0.0000 0.0000 0.0000 20.9843
#
#
#
# Elastic Compliance Matrix: (Units=1/GPa)
#
#
# Indices 1 2 3 4 5 6 
#
# 1 0.031791 -0.005386 -0.003710 0.000000 0.000000 0.000000
# 2 -0.005386 0.007992 -0.002780 0.000000 0.000000 0.000000
# 3 -0.003710 -0.002780 0.012233 0.000000 0.000000 0.000000
# 4 0.000000 0.000000 0.000000 0.040400 0.000000 0.000000
# 5 0.000000 0.000000 0.000000 0.000000 0.059407 0.000000
# 6 0.000000 0.000000 0.000000 0.000000 0.000000 0.047655
#
#
# Mechanical properties :
#
#
# Convention : Reuss Voigt Hill
#
# Bulk Modulus (GPa) = 35.38021 55.81755 45.59888
# Shear Modulus (GPa) = 21.49155 25.95774 23.72464
#
# Velocity S-wave (km/s) = 3.41955 3.75810 3.59282
# Velocity P-wave (km/s) = 5.90263 7.01433 6.48236
#
# Compressibility (1/GPa) = 0.02826439
#
# Stress axis : x y z
#
# Youngs Moduli (GPa) = 31.45546 125.13257 81.74653
#
# Poissons Ratio (x) = 0.67395 0.30328
# Poissons Ratio (y) = 0.16942 0.22723
# Poissons Ratio (z) = 0.11670 0.34783
#
# Static dielectric constant tensor:
#      x y z
#    x 1.599600 0.000000 0.000000 
#    y 0.000000 1.707550 0.000000 
#    z 0.000000 0.000000 1.657210 
# 
# From -- ./inp_files/10251.got.cif
#   From: 2010.05.17/outbox.cif.g08.bks.cpg/sg59_6_cif.got.tgz:10251.got - 2010.06.03 14:40:33.
