data_PCOD9447554
_publ_section_title
;
Structure prediction by ZEFSAII (Michael W. Deem and Ramdas Pophale) SiO2 
 PCOD9447554
Probable space group: P M M N
;
_chemical_formula_sum "Si O2"
_cell_formula_units_Z 64
_cell_length_a 14.969657
_cell_length_b 8.449769
_cell_length_c 28.990710
_cell_angle_alpha 90.000000
_cell_angle_beta 90.000000
_cell_angle_gamma 90.000000
_cell_volume 3667.039073
_symmetry_space_group_name_H-M "P M M N"
_symmetry_group_IT_number 59
_space_group.IT_coordinate_system_code '2'
_symmetry_cell_setting 'orthorhombic'
loop_
_space_group_symop_operation_xyz
x,y,z
1/2-x,1/2-y,z
1/2+x,-y,-z
-x,1/2+y,-z
-x,-y,-z
1/2+x,1/2+y,-z
1/2-x,y,z
x,1/2-y,z
loop_
_atom_site_type_symbol
_atom_site_label
_atom_site_fract_x
_atom_site_fract_y
_atom_site_fract_z
Si Si1 0.148644 0.557004 0.195699
Si Si2 0.978439 0.437810 0.885715
Si Si3 0.354283 0.438047 0.033769
Si Si4 0.350928 0.559451 0.572492
Si Si5 0.648613 0.440809 0.698529
Si Si6 0.352031 0.561760 0.931933
Si Si7 0.646110 0.940396 0.528921
Si Si8 0.971073 0.941227 0.616244
O O1 0.250000 0.507499 0.183239
O O2 0.148473 0.750000 0.194754
O O3 0.075836 0.502150 0.158907
O O4 0.131173 0.509206 0.248569
O O5 0.989459 0.250000 0.881591
O O6 0.917193 0.475486 0.930036
O O7 0.074663 0.513259 0.894734
O O8 0.250000 0.480506 0.041479
O O9 0.364394 0.250000 0.039619
O O10 0.375425 0.482984 0.981051
O O11 0.250000 0.499156 0.580520
O O12 0.348038 0.750000 0.574442
O O13 0.378264 0.512489 0.520529
O O14 0.427213 0.505093 0.607710
O O15 0.750000 0.492857 0.686252
O O16 0.648303 0.250000 0.697936
O O17 0.577137 0.501039 0.662130
O O18 0.250000 0.515199 0.920295
O O19 0.354281 0.750000 0.938413
O O20 0.750000 0.980595 0.537812
O O21 0.639325 0.750000 0.525403
O O22 0.585878 0.993837 0.571514
O O23 0.969968 0.750000 0.616567
#
# Coordination Sequence:
#
# PCOD9447554 Si02
#       8
#     8   8   8   8   8   8   8   8
#     4   8  16  32  52  74  99 124 150 184 231 285
#     4  11  20  31  52  76  98 127 162 199 241 290
#     4  10  20  33  49  72 103 134 165 201 238 282
#     4   9  18  31  45  63  90 124 161 196 227 265
#     4   9  18  33  52  73  96 121 151 188 229 278
#     4  10  21  36  51  68  96 133 169 204 240 279
#     4   9  17  28  42  63  92 122 152 189 233 279
#     4  10  19  30  46  68  94 124 155 190 235 280
#
# _framework density 17.452773000000001
#
# number of rings (size 3 to 8) (size 9 to 14) (size 15 to 20)
#    0.000    2.500    0.000    3.375    0.000    3.750 
#    0.000    2.500    0.000    2.250    0.000    3.500 
#    0.000    0.000    0.000    0.000    0.000    0.000 
#
# Total GULP energy -357071.089862 kJ/mol
# GULP energy per Si atom -5579.235779 kJ/mol
# Density = 1.741305 g / cm^3
# Si number density = 17.452773 Si / 1000 Ang^3
#
#
#
# Elastic Constant Matrix: (Units=GPa)
#
#
# Indices 1 2 3 4 5 6 
#
# 1 98.3133 8.1800 74.5914 0.0000 0.0000 0.0000
# 2 8.1800 4.4859 0.8930 0.0000 0.0000 0.0000
# 3 74.5914 0.8930 87.2793 0.0000 0.0000 0.0000
# 4 0.0000 0.0000 0.0000 21.4732 0.0000 0.0000
# 5 0.0000 0.0000 0.0000 0.0000 32.9522 0.0000
# 6 0.0000 0.0000 0.0000 0.0000 0.0000 22.1231
#
#
#
# Elastic Compliance Matrix: (Units=1/GPa)
#
#
# Indices 1 2 3 4 5 6 
#
# 1 0.044888 -0.074366 -0.037601 0.000000 0.000000 0.000000
# 2 -0.074366 0.346577 0.060009 0.000000 0.000000 0.000000
# 3 -0.037601 0.060009 0.042979 0.000000 0.000000 0.000000
# 4 0.000000 0.000000 0.000000 0.046570 0.000000 0.000000
# 5 0.000000 0.000000 0.000000 0.000000 0.030347 0.000000
# 6 0.000000 0.000000 0.000000 0.000000 0.000000 0.045202
#
#
# Mechanical properties :
#
#
# Convention : Reuss Voigt Hill
#
# Bulk Modulus (GPa) = 3.02547 39.71192 21.36870
# Shear Modulus (GPa) = 6.48800 22.40397 14.44599
#
# Velocity S-wave (km/s) = 1.93016 3.58675 2.88013
# Velocity P-wave (km/s) = 2.58934 6.32110 4.83017
#
# Compressibility (1/GPa) = 0.33052664
#
# Stress axis : x y z
#
# Youngs Moduli (GPa) = 22.27787 2.88537 23.26737
#
# Poissons Ratio (x) = 0.21457 0.87488
# Poissons Ratio (y) = 1.65672 -1.39626
# Poissons Ratio (z) = 0.83768 -0.17315
#
# Static dielectric constant tensor:
#      x y z
#    x 1.617030 0.000000 0.000000 
#    y 0.000000 1.594830 0.000000 
#    z 0.000000 0.000000 1.569070 
# 
# From -- ./inp_files/32231.got.cif
#   From: 2010.05.17/outbox.cif.g08.bks.cpg/sg59_17_cif.got.tgz:32231.got - 2010.06.03 14:40:33.
