data_PCOD9447528
_publ_section_title
;
Structure prediction by ZEFSAII (Michael W. Deem and Ramdas Pophale) SiO2 
 PCOD9447528
Probable space group: P M M N
;
_chemical_formula_sum "Si O2"
_cell_formula_units_Z 48
_cell_length_a 7.489712
_cell_length_b 32.038769
_cell_length_c 9.985761
_cell_angle_alpha 90.000000
_cell_angle_beta 90.000000
_cell_angle_gamma 90.000000
_cell_volume 2396.194720
_symmetry_space_group_name_H-M "P M M N"
_symmetry_group_IT_number 59
_space_group.IT_coordinate_system_code '2'
_symmetry_cell_setting 'orthorhombic'
loop_
_space_group_symop_operation_xyz
x,y,z
1/2-x,1/2-y,z
1/2+x,-y,-z
-x,1/2+y,-z
-x,-y,-z
1/2+x,1/2+y,-z
1/2-x,y,z
x,1/2-y,z
loop_
_atom_site_type_symbol
_atom_site_label
_atom_site_fract_x
_atom_site_fract_y
_atom_site_fract_z
Si Si1 0.456017 0.135654 0.011549
Si Si2 0.469223 0.393147 0.296235
Si Si3 0.031361 0.297688 0.797944
Si Si4 0.034028 0.137600 0.580644
Si Si5 0.964216 0.987590 0.653733
Si Si6 0.957658 0.431829 0.798693
O O1 0.250000 0.147162 0.034015
O O2 0.533493 0.126091 0.156764
O O3 0.532086 0.172698 0.919507
O O4 0.459203 0.093888 0.920742
O O5 0.250000 0.393729 0.293663
O O6 0.523943 0.367776 0.428242
O O7 0.527919 0.441102 0.314225
O O8 0.250000 0.297935 0.800121
O O9 0.973266 0.250000 0.806705
O O10 0.977796 0.321215 0.661286
O O11 0.250000 0.136554 0.582268
O O12 0.973635 0.098147 0.669063
O O13 0.750000 0.987367 0.668160
O O14 0.033076 0.023566 0.753466
O O15 0.000000 0.000000 0.500000
O O16 0.750000 0.436725 0.832482
#
# Coordination Sequence:
#
# PCOD9447528 Si02
#       6
#     8   8   8   8   8   8
#     4   9  18  32  49  66  91 128 156 184 231 281
#     4   9  17  30  47  68  92 121 159 191 225 276
#     4   8  14  26  46  71  93 115 150 190 226 272
#     4   9  16  29  50  68  89 122 153 187 230 276
#     4  10  19  30  46  67  93 122 158 199 230 265
#     4  10  19  30  45  68  94 121 155 196 230 263
#
# _framework density 20.031762000000001
#
# number of rings (size 3 to 8) (size 9 to 14) (size 15 to 20)
#    0.000    2.833    1.667    1.500    0.000    1.333 
#    0.000    2.500    0.000   13.000    0.000    0.000 
#    0.000   10.667    0.000    0.000    0.000    0.000 
#
# Total GULP energy -267744.401394 kJ/mol
# GULP energy per Si atom -5578.008362 kJ/mol
# Density = 1.998617 g / cm^3
# Si number density = 20.031762 Si / 1000 Ang^3
#
#
#
# Elastic Constant Matrix: (Units=GPa)
#
#
# Indices 1 2 3 4 5 6 
#
# 1 54.4319 5.6563 -1.0951 0.0000 0.0000 0.0000
# 2 5.6563 157.1046 88.2276 0.0000 0.0000 0.0000
# 3 -1.0951 88.2276 169.5021 0.0000 0.0000 0.0000
# 4 0.0000 0.0000 0.0000 17.2759 0.0000 0.0000
# 5 0.0000 0.0000 0.0000 0.0000 2.4118 0.0000
# 6 0.0000 0.0000 0.0000 0.0000 0.0000 10.2476
#
#
#
# Elastic Compliance Matrix: (Units=1/GPa)
#
#
# Indices 1 2 3 4 5 6 
#
# 1 0.018492 -0.001036 0.000659 0.000000 0.000000 0.000000
# 2 -0.001036 0.009052 -0.004719 0.000000 0.000000 0.000000
# 3 0.000659 -0.004719 0.008360 0.000000 0.000000 0.000000
# 4 0.000000 0.000000 0.000000 0.057884 0.000000 0.000000
# 5 0.000000 0.000000 0.000000 0.000000 0.414622 0.000000
# 6 0.000000 0.000000 0.000000 0.000000 0.000000 0.097584
#
#
# Mechanical properties :
#
#
# Convention : Reuss Voigt Hill
#
# Bulk Modulus (GPa) = 38.89010 62.95735 50.92373
# Shear Modulus (GPa) = 8.00311 25.20373 16.60342
#
# Velocity S-wave (km/s) = 2.00097 3.55094 2.88211
# Velocity P-wave (km/s) = 4.97945 6.95049 6.04583
#
# Compressibility (1/GPa) = 0.02571348
#
# Stress axis : x y z
#
# Youngs Moduli (GPa) = 54.07614 110.46895 119.61836
#
# Poissons Ratio (x) = 0.11440 -0.07877
# Poissons Ratio (y) = 0.05600 0.56442
# Poissons Ratio (z) = -0.03561 0.52125
#
# Static dielectric constant tensor:
#      x y z
#    x 1.758920 0.000000 0.000000 
#    y 0.000000 1.687740 0.000000 
#    z 0.000000 0.000000 1.691430 
# 
# From -- ./inp_files/7706.got.cif
#   From: 2010.05.17/outbox.cif.g08.bks.cpg/sg59_4_cif.got.tgz:7706.got - 2010.06.03 14:40:33.
