data_PCOD9447687
_publ_section_title
;
Structure prediction by ZEFSAII (Michael W. Deem and Ramdas Pophale) SiO2 
 PCOD9447687
Probable space group: P M M N
;
_chemical_formula_sum "Si O2"
_cell_formula_units_Z 48
_cell_length_a 24.583828
_cell_length_b 7.602905
_cell_length_c 12.925999
_cell_angle_alpha 90.000000
_cell_angle_beta 90.000000
_cell_angle_gamma 90.000000
_cell_volume 2415.979198
_symmetry_space_group_name_H-M "P M M N"
_symmetry_group_IT_number 59
_space_group.IT_coordinate_system_code '2'
_symmetry_cell_setting 'orthorhombic'
loop_
_space_group_symop_operation_xyz
x,y,z
1/2-x,1/2-y,z
1/2+x,-y,-z
-x,1/2+y,-z
-x,-y,-z
1/2+x,1/2+y,-z
1/2-x,y,z
x,1/2-y,z
loop_
_atom_site_type_symbol
_atom_site_label
_atom_site_fract_x
_atom_site_fract_y
_atom_site_fract_z
Si Si1 0.005272 0.538796 0.121834
Si Si2 0.689482 0.543782 0.011107
Si Si3 0.111016 0.465869 0.807499
Si Si4 0.623111 0.043372 0.813560
Si Si5 0.811923 0.535583 0.377301
Si Si6 0.688467 0.537845 0.613063
O O1 0.005692 0.750000 0.133475
O O2 0.062700 0.470668 0.165170
O O3 0.950978 0.473870 0.179217
O O4 0.000000 0.500000 0.000000
O O5 0.750000 0.466752 0.018301
O O6 0.694116 0.750000 0.036452
O O7 0.645992 0.473366 0.093279
O O8 0.665495 0.531876 0.896353
O O9 0.109858 0.250000 0.807488
O O10 0.143457 0.522063 0.705325
O O11 0.621223 0.250000 0.835400
O O12 0.645407 0.017731 0.698533
O O13 0.750000 0.482377 0.349425
O O14 0.811994 0.750000 0.376525
O O15 0.822879 0.479854 0.495399
O O16 0.750000 0.478962 0.640402
O O17 0.689172 0.750000 0.612241
#
# Coordination Sequence:
#
# PCOD9447687 Si02
#       6
#     8   8   8   8   8   8
#     4  10  20  34  51  71  97 134 171 201 241 294
#     4  10  19  30  49  76 100 124 160 205 250 297
#     4   9  16  29  50  74  99 125 158 205 253 291
#     4  11  22  33  47  70 101 135 168 200 240 293
#     4   8  14  27  50  78 101 121 155 206 256 295
#     4   9  18  33  53  75  98 127 164 204 246 294
#
# _framework density 19.867721
#
# number of rings (size 3 to 8) (size 9 to 14) (size 15 to 20)
#    0.000    2.500    1.667    2.500    0.000    5.333 
#    0.000    0.833    0.000    2.000    0.000    2.333 
#    0.000    0.000    0.000    0.000    0.000    0.000 
#
# Total GULP energy -267879.048882 kJ/mol
# GULP energy per Si atom -5580.813518 kJ/mol
# Density = 1.982250 g / cm^3
# Si number density = 19.867721 Si / 1000 Ang^3
#
#
#
# Elastic Constant Matrix: (Units=GPa)
#
#
# Indices 1 2 3 4 5 6 
#
# 1 144.9711 -0.2798 61.8501 0.0000 0.0000 0.0000
# 2 -0.2798 38.8391 -12.9967 0.0000 0.0000 0.0000
# 3 61.8501 -12.9967 92.2784 0.0000 0.0000 0.0000
# 4 0.0000 0.0000 0.0000 -4.5895 0.0000 0.0000
# 5 0.0000 0.0000 0.0000 0.0000 25.0915 0.0000
# 6 0.0000 0.0000 0.0000 0.0000 0.0000 9.0413
#
#
#
# Elastic Compliance Matrix: (Units=1/GPa)
#
#
# Indices 1 2 3 4 5 6 
#
# 1 0.009843 -0.002242 -0.006913 0.000000 0.000000 0.000000
# 2 -0.002242 0.027532 0.005381 0.000000 0.000000 0.000000
# 3 -0.006913 0.005381 0.016228 0.000000 0.000000 0.000000
# 4 0.000000 0.000000 0.000000 -0.217888 0.000000 0.000000
# 5 0.000000 0.000000 0.000000 0.000000 0.039854 0.000000
# 6 0.000000 0.000000 0.000000 0.000000 0.000000 0.110604
#
#
# Mechanical properties :
#
#
# Convention : Reuss Voigt Hill
#
# Bulk Modulus (GPa) = 21.71419 41.47064 31.59241
# Shear Modulus (GPa) = 551.07490 21.07633 286.07561
#
# Velocity S-wave (km/s) = 16.67256 3.26058 12.01261
# Velocity P-wave (km/s) = 19.53421 5.92400 14.43397
#
# Compressibility (1/GPa) = 0.04605283
#
# Stress axis : x y z
#
# Youngs Moduli (GPa) = 101.59503 36.32188 61.62132
#
# Poissons Ratio (x) = 0.08145 0.42600
# Poissons Ratio (y) = 0.22782 -0.33156
# Poissons Ratio (z) = 0.70234 -0.19543
#
# Static dielectric constant tensor:
#      x y z
#    x 1.706590 0.000000 0.000000 
#    y 0.000000 1.768880 0.000000 
#    z 0.000000 0.000000 1.661990 
# 
# From -- ./inp_files/14340.got.cif
#   From: 2010.05.17/outbox.cif.g08.bks.cpg/sg59_8_cif.got.tgz:14340.got - 2010.06.03 14:40:33.
