data_PCOD9447581
_publ_section_title
;
Structure prediction by ZEFSAII (Michael W. Deem and Ramdas Pophale) SiO2 
 PCOD9447581
Probable space group: P M M N
;
_chemical_formula_sum "Si O2"
_cell_formula_units_Z 48
_cell_length_a 7.414580
_cell_length_b 16.691003
_cell_length_c 16.582301
_cell_angle_alpha 90.000000
_cell_angle_beta 90.000000
_cell_angle_gamma 90.000000
_cell_volume 2052.172127
_symmetry_space_group_name_H-M "P M M N"
_symmetry_group_IT_number 59
_space_group.IT_coordinate_system_code '2'
_symmetry_cell_setting 'orthorhombic'
loop_
_space_group_symop_operation_xyz
x,y,z
1/2-x,1/2-y,z
1/2+x,-y,-z
-x,1/2+y,-z
-x,-y,-z
1/2+x,1/2+y,-z
1/2-x,y,z
x,1/2-y,z
loop_
_atom_site_type_symbol
_atom_site_label
_atom_site_fract_x
_atom_site_fract_y
_atom_site_fract_z
Si Si1 0.036581 0.079111 0.698286
Si Si2 0.470734 0.750000 0.564845
Si Si3 0.532451 0.664038 0.785980
Si Si4 0.958200 0.926438 0.120296
Si Si5 0.535412 0.250000 0.620712
Si Si6 0.047937 0.579162 0.633875
Si Si7 0.031065 0.101573 0.048602
O O1 0.250000 0.061052 0.703324
O O2 0.961528 0.076782 0.790143
O O3 0.019396 0.168282 0.664536
O O4 0.964011 0.010046 0.636940
O O5 0.250000 0.750000 0.573248
O O6 0.525461 0.750000 0.471597
O O7 0.532729 0.837445 0.599336
O O8 0.750000 0.656600 0.781364
O O9 0.477595 0.750000 0.752602
O O10 0.448651 0.597462 0.729877
O O11 0.482012 0.659849 0.879125
O O12 0.750000 0.901062 0.129451
O O13 0.034640 0.880345 0.041705
O O14 0.966888 0.016490 0.084682
O O15 0.750000 0.250000 0.618852
O O16 0.250000 0.574051 0.599121
O O17 0.250000 0.097899 0.044451
#
# Coordination Sequence:
#
# PCOD9447581 Si02
#       7
#     8   4   8   8   4   8   8
#     4  10  21  38  60  86 112 146 192 235 276 329
#     4   9  20  39  61  88 115 140 176 225 285 349
#     4  10  19  30  46  77 117 149 182 224 273 326
#     4   9  17  31  52  78 105 142 189 230 271 317
#     4  11  25  43  61  80 109 148 188 233 287 341
#     4  10  19  35  62  87 112 146 182 224 279 340
#     4   9  17  29  47  75 111 149 185 227 271 318
#
# _framework density 23.389851
#
# number of rings (size 3 to 8) (size 9 to 14) (size 15 to 20)
#    0.000    2.333    2.500    0.250    0.000    2.000 
#    1.500    1.667    0.000    0.000    0.000    0.000 
#    0.000    0.000    0.000    0.000    0.000    0.000 
#
# Total GULP energy -267445.434873 kJ/mol
# GULP energy per Si atom -5571.779893 kJ/mol
# Density = 2.333661 g / cm^3
# Si number density = 23.389851 Si / 1000 Ang^3
#
#
#
# Elastic Constant Matrix: (Units=GPa)
#
#
# Indices 1 2 3 4 5 6 
#
# 1 79.8648 -0.5269 1.6409 0.0000 0.0000 0.0000
# 2 -0.5269 153.2304 61.4236 0.0000 0.0000 0.0000
# 3 1.6409 61.4236 127.5703 0.0000 0.0000 0.0000
# 4 0.0000 0.0000 0.0000 30.4901 0.0000 0.0000
# 5 0.0000 0.0000 0.0000 0.0000 6.2734 0.0000
# 6 0.0000 0.0000 0.0000 0.0000 0.0000 0.4022
#
#
#
# Elastic Compliance Matrix: (Units=1/GPa)
#
#
# Indices 1 2 3 4 5 6 
#
# 1 0.012527 0.000133 -0.000225 0.000000 0.000000 0.000000
# 2 0.000133 0.008088 -0.003896 0.000000 0.000000 0.000000
# 3 -0.000225 -0.003896 0.009718 0.000000 0.000000 0.000000
# 4 0.000000 0.000000 0.000000 0.032798 0.000000 0.000000
# 5 0.000000 0.000000 0.000000 0.000000 0.159403 0.000000
# 6 0.000000 0.000000 0.000000 0.000000 0.000000 2.486603
#
#
# Mechanical properties :
#
#
# Convention : Reuss Voigt Hill
#
# Bulk Modulus (GPa) = 44.72977 53.97118 49.35047
# Shear Modulus (GPa) = 1.83516 27.30832 14.57174
#
# Velocity S-wave (km/s) = 0.88673 3.42062 2.49869
# Velocity P-wave (km/s) = 4.49594 6.22299 5.42858
#
# Compressibility (1/GPa) = 0.02235648
#
# Stress axis : x y z
#
# Youngs Moduli (GPa) = 79.82968 123.63393 102.90520
#
# Poissons Ratio (x) = -0.01649 0.02319
# Poissons Ratio (y) = -0.01065 0.40094
# Poissons Ratio (z) = 0.01799 0.48170
#
# Static dielectric constant tensor:
#      x y z
#    x 1.872230 0.000000 0.000000 
#    y 0.000000 1.931840 0.000000 
#    z 0.000000 0.000000 1.909810 
# 
# From -- ./inp_files/20560.got.cif
#   From: 2010.05.17/outbox.cif.g08.bks.cpg/sg59_11_cif.got.tgz:20560.got - 2010.06.03 14:40:33.
