data_PCOD9447914
_publ_section_title
;
Structure prediction by ZEFSAII (Michael W. Deem and Ramdas Pophale) SiO2 
 PCOD9447914
Probable space group: P M M N
;
_chemical_formula_sum "Si O2"
_cell_formula_units_Z 56
_cell_length_a 13.617840
_cell_length_b 16.037169
_cell_length_c 15.106397
_cell_angle_alpha 90.000000
_cell_angle_beta 90.000000
_cell_angle_gamma 90.000000
_cell_volume 3299.110234
_symmetry_space_group_name_H-M "P M M N"
_symmetry_group_IT_number 59
_space_group.IT_coordinate_system_code '2'
_symmetry_cell_setting 'orthorhombic'
loop_
_space_group_symop_operation_xyz
x,y,z
1/2-x,1/2-y,z
1/2+x,-y,-z
-x,1/2+y,-z
-x,-y,-z
1/2+x,1/2+y,-z
1/2-x,y,z
x,1/2-y,z
loop_
_atom_site_type_symbol
_atom_site_label
_atom_site_fract_x
_atom_site_fract_y
_atom_site_fract_z
Si Si1 0.863975 0.656421 0.939214
Si Si2 0.001095 0.078372 0.202297
Si Si3 0.136618 0.850668 0.645809
Si Si4 0.630645 0.154109 0.550225
Si Si5 0.868414 0.430382 0.732094
Si Si6 0.368746 0.657096 0.087515
Si Si7 0.366222 0.989726 0.949499
O O1 0.750000 0.647399 0.909262
O O2 0.874426 0.750000 0.975760
O O3 0.938683 0.642586 0.858724
O O4 0.880101 0.580778 0.007694
O O5 0.934179 0.119131 0.277254
O O6 0.080053 0.016554 0.244928
O O7 0.930523 0.026638 0.136508
O O8 0.250000 0.877477 0.660492
O O9 0.137367 0.750000 0.643650
O O10 0.103133 0.878132 0.547305
O O11 0.750000 0.155554 0.550104
O O12 0.597825 0.250000 0.559628
O O13 0.600228 0.102898 0.636208
O O14 0.750000 0.438528 0.733242
O O15 0.895235 0.367329 0.812099
O O16 0.250000 0.660065 0.085098
O O17 0.404433 0.750000 0.063182
O O18 0.394426 0.581822 0.021297
O O19 0.250000 0.979889 0.930815
#
# Coordination Sequence:
#
# PCOD9447914 Si02
#       7
#     8   8   8   8   8   8   8
#     4  10  21  37  53  68  96 140 181 212 243 290
#     4  12  21  32  50  77 103 132 167 210 258 298
#     4   9  19  35  53  74 100 129 165 208 255 310
#     4   8  15  31  53  74  99 132 165 201 252 309
#     4  10  19  31  49  74 105 134 165 206 250 300
#     4   9  17  30  49  73 101 130 161 206 260 303
#     4  10  21  37  51  71 102 134 172 215 254 301
#
# _framework density 16.974274000000001
#
# number of rings (size 3 to 8) (size 9 to 14) (size 15 to 20)
#    0.000    2.286    1.429    3.000    0.000    3.429 
#    0.000    2.143    0.000    0.000    0.000    0.000 
#    0.000    3.429    0.000    0.000    0.000    0.000 
#
# Total GULP energy -312288.228091 kJ/mol
# GULP energy per Si atom -5576.575502 kJ/mol
# Density = 1.693564 g / cm^3
# Si number density = 16.974274 Si / 1000 Ang^3
#
#
#
# Elastic Constant Matrix: (Units=GPa)
#
#
# Indices 1 2 3 4 5 6 
#
# 1 62.9852 19.0752 33.2833 0.0000 0.0000 0.0000
# 2 19.0752 94.6841 41.3577 0.0000 0.0000 0.0000
# 3 33.2833 41.3577 112.0928 0.0000 0.0000 0.0000
# 4 0.0000 0.0000 0.0000 46.8276 0.0000 0.0000
# 5 0.0000 0.0000 0.0000 0.0000 23.1828 0.0000
# 6 0.0000 0.0000 0.0000 0.0000 0.0000 -1.9700
#
#
#
# Elastic Compliance Matrix: (Units=1/GPa)
#
#
# Indices 1 2 3 4 5 6 
#
# 1 0.019040 -0.001629 -0.005052 0.000000 0.000000 0.000000
# 2 -0.001629 0.012730 -0.004213 0.000000 0.000000 0.000000
# 3 -0.005052 -0.004213 0.011976 0.000000 0.000000 0.000000
# 4 0.000000 0.000000 0.000000 0.021355 0.000000 0.000000
# 5 0.000000 0.000000 0.000000 0.000000 0.043135 0.000000
# 6 0.000000 0.000000 0.000000 0.000000 0.000000 -0.507607
#
#
# Mechanical properties :
#
#
# Convention : Reuss Voigt Hill
#
# Bulk Modulus (GPa) = 45.54429 50.79939 48.17184
# Shear Modulus (GPa) = -13.50392 25.34448 5.92028
#
# Velocity S-wave (km/s) = -2.82361 3.86827 1.86959
# Velocity P-wave (km/s) = 4.03227 7.06708 5.75338
#
# Compressibility (1/GPa) = 0.02195665
#
# Stress axis : x y z
#
# Youngs Moduli (GPa) = 52.52121 78.55535 83.50128
#
# Poissons Ratio (x) = 0.12796 0.42189
# Poissons Ratio (y) = 0.08555 0.35180
# Poissons Ratio (z) = 0.26536 0.33096
#
# Static dielectric constant tensor:
#      x y z
#    x 1.579760 0.000000 0.000000 
#    y 0.000000 1.575810 0.000000 
#    z 0.000000 0.000000 1.572340 
# 
# From -- ./inp_files/22486.got.cif
#   From: 2010.05.17/outbox.cif.g08.bks.cpg/sg59_12_cif.got.tgz:22486.got - 2010.06.03 14:40:33.
