data_PCOD9447871
_publ_section_title
;
Structure prediction by ZEFSAII (Michael W. Deem and Ramdas Pophale) SiO2 
 PCOD9447871
Probable space group: P M M N
;
_chemical_formula_sum "Si O2"
_cell_formula_units_Z 64
_cell_length_a 18.174013
_cell_length_b 8.372167
_cell_length_c 23.952482
_cell_angle_alpha 90.000000
_cell_angle_beta 90.000000
_cell_angle_gamma 90.000000
_cell_volume 3644.510783
_symmetry_space_group_name_H-M "P M M N"
_symmetry_group_IT_number 59
_space_group.IT_coordinate_system_code '2'
_symmetry_cell_setting 'orthorhombic'
loop_
_space_group_symop_operation_xyz
x,y,z
1/2-x,1/2-y,z
1/2+x,-y,-z
-x,1/2+y,-z
-x,-y,-z
1/2+x,1/2+y,-z
1/2-x,y,z
x,1/2-y,z
loop_
_atom_site_type_symbol
_atom_site_label
_atom_site_fract_x
_atom_site_fract_y
_atom_site_fract_z
Si Si1 0.600058 0.943514 0.929925
Si Si2 0.450421 0.557563 0.870125
Si Si3 0.832359 0.059378 0.818350
Si Si4 0.474346 0.940219 0.366493
Si Si5 0.524192 0.560832 0.758081
Si Si6 0.165948 0.057507 0.953002
Si Si7 0.429870 0.057494 0.535353
Si Si8 0.166673 0.443116 0.435908
O O1 0.603302 0.750000 0.928169
O O2 0.518628 0.992844 0.909978
O O3 0.654061 0.010058 0.882489
O O4 0.622921 0.997960 0.991392
O O5 0.449959 0.750000 0.869352
O O6 0.469734 0.502353 0.807442
O O7 0.376597 0.496529 0.898023
O O8 0.750000 0.014661 0.801284
O O9 0.840819 0.250000 0.813120
O O10 0.894667 0.974769 0.782098
O O11 0.469772 0.750000 0.371893
O O12 0.545510 0.996021 0.402854
O O13 0.483448 0.984694 0.302276
O O14 0.398149 0.006261 0.393242
O O15 0.514680 0.750000 0.752559
O O16 0.250000 0.001470 0.954754
O O17 0.166309 0.250000 0.954547
O O18 0.426223 0.250000 0.536104
O O19 0.360318 0.003948 0.498163
O O20 0.500000 0.000000 0.500000
O O21 0.250000 0.499324 0.423551
O O22 0.168092 0.250000 0.435255
#
# Coordination Sequence:
#
# PCOD9447871 Si02
#       8
#     8   8   8   8   8   8   8   8
#     4   9  18  33  51  71  97 128 160 192 234 293
#     4   9  19  34  51  71  93 123 163 204 244 284
#     4  10  20  32  47  70  98 126 158 197 240 285
#     4  10  19  31  49  72  97 126 161 201 239 275
#     4  10  21  36  52  69  91 125 168 204 239 287
#     4  10  20  32  49  74 100 126 156 193 242 297
#     4   8  15  28  46  69  95 124 157 189 224 266
#     4   9  17  30  49  73 102 133 160 189 230 280
#
# _framework density 17.560656999999999
#
# number of rings (size 3 to 8) (size 9 to 14) (size 15 to 20)
#    0.000    2.625    0.000    2.625    0.000    6.000 
#    0.000    0.000    0.000    0.750    0.000    1.750 
#    0.000    0.000    0.000    0.000    0.000    0.000 
#
# Total GULP energy -356568.714321 kJ/mol
# GULP energy per Si atom -5571.386161 kJ/mol
# Density = 1.752069 g / cm^3
# Si number density = 17.560657 Si / 1000 Ang^3
#
#
#
# Elastic Constant Matrix: (Units=GPa)
#
#
# Indices 1 2 3 4 5 6 
#
# 1 57.3763 9.9582 50.9258 0.0000 0.0000 0.0000
# 2 9.9582 5.2027 8.9081 0.0000 0.0000 0.0000
# 3 50.9258 8.9081 134.7290 0.0000 0.0000 0.0000
# 4 0.0000 0.0000 0.0000 19.4447 0.0000 0.0000
# 5 0.0000 0.0000 0.0000 0.0000 8.2056 0.0000
# 6 0.0000 0.0000 0.0000 0.0000 0.0000 20.9364
#
#
#
# Elastic Compliance Matrix: (Units=1/GPa)
#
#
# Indices 1 2 3 4 5 6 
#
# 1 0.034829 -0.049756 -0.009875 0.000000 0.000000 0.000000
# 2 -0.049756 0.287823 -0.000223 0.000000 0.000000 0.000000
# 3 -0.009875 -0.000223 0.011170 0.000000 0.000000 0.000000
# 4 0.000000 0.000000 0.000000 0.051428 0.000000 0.000000
# 5 0.000000 0.000000 0.000000 0.000000 0.121868 0.000000
# 6 0.000000 0.000000 0.000000 0.000000 0.000000 0.047764
#
#
# Mechanical properties :
#
#
# Convention : Reuss Voigt Hill
#
# Bulk Modulus (GPa) = 4.67043 37.43246 21.05145
# Shear Modulus (GPa) = 6.70275 18.21840 12.46057
#
# Velocity S-wave (km/s) = 1.95581 3.22445 2.66667
# Velocity P-wave (km/s) = 2.78669 5.93508 4.63631
#
# Compressibility (1/GPa) = 0.21411308
#
# Stress axis : x y z
#
# Youngs Moduli (GPa) = 28.71131 3.47435 89.52713
#
# Poissons Ratio (x) = 0.17287 0.88410
# Poissons Ratio (y) = 1.42856 0.02000
# Poissons Ratio (z) = 0.28353 0.00078
#
# Static dielectric constant tensor:
#      x y z
#    x 1.599340 0.000000 0.000000 
#    y 0.000000 1.607120 0.000000 
#    z 0.000000 0.000000 1.610350 
# 
# From -- ./inp_files/30662.got.cif
#   From: 2010.05.17/outbox.cif.g08.bks.cpg/sg59_16_cif.got.tgz:30662.got - 2010.06.03 14:40:33.
