data_PCOD9447135
_publ_section_title
;
Structure prediction by ZEFSAII (Michael W. Deem and Ramdas Pophale) SiO2 
 PCOD9447135
Probable space group: P M M N
;
_chemical_formula_sum "Si O2"
_cell_formula_units_Z 64
_cell_length_a 23.171283
_cell_length_b 8.551090
_cell_length_c 18.064813
_cell_angle_alpha 90.000000
_cell_angle_beta 90.000000
_cell_angle_gamma 90.000000
_cell_volume 3579.357104
_symmetry_space_group_name_H-M "P M M N"
_symmetry_group_IT_number 59
_space_group.IT_coordinate_system_code '2'
_symmetry_cell_setting 'orthorhombic'
loop_
_space_group_symop_operation_xyz
x,y,z
1/2-x,1/2-y,z
1/2+x,-y,-z
-x,1/2+y,-z
-x,-y,-z
1/2+x,1/2+y,-z
1/2-x,y,z
x,1/2-y,z
loop_
_atom_site_type_symbol
_atom_site_label
_atom_site_fract_x
_atom_site_fract_y
_atom_site_fract_z
Si Si1 0.022938 0.936331 0.577926
Si Si2 0.415411 0.437747 0.316273
Si Si3 0.065143 0.063711 0.009053
Si Si4 0.814162 0.939505 0.247791
Si Si5 0.952938 0.435099 0.837599
Si Si6 0.850398 0.562636 0.408892
Si Si7 0.185210 0.440869 0.427684
Si Si8 0.916776 0.436260 0.145422
O O1 0.031422 0.750000 0.572996
O O2 0.974371 0.967261 0.638982
O O3 0.082706 0.018551 0.596669
O O4 0.000000 0.000000 0.500000
O O5 0.410478 0.250000 0.305729
O O6 0.420849 0.519171 0.237543
O O7 0.363009 0.490985 0.369001
O O8 0.065648 0.250000 0.004815
O O9 0.079711 0.008309 0.091554
O O10 0.097387 0.993954 0.938002
O O11 0.000000 0.000000 0.000000
O O12 0.750000 0.983483 0.220599
O O13 0.818123 0.750000 0.246051
O O14 0.820125 0.991076 0.333598
O O15 0.867168 0.006266 0.200799
O O16 0.956205 0.250000 0.847307
O O17 0.019220 0.498500 0.834843
O O18 0.843839 0.750000 0.410857
O O19 0.827919 0.504264 0.488472
O O20 0.250000 0.486136 0.406745
O O21 0.182566 0.250000 0.429370
O O22 0.920616 0.250000 0.146770
#
# Coordination Sequence:
#
# PCOD9447135 Si02
#       8
#     8   8   8   8   8   8   8   8
#     4  11  21  33  50  74 104 137 173 220 273 324
#     4  10  20  34  51  76 106 137 176 222 269 320
#     4  10  18  32  55  82 111 139 169 209 257 316
#     4  10  21  36  55  80 110 145 187 230 270 320
#     4  11  21  34  54  82 112 142 176 218 271 330
#     4  10  19  34  54  78 104 137 179 224 268 318
#     4   9  17  32  54  75  97 132 178 223 265 311
#     4  11  21  35  55  80 112 146 179 218 266 321
#
# _framework density 17.880306999999998
#
# number of rings (size 3 to 8) (size 9 to 14) (size 15 to 20)
#    0.000    1.750    1.250    6.375    0.000    5.250 
#    0.000    0.000    0.000    3.000    0.000    1.750 
#    0.000    0.000    0.000    0.000    0.000    0.000 
#
# Total GULP energy -357236.178556 kJ/mol
# GULP energy per Si atom -5581.815290 kJ/mol
# Density = 1.783961 g / cm^3
# Si number density = 17.880307 Si / 1000 Ang^3
#
#
#
# Elastic Constant Matrix: (Units=GPa)
#
#
# Indices 1 2 3 4 5 6 
#
# 1 78.3120 12.1771 41.4634 0.0000 0.0000 0.0000
# 2 12.1771 51.5158 31.7691 0.0000 0.0000 0.0000
# 3 41.4634 31.7691 133.8114 0.0000 0.0000 0.0000
# 4 0.0000 0.0000 0.0000 26.5536 0.0000 0.0000
# 5 0.0000 0.0000 0.0000 0.0000 10.6421 0.0000
# 6 0.0000 0.0000 0.0000 0.0000 0.0000 17.4439
#
#
#
# Elastic Compliance Matrix: (Units=1/GPa)
#
#
# Indices 1 2 3 4 5 6 
#
# 1 0.015305 -0.000812 -0.004550 0.000000 0.000000 0.000000
# 2 -0.000812 0.022784 -0.005158 0.000000 0.000000 0.000000
# 3 -0.004550 -0.005158 0.010107 0.000000 0.000000 0.000000
# 4 0.000000 0.000000 0.000000 0.037660 0.000000 0.000000
# 5 0.000000 0.000000 0.000000 0.000000 0.093966 0.000000
# 6 0.000000 0.000000 0.000000 0.000000 0.000000 0.057326
#
#
# Mechanical properties :
#
#
# Convention : Reuss Voigt Hill
#
# Bulk Modulus (GPa) = 36.82206 48.27317 42.54762
# Shear Modulus (GPa) = 18.70980 22.80990 20.75985
#
# Velocity S-wave (km/s) = 3.23831 3.57557 3.41111
# Velocity P-wave (km/s) = 5.88392 6.64100 6.27389
#
# Compressibility (1/GPa) = 0.02715763
#
# Stress axis : x y z
#
# Youngs Moduli (GPa) = 65.34021 43.89008 98.93659
#
# Poissons Ratio (x) = 0.03564 0.45012
# Poissons Ratio (y) = 0.05305 0.51029
# Poissons Ratio (z) = 0.29727 0.22637
#
# Static dielectric constant tensor:
#      x y z
#    x 1.574530 0.000000 0.000000 
#    y 0.000000 1.614670 0.000000 
#    z 0.000000 0.000000 1.637290 
# 
# From -- ./inp_files/28400.got.cif
#   From: 2010.05.17/outbox.cif.g08.bks.cpg/sg59_15_cif.got.tgz:28400.got - 2010.06.03 14:40:33.
