data_PCOD9447503
_publ_section_title
;
Structure prediction by ZEFSAII (Michael W. Deem and Ramdas Pophale) SiO2 
 PCOD9447503
Probable space group: P M M N
;
_chemical_formula_sum "Si O2"
_cell_formula_units_Z 40
_cell_length_a 12.093903
_cell_length_b 27.902113
_cell_length_c 5.041234
_cell_angle_alpha 90.000000
_cell_angle_beta 90.000000
_cell_angle_gamma 90.000000
_cell_volume 1701.141466
_symmetry_space_group_name_H-M "P M M N"
_symmetry_group_IT_number 59
_space_group.IT_coordinate_system_code '2'
_symmetry_cell_setting 'orthorhombic'
loop_
_space_group_symop_operation_xyz
x,y,z
1/2-x,1/2-y,z
1/2+x,-y,-z
-x,1/2+y,-z
-x,-y,-z
1/2+x,1/2+y,-z
1/2-x,y,z
x,1/2-y,z
loop_
_atom_site_type_symbol
_atom_site_label
_atom_site_fract_x
_atom_site_fract_y
_atom_site_fract_z
Si Si1 0.626671 0.305738 0.911130
Si Si2 0.587248 0.545364 0.287920
Si Si3 0.515511 0.805123 0.570390
Si Si4 0.919266 0.602262 0.794341
Si Si5 0.125559 0.945769 0.987974
O O1 0.750000 0.325837 0.890392
O O2 0.633665 0.250000 0.825041
O O3 0.535938 0.325153 0.704220
O O4 0.581570 0.304093 0.209163
O O5 0.615950 0.563406 0.576491
O O6 0.626228 0.494034 0.187212
O O7 0.625738 0.585352 0.075651
O O8 0.453813 0.544070 0.240006
O O9 0.556357 0.750000 0.541675
O O10 0.599111 0.844496 0.688784
O O11 0.052609 0.593765 0.832976
O O12 0.250000 0.932822 0.052868
#
# Coordination Sequence:
#
# PCOD9447503 Si02
#       5
#     8   8   8   8   8
#     4   9  17  28  39  55  83 118 158 204 238 261
#     4   9  20  36  51  71 105 130 156 216 251 288
#     4  10  19  30  45  64  89 128 169 197 232 288
#     4  10  19  35  47  70 101 134 160 206 251 279
#     4   9  20  34  54  76  98 133 167 199 253 306
#
# _framework density 23.513624
#
# number of rings (size 3 to 8) (size 9 to 14) (size 15 to 20)
#    1.200    1.400    0.000    2.400    0.000    4.800 
#    0.000    0.000    0.000    0.000    0.000    0.000 
#    0.000    4.800    0.000    0.000    0.000    0.000 
#
# Total GULP energy -223069.962319 kJ/mol
# GULP energy per Si atom -5576.749058 kJ/mol
# Density = 2.346011 g / cm^3
# Si number density = 23.513624 Si / 1000 Ang^3
#
#
#
# Elastic Constant Matrix: (Units=GPa)
#
#
# Indices 1 2 3 4 5 6 
#
# 1 91.3520 4.7878 -1.0291 0.0000 0.0000 0.0000
# 2 4.7878 115.5434 -16.8942 0.0000 0.0000 0.0000
# 3 -1.0291 -16.8942 83.2120 0.0000 0.0000 0.0000
# 4 0.0000 0.0000 0.0000 28.7477 0.0000 0.0000
# 5 0.0000 0.0000 0.0000 0.0000 -9.4625 0.0000
# 6 0.0000 0.0000 0.0000 0.0000 0.0000 -8.1135
#
#
#
# Elastic Compliance Matrix: (Units=1/GPa)
#
#
# Indices 1 2 3 4 5 6 
#
# 1 0.010971 -0.000448 0.000045 0.000000 0.000000 0.000000
# 2 -0.000448 0.008938 0.001809 0.000000 0.000000 0.000000
# 3 0.000045 0.001809 0.012385 0.000000 0.000000 0.000000
# 4 0.000000 0.000000 0.000000 0.034785 0.000000 0.000000
# 5 0.000000 0.000000 0.000000 0.000000 -0.105681 0.000000
# 6 0.000000 0.000000 0.000000 0.000000 0.000000 -0.123252
#
#
# Mechanical properties :
#
#
# Convention : Reuss Voigt Hill
#
# Bulk Modulus (GPa) = 28.48574 29.31515 28.90045
# Shear Modulus (GPa) = -32.68767 22.45054 -5.11857
#
# Velocity S-wave (km/s) = -3.73253 3.09332 -1.47702
# Velocity P-wave (km/s) = 2.53669 5.02519 3.06738
#
# Compressibility (1/GPa) = 0.03510528
#
# Stress axis : x y z
#
# Youngs Moduli (GPa) = 91.15228 111.88385 80.74063
#
# Poissons Ratio (x) = 0.05013 -0.00361
# Poissons Ratio (y) = 0.04084 -0.14607
# Poissons Ratio (z) = -0.00408 -0.20241
#
# Static dielectric constant tensor:
#      x y z
#    x 1.971160 0.000000 0.000000 
#    y 0.000000 1.940450 0.000000 
#    z 0.000000 0.000000 1.849660 
# 
# From -- ./inp_files/2204.got.cif
#   From: 2010.05.17/outbox.cif.g08.bks.cpg/sg59_2_cif.got.tgz:2204.got - 2010.06.03 14:40:33.
