data_PCOD9447764
_publ_section_title
;
Structure prediction by ZEFSAII (Michael W. Deem and Ramdas Pophale) SiO2 
 PCOD9447764
Probable space group: P M M N
;
_chemical_formula_sum "Si O2"
_cell_formula_units_Z 64
_cell_length_a 7.524727
_cell_length_b 29.329100
_cell_length_c 14.339743
_cell_angle_alpha 90.000000
_cell_angle_beta 90.000000
_cell_angle_gamma 90.000000
_cell_volume 3164.687651
_symmetry_space_group_name_H-M "P M M N"
_symmetry_group_IT_number 59
_space_group.IT_coordinate_system_code '2'
_symmetry_cell_setting 'orthorhombic'
loop_
_space_group_symop_operation_xyz
x,y,z
1/2-x,1/2-y,z
1/2+x,-y,-z
-x,1/2+y,-z
-x,-y,-z
1/2+x,1/2+y,-z
1/2-x,y,z
x,1/2-y,z
loop_
_atom_site_type_symbol
_atom_site_label
_atom_site_fract_x
_atom_site_fract_y
_atom_site_fract_z
Si Si1 0.532154 0.802514 0.064697
Si Si2 0.464009 0.428627 0.621428
Si Si3 0.037663 0.482000 0.897284
Si Si4 0.539608 0.393224 0.416588
Si Si5 0.545035 0.199075 0.346068
Si Si6 0.047139 0.194838 0.139167
Si Si7 0.532614 0.024386 0.293135
Si Si8 0.467024 0.113458 0.813677
O O1 0.750000 0.801970 0.061583
O O2 0.476775 0.750000 0.080662
O O3 0.475126 0.839037 0.141346
O O4 0.473314 0.819038 0.961461
O O5 0.250000 0.428812 0.622379
O O6 0.520633 0.411915 0.520635
O O7 0.521034 0.480031 0.646659
O O8 0.522632 0.396748 0.707599
O O9 0.250000 0.480239 0.888087
O O10 0.974536 0.514644 0.812950
O O11 0.975359 0.430561 0.874412
O O12 0.000000 0.500000 0.000000
O O13 0.750000 0.389588 0.397114
O O14 0.463109 0.342616 0.402889
O O15 0.467864 0.429973 0.342798
O O16 0.750000 0.203594 0.374828
O O17 0.464627 0.250000 0.352942
O O18 0.543087 0.184549 0.237043
O O19 0.250000 0.178572 0.146482
O O20 0.049436 0.250000 0.133022
O O21 0.750000 0.025424 0.293603
O O22 0.250000 0.114075 0.814444
#
# Coordination Sequence:
#
# PCOD9447764 Si02
#       8
#     8   8   8   8   8   8   8   8
#     4   8  13  23  42  67  90 113 145 180 212 253
#     4   9  17  31  49  67  88 113 143 181 224 262
#     4   9  17  30  46  65  92 121 146 173 211 261
#     4  10  19  31  48  66  84 112 150 185 218 259
#     4   9  18  31  44  60  86 118 146 173 213 265
#     4   8  14  25  42  63  85 109 139 177 214 244
#     4   8  16  31  48  65  88 118 146 175 216 263
#     4   8  15  28  44  61  87 121 145 169 216 268
#
# _framework density 20.223167
#
# number of rings (size 3 to 8) (size 9 to 14) (size 15 to 20)
#    0.000    3.375    0.000    2.625    0.000    1.500 
#    0.000    3.750    0.000    1.500    0.000    0.000 
#    0.000    0.000    0.000    0.000    0.000    0.000 
#
# Total GULP energy -356622.575240 kJ/mol
# GULP energy per Si atom -5572.227738 kJ/mol
# Density = 2.017714 g / cm^3
# Si number density = 20.223167 Si / 1000 Ang^3
#
#
#
# Elastic Constant Matrix: (Units=GPa)
#
#
# Indices 1 2 3 4 5 6 
#
# 1 47.4424 7.0649 -2.1364 0.0000 0.0000 0.0000
# 2 7.0649 129.0236 95.9088 0.0000 0.0000 0.0000
# 3 -2.1364 95.9088 126.7520 0.0000 0.0000 0.0000
# 4 0.0000 0.0000 0.0000 29.0119 0.0000 0.0000
# 5 0.0000 0.0000 0.0000 0.0000 22.2785 0.0000
# 6 0.0000 0.0000 0.0000 0.0000 0.0000 -1.9881
#
#
#
# Elastic Compliance Matrix: (Units=1/GPa)
#
#
# Indices 1 2 3 4 5 6 
#
# 1 0.021705 -0.003338 0.002892 0.000000 0.000000 0.000000
# 2 -0.003338 0.018227 -0.013848 0.000000 0.000000 0.000000
# 3 0.002892 -0.013848 0.018417 0.000000 0.000000 0.000000
# 4 0.000000 0.000000 0.000000 0.034469 0.000000 0.000000
# 5 0.000000 0.000000 0.000000 0.000000 0.044886 0.000000
# 6 0.000000 0.000000 0.000000 0.000000 0.000000 -0.503001
#
#
# Mechanical properties :
#
#
# Convention : Reuss Voigt Hill
#
# Bulk Modulus (GPa) = 33.60197 56.09918 44.85058
# Shear Modulus (GPa) = -15.30047 23.35251 4.02602
#
# Velocity S-wave (km/s) = -2.75359 3.40183 1.41249
# Velocity P-wave (km/s) = 2.55773 6.57497 4.98860
#
# Compressibility (1/GPa) = 0.02976016
#
# Stress axis : x y z
#
# Youngs Moduli (GPa) = 46.07137 54.86300 54.29891
#
# Poissons Ratio (x) = 0.18313 -0.15701
# Poissons Ratio (y) = 0.15378 0.75194
# Poissons Ratio (z) = -0.13322 0.75975
#
# Static dielectric constant tensor:
#      x y z
#    x 1.760160 0.000000 0.000000 
#    y 0.000000 1.731890 0.000000 
#    z 0.000000 0.000000 1.702410 
# 
# From -- ./inp_files/16341.got.cif
#   From: 2010.05.17/outbox.cif.g08.bks.cpg/sg59_9_cif.got.tgz:16341.got - 2010.06.03 14:40:33.
