data_PCOD9447292
_publ_section_title
;
Structure prediction by ZEFSAII (Michael W. Deem and Ramdas Pophale) SiO2 
 PCOD9447292
Probable space group: P M M N
;
_chemical_formula_sum "Si O2"
_cell_formula_units_Z 56
_cell_length_a 14.705619
_cell_length_b 22.235726
_cell_length_c 9.010078
_cell_angle_alpha 90.000000
_cell_angle_beta 90.000000
_cell_angle_gamma 90.000000
_cell_volume 2946.206439
_symmetry_space_group_name_H-M "P M M N"
_symmetry_group_IT_number 59
_space_group.IT_coordinate_system_code '2'
_symmetry_cell_setting 'orthorhombic'
loop_
_space_group_symop_operation_xyz
x,y,z
1/2-x,1/2-y,z
1/2+x,-y,-z
-x,1/2+y,-z
-x,-y,-z
1/2+x,1/2+y,-z
1/2-x,y,z
x,1/2-y,z
loop_
_atom_site_type_symbol
_atom_site_label
_atom_site_fract_x
_atom_site_fract_y
_atom_site_fract_z
Si Si1 0.021268 0.403748 0.591149
Si Si2 0.473588 0.819113 0.142505
Si Si3 0.147762 0.022885 0.160586
Si Si4 0.644443 0.406624 0.046965
Si Si5 0.354549 0.348450 0.043721
Si Si6 0.542712 0.031318 0.318002
Si Si7 0.141929 0.318819 0.387402
O O1 0.069881 0.461444 0.666586
O O2 0.088741 0.363501 0.493593
O O3 0.975320 0.361306 0.712801
O O4 0.952080 0.434486 0.474371
O O5 0.450096 0.750000 0.173590
O O6 0.407648 0.849997 0.022070
O O7 0.574379 0.822447 0.071388
O O8 0.250000 0.027479 0.226279
O O9 0.139568 0.078986 0.047593
O O10 0.064019 0.029063 0.271808
O O11 0.139314 0.960755 0.072935
O O12 0.750000 0.393672 0.075171
O O13 0.595586 0.432474 0.192557
O O14 0.250000 0.330870 0.015260
O O15 0.378106 0.329474 0.212835
O O16 0.250000 0.327171 0.403533
O O17 0.119033 0.250000 0.424478
#
# Coordination Sequence:
#
# PCOD9447292 Si02
#       7
#     8   8   8   8   8   8   8
#     4  11  23  36  58  87 126 159 192 238 301 370
#     4  12  24  39  60  85 121 161 199 248 297 349
#     4  10  18  34  64  92 117 147 187 247 300 346
#     4  11  23  41  64  88 114 151 204 258 302 345
#     4  10  20  36  62  92 118 154 200 244 295 353
#     4  11  21  39  63  90 122 154 195 246 301 363
#     4  10  20  35  54  79 118 164 204 237 280 354
#
# _framework density 19.007494999999999
#
# number of rings (size 3 to 8) (size 9 to 14) (size 15 to 20)
#    0.000    1.286    4.286    2.143    0.000    2.286 
#    0.000    3.571    0.000    0.000    0.000    0.000 
#    0.000    0.000    0.000    0.000    0.000    0.000 
#
# Total GULP energy -312820.563509 kJ/mol
# GULP energy per Si atom -5586.081491 kJ/mol
# Density = 1.896423 g / cm^3
# Si number density = 19.007495 Si / 1000 Ang^3
#
#
#
# Elastic Constant Matrix: (Units=GPa)
#
#
# Indices 1 2 3 4 5 6 
#
# 1 78.9662 31.6907 45.3489 0.0000 0.0000 0.0000
# 2 31.6907 146.6604 50.1249 0.0000 0.0000 0.0000
# 3 45.3489 50.1249 92.6442 0.0000 0.0000 0.0000
# 4 0.0000 0.0000 0.0000 18.1596 0.0000 0.0000
# 5 0.0000 0.0000 0.0000 0.0000 13.5981 0.0000
# 6 0.0000 0.0000 0.0000 0.0000 0.0000 13.9697
#
#
#
# Elastic Compliance Matrix: (Units=1/GPa)
#
#
# Indices 1 2 3 4 5 6 
#
# 1 0.017749 -0.001062 -0.008113 0.000000 0.000000 0.000000
# 2 -0.001062 0.008429 -0.004040 0.000000 0.000000 0.000000
# 3 -0.008113 -0.004040 0.016952 0.000000 0.000000 0.000000
# 4 0.000000 0.000000 0.000000 0.055067 0.000000 0.000000
# 5 0.000000 0.000000 0.000000 0.000000 0.073540 0.000000
# 6 0.000000 0.000000 0.000000 0.000000 0.000000 0.071584
#
#
# Mechanical properties :
#
#
# Convention : Reuss Voigt Hill
#
# Bulk Modulus (GPa) = 59.88962 63.62221 61.75591
# Shear Modulus (GPa) = 18.16076 21.88589 20.02333
#
# Velocity S-wave (km/s) = 3.09439 3.39696 3.24920
# Velocity P-wave (km/s) = 6.65912 6.99504 6.82915
#
# Compressibility (1/GPa) = 0.01669739
#
# Stress axis : x y z
#
# Youngs Moduli (GPa) = 56.33989 118.63866 58.99155
#
# Poissons Ratio (x) = 0.12604 0.47863
# Poissons Ratio (y) = 0.05985 0.23835
# Poissons Ratio (z) = 0.45711 0.47935
#
# Static dielectric constant tensor:
#      x y z
#    x 1.649900 0.000000 0.000000 
#    y 0.000000 1.689230 0.000000 
#    z 0.000000 0.000000 1.663530 
# 
# From -- ./inp_files/9369.got.cif
#   From: 2010.05.17/outbox.cif.g08.bks.cpg/sg59_5_cif.got.tgz:9369.got - 2010.06.03 14:40:33.
