data_PCOD9447259
_publ_section_title
;
Structure prediction by ZEFSAII (Michael W. Deem and Ramdas Pophale) SiO2 
 PCOD9447259
Probable space group: P M M N
;
_chemical_formula_sum "Si O2"
_cell_formula_units_Z 48
_cell_length_a 7.538350
_cell_length_b 13.747176
_cell_length_c 21.148395
_cell_angle_alpha 90.000000
_cell_angle_beta 90.000000
_cell_angle_gamma 90.000000
_cell_volume 2191.629834
_symmetry_space_group_name_H-M "P M M N"
_symmetry_group_IT_number 59
_space_group.IT_coordinate_system_code '2'
_symmetry_cell_setting 'orthorhombic'
loop_
_space_group_symop_operation_xyz
x,y,z
1/2-x,1/2-y,z
1/2+x,-y,-z
-x,1/2+y,-z
-x,-y,-z
1/2+x,1/2+y,-z
1/2-x,y,z
x,1/2-y,z
loop_
_atom_site_type_symbol
_atom_site_label
_atom_site_fract_x
_atom_site_fract_y
_atom_site_fract_z
Si Si1 0.467781 0.536470 0.690257
Si Si2 0.458492 0.930177 0.090642
Si Si3 0.960780 0.561505 0.438813
Si Si4 0.034213 0.250000 0.494137
Si Si5 0.045138 0.141744 0.774291
Si Si6 0.538630 0.250000 0.342725
Si Si7 0.535571 0.359763 0.047388
O O1 0.250000 0.540982 0.693304
O O2 0.526549 0.490089 0.623741
O O3 0.528409 0.456419 0.741584
O O4 0.528443 0.649056 0.688215
O O5 0.250000 0.909446 0.093277
O O6 0.541085 0.879145 0.151095
O O7 0.483326 0.047252 0.089561
O O8 0.525723 0.887901 0.023703
O O9 0.750000 0.571589 0.429025
O O10 0.032550 0.662313 0.463185
O O11 0.000000 0.500000 0.500000
O O12 0.250000 0.250000 0.493416
O O13 0.986256 0.250000 0.419550
O O14 0.250000 0.146809 0.753116
O O15 0.968018 0.250000 0.761263
O O16 0.750000 0.250000 0.333545
O O17 0.750000 0.358733 0.047050
O O18 0.476717 0.250000 0.064279
#
# Coordination Sequence:
#
# PCOD9447259 Si02
#       7
#     8   8   8   4   8   4   8
#     4   9  19  34  53  76 100 134 180 223 265 314
#     4  10  20  35  56  83 115 145 178 222 274 324
#     4  10  19  32  51  76 103 131 168 214 267 320
#     4  10  20  30  48  78 108 132 159 212 275 320
#     4  10  21  37  56  77 105 143 188 229 265 316
#     4  10  18  34  56  74  98 134 177 220 265 324
#     4   9  18  34  57  84 113 146 183 222 264 317
#
# _framework density 21.901509000000001
#
# number of rings (size 3 to 8) (size 9 to 14) (size 15 to 20)
#    0.000    2.333    1.667    1.000    1.167    2.000 
#    1.500    1.667    0.000    0.000    0.000    0.000 
#    0.000    0.000    0.000    0.000    0.000    0.000 
#
# Total GULP energy -267541.037900 kJ/mol
# GULP energy per Si atom -5573.771623 kJ/mol
# Density = 2.185166 g / cm^3
# Si number density = 21.901509 Si / 1000 Ang^3
#
#
#
# Elastic Constant Matrix: (Units=GPa)
#
#
# Indices 1 2 3 4 5 6 
#
# 1 54.5262 4.4360 -3.4575 0.0000 0.0000 0.0000
# 2 4.4360 216.0409 44.6567 0.0000 0.0000 0.0000
# 3 -3.4575 44.6567 60.5125 0.0000 0.0000 0.0000
# 4 0.0000 0.0000 0.0000 26.5456 0.0000 0.0000
# 5 0.0000 0.0000 0.0000 0.0000 17.6490 0.0000
# 6 0.0000 0.0000 0.0000 0.0000 0.0000 2.7194
#
#
#
# Elastic Compliance Matrix: (Units=1/GPa)
#
#
# Indices 1 2 3 4 5 6 
#
# 1 0.018497 -0.000706 0.001578 0.000000 0.000000 0.000000
# 2 -0.000706 0.005489 -0.004091 0.000000 0.000000 0.000000
# 3 0.001578 -0.004091 0.019635 0.000000 0.000000 0.000000
# 4 0.000000 0.000000 0.000000 0.037671 0.000000 0.000000
# 5 0.000000 0.000000 0.000000 0.000000 0.056661 0.000000
# 6 0.000000 0.000000 0.000000 0.000000 0.000000 0.367727
#
#
# Mechanical properties :
#
#
# Convention : Reuss Voigt Hill
#
# Bulk Modulus (GPa) = 26.89425 46.92780 36.91103
# Shear Modulus (GPa) = 9.53267 28.41241 18.97254
#
# Velocity S-wave (km/s) = 2.08853 3.60569 2.94643
# Velocity P-wave (km/s) = 4.25702 6.22960 5.33527
#
# Compressibility (1/GPa) = 0.03718267
#
# Stress axis : x y z
#
# Youngs Moduli (GPa) = 54.06201 182.18662 50.93018
#
# Poissons Ratio (x) = 0.12862 -0.08036
# Poissons Ratio (y) = 0.03817 0.20836
# Poissons Ratio (z) = -0.08530 0.74532
#
# Static dielectric constant tensor:
#      x y z
#    x 1.821700 0.000000 0.000000 
#    y 0.000000 1.812750 0.000000 
#    z 0.000000 0.000000 1.753210 
# 
# From -- ./inp_files/25547.got.cif
#   From: 2010.05.17/outbox.cif.g08.bks.cpg/sg59_13_cif.got.tgz:25547.got - 2010.06.03 14:40:33.
