data_PCOD9447517
_publ_section_title
;
Structure prediction by ZEFSAII (Michael W. Deem and Ramdas Pophale) SiO2 
 PCOD9447517
Probable space group: P M M N
;
_chemical_formula_sum "Si O2"
_cell_formula_units_Z 64
_cell_length_a 23.902640
_cell_length_b 8.822045
_cell_length_c 19.469644
_cell_angle_alpha 90.000000
_cell_angle_beta 90.000000
_cell_angle_gamma 90.000000
_cell_volume 4105.567056
_symmetry_space_group_name_H-M "P M M N"
_symmetry_group_IT_number 59
_space_group.IT_coordinate_system_code '2'
_symmetry_cell_setting 'orthorhombic'
loop_
_space_group_symop_operation_xyz
x,y,z
1/2-x,1/2-y,z
1/2+x,-y,-z
-x,1/2+y,-z
-x,-y,-z
1/2+x,1/2+y,-z
1/2-x,y,z
x,1/2-y,z
loop_
_atom_site_type_symbol
_atom_site_label
_atom_site_fract_x
_atom_site_fract_y
_atom_site_fract_z
Si Si1 0.486559 0.570790 0.927028
Si Si2 0.860155 0.567134 0.416412
Si Si3 0.187856 0.434821 0.728969
Si Si4 0.907137 0.067445 0.667554
Si Si5 0.534832 0.928905 0.787305
Si Si6 0.685444 0.433078 0.558540
Si Si7 0.078758 0.068218 0.811156
Si Si8 0.011961 0.067462 0.574530
O O1 0.477909 0.750000 0.933344
O O2 0.535625 0.546221 0.869865
O O3 0.433970 0.495674 0.887248
O O4 0.500000 0.500000 0.000000
O O5 0.856976 0.750000 0.421750
O O6 0.825240 0.519981 0.349497
O O7 0.838310 0.497668 0.487239
O O8 0.925077 0.525371 0.404731
O O9 0.250000 0.484856 0.749417
O O10 0.187279 0.250000 0.729915
O O11 0.136755 0.483296 0.777591
O O12 0.906699 0.250000 0.672606
O O13 0.853871 0.019955 0.622245
O O14 0.962516 0.019270 0.625229
O O15 0.915759 0.998427 0.742710
O O16 0.530833 0.750000 0.775279
O O17 0.475297 0.008062 0.769001
O O18 0.750000 0.478419 0.567308
O O19 0.682906 0.250000 0.554878
O O20 0.077103 0.250000 0.811610
O O21 0.009696 0.250000 0.570735
O O22 0.000000 0.000000 0.500000
#
# Coordination Sequence:
#
# PCOD9447517 Si02
#       8
#     8   8   8   8   8   8   8   8
#     4   9  18  31  49  76 105 130 154 184 227 278
#     4  10  19  31  48  67  89 120 163 207 247 291
#     4   9  17  29  46  68  94 129 172 209 239 280
#     4  10  19  32  48  65  89 121 156 191 240 292
#     4   9  19  31  47  72  99 122 151 191 233 281
#     4  10  21  35  48  64  88 120 161 206 249 294
#     4   9  16  29  49  71 100 133 160 195 239 282
#     4  10  19  30  45  67  88 116 155 197 245 295
#
# _framework density 15.588589000000001
#
# number of rings (size 3 to 8) (size 9 to 14) (size 15 to 20)
#    0.750    1.750    1.250    1.875    0.000    3.750 
#    0.000    2.500    0.000    3.000    0.000    0.875 
#    0.000    1.000    0.000    0.000    0.000    0.000 
#
# Total GULP energy -356273.500299 kJ/mol
# GULP energy per Si atom -5566.773442 kJ/mol
# Density = 1.555311 g / cm^3
# Si number density = 15.588589 Si / 1000 Ang^3
#
#
#
# Elastic Constant Matrix: (Units=GPa)
#
#
# Indices 1 2 3 4 5 6 
#
# 1 101.0435 25.3526 53.2014 0.0000 0.0000 0.0000
# 2 25.3526 24.7975 33.6505 0.0000 0.0000 0.0000
# 3 53.2014 33.6505 106.8336 0.0000 0.0000 0.0000
# 4 0.0000 0.0000 0.0000 24.7183 0.0000 0.0000
# 5 0.0000 0.0000 0.0000 0.0000 13.5072 0.0000
# 6 0.0000 0.0000 0.0000 0.0000 0.0000 12.8743
#
#
#
# Elastic Compliance Matrix: (Units=1/GPa)
#
#
# Indices 1 2 3 4 5 6 
#
# 1 0.014420 -0.008730 -0.004431 0.000000 0.000000 0.000000
# 2 -0.008730 0.075716 -0.019502 0.000000 0.000000 0.000000
# 3 -0.004431 -0.019502 0.017710 0.000000 0.000000 0.000000
# 4 0.000000 0.000000 0.000000 0.040456 0.000000 0.000000
# 5 0.000000 0.000000 0.000000 0.000000 0.074034 0.000000
# 6 0.000000 0.000000 0.000000 0.000000 0.000000 0.077674
#
#
# Mechanical properties :
#
#
# Convention : Reuss Voigt Hill
#
# Bulk Modulus (GPa) = 23.51819 50.78706 37.15263
# Shear Modulus (GPa) = 13.17490 18.25130 15.71310
#
# Velocity S-wave (km/s) = 2.91032 3.42542 3.17833
# Velocity P-wave (km/s) = 5.13934 6.94947 6.11179
#
# Compressibility (1/GPa) = 0.04252027
#
# Stress axis : x y z
#
# Youngs Moduli (GPa) = 69.34682 13.20729 56.46596
#
# Poissons Ratio (x) = 0.11529 0.25022
# Poissons Ratio (y) = 0.60537 1.10119
# Poissons Ratio (z) = 0.30730 0.25757
#
# Static dielectric constant tensor:
#      x y z
#    x 1.527220 0.000000 0.000000 
#    y 0.000000 1.525920 0.000000 
#    z 0.000000 0.000000 1.519780 
# 
# From -- ./inp_files/31091.got.cif
#   From: 2010.05.17/outbox.cif.g08.bks.cpg/sg59_16_cif.got.tgz:31091.got - 2010.06.03 14:40:33.
