data_PCOD9447639
_publ_section_title
;
Structure prediction by ZEFSAII (Michael W. Deem and Ramdas Pophale) SiO2 
 PCOD9447639
Probable space group: P M M N
;
_chemical_formula_sum "Si O2"
_cell_formula_units_Z 64
_cell_length_a 8.662823
_cell_length_b 30.677514
_cell_length_c 15.115125
_cell_angle_alpha 90.000000
_cell_angle_beta 90.000000
_cell_angle_gamma 90.000000
_cell_volume 4016.903023
_symmetry_space_group_name_H-M "P M M N"
_symmetry_group_IT_number 59
_space_group.IT_coordinate_system_code '2'
_symmetry_cell_setting 'orthorhombic'
loop_
_space_group_symop_operation_xyz
x,y,z
1/2-x,1/2-y,z
1/2+x,-y,-z
-x,1/2+y,-z
-x,-y,-z
1/2+x,1/2+y,-z
1/2-x,y,z
x,1/2-y,z
loop_
_atom_site_type_symbol
_atom_site_label
_atom_site_fract_x
_atom_site_fract_y
_atom_site_fract_z
Si Si1 0.935260 0.384223 0.302189
Si Si2 0.065130 0.798820 0.799999
Si Si3 0.435725 0.201607 0.002827
Si Si4 0.065242 0.558604 0.870413
Si Si5 0.567167 0.035236 0.827661
Si Si6 0.067098 0.440427 0.446934
Si Si7 0.064459 0.393263 0.957136
Si Si8 0.567206 0.528426 0.365335
O O1 0.750000 0.385400 0.314891
O O2 0.981149 0.336898 0.266218
O O3 0.972515 0.418133 0.222949
O O4 0.018398 0.398609 0.391318
O O5 0.250000 0.802944 0.814063
O O6 0.033302 0.750000 0.767046
O O7 0.985543 0.803668 0.895047
O O8 0.250000 0.202212 0.998545
O O9 0.491278 0.250000 0.973743
O O10 0.487418 0.157424 0.954195
O O11 0.250000 0.559620 0.881161
O O12 0.008046 0.508975 0.866485
O O13 0.989685 0.585422 0.950248
O O14 0.750000 0.032100 0.838042
O O15 0.504248 0.076789 0.880345
O O16 0.522031 0.037730 0.724573
O O17 0.250000 0.448637 0.438674
O O18 0.031041 0.440350 0.551324
O O19 0.977284 0.480645 0.401783
O O20 0.250000 0.394558 0.953177
O O21 0.750000 0.529673 0.346973
#
# Coordination Sequence:
#
# PCOD9447639 Si02
#       8
#     8   8   8   8   8   8   8   8
#     4  10  19  30  48  72 101 134 165 200 240 287
#     4   9  17  30  48  70  97 129 163 199 241 286
#     4   9  18  32  50  72  96 124 160 201 245 291
#     4  11  21  34  49  70 101 135 171 205 239 284
#     4  12  24  36  51  70  96 132 172 209 246 290
#     4  10  20  32  51  74  97 126 160 197 240 290
#     4  11  22  35  51  71  99 134 167 204 246 292
#     4  10  20  35  51  71  97 125 160 203 245 286
#
# _framework density 15.932672999999999
#
# number of rings (size 3 to 8) (size 9 to 14) (size 15 to 20)
#    0.000    1.750    2.500    3.000    0.000    3.000 
#    0.000    0.000    0.000    0.000    0.000    0.875 
#    0.000    1.000    0.000    0.000    0.000    0.000 
#
# Total GULP energy -357154.619605 kJ/mol
# GULP energy per Si atom -5580.540931 kJ/mol
# Density = 1.589641 g / cm^3
# Si number density = 15.932673 Si / 1000 Ang^3
#
#
#
# Elastic Constant Matrix: (Units=GPa)
#
#
# Indices 1 2 3 4 5 6 
#
# 1 26.5329 14.5524 9.7413 0.0000 0.0000 0.0000
# 2 14.5524 117.9144 30.7079 0.0000 0.0000 0.0000
# 3 9.7413 30.7079 47.3096 0.0000 0.0000 0.0000
# 4 0.0000 0.0000 0.0000 21.5771 0.0000 0.0000
# 5 0.0000 0.0000 0.0000 0.0000 25.5945 0.0000
# 6 0.0000 0.0000 0.0000 0.0000 0.0000 16.4980
#
#
#
# Elastic Compliance Matrix: (Units=1/GPa)
#
#
# Indices 1 2 3 4 5 6 
#
# 1 0.041953 -0.003524 -0.006351 0.000000 0.000000 0.000000
# 2 -0.003524 0.010502 -0.006091 0.000000 0.000000 0.000000
# 3 -0.006351 -0.006091 0.026399 0.000000 0.000000 0.000000
# 4 0.000000 0.000000 0.000000 0.046345 0.000000 0.000000
# 5 0.000000 0.000000 0.000000 0.000000 0.039071 0.000000
# 6 0.000000 0.000000 0.000000 0.000000 0.000000 0.060614
#
#
# Mechanical properties :
#
#
# Convention : Reuss Voigt Hill
#
# Bulk Modulus (GPa) = 21.31195 33.52890 27.42043
# Shear Modulus (GPa) = 18.35155 21.85093 20.10124
#
# Velocity S-wave (km/s) = 3.39753 3.70733 3.55581
# Velocity P-wave (km/s) = 5.36621 6.27818 5.84002
#
# Compressibility (1/GPa) = 0.04692203
#
# Stress axis : x y z
#
# Youngs Moduli (GPa) = 23.83596 95.22122 37.88056
#
# Poissons Ratio (x) = 0.33552 0.24059
# Poissons Ratio (y) = 0.08399 0.23073
# Poissons Ratio (z) = 0.15139 0.58000
#
# Static dielectric constant tensor:
#      x y z
#    x 1.539680 0.000000 0.000000 
#    y 0.000000 1.550680 0.000000 
#    z 0.000000 0.000000 1.514790 
# 
# From -- ./inp_files/21877.got.cif
#   From: 2010.05.17/outbox.cif.g08.bks.cpg/sg59_11_cif.got.tgz:21877.got - 2010.06.03 14:40:33.
