data_PCOD9447036
_publ_section_title
;
Structure prediction by ZEFSAII (Michael W. Deem and Ramdas Pophale) SiO2 
 PCOD9447036
Probable space group: P M M N
;
_chemical_formula_sum "Si O2"
_cell_formula_units_Z 40
_cell_length_a 13.134938
_cell_length_b 17.510251
_cell_length_c 8.867591
_cell_angle_alpha 90.000000
_cell_angle_beta 90.000000
_cell_angle_gamma 90.000000
_cell_volume 2039.511003
_symmetry_space_group_name_H-M "P M M N"
_symmetry_group_IT_number 59
_space_group.IT_coordinate_system_code '2'
_symmetry_cell_setting 'orthorhombic'
loop_
_space_group_symop_operation_xyz
x,y,z
1/2-x,1/2-y,z
1/2+x,-y,-z
-x,1/2+y,-z
-x,-y,-z
1/2+x,1/2+y,-z
1/2-x,y,z
x,1/2-y,z
loop_
_atom_site_type_symbol
_atom_site_label
_atom_site_fract_x
_atom_site_fract_y
_atom_site_fract_z
Si Si1 0.636466 0.623946 0.911526
Si Si2 0.866616 0.579555 0.569591
Si Si3 0.072460 0.664788 0.046937
Si Si4 0.137541 0.518168 0.875735
Si Si5 0.526804 0.432760 0.671594
O O1 0.750000 0.653083 0.944678
O O2 0.622860 0.619878 0.732215
O O3 0.545786 0.665849 0.995467
O O4 0.632457 0.537598 0.978619
O O5 0.750000 0.590152 0.519017
O O6 0.953149 0.605154 0.452666
O O7 0.891521 0.489680 0.597632
O O8 0.114303 0.750000 0.042374
O O9 0.074370 0.627112 0.212492
O O10 0.121767 0.603743 0.933184
O O11 0.250000 0.509099 0.808531
O O12 0.050419 0.487845 0.765682
#
# Coordination Sequence:
#
# PCOD9447036 Si02
#       5
#     8   8   8   8   8
#     4   9  17  33  55  75  99 132 176 220 256 302
#     4  10  18  31  57  82 100 127 174 226 264 302
#     4  11  21  34  50  76 110 141 171 210 264 320
#     4  10  18  33  54  78 103 133 175 217 256 302
#     4  10  19  34  54  80 106 136 177 219 265 307
#
# _framework density 19.612545000000001
#
# number of rings (size 3 to 8) (size 9 to 14) (size 15 to 20)
#    0.000    2.000    4.000    1.800    0.000    1.600 
#    0.000    1.000    0.000    1.200    0.000    0.000 
#    0.000    0.000    0.000    0.000    0.000    0.000 
#
# Total GULP energy -223190.891107 kJ/mol
# GULP energy per Si atom -5579.772278 kJ/mol
# Density = 1.956791 g / cm^3
# Si number density = 19.612545 Si / 1000 Ang^3
#
#
#
# Elastic Constant Matrix: (Units=GPa)
#
#
# Indices 1 2 3 4 5 6 
#
# 1 37.9921 -14.8513 -16.2008 0.0000 0.0000 0.0000
# 2 -14.8513 86.0880 -3.8527 0.0000 0.0000 0.0000
# 3 -16.2008 -3.8527 44.2600 0.0000 0.0000 0.0000
# 4 0.0000 0.0000 0.0000 8.3320 0.0000 0.0000
# 5 0.0000 0.0000 0.0000 0.0000 23.8506 0.0000
# 6 0.0000 0.0000 0.0000 0.0000 0.0000 2.7660
#
#
#
# Elastic Compliance Matrix: (Units=1/GPa)
#
#
# Indices 1 2 3 4 5 6 
#
# 1 0.034509 0.006544 0.013201 0.000000 0.000000 0.000000
# 2 0.006544 0.012902 0.003518 0.000000 0.000000 0.000000
# 3 0.013201 0.003518 0.027732 0.000000 0.000000 0.000000
# 4 0.000000 0.000000 0.000000 0.120019 0.000000 0.000000
# 5 0.000000 0.000000 0.000000 0.000000 0.041928 0.000000
# 6 0.000000 0.000000 0.000000 0.000000 0.000000 0.361534
#
#
# Mechanical properties :
#
#
# Convention : Reuss Voigt Hill
#
# Bulk Modulus (GPa) = 8.21894 10.94782 9.58338
# Shear Modulus (GPa) = 8.43663 20.53937 14.48800
#
# Velocity S-wave (km/s) = 2.07629 3.23965 2.72087
# Velocity P-wave (km/s) = 3.15400 4.42582 3.84289
#
# Compressibility (1/GPa) = 0.12167024
#
# Stress axis : x y z
#
# Youngs Moduli (GPa) = 28.97828 77.50495 36.05922
#
# Poissons Ratio (x) = -0.50719 -0.47602
# Poissons Ratio (y) = -0.18963 -0.12687
# Poissons Ratio (z) = -0.38255 -0.27270
#
# Static dielectric constant tensor:
#      x y z
#    x 1.715660 0.000000 0.000000 
#    y 0.000000 1.687640 0.000000 
#    z 0.000000 0.000000 1.708750 
# 
# From -- ./inp_files/8607.got.cif
#   From: 2010.05.17/outbox.cif.g08.bks.cpg/sg59_5_cif.got.tgz:8607.got - 2010.06.03 14:40:33.
