data_PCOD9447365
_publ_section_title
;
Structure prediction by ZEFSAII (Michael W. Deem and Ramdas Pophale) SiO2 
 PCOD9447365
Probable space group: P M M N
;
_chemical_formula_sum "Si O2"
_cell_formula_units_Z 56
_cell_length_a 27.242080
_cell_length_b 7.729228
_cell_length_c 15.122566
_cell_angle_alpha 90.000000
_cell_angle_beta 90.000000
_cell_angle_gamma 90.000000
_cell_volume 3184.211240
_symmetry_space_group_name_H-M "P M M N"
_symmetry_group_IT_number 59
_space_group.IT_coordinate_system_code '2'
_symmetry_cell_setting 'orthorhombic'
loop_
_space_group_symop_operation_xyz
x,y,z
1/2-x,1/2-y,z
1/2+x,-y,-z
-x,1/2+y,-z
-x,-y,-z
1/2+x,1/2+y,-z
1/2-x,y,z
x,1/2-y,z
loop_
_atom_site_type_symbol
_atom_site_label
_atom_site_fract_x
_atom_site_fract_y
_atom_site_fract_z
Si Si1 0.107768 0.037851 0.976925
Si Si2 0.068250 0.447977 0.798582
Si Si3 0.035056 0.454375 0.125913
Si Si4 0.433032 0.046279 0.418334
Si Si5 0.126343 0.454588 0.260699
Si Si6 0.805904 0.537774 0.892522
Si Si7 0.456763 0.951357 0.605478
O O1 0.106497 0.250000 0.976752
O O2 0.102381 0.977721 0.876377
O O3 0.060595 0.983396 0.035576
O O4 0.156559 0.985788 0.029662
O O5 0.082500 0.250000 0.783777
O O6 0.065521 0.531707 0.702519
O O7 0.013749 0.454887 0.840925
O O8 0.023782 0.250000 0.117923
O O9 0.077785 0.469558 0.199446
O O10 0.435353 0.250000 0.396162
O O11 0.390467 0.972951 0.355416
O O12 0.487483 0.974318 0.395596
O O13 0.427262 0.029764 0.523337
O O14 0.137443 0.250000 0.271341
O O15 0.170429 0.523941 0.200274
O O16 0.750000 0.482550 0.904508
O O17 0.806595 0.750000 0.891781
O O18 0.460985 0.750000 0.583770
#
# Coordination Sequence:
#
# PCOD9447365 Si02
#       7
#     8   8   8   8   8   8   8
#     4   8  16  26  38  57  84 113 140 172 212 249
#     4  11  19  26  37  58  86 116 145 175 206 242
#     4   9  15  27  41  55  81 116 145 171 202 242
#     4   9  16  28  42  58  81 111 140 172 210 244
#     4   8  13  23  40  60  83 110 137 167 210 250
#     4   8  13  23  41  64  87 110 136 167 207 260
#     4  10  19  29  41  57  80 114 147 176 204 240
#
# _framework density 17.586772
#
# number of rings (size 3 to 8) (size 9 to 14) (size 15 to 20)
#    0.000    3.000    1.429    3.000    0.000    0.571 
#    0.000    0.714    0.000    0.000    0.000    1.000 
#    0.000   36.000    0.000    0.000    0.000    0.000 
#
# Total GULP energy -311916.174997 kJ/mol
# GULP energy per Si atom -5569.931696 kJ/mol
# Density = 1.754674 g / cm^3
# Si number density = 17.586772 Si / 1000 Ang^3
#
#
#
# Elastic Constant Matrix: (Units=GPa)
#
#
# Indices 1 2 3 4 5 6 
#
# 1 70.0900 0.1951 42.2741 0.0000 0.0000 0.0000
# 2 0.1951 24.2357 0.4670 0.0000 0.0000 0.0000
# 3 42.2741 0.4670 133.5909 0.0000 0.0000 0.0000
# 4 0.0000 0.0000 0.0000 12.0398 0.0000 0.0000
# 5 0.0000 0.0000 0.0000 0.0000 14.8215 0.0000
# 6 0.0000 0.0000 0.0000 0.0000 0.0000 6.4698
#
#
#
# Elastic Compliance Matrix: (Units=1/GPa)
#
#
# Indices 1 2 3 4 5 6 
#
# 1 0.017633 -0.000034 -0.005580 0.000000 0.000000 0.000000
# 2 -0.000034 0.041264 -0.000133 0.000000 0.000000 0.000000
# 3 -0.005580 -0.000133 0.009252 0.000000 0.000000 0.000000
# 4 0.000000 0.000000 0.000000 0.083058 0.000000 0.000000
# 5 0.000000 0.000000 0.000000 0.000000 0.067470 0.000000
# 6 0.000000 0.000000 0.000000 0.000000 0.000000 0.154564
#
#
# Mechanical properties :
#
#
# Convention : Reuss Voigt Hill
#
# Bulk Modulus (GPa) = 17.65108 34.86544 26.25826
# Shear Modulus (GPa) = 12.38790 18.99825 15.69307
#
# Velocity S-wave (km/s) = 2.65691 3.29029 2.99042
# Velocity P-wave (km/s) = 4.41255 5.85684 5.18523
#
# Compressibility (1/GPa) = 0.05665377
#
# Stress axis : x y z
#
# Youngs Moduli (GPa) = 56.71254 24.23407 108.08867
#
# Poissons Ratio (x) = 0.00083 0.60310
# Poissons Ratio (y) = 0.00195 0.01441
# Poissons Ratio (z) = 0.31644 0.00323
#
# Static dielectric constant tensor:
#      x y z
#    x 1.580270 0.000000 0.000000 
#    y 0.000000 1.655010 0.000000 
#    z 0.000000 0.000000 1.639260 
# 
# From -- ./inp_files/24943.got.cif
#   From: 2010.05.17/outbox.cif.g08.bks.cpg/sg59_13_cif.got.tgz:24943.got - 2010.06.03 14:40:33.
