data_PCOD9447721
_publ_section_title
;
Structure prediction by ZEFSAII (Michael W. Deem and Ramdas Pophale) SiO2 
 PCOD9447721
Probable space group: P M M N
;
_chemical_formula_sum "Si O2"
_cell_formula_units_Z 64
_cell_length_a 30.846000
_cell_length_b 7.658377
_cell_length_c 15.292973
_cell_angle_alpha 90.000000
_cell_angle_beta 90.000000
_cell_angle_gamma 90.000000
_cell_volume 3612.663553
_symmetry_space_group_name_H-M "P M M N"
_symmetry_group_IT_number 59
_space_group.IT_coordinate_system_code '2'
_symmetry_cell_setting 'orthorhombic'
loop_
_space_group_symop_operation_xyz
x,y,z
1/2-x,1/2-y,z
1/2+x,-y,-z
-x,1/2+y,-z
-x,-y,-z
1/2+x,1/2+y,-z
1/2-x,y,z
x,1/2-y,z
loop_
_atom_site_type_symbol
_atom_site_label
_atom_site_fract_x
_atom_site_fract_y
_atom_site_fract_z
Si Si1 0.432156 0.952933 0.046158
Si Si2 0.798127 0.039558 0.503579
Si Si3 0.533976 0.035749 0.325619
Si Si4 0.059741 0.048175 0.384201
Si Si5 0.889222 0.452490 0.446076
Si Si6 0.298013 0.458502 0.290941
Si Si7 0.474454 0.963011 0.875412
Si Si8 0.388109 0.546403 0.213585
O O1 0.420471 0.750000 0.034110
O O2 0.399552 0.028451 0.118163
O O3 0.479008 0.968191 0.093010
O O4 0.440005 0.024107 0.948683
O O5 0.750000 0.975418 0.477668
O O6 0.900915 0.250000 0.785736
O O7 0.840921 0.970745 0.454801
O O8 0.803754 0.000238 0.606453
O O9 0.533087 0.250000 0.328123
O O10 0.488880 0.978244 0.370336
O O11 0.575902 0.972746 0.378357
O O12 0.534478 0.985188 0.223934
O O13 0.056670 0.250000 0.410938
O O14 0.088064 0.957751 0.458730
O O15 0.084287 0.039111 0.291383
O O16 0.883606 0.250000 0.421145
O O17 0.250000 0.521808 0.265615
O O18 0.299134 0.250000 0.281909
O O19 0.337869 0.532814 0.237218
O O20 0.476570 0.750000 0.878488
O O21 0.297871 0.750000 0.505030
#
# Coordination Sequence:
#
# PCOD9447721 Si02
#       8
#     8   8   8   8   8   8   8   8
#     4   9  18  29  45  67  89 115 150 186 225 268
#     4   9  17  29  45  64  87 115 146 183 226 268
#     4   9  18  30  45  64  88 121 157 189 226 267
#     4  11  20  30  43  63  90 122 158 189 220 262
#     4  10  19  31  45  63  88 121 155 185 223 273
#     4  10  20  32  47  67  90 116 149 188 228 271
#     4   9  16  30  47  64  88 117 149 188 228 265
#     4  11  20  30  45  67  93 122 153 185 225 274
#
# _framework density 17.715461000000001
#
# number of rings (size 3 to 8) (size 9 to 14) (size 15 to 20)
#    0.000    2.250    2.500    1.500    0.000    1.250 
#    0.000    1.250    0.000    0.000    0.000    0.875 
#    0.000    5.000    0.000    3.375    0.000    3.125 
#
# Total GULP energy -356884.383829 kJ/mol
# GULP energy per Si atom -5576.318497 kJ/mol
# Density = 1.767514 g / cm^3
# Si number density = 17.715461 Si / 1000 Ang^3
#
#
#
# Elastic Constant Matrix: (Units=GPa)
#
#
# Indices 1 2 3 4 5 6 
#
# 1 130.3379 -5.3136 45.4054 0.0000 0.0000 0.0000
# 2 -5.3136 35.9098 -5.2425 0.0000 0.0000 0.0000
# 3 45.4054 -5.2425 56.5556 0.0000 0.0000 0.0000
# 4 0.0000 0.0000 0.0000 4.4175 0.0000 0.0000
# 5 0.0000 0.0000 0.0000 0.0000 26.2633 0.0000
# 6 0.0000 0.0000 0.0000 0.0000 0.0000 8.1868
#
#
#
# Elastic Compliance Matrix: (Units=1/GPa)
#
#
# Indices 1 2 3 4 5 6 
#
# 1 0.010655 0.000332 -0.008524 0.000000 0.000000 0.000000
# 2 0.000332 0.028240 0.002351 0.000000 0.000000 0.000000
# 3 -0.008524 0.002351 0.024743 0.000000 0.000000 0.000000
# 4 0.000000 0.000000 0.000000 0.226375 0.000000 0.000000
# 5 0.000000 0.000000 0.000000 0.000000 0.038076 0.000000
# 6 0.000000 0.000000 0.000000 0.000000 0.000000 0.122147
#
#
# Mechanical properties :
#
#
# Convention : Reuss Voigt Hill
#
# Bulk Modulus (GPa) = 19.24665 32.50023 25.87344
# Shear Modulus (GPa) = 10.43327 20.30379 15.36853
#
# Velocity S-wave (km/s) = 2.42943 3.38909 2.94857
# Velocity P-wave (km/s) = 4.33099 5.80518 5.12140
#
# Compressibility (1/GPa) = 0.05195710
#
# Stress axis : x y z
#
# Youngs Moduli (GPa) = 93.84988 35.41087 40.41559
#
# Poissons Ratio (x) = -0.01177 0.34449
# Poissons Ratio (y) = -0.03118 -0.09502
# Poissons Ratio (z) = 0.79996 -0.08325
#
# Static dielectric constant tensor:
#      x y z
#    x 1.629500 0.000000 0.000000 
#    y 0.000000 1.655900 0.000000 
#    z 0.000000 0.000000 1.600030 
# 
# From -- ./inp_files/25121.got.cif
#   From: 2010.05.17/outbox.cif.g08.bks.cpg/sg59_13_cif.got.tgz:25121.got - 2010.06.03 14:40:33.
