data_PCOD9447170
_publ_section_title
;
Structure prediction by ZEFSAII (Michael W. Deem and Ramdas Pophale) SiO2 
 PCOD9447170
Probable space group: P M M N
;
_chemical_formula_sum "Si O2"
_cell_formula_units_Z 64
_cell_length_a 15.590080
_cell_length_b 8.675864
_cell_length_c 24.690666
_cell_angle_alpha 90.000000
_cell_angle_beta 90.000000
_cell_angle_gamma 90.000000
_cell_volume 3339.595629
_symmetry_space_group_name_H-M "P M M N"
_symmetry_group_IT_number 59
_space_group.IT_coordinate_system_code '2'
_symmetry_cell_setting 'orthorhombic'
loop_
_space_group_symop_operation_xyz
x,y,z
1/2-x,1/2-y,z
1/2+x,-y,-z
-x,1/2+y,-z
-x,-y,-z
1/2+x,1/2+y,-z
1/2-x,y,z
x,1/2-y,z
loop_
_atom_site_type_symbol
_atom_site_label
_atom_site_fract_x
_atom_site_fract_y
_atom_site_fract_z
Si Si1 0.650124 0.566884 0.873237
Si Si2 0.653818 0.935364 0.385659
Si Si3 0.008051 0.934421 0.691110
Si Si4 0.849961 0.063253 0.107298
Si Si5 0.490319 0.432954 0.810721
Si Si6 0.344647 0.062069 0.377415
Si Si7 0.095576 0.435882 0.495814
Si Si8 0.645915 0.073380 0.987412
O O1 0.750000 0.517575 0.865611
O O2 0.646587 0.750000 0.865654
O O3 0.582012 0.488434 0.833902
O O4 0.624060 0.525404 0.934938
O O5 0.750000 0.971299 0.367519
O O6 0.641491 0.750000 0.382123
O O7 0.643311 0.979010 0.448837
O O8 0.583966 0.018466 0.349266
O O9 0.005322 0.750000 0.696855
O O10 0.919925 0.987764 0.662461
O O11 0.019549 0.008778 0.749543
O O12 0.750000 0.016517 0.115632
O O13 0.851259 0.250000 0.107282
O O14 0.879973 0.014731 0.046780
O O15 0.914684 0.001521 0.151972
O O16 0.485938 0.250000 0.812724
O O17 0.250000 0.011884 0.360559
O O18 0.345718 0.250000 0.377682
O O19 0.363175 0.012351 0.439222
O O20 0.093075 0.250000 0.494087
O O21 0.000000 0.500000 0.500000
O O22 0.750000 0.077934 0.989956
O O23 0.616178 0.250000 0.979888
#
# Coordination Sequence:
#
# PCOD9447170 Si02
#       8
#     8   8   8   8   8   8   8   8
#     4  10  21  38  61  88 118 153 194 239 286 342
#     4  10  21  37  59  86 117 153 190 231 283 343
#     4  11  23  40  60  82 110 147 193 245 291 338
#     4   9  19  38  63  89 118 152 191 238 291 347
#     4  12  26  41  59  83 114 154 198 245 294 348
#     4   9  18  34  58  86 113 145 185 227 277 337
#     4  10  18  32  57  87 119 151 184 225 278 337
#     4   8  15  31  57  88 120 151 184 229 288 348
#
# _framework density 19.163996000000001
#
# number of rings (size 3 to 8) (size 9 to 14) (size 15 to 20)
#    0.000    2.125    1.250    3.000    0.000    4.750 
#    0.000    2.500    0.000    3.750    0.000    0.000 
#    0.000    0.000    0.000    0.000    0.000    0.000 
#
# Total GULP energy -357326.903051 kJ/mol
# GULP energy per Si atom -5583.232860 kJ/mol
# Density = 1.912038 g / cm^3
# Si number density = 19.163996 Si / 1000 Ang^3
#
#
#
# Elastic Constant Matrix: (Units=GPa)
#
#
# Indices 1 2 3 4 5 6 
#
# 1 57.9110 10.1729 -14.1369 0.0000 0.0000 0.0000
# 2 10.1729 27.4069 8.1957 0.0000 0.0000 0.0000
# 3 -14.1369 8.1957 39.2738 0.0000 0.0000 0.0000
# 4 0.0000 0.0000 0.0000 7.0560 0.0000 0.0000
# 5 0.0000 0.0000 0.0000 0.0000 143.8964 0.0000
# 6 0.0000 0.0000 0.0000 0.0000 0.0000 22.8273
#
#
#
# Elastic Compliance Matrix: (Units=1/GPa)
#
#
# Indices 1 2 3 4 5 6 
#
# 1 0.021682 -0.011073 0.010115 0.000000 0.000000 0.000000
# 2 -0.011073 0.044571 -0.013287 0.000000 0.000000 0.000000
# 3 0.010115 -0.013287 0.031876 0.000000 0.000000 0.000000
# 4 0.000000 0.000000 0.000000 0.141724 0.000000 0.000000
# 5 0.000000 0.000000 0.000000 0.000000 0.006949 0.000000
# 6 0.000000 0.000000 0.000000 0.000000 0.000000 0.043807
#
#
# Mechanical properties :
#
#
# Convention : Reuss Voigt Hill
#
# Bulk Modulus (GPa) = 14.35950 14.78389 14.57169
# Shear Modulus (GPa) = 14.60658 42.77994 28.69326
#
# Velocity S-wave (km/s) = 2.76377 4.72986 3.87363
# Velocity P-wave (km/s) = 4.20640 6.12861 5.25612
#
# Compressibility (1/GPa) = 0.06964031
#
# Stress axis : x y z
#
# Youngs Moduli (GPa) = 46.12048 22.43634 31.37138
#
# Poissons Ratio (x) = 0.24844 -0.31734
# Poissons Ratio (y) = 0.51069 0.41683
# Poissons Ratio (z) = -0.46653 0.29811
#
# Static dielectric constant tensor:
#      x y z
#    x 1.675360 0.000000 0.000000 
#    y 0.000000 1.649580 0.000000 
#    z 0.000000 0.000000 1.658750 
# 
# From -- ./inp_files/32262.got.cif
#   From: 2010.05.17/outbox.cif.g08.bks.cpg/sg59_17_cif.got.tgz:32262.got - 2010.06.03 14:40:33.
