data_PCOD9447509
_publ_section_title
;
Structure prediction by ZEFSAII (Michael W. Deem and Ramdas Pophale) SiO2 
 PCOD9447509
Probable space group: P M M N
;
_chemical_formula_sum "Si O2"
_cell_formula_units_Z 40
_cell_length_a 7.411408
_cell_length_b 22.284907
_cell_length_c 12.178238
_cell_angle_alpha 90.000000
_cell_angle_beta 90.000000
_cell_angle_gamma 90.000000
_cell_volume 2011.388697
_symmetry_space_group_name_H-M "P M M N"
_symmetry_group_IT_number 59
_space_group.IT_coordinate_system_code '2'
_symmetry_cell_setting 'orthorhombic'
loop_
_space_group_symop_operation_xyz
x,y,z
1/2-x,1/2-y,z
1/2+x,-y,-z
-x,1/2+y,-z
-x,-y,-z
1/2+x,1/2+y,-z
1/2-x,y,z
x,1/2-y,z
loop_
_atom_site_type_symbol
_atom_site_label
_atom_site_fract_x
_atom_site_fract_y
_atom_site_fract_z
Si Si1 0.969959 0.819156 0.973464
Si Si2 0.030372 0.317654 0.277519
Si Si3 0.033540 0.056270 0.918086
Si Si4 0.535301 0.960918 0.329093
Si Si5 0.533087 0.913211 0.551223
O O1 0.750000 0.818106 0.977381
O O2 0.025823 0.750000 0.002225
O O3 0.024496 0.831329 0.847169
O O4 0.030136 0.877863 0.041046
O O5 0.250000 0.320762 0.276725
O O6 0.978173 0.250000 0.301184
O O7 0.963126 0.360810 0.371933
O O8 0.250000 0.060539 0.913336
O O9 0.964305 0.043854 0.794534
O O10 0.000000 0.000000 0.000000
O O11 0.750000 0.951167 0.321293
O O12 0.505717 0.026082 0.381931
O O13 0.464932 0.917661 0.426259
O O14 0.750000 0.907857 0.543992
#
# Coordination Sequence:
#
# PCOD9447509 Si02
#       5
#     8   8   8   8   8
#     4   8  14  25  41  61  85 113 144 177 213 253
#     4   8  13  22  39  62  82 102 136 177 207 238
#     4  10  19  30  45  66  90 115 146 182 217 255
#     4   9  18  29  41  62  89 111 136 175 214 247
#     4   9  16  28  45  62  83 112 141 169 209 256
#
# _framework density 19.886759000000001
#
# number of rings (size 3 to 8) (size 9 to 14) (size 15 to 20)
#    0.000    3.200    0.000    2.400    0.000    2.400 
#    0.000    1.000    0.000    7.200    0.000    5.600 
#    0.000    4.800    0.000    0.000    0.000    0.000 
#
# Total GULP energy -222812.414906 kJ/mol
# GULP energy per Si atom -5570.310373 kJ/mol
# Density = 1.984150 g / cm^3
# Si number density = 19.886759 Si / 1000 Ang^3
#
#
#
# Elastic Constant Matrix: (Units=GPa)
#
#
# Indices 1 2 3 4 5 6 
#
# 1 67.9652 0.9216 7.4389 0.0000 0.0000 0.0000
# 2 0.9216 123.7119 121.9058 0.0000 0.0000 0.0000
# 3 7.4389 121.9058 206.3840 0.0000 0.0000 0.0000
# 4 0.0000 0.0000 0.0000 41.9887 0.0000 0.0000
# 5 0.0000 0.0000 0.0000 0.0000 3.5071 0.0000
# 6 0.0000 0.0000 0.0000 0.0000 0.0000 9.8403
#
#
#
# Elastic Compliance Matrix: (Units=1/GPa)
#
#
# Indices 1 2 3 4 5 6 
#
# 1 0.014823 0.000995 -0.001122 0.000000 0.000000 0.000000
# 2 0.000995 0.019407 -0.011499 0.000000 0.000000 0.000000
# 3 -0.001122 -0.011499 0.011678 0.000000 0.000000 0.000000
# 4 0.000000 0.000000 0.000000 0.023816 0.000000 0.000000
# 5 0.000000 0.000000 0.000000 0.000000 0.285139 0.000000
# 6 0.000000 0.000000 0.000000 0.000000 0.000000 0.101623
#
#
# Mechanical properties :
#
#
# Convention : Reuss Voigt Hill
#
# Bulk Modulus (GPa) = 44.13844 73.17707 58.65775
# Shear Modulus (GPa) = 10.26082 28.92018 19.59050
#
# Velocity S-wave (km/s) = 2.27395 3.81759 3.14204
# Velocity P-wave (km/s) = 5.39792 7.50392 6.53629
#
# Compressibility (1/GPa) = 0.02265599
#
# Stress axis : x y z
#
# Youngs Moduli (GPa) = 67.46389 51.52707 85.63023
#
# Poissons Ratio (x) = -0.05129 0.09610
# Poissons Ratio (y) = -0.06716 0.98469
# Poissons Ratio (z) = 0.07571 0.59252
#
# Static dielectric constant tensor:
#      x y z
#    x 1.791250 0.000000 0.000000 
#    y 0.000000 1.692720 0.000000 
#    z 0.000000 0.000000 1.716830 
# 
# From -- ./inp_files/14034.got.cif
#   From: 2010.05.17/outbox.cif.g08.bks.cpg/sg59_8_cif.got.tgz:14034.got - 2010.06.03 14:40:33.
