data_PCOD9447728
_publ_section_title
;
Structure prediction by ZEFSAII (Michael W. Deem and Ramdas Pophale) SiO2 
 PCOD9447728
Probable space group: P M M N
;
_chemical_formula_sum "Si O2"
_cell_formula_units_Z 64
_cell_length_a 8.040413
_cell_length_b 29.383668
_cell_length_c 16.209456
_cell_angle_alpha 90.000000
_cell_angle_beta 90.000000
_cell_angle_gamma 90.000000
_cell_volume 3829.594629
_symmetry_space_group_name_H-M "P M M N"
_symmetry_group_IT_number 59
_space_group.IT_coordinate_system_code '2'
_symmetry_cell_setting 'orthorhombic'
loop_
_space_group_symop_operation_xyz
x,y,z
1/2-x,1/2-y,z
1/2+x,-y,-z
-x,1/2+y,-z
-x,-y,-z
1/2+x,1/2+y,-z
1/2-x,y,z
x,1/2-y,z
loop_
_atom_site_type_symbol
_atom_site_label
_atom_site_fract_x
_atom_site_fract_y
_atom_site_fract_z
Si Si1 0.548171 0.300751 0.083182
Si Si2 0.048052 0.945089 0.676609
Si Si3 0.553312 0.101869 0.846289
Si Si4 0.943677 0.551863 0.988259
Si Si5 0.053936 0.890992 0.833776
Si Si6 0.549690 0.053019 0.503388
Si Si7 0.948014 0.800895 0.107624
Si Si8 0.950753 0.449117 0.683105
O O1 0.750000 0.302755 0.080255
O O2 0.500110 0.250000 0.110786
O O3 0.484990 0.341971 0.139234
O O4 0.486666 0.306767 0.989589
O O5 0.250000 0.944626 0.677423
O O6 0.984085 0.914685 0.752031
O O7 0.992038 0.928580 0.585472
O O8 0.996402 0.997625 0.688992
O O9 0.750000 0.092908 0.852945
O O10 0.473056 0.079711 0.927536
O O11 0.524773 0.155939 0.846720
O O12 0.488643 0.078257 0.762833
O O13 0.750000 0.552447 0.967868
O O14 0.000000 0.500000 0.000000
O O15 0.035436 0.576002 0.912362
O O16 0.250000 0.884406 0.818486
O O17 0.750000 0.056521 0.504086
O O18 0.489335 0.069037 0.593440
O O19 0.500000 0.000000 0.500000
O O20 0.750000 0.802193 0.118748
O O21 0.008146 0.750000 0.130773
O O22 0.750000 0.446085 0.683020
#
# Coordination Sequence:
#
# PCOD9447728 Si02
#       8
#     8   8   8   8   8   8   8   8
#     4   9  17  30  48  66  87 117 151 188 227 268
#     4   9  17  28  45  67  91 120 151 186 227 271
#     4  11  21  33  48  68  92 122 158 192 229 274
#     4  12  24  35  46  62  90 127 159 189 224 266
#     4  10  19  31  46  67  92 119 153 187 223 273
#     4   8  14  27  44  63  87 115 148 186 228 267
#     4  10  20  33  49  69  91 116 151 194 237 276
#     4   9  18  30  45  65  90 120 153 189 225 268
#
# _framework density 16.711952
#
# number of rings (size 3 to 8) (size 9 to 14) (size 15 to 20)
#    0.000    2.250    1.250    2.625    0.000    4.250 
#    0.000    0.000    0.000    0.000    0.000    0.875 
#    0.000    5.000    0.000    3.375    0.000    3.125 
#
# Total GULP energy -356723.514816 kJ/mol
# GULP energy per Si atom -5573.804919 kJ/mol
# Density = 1.667391 g / cm^3
# Si number density = 16.711952 Si / 1000 Ang^3
#
#
#
# Elastic Constant Matrix: (Units=GPa)
#
#
# Indices 1 2 3 4 5 6 
#
# 1 10.4087 -7.1483 -8.2363 0.0000 0.0000 0.0000
# 2 -7.1483 78.0595 29.6956 0.0000 0.0000 0.0000
# 3 -8.2363 29.6956 98.1234 0.0000 0.0000 0.0000
# 4 0.0000 0.0000 0.0000 8.8628 0.0000 0.0000
# 5 0.0000 0.0000 0.0000 0.0000 -0.5113 0.0000
# 6 0.0000 0.0000 0.0000 0.0000 0.0000 15.5240
#
#
#
# Elastic Compliance Matrix: (Units=1/GPa)
#
#
# Indices 1 2 3 4 5 6 
#
# 1 0.106342 0.007168 0.006757 0.000000 0.000000 0.000000
# 2 0.007168 0.014961 -0.003926 0.000000 0.000000 0.000000
# 3 0.006757 -0.003926 0.011947 0.000000 0.000000 0.000000
# 4 0.000000 0.000000 0.000000 0.112831 0.000000 0.000000
# 5 0.000000 0.000000 0.000000 0.000000 -1.955863 0.000000
# 6 0.000000 0.000000 0.000000 0.000000 0.000000 0.064416
#
#
# Mechanical properties :
#
#
# Convention : Reuss Voigt Hill
#
# Bulk Modulus (GPa) = 6.52542 23.91263 15.21902
# Shear Modulus (GPa) = -3.09735 16.26048 6.58156
#
# Velocity S-wave (km/s) = -1.36286 3.12265 1.98665
# Velocity P-wave (km/s) = 1.19858 5.22887 3.79326
#
# Compressibility (1/GPa) = 0.15324693
#
# Stress axis : x y z
#
# Youngs Moduli (GPa) = 9.40360 66.84194 83.70608
#
# Poissons Ratio (x) = -0.47911 -0.56560
# Poissons Ratio (y) = -0.06740 0.32863
# Poissons Ratio (z) = -0.06354 0.26242
#
# Static dielectric constant tensor:
#      x y z
#    x 1.589120 0.000000 0.000000 
#    y 0.000000 1.551750 0.000000 
#    z 0.000000 0.000000 1.587250 
# 
# From -- ./inp_files/21810.got.cif
#   From: 2010.05.17/outbox.cif.g08.bks.cpg/sg59_11_cif.got.tgz:21810.got - 2010.06.03 14:40:33.
