data_PCOD9447906
_publ_section_title
;
Structure prediction by ZEFSAII (Michael W. Deem and Ramdas Pophale) SiO2 
 PCOD9447906
Probable space group: P M M N
;
_chemical_formula_sum "Si O2"
_cell_formula_units_Z 48
_cell_length_a 9.175776
_cell_length_b 32.916616
_cell_length_c 7.749157
_cell_angle_alpha 90.000000
_cell_angle_beta 90.000000
_cell_angle_gamma 90.000000
_cell_volume 2340.520471
_symmetry_space_group_name_H-M "P M M N"
_symmetry_group_IT_number 59
_space_group.IT_coordinate_system_code '2'
_symmetry_cell_setting 'orthorhombic'
loop_
_space_group_symop_operation_xyz
x,y,z
1/2-x,1/2-y,z
1/2+x,-y,-z
-x,1/2+y,-z
-x,-y,-z
1/2+x,1/2+y,-z
1/2-x,y,z
x,1/2-y,z
loop_
_atom_site_type_symbol
_atom_site_label
_atom_site_fract_x
_atom_site_fract_y
_atom_site_fract_z
Si Si1 0.912400 0.035719 0.781433
Si Si2 0.921115 0.704925 0.325270
Si Si3 0.911914 0.039793 0.190335
Si Si4 0.574259 0.880275 0.714464
Si Si5 0.422064 0.206568 0.253914
Si Si6 0.424534 0.875255 0.341671
O O1 0.750000 0.030195 0.706077
O O2 0.958779 0.082048 0.749567
O O3 0.899202 0.031148 0.987168
O O4 0.020417 0.000252 0.722478
O O5 0.750000 0.699731 0.284748
O O6 0.966675 0.750000 0.264893
O O7 0.932260 0.705820 0.535818
O O8 0.011087 0.666209 0.261866
O O9 0.750000 0.049312 0.257876
O O10 0.016475 0.078403 0.205087
O O11 0.750000 0.880010 0.702987
O O12 0.525178 0.837813 0.804254
O O13 0.501943 0.879183 0.526314
O O14 0.250000 0.207778 0.212191
O O15 0.486578 0.250000 0.196254
O O16 0.250000 0.871637 0.356285
#
# Coordination Sequence:
#
# PCOD9447906 Si02
#       6
#     8   8   8   8   8   8
#     4   9  20  37  53  70  94 125 161 200 244 293
#     4   8  14  26  44  67  97 130 161 194 233 279
#     4  10  20  35  54  72  92 123 163 203 242 290
#     4  10  19  31  49  74 102 129 158 197 244 288
#     4   7  11  22  41  64  90 121 154 186 223 268
#     4  10  19  31  49  74 101 127 159 200 242 284
#
# _framework density 20.508258000000001
#
# number of rings (size 3 to 8) (size 9 to 14) (size 15 to 20)
#    0.000    3.000    0.000    3.500    0.000    3.000 
#    0.000    0.000    0.000    2.500    0.000    4.667 
#    0.000    0.000    0.000    0.000    0.000    0.000 
#
# Total GULP energy -267294.974091 kJ/mol
# GULP energy per Si atom -5568.645294 kJ/mol
# Density = 2.046158 g / cm^3
# Si number density = 20.508258 Si / 1000 Ang^3
#
#
#
# Elastic Constant Matrix: (Units=GPa)
#
#
# Indices 1 2 3 4 5 6 
#
# 1 67.8871 77.1161 5.9046 0.0000 0.0000 0.0000
# 2 77.1161 183.1672 -1.8234 0.0000 0.0000 0.0000
# 3 5.9046 -1.8234 17.8353 0.0000 0.0000 0.0000
# 4 0.0000 0.0000 0.0000 30.4173 0.0000 0.0000
# 5 0.0000 0.0000 0.0000 0.0000 7.4412 0.0000
# 6 0.0000 0.0000 0.0000 0.0000 0.0000 30.0124
#
#
#
# Elastic Compliance Matrix: (Units=1/GPa)
#
#
# Indices 1 2 3 4 5 6 
#
# 1 0.030375 -0.012902 -0.011375 0.000000 0.000000 0.000000
# 2 -0.012902 0.010945 0.005390 0.000000 0.000000 0.000000
# 3 -0.011375 0.005390 0.060385 0.000000 0.000000 0.000000
# 4 0.000000 0.000000 0.000000 0.032876 0.000000 0.000000
# 5 0.000000 0.000000 0.000000 0.000000 0.134387 0.000000
# 6 0.000000 0.000000 0.000000 0.000000 0.000000 0.033320
#
#
# Mechanical properties :
#
#
# Convention : Reuss Voigt Hill
#
# Bulk Modulus (GPa) = 15.64147 47.92047 31.78097
# Shear Modulus (GPa) = 13.83616 26.08700 19.96158
#
# Velocity S-wave (km/s) = 2.60024 3.57041 3.12323
# Velocity P-wave (km/s) = 4.08148 6.35722 5.34195
#
# Compressibility (1/GPa) = 0.06393261
#
# Stress axis : x y z
#
# Youngs Moduli (GPa) = 32.92143 91.36618 16.56028
#
# Poissons Ratio (x) = 1.17878 0.18837
# Poissons Ratio (y) = 0.42474 -0.08926
# Poissons Ratio (z) = 0.37448 -0.49248
#
# Static dielectric constant tensor:
#      x y z
#    x 1.725300 0.000000 0.000000 
#    y 0.000000 1.799980 0.000000 
#    z 0.000000 0.000000 1.749000 
# 
# From -- ./inp_files/6305.got.cif
#   From: 2010.05.17/outbox.cif.g08.bks.cpg/sg59_4_cif.got.tgz:6305.got - 2010.06.03 14:40:33.
