data_PCOD9447973
_publ_section_title
;
Structure prediction by ZEFSAII (Michael W. Deem and Ramdas Pophale) SiO2 
 PCOD9447973
Probable space group: P M M N
;
_chemical_formula_sum "Si O2"
_cell_formula_units_Z 64
_cell_length_a 29.452583
_cell_length_b 9.101586
_cell_length_c 12.856381
_cell_angle_alpha 90.000000
_cell_angle_beta 90.000000
_cell_angle_gamma 90.000000
_cell_volume 3446.348564
_symmetry_space_group_name_H-M "P M M N"
_symmetry_group_IT_number 59
_space_group.IT_coordinate_system_code '2'
_symmetry_cell_setting 'orthorhombic'
loop_
_space_group_symop_operation_xyz
x,y,z
1/2-x,1/2-y,z
1/2+x,-y,-z
-x,1/2+y,-z
-x,-y,-z
1/2+x,1/2+y,-z
1/2-x,y,z
x,1/2-y,z
loop_
_atom_site_type_symbol
_atom_site_label
_atom_site_fract_x
_atom_site_fract_y
_atom_site_fract_z
Si Si1 0.436236 0.078868 0.005858
Si Si2 0.804644 0.415957 0.783350
Si Si3 0.697356 0.573109 0.571165
Si Si4 0.006758 0.573450 0.171292
Si Si5 0.524454 0.928680 0.400644
Si Si6 0.299773 0.429126 0.784389
Si Si7 0.369869 0.071160 0.613438
Si Si8 0.829731 0.921462 0.993031
O O1 0.447770 0.250000 0.023755
O O2 0.464795 0.029951 0.904718
O O3 0.383201 0.069780 0.984400
O O4 0.450605 0.991538 0.109028
O O5 0.750000 0.412301 0.784468
O O6 0.821958 0.250000 0.775066
O O7 0.817238 0.508670 0.681865
O O8 0.819644 0.489874 0.889763
O O9 0.750000 0.528951 0.549510
O O10 0.697093 0.750000 0.575413
O O11 0.661796 0.526687 0.483239
O O12 0.009151 0.750000 0.171837
O O13 0.998598 0.527686 0.290333
O O14 0.522545 0.750000 0.408502
O O15 0.577709 0.973206 0.395106
O O16 0.500000 0.000000 0.500000
O O17 0.250000 0.470811 0.742300
O O18 0.301300 0.250000 0.784611
O O19 0.342167 0.478819 0.715314
O O20 0.304496 0.475585 0.903823
O O21 0.370439 0.250000 0.616088
O O22 0.817608 0.750000 0.976103
#
# Coordination Sequence:
#
# PCOD9447973 Si02
#       8
#     8   8   8   8   8   8   8   8
#     4   9  18  32  52  76 100 129 165 206 249 294
#     4  10  21  35  49  67  97 136 170 201 241 289
#     4   9  17  31  53  78 101 127 164 208 251 301
#     4   9  18  34  53  73  99 131 167 206 250 298
#     4  10  21  36  53  73 101 135 169 209 256 303
#     4   9  16  27  49  81 109 130 158 201 251 303
#     4   9  17  31  52  77 103 130 162 205 257 306
#     4  10  19  31  50  77 105 131 163 203 247 296
#
# _framework density 18.570378999999999
#
# number of rings (size 3 to 8) (size 9 to 14) (size 15 to 20)
#    0.000    2.625    0.000    1.875    0.000    7.750 
#    0.000    4.375    0.000    3.000    0.000    1.750 
#    0.000    0.000    0.000    0.000    0.000    0.000 
#
# Total GULP energy -356797.550794 kJ/mol
# GULP energy per Si atom -5574.961731 kJ/mol
# Density = 1.852811 g / cm^3
# Si number density = 18.570379 Si / 1000 Ang^3
#
#
#
# Elastic Constant Matrix: (Units=GPa)
#
#
# Indices 1 2 3 4 5 6 
#
# 1 69.2096 13.9488 45.0976 0.0000 0.0000 0.0000
# 2 13.9488 9.7021 22.2538 0.0000 0.0000 0.0000
# 3 45.0976 22.2538 135.2536 0.0000 0.0000 0.0000
# 4 0.0000 0.0000 0.0000 13.3720 0.0000 0.0000
# 5 0.0000 0.0000 0.0000 0.0000 82.5967 0.0000
# 6 0.0000 0.0000 0.0000 0.0000 0.0000 19.5429
#
#
#
# Elastic Compliance Matrix: (Units=1/GPa)
#
#
# Indices 1 2 3 4 5 6 
#
# 1 0.021224 -0.022939 -0.003302 0.000000 0.000000 0.000000
# 2 -0.022939 0.190338 -0.023669 0.000000 0.000000 0.000000
# 3 -0.003302 -0.023669 0.012389 0.000000 0.000000 0.000000
# 4 0.000000 0.000000 0.000000 0.074783 0.000000 0.000000
# 5 0.000000 0.000000 0.000000 0.000000 0.012107 0.000000
# 6 0.000000 0.000000 0.000000 0.000000 0.000000 0.051169
#
#
# Mechanical properties :
#
#
# Convention : Reuss Voigt Hill
#
# Bulk Modulus (GPa) = 8.05598 41.86285 24.95941
# Shear Modulus (GPa) = 9.93626 31.96001 20.94814
#
# Velocity S-wave (km/s) = 2.31564 4.15302 3.36227
# Velocity P-wave (km/s) = 3.39074 6.75193 5.34255
#
# Compressibility (1/GPa) = 0.12413143
#
# Stress axis : x y z
#
# Youngs Moduli (GPa) = 47.11652 5.25380 80.71707
#
# Poissons Ratio (x) = 0.12052 0.26657
# Poissons Ratio (y) = 1.08080 1.91046
# Poissons Ratio (z) = 0.15560 0.12435
#
# Static dielectric constant tensor:
#      x y z
#    x 1.653760 0.000000 0.000000 
#    y 0.000000 1.632890 0.000000 
#    z 0.000000 0.000000 1.631200 
# 
# From -- ./inp_files/19254.got.cif
#   From: 2010.05.17/outbox.cif.g08.bks.cpg/sg59_10_cif.got.tgz:19254.got - 2010.06.03 14:40:33.
