data_PCOD9447362
_publ_section_title
;
Structure prediction by ZEFSAII (Michael W. Deem and Ramdas Pophale) SiO2 
 PCOD9447362
Probable space group: P M M N
;
_chemical_formula_sum "Si O2"
_cell_formula_units_Z 64
_cell_length_a 14.400047
_cell_length_b 8.461781
_cell_length_c 23.533607
_cell_angle_alpha 90.000000
_cell_angle_beta 90.000000
_cell_angle_gamma 90.000000
_cell_volume 2867.571051
_symmetry_space_group_name_H-M "P M M N"
_symmetry_group_IT_number 59
_space_group.IT_coordinate_system_code '2'
_symmetry_cell_setting 'orthorhombic'
loop_
_space_group_symop_operation_xyz
x,y,z
1/2-x,1/2-y,z
1/2+x,-y,-z
-x,1/2+y,-z
-x,-y,-z
1/2+x,1/2+y,-z
1/2-x,y,z
x,1/2-y,z
loop_
_atom_site_type_symbol
_atom_site_label
_atom_site_fract_x
_atom_site_fract_y
_atom_site_fract_z
Si Si1 0.650736 0.434618 0.335743
Si Si2 0.598511 0.561590 0.045117
Si Si3 0.600670 0.932540 0.924515
Si Si4 0.394822 0.928834 0.431638
Si Si5 0.442842 0.061047 0.313144
Si Si6 0.383172 0.426408 0.548149
Si Si7 0.557385 0.061509 0.805844
Si Si8 0.348105 0.062160 0.828496
O O1 0.750000 0.506345 0.317270
O O2 0.650899 0.250000 0.320208
O O3 0.550764 0.501480 0.316303
O O4 0.648787 0.452519 0.403972
O O5 0.573633 0.750000 0.040641
O O6 0.507183 0.458936 0.058091
O O7 0.653716 0.548603 0.103272
O O8 0.644297 0.516225 0.985006
O O9 0.623143 0.750000 0.915019
O O10 0.610120 0.018745 0.864312
O O11 0.360263 0.750000 0.433267
O O12 0.505207 0.924989 0.445354
O O13 0.388905 0.997715 0.368320
O O14 0.356477 0.028639 0.484262
O O15 0.446029 0.250000 0.317112
O O16 0.403637 0.008680 0.252431
O O17 0.351833 0.250000 0.562577
O O18 0.554242 0.250000 0.801892
O O19 0.449749 0.999834 0.810893
O O20 0.250000 0.992996 0.807164
O O21 0.348938 0.250000 0.814946
#
# Coordination Sequence:
#
# PCOD9447362 Si02
#       8
#     8   8   8   8   8   8   8   8
#     4   9  18  31  44  59  83 115 146 174 206 244
#     4   8  14  24  39  58  77  98 127 163 203 244
#     4   9  15  24  39  57  76  99 128 164 205 244
#     4   9  16  27  43  61  81 105 133 168 211 255
#     4  10  19  30  43  59  81 110 143 177 209 242
#     4   9  16  26  42  63  83 104 134 172 211 248
#     4  10  19  29  40  56  79 108 141 172 202 240
#     4   8  14  25  40  57  78 105 136 168 199 233
#
# _framework density 22.318542000000001
#
# number of rings (size 3 to 8) (size 9 to 14) (size 15 to 20)
#    0.000    3.000    0.000    2.625    0.000    4.750 
#    0.000    0.000    0.000    9.000    0.000    0.000 
#    0.000    1.000    0.000    5.000    0.000    3.625 
#
# Total GULP energy -356470.290180 kJ/mol
# GULP energy per Si atom -5569.848284 kJ/mol
# Density = 2.226774 g / cm^3
# Si number density = 22.318542 Si / 1000 Ang^3
#
#
#
# Elastic Constant Matrix: (Units=GPa)
#
#
# Indices 1 2 3 4 5 6 
#
# 1 35.8626 -3.8008 -9.2498 0.0000 0.0000 0.0000
# 2 -3.8008 33.6346 19.8058 0.0000 0.0000 0.0000
# 3 -9.2498 19.8058 177.4394 0.0000 0.0000 0.0000
# 4 0.0000 0.0000 0.0000 29.0424 0.0000 0.0000
# 5 0.0000 0.0000 0.0000 0.0000 -11.5935 0.0000
# 6 0.0000 0.0000 0.0000 0.0000 0.0000 -10.0444
#
#
#
# Elastic Compliance Matrix: (Units=1/GPa)
#
#
# Indices 1 2 3 4 5 6 
#
# 1 0.028460 0.002507 0.001204 0.000000 0.000000 0.000000
# 2 0.002507 0.032044 -0.003446 0.000000 0.000000 0.000000
# 3 0.001204 -0.003446 0.006083 0.000000 0.000000 0.000000
# 4 0.000000 0.000000 0.000000 0.034432 0.000000 0.000000
# 5 0.000000 0.000000 0.000000 0.000000 -0.086255 0.000000
# 6 0.000000 0.000000 0.000000 0.000000 0.000000 -0.099558
#
#
# Mechanical properties :
#
#
# Convention : Reuss Voigt Hill
#
# Bulk Modulus (GPa) = 14.89929 28.93856 21.91893
# Shear Modulus (GPa) = -79.42687 17.49298 -30.96695
#
# Velocity S-wave (km/s) = -5.97203 2.80266 -3.72896
# Velocity P-wave (km/s) = 6.39244 4.84432 2.94922
#
# Compressibility (1/GPa) = 0.06711728
#
# Stress axis : x y z
#
# Youngs Moduli (GPa) = 35.13654 31.20723 164.38911
#
# Poissons Ratio (x) = -0.07824 -0.19789
# Poissons Ratio (y) = -0.08810 0.56649
# Poissons Ratio (z) = -0.04230 0.10754
#
# Static dielectric constant tensor:
#      x y z
#    x 1.938990 0.000000 0.000000 
#    y 0.000000 1.772030 0.000000 
#    z 0.000000 0.000000 1.849680 
# 
# From -- ./inp_files/29833.got.cif
#   From: 2010.05.17/outbox.cif.g08.bks.cpg/sg59_15_cif.got.tgz:29833.got - 2010.06.03 14:40:33.
