data_PCOD9447372
_publ_section_title
;
Structure prediction by ZEFSAII (Michael W. Deem and Ramdas Pophale) SiO2 
 PCOD9447372
Probable space group: P M M N
;
_chemical_formula_sum "Si O2"
_cell_formula_units_Z 64
_cell_length_a 25.234433
_cell_length_b 9.192966
_cell_length_c 18.821799
_cell_angle_alpha 90.000000
_cell_angle_beta 90.000000
_cell_angle_gamma 90.000000
_cell_volume 4366.267467
_symmetry_space_group_name_H-M "P M M N"
_symmetry_group_IT_number 59
_space_group.IT_coordinate_system_code '2'
_symmetry_cell_setting 'orthorhombic'
loop_
_space_group_symop_operation_xyz
x,y,z
1/2-x,1/2-y,z
1/2+x,-y,-z
-x,1/2+y,-z
-x,-y,-z
1/2+x,1/2+y,-z
1/2-x,y,z
x,1/2-y,z
loop_
_atom_site_type_symbol
_atom_site_label
_atom_site_fract_x
_atom_site_fract_y
_atom_site_fract_z
Si Si1 0.538871 0.422133 0.102857
Si Si2 0.191112 0.424192 0.291446
Si Si3 0.566900 0.076479 0.952341
Si Si4 0.000118 0.421305 0.387672
Si Si5 0.610254 0.417547 0.808322
Si Si6 0.916229 0.421208 0.515147
Si Si7 0.189314 0.424932 0.457811
Si Si8 0.012612 0.079822 0.759894
O O1 0.536948 0.250000 0.116911
O O2 0.482648 0.477974 0.071473
O O3 0.546098 0.508314 0.176062
O O4 0.577713 0.448803 0.035592
O O5 0.250000 0.474130 0.270008
O O6 0.190204 0.250000 0.288858
O O7 0.146824 0.485715 0.240429
O O8 0.183683 0.463247 0.374170
O O9 0.552709 0.250000 0.945349
O O10 0.610930 0.048518 0.892552
O O11 0.010908 0.250000 0.377619
O O12 0.051728 0.498741 0.421531
O O13 0.953332 0.436939 0.445730
O O14 0.983584 0.495613 0.314170
O O15 0.625723 0.250000 0.798535
O O16 0.549056 0.431377 0.783989
O O17 0.911264 0.250000 0.531223
O O18 0.858891 0.493329 0.504598
O O19 0.250000 0.461498 0.479102
O O20 0.183563 0.250000 0.464673
O O21 0.025128 0.250000 0.751796
#
# Coordination Sequence:
#
# PCOD9447372 Si02
#       8
#     8   8   8   8   8   8   8   8
#     4   9  15  24  39  56  77 107 137 164 198 238
#     4   9  18  30  41  56  79 105 135 171 206 240
#     4   8  15  26  37  53  79 107 135 167 198 231
#     4  10  20  32  45  62  86 117 149 177 212 262
#     4   9  17  27  39  57  80 106 137 171 204 239
#     4  10  20  32  46  65  88 113 143 181 220 257
#     4   9  18  32  48  64  84 113 147 181 217 258
#     4  10  19  29  41  60  85 109 138 176 211 246
#
# _framework density 14.657829
#
# number of rings (size 3 to 8) (size 9 to 14) (size 15 to 20)
#    0.000    2.750    0.000    3.750    0.000    7.500 
#    0.000    1.250    0.000    0.000    0.000    0.000 
#    0.000    1.000    0.000    9.500    0.000    5.750 
#
# Total GULP energy -356338.374791 kJ/mol
# GULP energy per Si atom -5567.787106 kJ/mol
# Density = 1.462447 g / cm^3
# Si number density = 14.657829 Si / 1000 Ang^3
#
#
#
# Elastic Constant Matrix: (Units=GPa)
#
#
# Indices 1 2 3 4 5 6 
#
# 1 50.5997 27.9540 6.8563 0.0000 0.0000 0.0000
# 2 27.9540 65.0399 41.0151 0.0000 0.0000 0.0000
# 3 6.8563 41.0151 69.4030 0.0000 0.0000 0.0000
# 4 0.0000 0.0000 0.0000 25.3700 0.0000 0.0000
# 5 0.0000 0.0000 0.0000 0.0000 15.7074 0.0000
# 6 0.0000 0.0000 0.0000 0.0000 0.0000 20.9674
#
#
#
# Elastic Compliance Matrix: (Units=1/GPa)
#
#
# Indices 1 2 3 4 5 6 
#
# 1 0.027840 -0.016309 0.006888 0.000000 0.000000 0.000000
# 2 -0.016309 0.034063 -0.018519 0.000000 0.000000 0.000000
# 3 0.006888 -0.018519 0.024672 0.000000 0.000000 0.000000
# 4 0.000000 0.000000 0.000000 0.039417 0.000000 0.000000
# 5 0.000000 0.000000 0.000000 0.000000 0.063664 0.000000
# 6 0.000000 0.000000 0.000000 0.000000 0.000000 0.047693
#
#
# Mechanical properties :
#
#
# Convention : Reuss Voigt Hill
#
# Bulk Modulus (GPa) = 32.57899 37.41038 34.99469
# Shear Modulus (GPa) = 16.47655 19.69010 18.08333
#
# Velocity S-wave (km/s) = 3.35637 3.66910 3.51621
# Velocity P-wave (km/s) = 6.10695 6.59755 6.35698
#
# Compressibility (1/GPa) = 0.03069463
#
# Stress axis : x y z
#
# Youngs Moduli (GPa) = 35.92002 29.35714 40.53102
#
# Poissons Ratio (x) = 0.47879 -0.27917
# Poissons Ratio (y) = 0.58582 0.75060
# Poissons Ratio (z) = -0.24741 0.54367
#
# Static dielectric constant tensor:
#      x y z
#    x 1.475060 0.000000 0.000000 
#    y 0.000000 1.494140 0.000000 
#    z 0.000000 0.000000 1.510310 
# 
# From -- ./inp_files/26641.got.cif
#   From: 2010.05.17/outbox.cif.g08.bks.cpg/sg59_14_cif.got.tgz:26641.got - 2010.06.03 14:40:33.
