data_PCOD9447621
_publ_section_title
;
Structure prediction by ZEFSAII (Michael W. Deem and Ramdas Pophale) SiO2 
 PCOD9447621
Probable space group: P M M N
;
_chemical_formula_sum "Si O2"
_cell_formula_units_Z 64
_cell_length_a 9.421964
_cell_length_b 24.331780
_cell_length_c 16.618110
_cell_angle_alpha 90.000000
_cell_angle_beta 90.000000
_cell_angle_gamma 90.000000
_cell_volume 3809.754151
_symmetry_space_group_name_H-M "P M M N"
_symmetry_group_IT_number 59
_space_group.IT_coordinate_system_code '2'
_symmetry_cell_setting 'orthorhombic'
loop_
_space_group_symop_operation_xyz
x,y,z
1/2-x,1/2-y,z
1/2+x,-y,-z
-x,1/2+y,-z
-x,-y,-z
1/2+x,1/2+y,-z
1/2-x,y,z
x,1/2-y,z
loop_
_atom_site_type_symbol
_atom_site_label
_atom_site_fract_x
_atom_site_fract_y
_atom_site_fract_z
Si Si1 0.579671 0.186573 0.267406
Si Si2 0.915666 0.314611 0.619511
Si Si3 0.588101 0.683376 0.891677
Si Si4 0.583213 0.971437 0.299094
Si Si5 0.919805 0.083888 0.372721
Si Si6 0.583066 0.593251 0.466120
Si Si7 0.917495 0.121563 0.787172
Si Si8 0.579048 0.684931 0.072979
O O1 0.750000 0.185460 0.259715
O O2 0.537616 0.250000 0.284507
O O3 0.510460 0.168708 0.182979
O O4 0.540811 0.143067 0.336112
O O5 0.750000 0.323621 0.597491
O O6 0.944244 0.250000 0.618294
O O7 0.935038 0.338767 0.709224
O O8 0.015430 0.348832 0.560607
O O9 0.750000 0.664645 0.878323
O O10 0.591178 0.750000 0.893991
O O11 0.541988 0.667231 0.981595
O O12 0.750000 0.964800 0.278642
O O13 0.563264 0.945860 0.388567
O O14 0.487904 0.936026 0.239015
O O15 0.549519 0.035617 0.308756
O O16 0.750000 0.082534 0.387469
O O17 0.001604 0.073281 0.455174
O O18 0.750000 0.597594 0.481711
O O19 0.750000 0.115867 0.802509
O O20 0.997759 0.149334 0.861413
O O21 0.750000 0.679774 0.081390
O O22 0.545295 0.750000 0.082585
#
# Coordination Sequence:
#
# PCOD9447621 Si02
#       8
#     8   8   8   8   8   8   8   8
#     4   9  18  32  50  73  98 122 151 190 237 286
#     4   9  18  32  47  64  93 131 161 187 230 286
#     4   8  15  29  48  70  97 128 158 188 228 278
#     4   9  19  35  51  67  92 127 164 200 240 285
#     4  10  20  34  52  71  93 125 161 196 239 292
#     4  10  20  32  48  71  94 119 158 205 244 278
#     4  10  19  30  47  72  99 126 160 202 242 279
#     4   9  17  29  47  72 101 132 162 190 227 280
#
# _framework density 16.798984999999998
#
# number of rings (size 3 to 8) (size 9 to 14) (size 15 to 20)
#    0.000    2.750    0.000    2.250    0.000    4.000 
#    0.000    2.500    0.000    0.750    0.000    0.000 
#    0.000    0.000    0.000    0.000    0.000    0.000 
#
# Total GULP energy -356735.423822 kJ/mol
# GULP energy per Si atom -5573.990997 kJ/mol
# Density = 1.676075 g / cm^3
# Si number density = 16.798985 Si / 1000 Ang^3
#
#
#
# Elastic Constant Matrix: (Units=GPa)
#
#
# Indices 1 2 3 4 5 6 
#
# 1 31.0826 22.3750 22.0284 0.0000 0.0000 0.0000
# 2 22.3750 61.1423 4.7506 0.0000 0.0000 0.0000
# 3 22.0284 4.7506 33.3516 0.0000 0.0000 0.0000
# 4 0.0000 0.0000 0.0000 13.5236 0.0000 0.0000
# 5 0.0000 0.0000 0.0000 0.0000 30.9038 0.0000
# 6 0.0000 0.0000 0.0000 0.0000 0.0000 18.3654
#
#
#
# Elastic Compliance Matrix: (Units=1/GPa)
#
#
# Indices 1 2 3 4 5 6 
#
# 1 0.096036 -0.030554 -0.059079 0.000000 0.000000 0.000000
# 2 -0.030554 0.026259 0.016440 0.000000 0.000000 0.000000
# 3 -0.059079 0.016440 0.066663 0.000000 0.000000 0.000000
# 4 0.000000 0.000000 0.000000 0.073945 0.000000 0.000000
# 5 0.000000 0.000000 0.000000 0.000000 0.032359 0.000000
# 6 0.000000 0.000000 0.000000 0.000000 0.000000 0.054450
#
#
# Mechanical properties :
#
#
# Convention : Reuss Voigt Hill
#
# Bulk Modulus (GPa) = 23.48909 24.87605 24.18257
# Shear Modulus (GPa) = 9.79837 17.65339 13.72588
#
# Velocity S-wave (km/s) = 2.41772 3.24521 2.86154
# Velocity P-wave (km/s) = 4.66976 5.37421 5.03432
#
# Compressibility (1/GPa) = 0.04257296
#
# Stress axis : x y z
#
# Youngs Moduli (GPa) = 10.41271 38.08182 15.00086
#
# Poissons Ratio (x) = 1.16356 0.88624
# Poissons Ratio (y) = 0.31815 -0.24662
# Poissons Ratio (z) = 0.61517 -0.62608
#
# Static dielectric constant tensor:
#      x y z
#    x 1.558550 0.000000 0.000000 
#    y 0.000000 1.567770 0.000000 
#    z 0.000000 0.000000 1.551650 
# 
# From -- ./inp_files/21534.got.cif
#   From: 2010.05.17/outbox.cif.g08.bks.cpg/sg59_11_cif.got.tgz:21534.got - 2010.06.03 14:40:33.
