data_PCOD9447087
_publ_section_title
;
Structure prediction by ZEFSAII (Michael W. Deem and Ramdas Pophale) SiO2 
 PCOD9447087
Probable space group: P M M N
;
_chemical_formula_sum "Si O2"
_cell_formula_units_Z 52
_cell_length_a 9.433074
_cell_length_b 14.437582
_cell_length_c 21.990673
_cell_angle_alpha 90.000000
_cell_angle_beta 90.000000
_cell_angle_gamma 90.000000
_cell_volume 2994.926895
_symmetry_space_group_name_H-M "P M M N"
_symmetry_group_IT_number 59
_space_group.IT_coordinate_system_code '2'
_symmetry_cell_setting 'orthorhombic'
loop_
_space_group_symop_operation_xyz
x,y,z
1/2-x,1/2-y,z
1/2+x,-y,-z
-x,1/2+y,-z
-x,-y,-z
1/2+x,1/2+y,-z
1/2-x,y,z
x,1/2-y,z
loop_
_atom_site_type_symbol
_atom_site_label
_atom_site_fract_x
_atom_site_fract_y
_atom_site_fract_z
Si Si1 0.083497 0.141873 0.495614
Si Si2 0.917618 0.015100 0.404098
Si Si3 0.917458 0.250000 0.999967
Si Si4 0.984629 0.250000 0.866210
Si Si5 0.416109 0.935461 0.294331
Si Si6 0.594988 0.460744 0.845622
Si Si7 0.911937 0.750000 0.266905
Si Si8 0.583740 0.448928 0.053150
O O1 0.250000 0.133116 0.478102
O O2 0.053620 0.250000 0.506536
O O3 0.064431 0.078235 0.555244
O O4 0.984262 0.097649 0.444014
O O5 0.750000 0.028175 0.393371
O O6 0.006161 0.999462 0.343051
O O7 0.750000 0.250000 0.979560
O O8 0.013459 0.250000 0.938819
O O9 0.938935 0.159344 0.040280
O O10 0.088399 0.250000 0.807446
O O11 0.910031 0.150423 0.856695
O O12 0.250000 0.920116 0.309482
O O13 0.420757 0.975707 0.226093
O O14 0.502676 0.839466 0.289634
O O15 0.750000 0.493415 0.866175
O O16 0.476562 0.511936 0.884141
O O17 0.750000 0.750000 0.288624
O O18 0.750000 0.468170 0.048642
O O19 0.500000 0.500000 0.000000
#
# Coordination Sequence:
#
# PCOD9447087 Si02
#       8
#     8   8   4   4   8   8   4   8
#     4   9  19  36  57  81 114 152 184 222 273 324
#     4  10  20  34  56  86 115 145 185 231 273 318
#     4  10  20  36  54  74 104 141 171 210 269 335
#     4  10  18  32  53  76 109 144 171 206 267 336
#     4  10  21  36  55  78 110 150 186 220 273 336
#     4  10  20  36  56  78 106 141 179 218 265 322
#     4  10  21  34  49  78 113 143 182 228 274 321
#     4  11  22  36  55  78 104 137 177 219 270 322
#
# _framework density 17.362694000000001
#
# number of rings (size 3 to 8) (size 9 to 14) (size 15 to 20)
#    0.000    2.000    1.538    2.308    1.077    6.462 
#    0.000    1.538    1.692    0.000    0.000    0.000 
#    0.000    0.000    0.000    0.000    0.000    0.000 
#
# Total GULP energy -289913.842415 kJ/mol
# GULP energy per Si atom -5575.266200 kJ/mol
# Density = 1.732318 g / cm^3
# Si number density = 17.362694 Si / 1000 Ang^3
#
#
#
# Elastic Constant Matrix: (Units=GPa)
#
#
# Indices 1 2 3 4 5 6 
#
# 1 113.1461 41.9218 44.9580 0.0000 0.0000 0.0000
# 2 41.9218 81.6879 24.0797 0.0000 0.0000 0.0000
# 3 44.9580 24.0797 71.0946 0.0000 0.0000 0.0000
# 4 0.0000 0.0000 0.0000 17.8670 0.0000 0.0000
# 5 0.0000 0.0000 0.0000 0.0000 24.0012 0.0000
# 6 0.0000 0.0000 0.0000 0.0000 0.0000 9.9185
#
#
#
# Elastic Compliance Matrix: (Units=1/GPa)
#
#
# Indices 1 2 3 4 5 6 
#
# 1 0.013329 -0.004839 -0.006790 0.000000 0.000000 0.000000
# 2 -0.004839 0.015356 -0.002141 0.000000 0.000000 0.000000
# 3 -0.006790 -0.002141 0.019085 0.000000 0.000000 0.000000
# 4 0.000000 0.000000 0.000000 0.055969 0.000000 0.000000
# 5 0.000000 0.000000 0.000000 0.000000 0.041665 0.000000
# 6 0.000000 0.000000 0.000000 0.000000 0.000000 0.100821
#
#
# Mechanical properties :
#
#
# Convention : Reuss Voigt Hill
#
# Bulk Modulus (GPa) = 49.43166 54.20528 51.81847
# Shear Modulus (GPa) = 17.82483 20.68862 19.25672
#
# Velocity S-wave (km/s) = 3.20756 3.45564 3.33391
# Velocity P-wave (km/s) = 6.49998 6.87089 6.68801
#
# Compressibility (1/GPa) = 0.02022995
#
# Stress axis : x y z
#
# Youngs Moduli (GPa) = 75.02509 65.12047 52.39807
#
# Poissons Ratio (x) = 0.31511 0.35578
# Poissons Ratio (y) = 0.36303 0.11220
# Poissons Ratio (z) = 0.50941 0.13944
#
# Static dielectric constant tensor:
#      x y z
#    x 1.590790 0.000000 0.000000 
#    y 0.000000 2.291620 0.000000 
#    z 0.000000 0.000000 1.590570 
# 
# From -- ./inp_files/28946.got.cif
#   From: 2010.05.17/outbox.cif.g08.bks.cpg/sg59_15_cif.got.tgz:28946.got - 2010.06.03 14:40:33.
