data_PCOD9447574
_publ_section_title
;
Structure prediction by ZEFSAII (Michael W. Deem and Ramdas Pophale) SiO2 
 PCOD9447574
Probable space group: P M M N
;
_chemical_formula_sum "Si O2"
_cell_formula_units_Z 56
_cell_length_a 20.836046
_cell_length_b 7.507376
_cell_length_c 16.175238
_cell_angle_alpha 90.000000
_cell_angle_beta 90.000000
_cell_angle_gamma 90.000000
_cell_volume 2530.195941
_symmetry_space_group_name_H-M "P M M N"
_symmetry_group_IT_number 59
_space_group.IT_coordinate_system_code '2'
_symmetry_cell_setting 'orthorhombic'
loop_
_space_group_symop_operation_xyz
x,y,z
1/2-x,1/2-y,z
1/2+x,-y,-z
-x,1/2+y,-z
-x,-y,-z
1/2+x,1/2+y,-z
1/2-x,y,z
x,1/2-y,z
loop_
_atom_site_type_symbol
_atom_site_label
_atom_site_fract_x
_atom_site_fract_y
_atom_site_fract_z
Si Si1 0.821100 0.967422 0.331886
Si Si2 0.322626 0.965427 0.190415
Si Si3 0.178427 0.460740 0.999276
Si Si4 0.048233 0.463533 0.925329
Si Si5 0.545221 0.967859 0.258648
Si Si6 0.083206 0.537950 0.332856
Si Si7 0.820592 0.536438 0.522862
O O1 0.750000 0.023668 0.302971
O O2 0.820982 0.750000 0.330050
O O3 0.883309 0.027703 0.281997
O O4 0.828323 0.021864 0.427960
O O5 0.250000 0.024851 0.209547
O O6 0.323081 0.750000 0.192270
O O7 0.372442 0.032261 0.258176
O O8 0.337107 0.018767 0.096485
O O9 0.250000 0.535368 0.985339
O O10 0.181987 0.250000 0.981707
O O11 0.118978 0.534347 0.947798
O O12 0.052825 0.250000 0.920297
O O13 0.027341 0.523911 0.834453
O O14 0.000000 0.500000 0.000000
O O15 0.547070 0.750000 0.260707
O O16 0.489437 0.027503 0.321356
O O17 0.079874 0.750000 0.321571
O O18 0.121014 0.509496 0.417617
O O19 0.750000 0.472411 0.553034
O O20 0.817928 0.750000 0.520958
#
# Coordination Sequence:
#
# PCOD9447574 Si02
#       7
#     8   8   8   8   8   8   8
#     4   8  15  30  51  73  97 125 159 199 240 283
#     4   9  17  29  45  65  92 128 163 191 228 283
#     4   9  18  31  47  70  96 119 151 199 247 283
#     4  10  20  34  52  72  97 129 161 196 239 286
#     4   9  18  31  48  71  96 125 161 198 237 281
#     4  10  19  30  46  70  99 127 158 196 234 278
#     4   9  18  32  50  72  97 126 159 194 234 281
#
# _framework density 22.132673
#
# number of rings (size 3 to 8) (size 9 to 14) (size 15 to 20)
#    0.000    2.857    0.000    2.143    0.000    4.286 
#    0.000    5.000    0.000    0.857    0.000    0.000 
#    0.000    0.000    0.000    0.000    0.000    0.000 
#
# Total GULP energy -312552.105085 kJ/mol
# GULP energy per Si atom -5581.287591 kJ/mol
# Density = 2.208230 g / cm^3
# Si number density = 22.132673 Si / 1000 Ang^3
#
#
#
# Elastic Constant Matrix: (Units=GPa)
#
#
# Indices 1 2 3 4 5 6 
#
# 1 136.3982 7.0956 65.8165 0.0000 0.0000 0.0000
# 2 7.0956 55.8742 -2.8269 0.0000 0.0000 0.0000
# 3 65.8165 -2.8269 67.7209 0.0000 0.0000 0.0000
# 4 0.0000 0.0000 0.0000 -5.1891 0.0000 0.0000
# 5 0.0000 0.0000 0.0000 0.0000 40.5829 0.0000
# 6 0.0000 0.0000 0.0000 0.0000 0.0000 10.5729
#
#
#
# Elastic Compliance Matrix: (Units=1/GPa)
#
#
# Indices 1 2 3 4 5 6 
#
# 1 0.014145 -0.002497 -0.013852 0.000000 0.000000 0.000000
# 2 -0.002497 0.018376 0.003194 0.000000 0.000000 0.000000
# 3 -0.013852 0.003194 0.028362 0.000000 0.000000 0.000000
# 4 0.000000 0.000000 0.000000 -0.192712 0.000000 0.000000
# 5 0.000000 0.000000 0.000000 0.000000 0.024641 0.000000
# 6 0.000000 0.000000 0.000000 0.000000 0.000000 0.094581
#
#
# Mechanical properties :
#
#
# Convention : Reuss Voigt Hill
#
# Bulk Modulus (GPa) = 28.92382 44.46264 36.69323
# Shear Modulus (GPa) = 198.19164 21.85389 110.02277
#
# Velocity S-wave (km/s) = 9.47320 3.14571 7.05822
# Velocity P-wave (km/s) = 11.52181 5.77293 9.11260
#
# Compressibility (1/GPa) = 0.03457358
#
# Stress axis : x y z
#
# Youngs Moduli (GPa) = 70.69489 54.41867 35.25838
#
# Poissons Ratio (x) = 0.13589 0.48839
# Poissons Ratio (y) = 0.17654 -0.11262
# Poissons Ratio (z) = 0.97925 -0.17381
#
# Static dielectric constant tensor:
#      x y z
#    x 1.829820 0.000000 0.000000 
#    y 0.000000 1.856200 0.000000 
#    z 0.000000 0.000000 1.777220 
# 
# From -- ./inp_files/24210.got.cif
#   From: 2010.05.17/outbox.cif.g08.bks.cpg/sg59_13_cif.got.tgz:24210.got - 2010.06.03 14:40:33.
