data_PCOD9447344
_publ_section_title
;
Structure prediction by ZEFSAII (Michael W. Deem and Ramdas Pophale) SiO2 
 PCOD9447344
Probable space group: P M M N
;
_chemical_formula_sum "Si O2"
_cell_formula_units_Z 56
_cell_length_a 7.644328
_cell_length_b 14.254619
_cell_length_c 30.432066
_cell_angle_alpha 90.000000
_cell_angle_beta 90.000000
_cell_angle_gamma 90.000000
_cell_volume 3316.090423
_symmetry_space_group_name_H-M "P M M N"
_symmetry_group_IT_number 59
_space_group.IT_coordinate_system_code '2'
_symmetry_cell_setting 'orthorhombic'
loop_
_space_group_symop_operation_xyz
x,y,z
1/2-x,1/2-y,z
1/2+x,-y,-z
-x,1/2+y,-z
-x,-y,-z
1/2+x,1/2+y,-z
1/2-x,y,z
x,1/2-y,z
loop_
_atom_site_type_symbol
_atom_site_label
_atom_site_fract_x
_atom_site_fract_y
_atom_site_fract_z
Si Si1 0.955180 0.853138 0.975707
Si Si2 0.964563 0.640811 0.344516
Si Si3 0.461468 0.357692 0.846850
Si Si4 0.959314 0.960391 0.431798
Si Si5 0.046618 0.364046 0.751395
Si Si6 0.460676 0.355848 0.480444
Si Si7 0.957523 0.453827 0.937294
O O1 0.750000 0.847884 0.964493
O O2 0.032387 0.750000 0.968152
O O3 0.028405 0.942576 0.949261
O O4 0.968048 0.881286 0.026976
O O5 0.750000 0.639051 0.343163
O O6 0.012652 0.750000 0.351434
O O7 0.024517 0.578411 0.385365
O O8 0.027817 0.609130 0.296165
O O9 0.250000 0.354853 0.844122
O O10 0.520872 0.250000 0.854177
O O11 0.527993 0.391201 0.798933
O O12 0.509333 0.421024 0.888026
O O13 0.750000 0.948368 0.431173
O O14 0.026125 0.899390 0.473293
O O15 0.995478 0.068420 0.443158
O O16 0.250000 0.393823 0.751196
O O17 0.045087 0.250000 0.751563
O O18 0.250000 0.352252 0.483169
O O19 0.524554 0.250000 0.473539
O O20 0.750000 0.454992 0.944996
#
# Coordination Sequence:
#
# PCOD9447344 Si02
#       7
#     8   8   8   8   8   8   8
#     4   9  18  32  45  56  76 106 134 159 190 229
#     4   8  12  20  37  60  82 101 125 160 196 228
#     4   9  16  26  40  58  82 110 133 152 183 232
#     4   9  16  25  40  61  79  98 130 167 198 227
#     4   7  11  20  35  56  79 102 128 155 185 227
#     4   9  17  28  39  53  78 109 134 157 191 236
#     4  10  19  28  41  62  82 101 130 164 194 223
#
# _framework density 16.887356
#
# number of rings (size 3 to 8) (size 9 to 14) (size 15 to 20)
#    0.000    3.286    0.000    3.000    0.000    4.857 
#    0.000    0.000    0.000    2.143    0.000    3.000 
#    0.000    5.714    0.000    0.000    0.000    0.000 
#
# Total GULP energy -311787.972715 kJ/mol
# GULP energy per Si atom -5567.642370 kJ/mol
# Density = 1.684892 g / cm^3
# Si number density = 16.887356 Si / 1000 Ang^3
#
#
#
# Elastic Constant Matrix: (Units=GPa)
#
#
# Indices 1 2 3 4 5 6 
#
# 1 31.0902 -0.2931 -2.9763 0.0000 0.0000 0.0000
# 2 -0.2931 104.2068 68.3631 0.0000 0.0000 0.0000
# 3 -2.9763 68.3631 151.1560 0.0000 0.0000 0.0000
# 4 0.0000 0.0000 0.0000 24.1276 0.0000 0.0000
# 5 0.0000 0.0000 0.0000 0.0000 10.8359 0.0000
# 6 0.0000 0.0000 0.0000 0.0000 0.0000 8.9499
#
#
#
# Elastic Compliance Matrix: (Units=1/GPa)
#
#
# Indices 1 2 3 4 5 6 
#
# 1 0.032241 -0.000463 0.000844 0.000000 0.000000 0.000000
# 2 -0.000463 0.013651 -0.006183 0.000000 0.000000 0.000000
# 3 0.000844 -0.006183 0.009429 0.000000 0.000000 0.000000
# 4 0.000000 0.000000 0.000000 0.041446 0.000000 0.000000
# 5 0.000000 0.000000 0.000000 0.000000 0.092286 0.000000
# 6 0.000000 0.000000 0.000000 0.000000 0.000000 0.111733
#
#
# Mechanical properties :
#
#
# Convention : Reuss Voigt Hill
#
# Bulk Modulus (GPa) = 22.87445 46.29337 34.58391
# Shear Modulus (GPa) = 15.29230 23.54000 19.41615
#
# Velocity S-wave (km/s) = 3.01250 3.73760 3.39447
# Velocity P-wave (km/s) = 5.06704 6.78961 5.99056
#
# Compressibility (1/GPa) = 0.04371690
#
# Stress axis : x y z
#
# Youngs Moduli (GPa) = 31.01648 73.25264 106.05834
#
# Poissons Ratio (x) = 0.03393 -0.08955
# Poissons Ratio (y) = 0.01437 0.65578
# Poissons Ratio (z) = -0.02619 0.45294
#
# Static dielectric constant tensor:
#      x y z
#    x 1.645880 0.000000 0.000000 
#    y 0.000000 1.564890 0.000000 
#    z 0.000000 0.000000 1.593460 
# 
# From -- ./inp_files/33185.got.cif
#   From: 2010.05.17/outbox.cif.g08.bks.cpg/sg59_17_cif.got.tgz:33185.got - 2010.06.03 14:40:33.
