data_PCOD9447726
_publ_section_title
;
Structure prediction by ZEFSAII (Michael W. Deem and Ramdas Pophale) SiO2 
 PCOD9447726
Probable space group: P M M N
;
_chemical_formula_sum "Si O2"
_cell_formula_units_Z 64
_cell_length_a 7.460725
_cell_length_b 20.081477
_cell_length_c 21.046210
_cell_angle_alpha 90.000000
_cell_angle_beta 90.000000
_cell_angle_gamma 90.000000
_cell_volume 3153.193219
_symmetry_space_group_name_H-M "P M M N"
_symmetry_group_IT_number 59
_space_group.IT_coordinate_system_code '2'
_symmetry_cell_setting 'orthorhombic'
loop_
_space_group_symop_operation_xyz
x,y,z
1/2-x,1/2-y,z
1/2+x,-y,-z
-x,1/2+y,-z
-x,-y,-z
1/2+x,1/2+y,-z
1/2-x,y,z
x,1/2-y,z
loop_
_atom_site_type_symbol
_atom_site_label
_atom_site_fract_x
_atom_site_fract_y
_atom_site_fract_z
Si Si1 0.041557 0.174448 0.615691
Si Si2 0.469245 0.826840 0.664079
Si Si3 0.029749 0.934079 0.767660
Si Si4 0.458081 0.830545 0.525737
Si Si5 0.966970 0.091237 0.953477
Si Si6 0.532631 0.325278 0.835688
Si Si7 0.957865 0.576920 0.279097
Si Si8 0.539401 0.441209 0.089825
O O1 0.250000 0.180725 0.633641
O O2 0.964608 0.250000 0.619912
O O3 0.961272 0.120266 0.663439
O O4 0.036513 0.151337 0.542457
O O5 0.250000 0.826534 0.661787
O O6 0.524604 0.750000 0.672929
O O7 0.523528 0.874732 0.720963
O O8 0.530221 0.852284 0.594369
O O9 0.250000 0.935611 0.769577
O O10 0.966703 0.926133 0.840327
O O11 0.967352 0.004948 0.739577
O O12 0.250000 0.849383 0.522725
O O13 0.469730 0.750000 0.528618
O O14 0.750000 0.091462 0.955625
O O15 0.023581 0.148406 0.904975
O O16 0.034026 0.093538 0.026045
O O17 0.020993 0.020080 0.923881
O O18 0.750000 0.326422 0.833666
O O19 0.473688 0.250000 0.823257
O O20 0.466778 0.376167 0.782585
O O21 0.750000 0.564055 0.295739
O O22 0.750000 0.425006 0.092090
#
# Coordination Sequence:
#
# PCOD9447726 Si02
#       8
#     8   8   8   8   8   8   8   8
#     4   9  17  28  42  61  86 116 149 186 227 266
#     4   8  14  26  45  69  93 115 144 185 232 278
#     4   9  16  27  45  68  92 118 149 188 229 270
#     4   8  14  26  45  65  84 112 150 185 218 265
#     4   9  17  29  45  65  89 117 151 188 223 263
#     4  10  20  32  45  64  94 128 157 189 231 273
#     4  10  19  31  46  66  92 122 156 192 227 269
#     4   9  16  28  47  68  88 114 150 186 222 266
#
# _framework density 20.296883999999999
#
# number of rings (size 3 to 8) (size 9 to 14) (size 15 to 20)
#    0.000    3.000    1.250    1.125    0.000    1.250 
#    0.000    2.500    0.000    5.250    0.000    0.000 
#    0.000    1.000    0.000    0.000    0.000    0.000 
#
# Total GULP energy -356724.594003 kJ/mol
# GULP energy per Si atom -5573.821781 kJ/mol
# Density = 2.025069 g / cm^3
# Si number density = 20.296884 Si / 1000 Ang^3
#
#
#
# Elastic Constant Matrix: (Units=GPa)
#
#
# Indices 1 2 3 4 5 6 
#
# 1 54.0406 -5.6591 5.1749 0.0000 0.0000 0.0000
# 2 -5.6591 85.1945 72.7415 0.0000 0.0000 0.0000
# 3 5.1749 72.7415 179.4130 0.0000 0.0000 0.0000
# 4 0.0000 0.0000 0.0000 33.7589 0.0000 0.0000
# 5 0.0000 0.0000 0.0000 0.0000 10.5070 0.0000
# 6 0.0000 0.0000 0.0000 0.0000 0.0000 -8.6304
#
#
#
# Elastic Compliance Matrix: (Units=1/GPa)
#
#
# Indices 1 2 3 4 5 6 
#
# 1 0.018935 0.002637 -0.001615 0.000000 0.000000 0.000000
# 2 0.002637 0.018320 -0.007504 0.000000 0.000000 0.000000
# 3 -0.001615 -0.007504 0.008663 0.000000 0.000000 0.000000
# 4 0.000000 0.000000 0.000000 0.029622 0.000000 0.000000
# 5 0.000000 0.000000 0.000000 0.000000 0.095175 0.000000
# 6 0.000000 0.000000 0.000000 0.000000 0.000000 -0.115869
#
#
# Mechanical properties :
#
#
# Convention : Reuss Voigt Hill
#
# Bulk Modulus (GPa) = 30.34540 51.46253 40.90396
# Shear Modulus (GPa) = 63.45638 23.55314 43.50476
#
# Velocity S-wave (km/s) = 5.59750 3.41021 4.63473
# Velocity P-wave (km/s) = 7.53387 6.39656 6.98839
#
# Compressibility (1/GPa) = 0.03295393
#
# Stress axis : x y z
#
# Youngs Moduli (GPa) = 52.81103 54.58542 115.43824
#
# Poissons Ratio (x) = -0.14394 0.18647
# Poissons Ratio (y) = -0.13926 0.86622
# Poissons Ratio (z) = 0.08531 0.40959
#
# Static dielectric constant tensor:
#      x y z
#    x 1.788820 0.000000 0.000000 
#    y 0.000000 1.684000 0.000000 
#    z 0.000000 0.000000 1.739120 
# 
# From -- ./inp_files/27986.got.cif
#   From: 2010.05.17/outbox.cif.g08.bks.cpg/sg59_14_cif.got.tgz:27986.got - 2010.06.03 14:40:33.
