data_PCOD9447552
_publ_section_title
;
Structure prediction by ZEFSAII (Michael W. Deem and Ramdas Pophale) SiO2 
 PCOD9447552
Probable space group: P M M N
;
_chemical_formula_sum "Si O2"
_cell_formula_units_Z 64
_cell_length_a 14.257179
_cell_length_b 8.930661
_cell_length_c 32.548765
_cell_angle_alpha 90.000000
_cell_angle_beta 90.000000
_cell_angle_gamma 90.000000
_cell_volume 4144.305109
_symmetry_space_group_name_H-M "P M M N"
_symmetry_group_IT_number 59
_space_group.IT_coordinate_system_code '2'
_symmetry_cell_setting 'orthorhombic'
loop_
_space_group_symop_operation_xyz
x,y,z
1/2-x,1/2-y,z
1/2+x,-y,-z
-x,1/2+y,-z
-x,-y,-z
1/2+x,1/2+y,-z
1/2-x,y,z
x,1/2-y,z
loop_
_atom_site_type_symbol
_atom_site_label
_atom_site_fract_x
_atom_site_fract_y
_atom_site_fract_z
Si Si1 0.137443 0.075035 0.976709
Si Si2 0.641250 0.069870 0.521010
Si Si3 0.965857 0.071007 0.436589
Si Si4 0.360401 0.070961 0.640011
Si Si5 0.860657 0.930246 0.188890
Si Si6 0.643573 0.430207 0.937498
Si Si7 0.463203 0.432424 0.893461
Si Si8 0.363847 0.577737 0.725734
O O1 0.250000 0.066006 0.973183
O O2 0.111720 0.250000 0.981776
O O3 0.093804 0.019898 0.934061
O O4 0.110693 0.987401 0.017897
O O5 0.750000 0.024709 0.525418
O O6 0.636030 0.250000 0.525869
O O7 0.602069 0.034472 0.475358
O O8 0.568124 0.993278 0.551975
O O9 0.970083 0.250000 0.432882
O O10 0.921746 0.000226 0.395972
O O11 0.250000 0.030257 0.634210
O O12 0.367028 0.250000 0.639072
O O13 0.390881 0.010488 0.684641
O O14 0.750000 0.964156 0.182858
O O15 0.868376 0.750000 0.192208
O O16 0.918080 0.983246 0.149102
O O17 0.893553 0.002710 0.231523
O O18 0.750000 0.483517 0.930785
O O19 0.644602 0.250000 0.938739
O O20 0.570113 0.476474 0.902675
O O21 0.458175 0.250000 0.892610
O O22 0.250000 0.574655 0.726521
O O23 0.393834 0.750000 0.723362
#
# Coordination Sequence:
#
# PCOD9447552 Si02
#       8
#     8   8   8   8   8   8   8   8
#     4   9  16  26  40  57  77 102 132 164 197 234
#     4   9  18  32  47  64  92 129 164 197 233 273
#     4  10  19  30  46  69  95 123 158 198 237 274
#     4  10  19  30  46  68  93 122 155 187 220 264
#     4   9  16  27  43  61  81 105 133 164 200 247
#     4   9  17  28  40  55  77 104 133 165 199 233
#     4   9  16  26  41  59  78 103 134 164 196 238
#     4   9  17  29  44  63  89 116 138 167 212 261
#
# _framework density 15.442879
#
# number of rings (size 3 to 8) (size 9 to 14) (size 15 to 20)
#    0.000    2.750    0.000    2.250    0.000    5.000 
#    0.000    1.250    0.000    3.000    0.000    0.875 
#    0.000    5.000    0.000    0.000    0.000    0.000 
#
# Total GULP energy -356654.280831 kJ/mol
# GULP energy per Si atom -5572.723138 kJ/mol
# Density = 1.540773 g / cm^3
# Si number density = 15.442879 Si / 1000 Ang^3
#
#
#
# Elastic Constant Matrix: (Units=GPa)
#
#
# Indices 1 2 3 4 5 6 
#
# 1 89.2838 33.8627 71.6857 0.0000 0.0000 0.0000
# 2 33.8627 28.3133 42.5214 0.0000 0.0000 0.0000
# 3 71.6857 42.5214 145.6013 0.0000 0.0000 0.0000
# 4 0.0000 0.0000 0.0000 25.8751 0.0000 0.0000
# 5 0.0000 0.0000 0.0000 0.0000 26.1052 0.0000
# 6 0.0000 0.0000 0.0000 0.0000 0.0000 15.5105
#
#
#
# Elastic Compliance Matrix: (Units=1/GPa)
#
#
# Indices 1 2 3 4 5 6 
#
# 1 0.023001 -0.018707 -0.005861 0.000000 0.000000 0.000000
# 2 -0.018707 0.078126 -0.013606 0.000000 0.000000 0.000000
# 3 -0.005861 -0.013606 0.013727 0.000000 0.000000 0.000000
# 4 0.000000 0.000000 0.000000 0.038647 0.000000 0.000000
# 5 0.000000 0.000000 0.000000 0.000000 0.038307 0.000000
# 6 0.000000 0.000000 0.000000 0.000000 0.000000 0.064473
#
#
# Mechanical properties :
#
#
# Convention : Reuss Voigt Hill
#
# Bulk Modulus (GPa) = 25.96969 62.14867 44.05918
# Shear Modulus (GPa) = 14.47331 21.17340 17.82335
#
# Velocity S-wave (km/s) = 3.06472 3.70682 3.40096
# Velocity P-wave (km/s) = 5.42001 7.65848 6.63433
#
# Compressibility (1/GPa) = 0.03850643
#
# Stress axis : x y z
#
# Youngs Moduli (GPa) = 43.47587 12.79991 72.84783
#
# Poissons Ratio (x) = 0.23945 0.42699
# Poissons Ratio (y) = 0.81330 0.99114
# Poissons Ratio (z) = 0.25483 0.17415
#
# Static dielectric constant tensor:
#      x y z
#    x 1.519450 0.000000 0.000000 
#    y 0.000000 1.520300 0.000000 
#    z 0.000000 0.000000 1.496300 
# 
# From -- ./inp_files/33324.got.cif
#   From: 2010.05.17/outbox.cif.g08.bks.cpg/sg59_17_cif.got.tgz:33324.got - 2010.06.03 14:40:33.
