data_PCOD9447905
_publ_section_title
;
Structure prediction by ZEFSAII (Michael W. Deem and Ramdas Pophale) SiO2 
 PCOD9447905
Probable space group: P M M N
;
_chemical_formula_sum "Si O2"
_cell_formula_units_Z 64
_cell_length_a 23.255911
_cell_length_b 8.675735
_cell_length_c 18.104575
_cell_angle_alpha 90.000000
_cell_angle_beta 90.000000
_cell_angle_gamma 90.000000
_cell_volume 3652.817452
_symmetry_space_group_name_H-M "P M M N"
_symmetry_group_IT_number 59
_space_group.IT_coordinate_system_code '2'
_symmetry_cell_setting 'orthorhombic'
loop_
_space_group_symop_operation_xyz
x,y,z
1/2-x,1/2-y,z
1/2+x,-y,-z
-x,1/2+y,-z
-x,-y,-z
1/2+x,1/2+y,-z
1/2-x,y,z
x,1/2-y,z
loop_
_atom_site_type_symbol
_atom_site_label
_atom_site_fract_x
_atom_site_fract_y
_atom_site_fract_z
Si Si1 0.849046 0.935851 0.911389
Si Si2 0.019163 0.064644 0.078552
Si Si3 0.449400 0.065677 0.665349
Si Si4 0.583595 0.435522 0.650436
Si Si5 0.186527 0.436228 0.250682
Si Si6 0.685724 0.435683 0.070025
Si Si7 0.563940 0.434606 0.488064
Si Si8 0.585053 0.063438 0.181277
O O1 0.845444 0.750000 0.916280
O O2 0.915880 0.981939 0.904853
O O3 0.818961 0.983489 0.835373
O O4 0.825603 0.002920 0.987697
O O5 0.017493 0.250000 0.074927
O O6 0.973728 0.015840 0.140149
O O7 0.000000 0.000000 0.000000
O O8 0.449994 0.250000 0.662370
O O9 0.517317 0.014540 0.667519
O O10 0.419528 0.002315 0.591077
O O11 0.417166 0.006390 0.737648
O O12 0.584326 0.250000 0.656391
O O13 0.632323 0.502562 0.703432
O O14 0.595880 0.476531 0.564331
O O15 0.250000 0.484021 0.278340
O O16 0.183971 0.250000 0.252321
O O17 0.750000 0.480635 0.093236
O O18 0.682612 0.250000 0.066881
O O19 0.637382 0.486778 0.128325
O O20 0.500000 0.500000 0.500000
O O21 0.562194 0.250000 0.483684
O O22 0.586396 0.250000 0.186351
#
# Coordination Sequence:
#
# PCOD9447905 Si02
#       8
#     8   8   8   8   8   8   8   8
#     4  10  20  34  52  73  99 132 171 213 259 306
#     4  10  19  31  49  73  99 130 167 208 258 311
#     4  10  20  33  52  81 109 134 169 210 258 312
#     4   9  19  34  52  77 106 135 167 205 251 304
#     4  10  21  35  51  73 102 138 179 218 254 300
#     4  10  21  36  53  72  95 129 174 217 257 305
#     4   9  17  31  52  79 109 136 164 199 245 301
#     4  10  20  34  51  73 102 135 170 210 260 308
#
# _framework density 17.520721999999999
#
# number of rings (size 3 to 8) (size 9 to 14) (size 15 to 20)
#    0.000    2.250    1.250    2.625    0.000    6.500 
#    0.000    0.000    0.000    0.750    0.000    1.750 
#    0.000    0.000    0.000    0.000    0.000    0.000 
#
# Total GULP energy -356888.437952 kJ/mol
# GULP energy per Si atom -5576.381843 kJ/mol
# Density = 1.748084 g / cm^3
# Si number density = 17.520722 Si / 1000 Ang^3
#
#
#
# Elastic Constant Matrix: (Units=GPa)
#
#
# Indices 1 2 3 4 5 6 
#
# 1 87.0557 18.5719 41.5323 0.0000 0.0000 0.0000
# 2 18.5719 13.5775 25.6113 0.0000 0.0000 0.0000
# 3 41.5323 25.6113 139.7004 0.0000 0.0000 0.0000
# 4 0.0000 0.0000 0.0000 32.4462 0.0000 0.0000
# 5 0.0000 0.0000 0.0000 0.0000 13.3658 0.0000
# 6 0.0000 0.0000 0.0000 0.0000 0.0000 17.2395
#
#
#
# Elastic Compliance Matrix: (Units=1/GPa)
#
#
# Indices 1 2 3 4 5 6 
#
# 1 0.016343 -0.020161 -0.001162 0.000000 0.000000 0.000000
# 2 -0.020161 0.137457 -0.019206 0.000000 0.000000 0.000000
# 3 -0.001162 -0.019206 0.011025 0.000000 0.000000 0.000000
# 4 0.000000 0.000000 0.000000 0.030820 0.000000 0.000000
# 5 0.000000 0.000000 0.000000 0.000000 0.074818 0.000000
# 6 0.000000 0.000000 0.000000 0.000000 0.000000 0.058006
#
#
# Mechanical properties :
#
#
# Convention : Reuss Voigt Hill
#
# Bulk Modulus (GPa) = 11.93821 45.75164 28.84493
# Shear Modulus (GPa) = 11.42987 22.91817 17.17402
#
# Velocity S-wave (km/s) = 2.55691 3.62064 3.13423
# Velocity P-wave (km/s) = 3.94279 6.60668 5.44031
#
# Compressibility (1/GPa) = 0.08376465
#
# Stress axis : x y z
#
# Youngs Moduli (GPa) = 61.18996 7.27499 90.70448
#
# Poissons Ratio (x) = 0.14667 0.10543
# Poissons Ratio (y) = 1.23368 1.74208
# Poissons Ratio (z) = 0.07113 0.13972
#
# Static dielectric constant tensor:
#      x y z
#    x 1.585950 0.000000 0.000000 
#    y 0.000000 1.593060 0.000000 
#    z 0.000000 0.000000 1.599660 
# 
# From -- ./inp_files/28188.got.cif
#   From: 2010.05.17/outbox.cif.g08.bks.cpg/sg59_15_cif.got.tgz:28188.got - 2010.06.03 14:40:33.
