data_PCOD9447796
_publ_section_title
;
Structure prediction by ZEFSAII (Michael W. Deem and Ramdas Pophale) SiO2 
 PCOD9447796
Probable space group: P M M N
;
_chemical_formula_sum "Si O2"
_cell_formula_units_Z 48
_cell_length_a 28.960009
_cell_length_b 7.637608
_cell_length_c 10.752776
_cell_angle_alpha 90.000000
_cell_angle_beta 90.000000
_cell_angle_gamma 90.000000
_cell_volume 2378.354872
_symmetry_space_group_name_H-M "P M M N"
_symmetry_group_IT_number 59
_space_group.IT_coordinate_system_code '2'
_symmetry_cell_setting 'orthorhombic'
loop_
_space_group_symop_operation_xyz
x,y,z
1/2-x,1/2-y,z
1/2+x,-y,-z
-x,1/2+y,-z
-x,-y,-z
1/2+x,1/2+y,-z
1/2-x,y,z
x,1/2-y,z
loop_
_atom_site_type_symbol
_atom_site_label
_atom_site_fract_x
_atom_site_fract_y
_atom_site_fract_z
Si Si1 0.801936 0.040898 0.641786
Si Si2 0.946137 0.539928 0.494832
Si Si3 0.054322 0.460687 0.004948
Si Si4 0.895575 0.534994 0.245028
Si Si5 0.397905 0.042128 0.255713
Si Si6 0.698628 0.541234 0.353620
O O1 0.750000 0.975419 0.670509
O O2 0.800788 0.250000 0.644498
O O3 0.843041 0.982055 0.731159
O O4 0.812744 0.986617 0.499445
O O5 0.940004 0.750000 0.494538
O O6 0.924140 0.476540 0.366131
O O7 0.920961 0.469731 0.618166
O O8 0.000000 0.500000 0.500000
O O9 0.058851 0.250000 0.004825
O O10 0.080484 0.524890 0.881510
O O11 0.078482 0.528386 0.130861
O O12 0.000000 0.500000 0.000000
O O13 0.895702 0.750000 0.243957
O O14 0.842981 0.476271 0.268243
O O15 0.406780 0.250000 0.255542
O O16 0.750000 0.468150 0.331632
O O17 0.700888 0.750000 0.335572
#
# Coordination Sequence:
#
# PCOD9447796 Si02
#       6
#     8   8   8   8   8   8
#     4  10  20  33  52  80 109 135 169 215 265 313
#     4  10  19  31  48  71 100 130 168 214 256 299
#     4  10  21  36  54  75 105 141 177 215 257 308
#     4   9  17  32  51  74 103 133 166 209 256 301
#     4  10  20  35  53  76 105 138 177 216 256 308
#     4   9  16  30  54  78 102 134 168 205 257 314
#
# _framework density 20.182019
#
# number of rings (size 3 to 8) (size 9 to 14) (size 15 to 20)
#    0.000    2.333    1.667    1.500    0.000    2.333 
#    0.000    1.667    0.000    3.000    0.000    2.333 
#    0.000    0.000    0.000    0.000    0.000    0.000 
#
# Total GULP energy -267934.127509 kJ/mol
# GULP energy per Si atom -5581.960990 kJ/mol
# Density = 2.013608 g / cm^3
# Si number density = 20.182019 Si / 1000 Ang^3
#
#
#
# Elastic Constant Matrix: (Units=GPa)
#
#
# Indices 1 2 3 4 5 6 
#
# 1 177.4851 -7.8434 111.1839 0.0000 0.0000 0.0000
# 2 -7.8434 37.3275 11.4521 0.0000 0.0000 0.0000
# 3 111.1839 11.4521 173.8587 0.0000 0.0000 0.0000
# 4 0.0000 0.0000 0.0000 -2.5058 0.0000 0.0000
# 5 0.0000 0.0000 0.0000 0.0000 43.9198 0.0000
# 6 0.0000 0.0000 0.0000 0.0000 0.0000 24.5915
#
#
#
# Elastic Compliance Matrix: (Units=1/GPa)
#
#
# Indices 1 2 3 4 5 6 
#
# 1 0.009991 0.004143 -0.006662 0.000000 0.000000 0.000000
# 2 0.004143 0.029061 -0.004564 0.000000 0.000000 0.000000
# 3 -0.006662 -0.004564 0.010313 0.000000 0.000000 0.000000
# 4 0.000000 0.000000 0.000000 -0.399078 0.000000 0.000000
# 5 0.000000 0.000000 0.000000 0.000000 0.022769 0.000000
# 6 0.000000 0.000000 0.000000 0.000000 0.000000 0.040664
#
#
# Mechanical properties :
#
#
# Convention : Reuss Voigt Hill
#
# Bulk Modulus (GPa) = 28.40995 68.69517 48.55256
# Shear Modulus (GPa) = -19.20253 31.45970 6.12859
#
# Velocity S-wave (km/s) = -3.08793 3.95245 1.74449
# Velocity P-wave (km/s) = 1.18053 7.41221 5.30728
#
# Compressibility (1/GPa) = 0.03519893
#
# Stress axis : x y z
#
# Youngs Moduli (GPa) = 100.09227 34.41071 96.96616
#
# Poissons Ratio (x) = -0.14257 0.64600
# Poissons Ratio (y) = -0.41471 0.44254
# Poissons Ratio (z) = 0.66682 0.15705
#
# Static dielectric constant tensor:
#      x y z
#    x 1.721240 0.000000 0.000000 
#    y 0.000000 1.741580 0.000000 
#    z 0.000000 0.000000 1.694980 
# 
# From -- ./inp_files/12978.got.cif
#   From: 2010.05.17/outbox.cif.g08.bks.cpg/sg59_7_cif.got.tgz:12978.got - 2010.06.03 14:40:33.
