data_PCOD9447623
_publ_section_title
;
Structure prediction by ZEFSAII (Michael W. Deem and Ramdas Pophale) SiO2 
 PCOD9447623
Probable space group: P M M N
;
_chemical_formula_sum "Si O2"
_cell_formula_units_Z 48
_cell_length_a 9.285633
_cell_length_b 31.950604
_cell_length_c 9.695874
_cell_angle_alpha 90.000000
_cell_angle_beta 90.000000
_cell_angle_gamma 90.000000
_cell_volume 2876.587246
_symmetry_space_group_name_H-M "P M M N"
_symmetry_group_IT_number 59
_space_group.IT_coordinate_system_code '2'
_symmetry_cell_setting 'orthorhombic'
loop_
_space_group_symop_operation_xyz
x,y,z
1/2-x,1/2-y,z
1/2+x,-y,-z
-x,1/2+y,-z
-x,-y,-z
1/2+x,1/2+y,-z
1/2-x,y,z
x,1/2-y,z
loop_
_atom_site_type_symbol
_atom_site_label
_atom_site_fract_x
_atom_site_fract_y
_atom_site_fract_z
Si Si1 0.417909 0.795958 0.660635
Si Si2 0.578290 0.546159 0.855538
Si Si3 0.078736 0.550123 0.146655
Si Si4 0.917888 0.203247 0.674323
Si Si5 0.577986 0.880456 0.327319
Si Si6 0.078498 0.379055 0.347433
O O1 0.250000 0.799386 0.698309
O O2 0.471388 0.750000 0.706452
O O3 0.424676 0.795889 0.493130
O O4 0.503173 0.836866 0.706057
O O5 0.750000 0.550022 0.885425
O O6 0.554011 0.498233 0.809317
O O7 0.539176 0.580279 0.740879
O O8 0.487926 0.553647 0.993837
O O9 0.250000 0.557635 0.145017
O O10 0.999229 0.582780 0.244597
O O11 0.750000 0.196396 0.710965
O O12 0.960423 0.250000 0.721760
O O13 0.015701 0.164605 0.719361
O O14 0.750000 0.881980 0.309947
O O15 0.544206 0.884799 0.490654
O O16 0.250000 0.373393 0.338248
#
# Coordination Sequence:
#
# PCOD9447623 Si02
#       6
#     8   8   8   8   8   8
#     4   8  14  25  42  66  96 127 157 190 229 274
#     4   9  19  36  53  69  93 124 159 200 242 286
#     4  10  20  34  52  71  92 124 163 198 238 288
#     4   8  14  26  44  66  94 127 160 193 230 274
#     4  10  19  30  47  73 102 128 156 193 236 281
#     4   9  18  31  48  72  99 126 157 194 237 281
#
# _framework density 16.686440999999999
#
# number of rings (size 3 to 8) (size 9 to 14) (size 15 to 20)
#    0.000    3.000    0.000    2.000    0.000    3.333 
#    0.000    3.333    0.000    1.000    0.000    4.667 
#    0.000    0.000    0.000    0.000    0.000    0.000 
#
# Total GULP energy -267336.820656 kJ/mol
# GULP energy per Si atom -5569.517097 kJ/mol
# Density = 1.664846 g / cm^3
# Si number density = 16.686441 Si / 1000 Ang^3
#
#
#
# Elastic Constant Matrix: (Units=GPa)
#
#
# Indices 1 2 3 4 5 6 
#
# 1 62.6164 87.8950 40.7299 0.0000 0.0000 0.0000
# 2 87.8950 187.9330 72.1995 0.0000 0.0000 0.0000
# 3 40.7299 72.1995 38.6268 0.0000 0.0000 0.0000
# 4 0.0000 0.0000 0.0000 -12.0872 0.0000 0.0000
# 5 0.0000 0.0000 0.0000 0.0000 19.2252 0.0000
# 6 0.0000 0.0000 0.0000 0.0000 0.0000 31.4537
#
#
#
# Elastic Compliance Matrix: (Units=1/GPa)
#
#
# Indices 1 2 3 4 5 6 
#
# 1 0.058629 -0.013018 -0.037487 0.000000 0.000000 0.000000
# 2 -0.013018 0.021765 -0.026956 0.000000 0.000000 0.000000
# 3 -0.037487 -0.026956 0.115801 0.000000 0.000000 0.000000
# 4 0.000000 0.000000 0.000000 -0.082732 0.000000 0.000000
# 5 0.000000 0.000000 0.000000 0.000000 0.052015 0.000000
# 6 0.000000 0.000000 0.000000 0.000000 0.000000 0.031793
#
#
# Mechanical properties :
#
#
# Convention : Reuss Voigt Hill
#
# Bulk Modulus (GPa) = 24.22913 76.75834 50.49373
# Shear Modulus (GPa) = 13.66302 13.60845 13.63573
#
# Velocity S-wave (km/s) = 2.86459 2.85886 2.86173
# Velocity P-wave (km/s) = 5.04905 7.54969 6.42225
#
# Compressibility (1/GPa) = 0.04127264
#
# Stress axis : x y z
#
# Youngs Moduli (GPa) = 17.05653 45.94444 8.63548
#
# Poissons Ratio (x) = 0.59813 0.32372
# Poissons Ratio (y) = 0.22205 0.23277
# Poissons Ratio (z) = 0.63940 1.23846
#
# Static dielectric constant tensor:
#      x y z
#    x 1.553480 0.000000 0.000000 
#    y 0.000000 1.574000 0.000000 
#    z 0.000000 0.000000 1.541760 
# 
# From -- ./inp_files/6335.got.cif
#   From: 2010.05.17/outbox.cif.g08.bks.cpg/sg59_4_cif.got.tgz:6335.got - 2010.06.03 14:40:33.
