data_PCOD9447063
_publ_section_title
;
Structure prediction by ZEFSAII (Michael W. Deem and Ramdas Pophale) SiO2 
 PCOD9447063
Probable space group: P M M N
;
_chemical_formula_sum "Si O2"
_cell_formula_units_Z 52
_cell_length_a 9.621779
_cell_length_b 16.578601
_cell_length_c 18.756942
_cell_angle_alpha 90.000000
_cell_angle_beta 90.000000
_cell_angle_gamma 90.000000
_cell_volume 2992.025513
_symmetry_space_group_name_H-M "P M M N"
_symmetry_group_IT_number 59
_space_group.IT_coordinate_system_code '2'
_symmetry_cell_setting 'orthorhombic'
loop_
_space_group_symop_operation_xyz
x,y,z
1/2-x,1/2-y,z
1/2+x,-y,-z
-x,1/2+y,-z
-x,-y,-z
1/2+x,1/2+y,-z
1/2-x,y,z
x,1/2-y,z
loop_
_atom_site_type_symbol
_atom_site_label
_atom_site_fract_x
_atom_site_fract_y
_atom_site_fract_z
Si Si1 0.088481 0.886782 0.932961
Si Si2 0.091285 0.928164 0.687491
Si Si3 0.089750 0.466826 0.827754
Si Si4 0.093372 0.250000 0.137845
Si Si5 0.584686 0.156150 0.906163
Si Si6 0.498623 0.750000 0.706266
Si Si7 0.080080 0.431658 0.454990
Si Si8 0.590117 0.750000 0.544446
O O1 0.250000 0.860277 0.925955
O O2 0.989320 0.826550 0.891138
O O3 0.077145 0.972392 0.894662
O O4 0.053774 0.882497 0.016382
O O5 0.250000 0.946834 0.663906
O O6 0.086044 0.833432 0.707668
O O7 0.979291 0.940817 0.625259
O O8 0.058732 0.982106 0.756599
O O9 0.250000 0.440885 0.823016
O O10 0.992185 0.392111 0.844449
O O11 0.250000 0.250000 0.111160
O O12 0.090916 0.250000 0.223288
O O13 0.750000 0.151325 0.896011
O O14 0.544643 0.250000 0.909050
O O15 0.577643 0.750000 0.630653
O O16 0.250000 0.437844 0.457959
O O17 0.036894 0.339224 0.477718
O O18 0.000000 0.500000 0.500000
O O19 0.750000 0.750000 0.522966
#
# Coordination Sequence:
#
# PCOD9447063 Si02
#       8
#     8   8   8   4   8   4   8   4
#     4  10  20  37  54  72 105 143 178 219 278 334
#     4  10  20  34  56  84 112 147 183 216 266 324
#     4  10  21  35  55  80 106 138 178 226 274 328
#     4  12  22  29  48  81 111 140 178 222 267 320
#     4  10  21  37  56  73  98 139 183 230 282 331
#     4  10  18  32  51  79 117 145 175 213 261 325
#     4  10  20  36  59  86 119 152 183 223 268 321
#     4   8  17  33  53  80 114 147 177 215 264 315
#
# _framework density 17.379529999999999
#
# number of rings (size 3 to 8) (size 9 to 14) (size 15 to 20)
#    0.000    2.000    2.308    1.615    0.000    3.385 
#    0.000    1.154    1.692    0.000    0.000    0.000 
#    0.000    0.000    0.000    0.000    0.000    0.000 
#
# Total GULP energy -289784.820574 kJ/mol
# GULP energy per Si atom -5572.785011 kJ/mol
# Density = 1.733997 g / cm^3
# Si number density = 17.379530 Si / 1000 Ang^3
#
#
#
# Elastic Constant Matrix: (Units=GPa)
#
#
# Indices 1 2 3 4 5 6 
#
# 1 68.6210 48.6874 38.3718 0.0000 0.0000 0.0000
# 2 48.6874 86.3471 55.4827 0.0000 0.0000 0.0000
# 3 38.3718 55.4827 66.2491 0.0000 0.0000 0.0000
# 4 0.0000 0.0000 0.0000 28.9951 0.0000 0.0000
# 5 0.0000 0.0000 0.0000 0.0000 21.9019 0.0000
# 6 0.0000 0.0000 0.0000 0.0000 0.0000 4.3581
#
#
#
# Elastic Compliance Matrix: (Units=1/GPa)
#
#
# Indices 1 2 3 4 5 6 
#
# 1 0.025299 -0.010500 -0.005860 0.000000 0.000000 0.000000
# 2 -0.010500 0.029432 -0.018568 0.000000 0.000000 0.000000
# 3 -0.005860 -0.018568 0.034039 0.000000 0.000000 0.000000
# 4 0.000000 0.000000 0.000000 0.034489 0.000000 0.000000
# 5 0.000000 0.000000 0.000000 0.000000 0.045658 0.000000
# 6 0.000000 0.000000 0.000000 0.000000 0.000000 0.229456
#
#
# Mechanical properties :
#
#
# Convention : Reuss Voigt Hill
#
# Bulk Modulus (GPa) = 52.86656 56.25567 54.56111
# Shear Modulus (GPa) = 10.53668 16.29605 13.41636
#
# Velocity S-wave (km/s) = 2.46493 3.06544 2.78144
# Velocity P-wave (km/s) = 6.21177 6.70585 6.46353
#
# Compressibility (1/GPa) = 0.01891555
#
# Stress axis : x y z
#
# Youngs Moduli (GPa) = 39.52655 33.97635 29.37830
#
# Poissons Ratio (x) = 0.35675 0.17216
# Poissons Ratio (y) = 0.41502 0.54548
# Poissons Ratio (z) = 0.23163 0.63086
#
# Static dielectric constant tensor:
#      x y z
#    x 1.588420 0.000000 0.000000 
#    y 0.000000 1.607750 0.000000 
#    z 0.000000 0.000000 1.576890 
# 
# From -- ./inp_files/28934.got.cif
#   From: 2010.05.17/outbox.cif.g08.bks.cpg/sg59_15_cif.got.tgz:28934.got - 2010.06.03 14:40:33.
