data_PCOD9447557
_publ_section_title
;
Structure prediction by ZEFSAII (Michael W. Deem and Ramdas Pophale) SiO2 
 PCOD9447557
Probable space group: P M M N
;
_chemical_formula_sum "Si O2"
_cell_formula_units_Z 40
_cell_length_a 19.887897
_cell_length_b 8.331185
_cell_length_c 13.537948
_cell_angle_alpha 90.000000
_cell_angle_beta 90.000000
_cell_angle_gamma 90.000000
_cell_volume 2243.099208
_symmetry_space_group_name_H-M "P M M N"
_symmetry_group_IT_number 59
_space_group.IT_coordinate_system_code '2'
_symmetry_cell_setting 'orthorhombic'
loop_
_space_group_symop_operation_xyz
x,y,z
1/2-x,1/2-y,z
1/2+x,-y,-z
-x,1/2+y,-z
-x,-y,-z
1/2+x,1/2+y,-z
1/2-x,y,z
x,1/2-y,z
loop_
_atom_site_type_symbol
_atom_site_label
_atom_site_fract_x
_atom_site_fract_y
_atom_site_fract_z
Si Si1 0.327318 0.943620 0.113074
Si Si2 0.422722 0.558213 0.497924
Si Si3 0.922728 0.446192 0.285872
Si Si4 0.578072 0.941055 0.712065
Si Si5 0.172481 0.945856 0.890427
O O1 0.250000 0.995066 0.130405
O O2 0.327856 0.750000 0.113626
O O3 0.376578 0.002617 0.197712
O O4 0.346636 0.995964 0.001789
O O5 0.500000 0.500000 0.500000
O O6 0.421313 0.750000 0.494580
O O7 0.395346 0.506877 0.605378
O O8 0.394088 0.495102 0.394839
O O9 0.923130 0.250000 0.283770
O O10 0.877226 0.502391 0.195250
O O11 0.000567 0.499582 0.277390
O O12 0.575363 0.750000 0.711556
O O13 0.250000 0.993139 0.872872
O O14 0.171264 0.750000 0.889481
#
# Coordination Sequence:
#
# PCOD9447557 Si02
#       5
#     8   8   8   8   8
#     4   9  18  32  49  68  90 118 153 192 233 279
#     4   9  16  28  46  68  96 126 155 191 233 276
#     4   8  15  27  44  68  94 119 152 192 230 271
#     4  10  19  30  46  68  95 126 157 191 232 278
#     4   8  14  27  47  68  91 119 149 185 232 280
#
# _framework density 17.832470000000001
#
# number of rings (size 3 to 8) (size 9 to 14) (size 15 to 20)
#    0.000    3.200    0.000    3.600    0.000    1.200 
#    0.000    1.000    0.000    9.600    0.000    0.000 
#    0.000    0.000    0.000    0.000    0.000    0.000 
#
# Total GULP energy -222689.024071 kJ/mol
# GULP energy per Si atom -5567.225602 kJ/mol
# Density = 1.779188 g / cm^3
# Si number density = 17.832470 Si / 1000 Ang^3
#
#
#
# Elastic Constant Matrix: (Units=GPa)
#
#
# Indices 1 2 3 4 5 6 
#
# 1 68.2094 14.1605 100.3742 0.0000 0.0000 0.0000
# 2 14.1605 13.8407 25.3435 0.0000 0.0000 0.0000
# 3 100.3742 25.3435 224.3363 0.0000 0.0000 0.0000
# 4 0.0000 0.0000 0.0000 18.5703 0.0000 0.0000
# 5 0.0000 0.0000 0.0000 0.0000 -21.8279 0.0000
# 6 0.0000 0.0000 0.0000 0.0000 0.0000 16.1649
#
#
#
# Elastic Compliance Matrix: (Units=1/GPa)
#
#
# Indices 1 2 3 4 5 6 
#
# 1 0.044298 -0.011384 -0.018534 0.000000 0.000000 0.000000
# 2 -0.011384 0.094020 -0.005528 0.000000 0.000000 0.000000
# 3 -0.018534 -0.005528 0.013375 0.000000 0.000000 0.000000
# 4 0.000000 0.000000 0.000000 0.053849 0.000000 0.000000
# 5 0.000000 0.000000 0.000000 0.000000 -0.045813 0.000000
# 6 0.000000 0.000000 0.000000 0.000000 0.000000 0.061862
#
#
# Mechanical properties :
#
#
# Convention : Reuss Voigt Hill
#
# Bulk Modulus (GPa) = 12.37617 65.12700 38.75158
# Shear Modulus (GPa) = 15.65344 13.68201 14.66773
#
# Velocity S-wave (km/s) = 2.96599 2.77294 2.87109
# Velocity P-wave (km/s) = 4.32259 6.84493 5.72442
#
# Compressibility (1/GPa) = 0.08080043
#
# Stress axis : x y z
#
# Youngs Moduli (GPa) = 22.57417 10.63602 74.76742
#
# Poissons Ratio (x) = 0.12108 1.38576
# Poissons Ratio (y) = 0.25699 0.41331
# Poissons Ratio (z) = 0.41839 0.05879
#
# Static dielectric constant tensor:
#      x y z
#    x 1.591890 0.000000 0.000000 
#    y 0.000000 1.618570 0.000000 
#    z 0.000000 0.000000 1.638030 
# 
# From -- ./inp_files/14044.got.cif
#   From: 2010.05.17/outbox.cif.g08.bks.cpg/sg59_8_cif.got.tgz:14044.got - 2010.06.03 14:40:33.
