data_PCOD9447111
_publ_section_title
;
Structure prediction by ZEFSAII (Michael W. Deem and Ramdas Pophale) SiO2 
 PCOD9447111
Probable space group: P M M N
;
_chemical_formula_sum "Si O2"
_cell_formula_units_Z 64
_cell_length_a 7.393263
_cell_length_b 16.811236
_cell_length_c 22.545150
_cell_angle_alpha 90.000000
_cell_angle_beta 90.000000
_cell_angle_gamma 90.000000
_cell_volume 2802.134193
_symmetry_space_group_name_H-M "P M M N"
_symmetry_group_IT_number 59
_space_group.IT_coordinate_system_code '2'
_symmetry_cell_setting 'orthorhombic'
loop_
_space_group_symop_operation_xyz
x,y,z
1/2-x,1/2-y,z
1/2+x,-y,-z
-x,1/2+y,-z
-x,-y,-z
1/2+x,1/2+y,-z
1/2-x,y,z
x,1/2-y,z
loop_
_atom_site_type_symbol
_atom_site_label
_atom_site_fract_x
_atom_site_fract_y
_atom_site_fract_z
Si Si1 0.531979 0.416751 0.246105
Si Si2 0.459770 0.598618 0.251579
Si Si3 0.530593 0.342397 0.873553
Si Si4 0.465655 0.906665 0.000934
Si Si5 0.529414 0.161782 0.365702
Si Si6 0.970627 0.341329 0.124908
Si Si7 0.533972 0.001141 0.430240
Si Si8 0.957489 0.662632 0.375529
O O1 0.750000 0.416452 0.244717
O O2 0.475244 0.505102 0.264014
O O3 0.478028 0.355484 0.297387
O O4 0.467328 0.393780 0.180509
O O5 0.250000 0.622172 0.251027
O O6 0.534011 0.613375 0.185547
O O7 0.544573 0.647966 0.304855
O O8 0.750000 0.351108 0.875033
O O9 0.488506 0.250000 0.867194
O O10 0.462903 0.372971 0.936943
O O11 0.250000 0.891639 0.000954
O O12 0.534849 0.869529 0.939592
O O13 0.500000 0.000000 0.000000
O O14 0.750000 0.162404 0.368420
O O15 0.469346 0.250000 0.384674
O O16 0.467146 0.084501 0.402538
O O17 0.750000 0.345328 0.124318
O O18 0.020173 0.250000 0.134904
O O19 0.750000 0.000897 0.418428
O O20 0.461085 0.918363 0.402741
O O21 0.500000 0.000000 0.500000
O O22 0.750000 0.665524 0.396623
O O23 0.037780 0.750000 0.388358
#
# Coordination Sequence:
#
# PCOD9447111 Si02
#       8
#     8   8   8   8   8   8   8   8
#     4  10  18  32  54  79 108 139 176 223 276 329
#     4  11  21  33  53  80 110 143 184 229 272 322
#     4   9  18  32  49  70  99 137 177 217 264 318
#     4  10  19  32  50  71  99 134 173 218 269 327
#     4   9  17  32  56  82 108 141 180 221 264 315
#     4   9  17  29  50  79 102 129 178 233 275 320
#     4  10  21  38  58  84 115 147 182 219 264 322
#     4  10  21  39  61  84 113 149 186 226 276 326
#
# _framework density 22.839735000000001
#
# number of rings (size 3 to 8) (size 9 to 14) (size 15 to 20)
#    0.000    2.250    1.250    2.250    0.000    4.750 
#    0.000    0.625    0.000    6.000    0.000    0.000 
#    0.000    0.000    0.000    0.000    0.000    0.000 
#
# Total GULP energy -357556.684885 kJ/mol
# GULP energy per Si atom -5586.823201 kJ/mol
# Density = 2.278775 g / cm^3
# Si number density = 22.839735 Si / 1000 Ang^3
#
#
#
# Elastic Constant Matrix: (Units=GPa)
#
#
# Indices 1 2 3 4 5 6 
#
# 1 78.6260 0.1770 0.7382 0.0000 0.0000 0.0000
# 2 0.1770 175.0892 66.7241 0.0000 0.0000 0.0000
# 3 0.7382 66.7241 127.5016 0.0000 0.0000 0.0000
# 4 0.0000 0.0000 0.0000 20.6230 0.0000 0.0000
# 5 0.0000 0.0000 0.0000 0.0000 6.1238 0.0000
# 6 0.0000 0.0000 0.0000 0.0000 0.0000 -0.4723
#
#
#
# Elastic Compliance Matrix: (Units=1/GPa)
#
#
# Indices 1 2 3 4 5 6 
#
# 1 0.012719 0.000019 -0.000084 0.000000 0.000000 0.000000
# 2 0.000019 0.007134 -0.003734 0.000000 0.000000 0.000000
# 3 -0.000084 -0.003734 0.009797 0.000000 0.000000 0.000000
# 4 0.000000 0.000000 0.000000 0.048490 0.000000 0.000000
# 5 0.000000 0.000000 0.000000 0.000000 0.163296 0.000000
# 6 0.000000 0.000000 0.000000 0.000000 0.000000 -2.117191
#
#
# Mechanical properties :
#
#
# Convention : Reuss Voigt Hill
#
# Bulk Modulus (GPa) = 45.34236 57.38837 51.36536
# Shear Modulus (GPa) = -2.68701 26.16007 11.73653
#
# Velocity S-wave (km/s) = -1.08582 3.38801 2.26932
# Velocity P-wave (km/s) = 4.28059 6.36285 5.42261
#
# Compressibility (1/GPa) = 0.02205443
#
# Stress axis : x y z
#
# Youngs Moduli (GPa) = 78.62137 140.17064 102.06825
#
# Poissons Ratio (x) = -0.00266 0.00853
# Poissons Ratio (y) = -0.00149 0.38108
# Poissons Ratio (z) = 0.00657 0.52334
#
# Static dielectric constant tensor:
#      x y z
#    x 1.872810 0.000000 0.000000 
#    y 0.000000 1.810840 0.000000 
#    z 0.000000 0.000000 2.083650 
# 
# From -- ./inp_files/31509.got.cif
#   From: 2010.05.17/outbox.cif.g08.bks.cpg/sg59_16_cif.got.tgz:31509.got - 2010.06.03 14:40:33.
