data_PCOD9447839
_publ_section_title
;
Structure prediction by ZEFSAII (Michael W. Deem and Ramdas Pophale) SiO2 
 PCOD9447839
Probable space group: P M M N
;
_chemical_formula_sum "Si O2"
_cell_formula_units_Z 64
_cell_length_a 23.939180
_cell_length_b 8.864810
_cell_length_c 19.474297
_cell_angle_alpha 90.000000
_cell_angle_beta 90.000000
_cell_angle_gamma 90.000000
_cell_volume 4132.762909
_symmetry_space_group_name_H-M "P M M N"
_symmetry_group_IT_number 59
_space_group.IT_coordinate_system_code '2'
_symmetry_cell_setting 'orthorhombic'
loop_
_space_group_symop_operation_xyz
x,y,z
1/2-x,1/2-y,z
1/2+x,-y,-z
-x,1/2+y,-z
-x,-y,-z
1/2+x,1/2+y,-z
1/2-x,y,z
x,1/2-y,z
loop_
_atom_site_type_symbol
_atom_site_label
_atom_site_fract_x
_atom_site_fract_y
_atom_site_fract_z
Si Si1 0.686152 0.067874 0.388363
Si Si2 0.633906 0.931581 0.251283
Si Si3 0.523101 0.569679 0.894458
Si Si4 0.914266 0.069016 0.483804
Si Si5 0.685192 0.931979 0.104084
Si Si6 0.002775 0.430656 0.750865
Si Si7 0.087388 0.930248 0.982184
Si Si8 0.523468 0.570354 0.607356
O O1 0.750000 0.021210 0.400194
O O2 0.684219 0.250000 0.384746
O O3 0.643533 0.021974 0.448555
O O4 0.663836 0.003715 0.316577
O O5 0.637134 0.750000 0.257006
O O6 0.663343 0.975820 0.179972
O O7 0.568582 0.974355 0.249780
O O8 0.527654 0.750000 0.891911
O O9 0.524162 0.500397 0.818917
O O10 0.569255 0.502345 0.945658
O O11 0.463022 0.530989 0.929147
O O12 0.914315 0.250000 0.494065
O O13 0.964215 0.034334 0.429924
O O14 0.929917 0.989000 0.554685
O O15 0.750000 0.973535 0.095923
O O16 0.680717 0.750000 0.099371
O O17 0.644365 0.005571 0.048640
O O18 0.999660 0.250000 0.753446
O O19 0.975987 0.491775 0.680966
O O20 0.089582 0.750000 0.988189
O O21 0.526882 0.750000 0.615057
#
# Coordination Sequence:
#
# PCOD9447839 Si02
#       8
#     8   8   8   8   8   8   8   8
#     4  10  20  33  49  69  96 131 168 205 244 285
#     4  10  20  32  47  68  99 135 171 204 236 283
#     4  10  20  33  51  72  98 129 163 203 249 298
#     4   9  18  32  47  67  95 126 162 203 243 288
#     4  10  20  34  50  69  98 136 174 208 243 285
#     4  11  20  31  50  74 100 131 164 200 245 294
#     4  10  20  33  50  72  98 128 165 208 249 291
#     4  10  19  31  49  70  95 126 161 201 246 292
#
# _framework density 15.486008999999999
#
# number of rings (size 3 to 8) (size 9 to 14) (size 15 to 20)
#    0.000    2.000    2.500    1.875    0.000    4.000 
#    0.000    0.000    0.000    0.000    0.000    0.875 
#    0.000    5.000    0.000    0.000    0.000    0.000 
#
# Total GULP energy -357213.843698 kJ/mol
# GULP energy per Si atom -5581.466308 kJ/mol
# Density = 1.545076 g / cm^3
# Si number density = 15.486009 Si / 1000 Ang^3
#
#
#
# Elastic Constant Matrix: (Units=GPa)
#
#
# Indices 1 2 3 4 5 6 
#
# 1 104.8043 32.8518 77.6432 0.0000 0.0000 0.0000
# 2 32.8518 29.8940 50.4516 0.0000 0.0000 0.0000
# 3 77.6432 50.4516 149.8905 0.0000 0.0000 0.0000
# 4 0.0000 0.0000 0.0000 30.5257 0.0000 0.0000
# 5 0.0000 0.0000 0.0000 0.0000 19.6680 0.0000
# 6 0.0000 0.0000 0.0000 0.0000 0.0000 18.8710
#
#
#
# Elastic Compliance Matrix: (Units=1/GPa)
#
#
# Indices 1 2 3 4 5 6 
#
# 1 0.016369 -0.008516 -0.005613 0.000000 0.000000 0.000000
# 2 -0.008516 0.081875 -0.023147 0.000000 0.000000 0.000000
# 3 -0.005613 -0.023147 0.017370 0.000000 0.000000 0.000000
# 4 0.000000 0.000000 0.000000 0.032759 0.000000 0.000000
# 5 0.000000 0.000000 0.000000 0.000000 0.050844 0.000000
# 6 0.000000 0.000000 0.000000 0.000000 0.000000 0.052991
#
#
# Mechanical properties :
#
#
# Convention : Reuss Voigt Hill
#
# Bulk Modulus (GPa) = 24.35329 67.38689 45.87009
# Shear Modulus (GPa) = 14.68656 22.05576 18.37116
#
# Velocity S-wave (km/s) = 3.08291 3.77800 3.44802
# Velocity P-wave (km/s) = 5.33222 7.91456 6.74807
#
# Compressibility (1/GPa) = 0.04106221
#
# Stress axis : x y z
#
# Youngs Moduli (GPa) = 61.09007 12.21381 57.57086
#
# Poissons Ratio (x) = 0.10402 0.32313
# Poissons Ratio (y) = 0.52026 1.33257
# Poissons Ratio (z) = 0.34289 0.28271
#
# Static dielectric constant tensor:
#      x y z
#    x 1.503740 0.000000 0.000000 
#    y 0.000000 1.516510 0.000000 
#    z 0.000000 0.000000 1.491440 
# 
# From -- ./inp_files/26501.got.cif
#   From: 2010.05.17/outbox.cif.g08.bks.cpg/sg59_14_cif.got.tgz:26501.got - 2010.06.03 14:40:33.
