data_PCOD9447917
_publ_section_title
;
Structure prediction by ZEFSAII (Michael W. Deem and Ramdas Pophale) SiO2 
 PCOD9447917
Probable space group: P M M N
;
_chemical_formula_sum "Si O2"
_cell_formula_units_Z 64
_cell_length_a 20.144993
_cell_length_b 8.978904
_cell_length_c 20.194577
_cell_angle_alpha 90.000000
_cell_angle_beta 90.000000
_cell_angle_gamma 90.000000
_cell_volume 3652.794244
_symmetry_space_group_name_H-M "P M M N"
_symmetry_group_IT_number 59
_space_group.IT_coordinate_system_code '2'
_symmetry_cell_setting 'orthorhombic'
loop_
_space_group_symop_operation_xyz
x,y,z
1/2-x,1/2-y,z
1/2+x,-y,-z
-x,1/2+y,-z
-x,-y,-z
1/2+x,1/2+y,-z
1/2-x,y,z
x,1/2-y,z
loop_
_atom_site_type_symbol
_atom_site_label
_atom_site_fract_x
_atom_site_fract_y
_atom_site_fract_z
Si Si1 0.826853 0.071696 0.034088
Si Si2 0.172927 0.427534 0.109689
Si Si3 0.584468 0.570603 0.147354
Si Si4 0.965026 0.927301 0.661365
Si Si5 0.114177 0.573717 0.606923
Si Si6 0.439662 0.928214 0.197544
Si Si7 0.675124 0.926038 0.270578
Si Si8 0.429260 0.071782 0.480798
O O1 0.750000 0.035310 0.052772
O O2 0.832593 0.250000 0.030725
O O3 0.878533 0.006266 0.086543
O O4 0.838846 0.001596 0.961943
O O5 0.250000 0.456598 0.127347
O O6 0.163926 0.250000 0.104836
O O7 0.122568 0.495978 0.162308
O O8 0.590050 0.750000 0.140518
O O9 0.507407 0.532610 0.157895
O O10 0.623339 0.526939 0.214436
O O11 0.960103 0.750000 0.674124
O O12 0.920009 0.963317 0.596881
O O13 0.040811 0.957663 0.637990
O O14 0.948072 0.015946 0.727262
O O15 0.119353 0.750000 0.597765
O O16 0.164123 0.513394 0.661703
O O17 0.119518 0.493147 0.536117
O O18 0.433184 0.750000 0.196622
O O19 0.750000 0.946752 0.245701
O O20 0.664907 0.750000 0.283297
O O21 0.433683 0.250000 0.486615
O O22 0.500000 0.000000 0.500000
#
# Coordination Sequence:
#
# PCOD9447917 Si02
#       8
#     8   8   8   8   8   8   8   8
#     4  10  21  37  58  83 110 143 185 230 271 315
#     4  10  22  41  63  83 106 140 178 218 271 335
#     4  10  21  36  54  80 112 147 185 223 271 327
#     4   9  18  32  50  76 108 141 175 217 269 322
#     4  10  19  31  49  74 105 141 182 228 273 319
#     4  11  22  35  57  85 113 144 178 225 275 320
#     4  10  20  34  52  74 106 150 193 231 272 325
#     4   9  17  29  48  74 103 136 176 220 267 318
#
# _framework density 17.520834000000001
#
# number of rings (size 3 to 8) (size 9 to 14) (size 15 to 20)
#    0.000    2.125    1.250    3.000    0.000    6.750 
#    0.000    0.000    0.000    0.750    0.000    5.250 
#    0.000    0.000    0.000    0.000    0.000    0.000 
#
# Total GULP energy -357077.344726 kJ/mol
# GULP energy per Si atom -5579.333511 kJ/mol
# Density = 1.748096 g / cm^3
# Si number density = 17.520834 Si / 1000 Ang^3
#
#
#
# Elastic Constant Matrix: (Units=GPa)
#
#
# Indices 1 2 3 4 5 6 
#
# 1 71.2138 46.5509 59.1502 0.0000 0.0000 0.0000
# 2 46.5509 58.9551 58.5450 0.0000 0.0000 0.0000
# 3 59.1502 58.5450 112.0399 0.0000 0.0000 0.0000
# 4 0.0000 0.0000 0.0000 34.5122 0.0000 0.0000
# 5 0.0000 0.0000 0.0000 0.0000 22.6829 0.0000
# 6 0.0000 0.0000 0.0000 0.0000 0.0000 24.5184
#
#
#
# Elastic Compliance Matrix: (Units=1/GPa)
#
#
# Indices 1 2 3 4 5 6 
#
# 1 0.031889 -0.017587 -0.007645 0.000000 0.000000 0.000000
# 2 -0.017587 0.044957 -0.014207 0.000000 0.000000 0.000000
# 3 -0.007645 -0.014207 0.020385 0.000000 0.000000 0.000000
# 4 0.000000 0.000000 0.000000 0.028975 0.000000 0.000000
# 5 0.000000 0.000000 0.000000 0.000000 0.044086 0.000000
# 6 0.000000 0.000000 0.000000 0.000000 0.000000 0.040786
#
#
# Mechanical properties :
#
#
# Convention : Reuss Voigt Hill
#
# Bulk Modulus (GPa) = 54.48894 63.41122 58.95008
# Shear Modulus (GPa) = 16.88770 21.54021 19.21396
#
# Velocity S-wave (km/s) = 3.10798 3.51009 3.31514
# Velocity P-wave (km/s) = 6.63675 7.25935 6.95502
#
# Compressibility (1/GPa) = 0.01835235
#
# Stress axis : x y z
#
# Youngs Moduli (GPa) = 31.35900 22.24362 49.05535
#
# Poissons Ratio (x) = 0.39120 0.37504
# Poissons Ratio (y) = 0.55152 0.69691
# Poissons Ratio (z) = 0.23975 0.31601
#
# Static dielectric constant tensor:
#      x y z
#    x 1.596980 0.000000 0.000000 
#    y 0.000000 1.583080 0.000000 
#    z 0.000000 0.000000 1.591450 
# 
# From -- ./inp_files/28250.got.cif
#   From: 2010.05.17/outbox.cif.g08.bks.cpg/sg59_15_cif.got.tgz:28250.got - 2010.06.03 14:40:33.
