data_PCOD9447684
_publ_section_title
;
Structure prediction by ZEFSAII (Michael W. Deem and Ramdas Pophale) SiO2 
 PCOD9447684
Probable space group: P M M N
;
_chemical_formula_sum "Si O2"
_cell_formula_units_Z 64
_cell_length_a 7.505572
_cell_length_b 16.383658
_cell_length_c 24.567579
_cell_angle_alpha 90.000000
_cell_angle_beta 90.000000
_cell_angle_gamma 90.000000
_cell_volume 3021.043860
_symmetry_space_group_name_H-M "P M M N"
_symmetry_group_IT_number 59
_space_group.IT_coordinate_system_code '2'
_symmetry_cell_setting 'orthorhombic'
loop_
_space_group_symop_operation_xyz
x,y,z
1/2-x,1/2-y,z
1/2+x,-y,-z
-x,1/2+y,-z
-x,-y,-z
1/2+x,1/2+y,-z
1/2-x,y,z
x,1/2-y,z
loop_
_atom_site_type_symbol
_atom_site_label
_atom_site_fract_x
_atom_site_fract_y
_atom_site_fract_z
Si Si1 0.031623 0.161375 0.572513
Si Si2 0.460360 0.417050 0.466444
Si Si3 0.957976 0.099305 0.936105
Si Si4 0.969075 0.004488 0.239229
Si Si5 0.032565 0.660508 0.830182
Si Si6 0.458438 0.495153 0.638142
Si Si7 0.533955 0.407355 0.055903
Si Si8 0.543745 0.840135 0.181251
O O1 0.250000 0.157724 0.571951
O O2 0.979344 0.250000 0.593277
O O3 0.974046 0.149699 0.509581
O O4 0.966603 0.085913 0.608833
O O5 0.500000 0.500000 0.500000
O O6 0.250000 0.407147 0.460969
O O7 0.528977 0.431964 0.405783
O O8 0.750000 0.120542 0.934223
O O9 0.040579 0.139917 0.883090
O O10 0.028938 0.120638 0.996300
O O11 0.977819 0.000977 0.933484
O O12 0.750000 0.004892 0.237025
O O13 0.027122 0.083447 0.205185
O O14 0.028905 0.010650 0.301774
O O15 0.030952 0.919458 0.212169
O O16 0.250000 0.659645 0.829324
O O17 0.975251 0.750000 0.811116
O O18 0.978743 0.645775 0.892719
O O19 0.250000 0.478519 0.645817
O O20 0.750000 0.407974 0.053842
O O21 0.750000 0.835880 0.198378
O O22 0.464969 0.750000 0.191007
#
# Coordination Sequence:
#
# PCOD9447684 Si02
#       8
#     8   8   8   8   8   8   8   8
#     4   8  14  25  43  68  94 119 151 190 228 270
#     4   9  16  28  47  69  93 121 153 189 230 277
#     4  10  19  30  49  75 101 129 160 205 263 313
#     4   9  17  31  49  70  97 127 166 211 245 287
#     4   9  16  28  50  74  93 121 163 209 253 296
#     4   9  17  29  48  70  94 126 161 197 238 283
#     4   9  17  31  51  73  98 127 165 207 250 309
#     4  10  20  34  52  72  98 135 173 209 252 301
#
# _framework density 21.184729999999998
#
# number of rings (size 3 to 8) (size 9 to 14) (size 15 to 20)
#    0.000    2.875    1.250    1.500    0.000    1.750 
#    0.000    5.000    0.000   10.500    0.000    0.000 
#    0.000    0.000    0.000    0.000    0.000    0.000 
#
# Total GULP energy -356794.106342 kJ/mol
# GULP energy per Si atom -5574.907912 kJ/mol
# Density = 2.113651 g / cm^3
# Si number density = 21.184730 Si / 1000 Ang^3
#
#
#
# Elastic Constant Matrix: (Units=GPa)
#
#
# Indices 1 2 3 4 5 6 
#
# 1 52.7993 3.7529 3.3187 0.0000 0.0000 0.0000
# 2 3.7529 103.2718 60.5395 0.0000 0.0000 0.0000
# 3 3.3187 60.5395 146.0638 0.0000 0.0000 0.0000
# 4 0.0000 0.0000 0.0000 6.9223 0.0000 0.0000
# 5 0.0000 0.0000 0.0000 0.0000 13.9701 0.0000
# 6 0.0000 0.0000 0.0000 0.0000 0.0000 1.6797
#
#
#
# Elastic Compliance Matrix: (Units=1/GPa)
#
#
# Indices 1 2 3 4 5 6 
#
# 1 0.018993 -0.000578 -0.000192 0.000000 0.000000 0.000000
# 2 -0.000578 0.012809 -0.005296 0.000000 0.000000 0.000000
# 3 -0.000192 -0.005296 0.009046 0.000000 0.000000 0.000000
# 4 0.000000 0.000000 0.000000 0.144460 0.000000 0.000000
# 5 0.000000 0.000000 0.000000 0.000000 0.071581 0.000000
# 6 0.000000 0.000000 0.000000 0.000000 0.000000 0.595337
#
#
# Mechanical properties :
#
#
# Convention : Reuss Voigt Hill
#
# Bulk Modulus (GPa) = 34.82357 48.59523 41.70940
# Shear Modulus (GPa) = 5.72129 20.14935 12.93532
#
# Velocity S-wave (km/s) = 1.64515 3.08738 2.47371
# Velocity P-wave (km/s) = 4.48134 5.97476 5.28111
#
# Compressibility (1/GPa) = 0.02871618
#
# Stress axis : x y z
#
# Youngs Moduli (GPa) = 52.65156 78.07259 110.55081
#
# Poissons Ratio (x) = 0.04509 0.02124
# Poissons Ratio (y) = 0.03041 0.58544
# Poissons Ratio (z) = 0.01012 0.41345
#
# Static dielectric constant tensor:
#      x y z
#    x 1.861530 0.000000 0.000000 
#    y 0.000000 1.762040 0.000000 
#    z 0.000000 0.000000 1.760190 
# 
# From -- ./inp_files/31752.got.cif
#   From: 2010.05.17/outbox.cif.g08.bks.cpg/sg59_16_cif.got.tgz:31752.got - 2010.06.03 14:40:33.
