data_PCOD9447081
_publ_section_title
;
Structure prediction by ZEFSAII (Michael W. Deem and Ramdas Pophale) SiO2 
 PCOD9447081
Probable space group: P M M N
;
_chemical_formula_sum "Si O2"
_cell_formula_units_Z 64
_cell_length_a 7.539014
_cell_length_b 20.119025
_cell_length_c 21.276930
_cell_angle_alpha 90.000000
_cell_angle_beta 90.000000
_cell_angle_gamma 90.000000
_cell_volume 3227.233915
_symmetry_space_group_name_H-M "P M M N"
_symmetry_group_IT_number 59
_space_group.IT_coordinate_system_code '2'
_symmetry_cell_setting 'orthorhombic'
loop_
_space_group_symop_operation_xyz
x,y,z
1/2-x,1/2-y,z
1/2+x,-y,-z
-x,1/2+y,-z
-x,-y,-z
1/2+x,1/2+y,-z
1/2-x,y,z
x,1/2-y,z
loop_
_atom_site_type_symbol
_atom_site_label
_atom_site_fract_x
_atom_site_fract_y
_atom_site_fract_z
Si Si1 0.537122 0.464380 0.934587
Si Si2 0.538431 0.324292 0.247118
Si Si3 0.039051 0.460030 0.188586
Si Si4 0.467358 0.539349 0.311511
Si Si5 0.534191 0.176318 0.742402
Si Si6 0.537009 0.536895 0.564769
Si Si7 0.042017 0.324109 0.392072
Si Si8 0.466123 0.675805 0.111133
O O1 0.750000 0.461115 0.928940
O O2 0.469257 0.507621 0.875428
O O3 0.472764 0.388216 0.927817
O O4 0.500000 0.500000 0.000000
O O5 0.750000 0.322799 0.251861
O O6 0.475762 0.250000 0.230186
O O7 0.490354 0.382031 0.198904
O O8 0.469642 0.339486 0.317408
O O9 0.250000 0.470970 0.188157
O O10 0.972217 0.497247 0.251002
O O11 0.250000 0.538544 0.311907
O O12 0.524101 0.615135 0.300107
O O13 0.528091 0.505881 0.375821
O O14 0.750000 0.176508 0.741602
O O15 0.474611 0.250000 0.723541
O O16 0.484953 0.165438 0.815517
O O17 0.500000 0.500000 0.500000
O O18 0.750000 0.541215 0.571235
O O19 0.467470 0.612487 0.571016
O O20 0.250000 0.319524 0.407736
O O21 0.964546 0.250000 0.401597
O O22 0.250000 0.676962 0.109269
O O23 0.525649 0.750000 0.092114
#
# Coordination Sequence:
#
# PCOD9447081 Si02
#       8
#     8   8   8   8   8   8   8   8
#     4  10  20  33  51  75 104 135 168 207 249 297
#     4  10  20  32  49  77 107 130 160 211 266 306
#     4  10  18  32  53  74  97 130 171 210 247 296
#     4   9  15  27  46  69  96 124 161 205 245 287
#     4   8  12  20  40  70  98 120 150 198 246 284
#     4  10  20  33  49  71 101 134 168 207 248 295
#     4   9  17  32  54  75  96 130 174 211 248 303
#     4   8  13  24  45  72  97 122 156 198 243 290
#
# _framework density 19.831225
#
# number of rings (size 3 to 8) (size 9 to 14) (size 15 to 20)
#    0.000    2.750    2.500    1.125    0.000    1.750 
#    0.000    1.250    0.000    3.375    0.000    0.000 
#    0.000    0.500    0.000    0.000    0.000    0.250 
#
# Total GULP energy -356915.483835 kJ/mol
# GULP energy per Si atom -5576.804435 kJ/mol
# Density = 1.978609 g / cm^3
# Si number density = 19.831225 Si / 1000 Ang^3
#
#
#
# Elastic Constant Matrix: (Units=GPa)
#
#
# Indices 1 2 3 4 5 6 
#
# 1 47.3885 4.3352 3.7994 0.0000 0.0000 0.0000
# 2 4.3352 215.3987 106.8320 0.0000 0.0000 0.0000
# 3 3.7994 106.8320 126.1611 0.0000 0.0000 0.0000
# 4 0.0000 0.0000 0.0000 31.1090 0.0000 0.0000
# 5 0.0000 0.0000 0.0000 0.0000 14.0820 0.0000
# 6 0.0000 0.0000 0.0000 0.0000 0.0000 2.4192
#
#
#
# Elastic Compliance Matrix: (Units=1/GPa)
#
#
# Indices 1 2 3 4 5 6 
#
# 1 0.021158 -0.000189 -0.000477 0.000000 0.000000 0.000000
# 2 -0.000189 0.008006 -0.006774 0.000000 0.000000 0.000000
# 3 -0.000477 -0.006774 0.013677 0.000000 0.000000 0.000000
# 4 0.000000 0.000000 0.000000 0.032145 0.000000 0.000000
# 5 0.000000 0.000000 0.000000 0.000000 0.071013 0.000000
# 6 0.000000 0.000000 0.000000 0.000000 0.000000 0.413367
#
#
# Mechanical properties :
#
#
# Convention : Reuss Voigt Hill
#
# Bulk Modulus (GPa) = 35.76460 68.76459 52.26459
# Shear Modulus (GPa) = 8.56802 27.78748 18.17775
#
# Velocity S-wave (km/s) = 2.08083 3.74732 3.03086
# Velocity P-wave (km/s) = 4.88332 7.31255 6.21772
#
# Compressibility (1/GPa) = 0.02796061
#
# Stress axis : x y z
#
# Youngs Moduli (GPa) = 47.26406 124.90801 73.11779
#
# Poissons Ratio (x) = 0.02365 0.03487
# Poissons Ratio (y) = 0.00895 0.49527
# Poissons Ratio (z) = 0.02254 0.84608
#
# Static dielectric constant tensor:
#      x y z
#    x 1.775720 0.000000 0.000000 
#    y 0.000000 1.727230 0.000000 
#    z 0.000000 0.000000 1.649140 
# 
# From -- ./inp_files/26340.got.cif
#   From: 2010.05.17/outbox.cif.g08.bks.cpg/sg59_14_cif.got.tgz:26340.got - 2010.06.03 14:40:33.
