data_PCOD9447823
_publ_section_title
;
Structure prediction by ZEFSAII (Michael W. Deem and Ramdas Pophale) SiO2 
 PCOD9447823
Probable space group: P M M N
;
_chemical_formula_sum "Si O2"
_cell_formula_units_Z 64
_cell_length_a 8.435119
_cell_length_b 23.356620
_cell_length_c 18.153705
_cell_angle_alpha 90.000000
_cell_angle_beta 90.000000
_cell_angle_gamma 90.000000
_cell_volume 3576.567969
_symmetry_space_group_name_H-M "P M M N"
_symmetry_group_IT_number 59
_space_group.IT_coordinate_system_code '2'
_symmetry_cell_setting 'orthorhombic'
loop_
_space_group_symop_operation_xyz
x,y,z
1/2-x,1/2-y,z
1/2+x,-y,-z
-x,1/2+y,-z
-x,-y,-z
1/2+x,1/2+y,-z
1/2-x,y,z
x,1/2-y,z
loop_
_atom_site_type_symbol
_atom_site_label
_atom_site_fract_x
_atom_site_fract_y
_atom_site_fract_z
Si Si1 0.441004 0.950931 0.167552
Si Si2 0.058716 0.186354 0.570873
Si Si3 0.058441 0.849581 0.589317
Si Si4 0.060880 0.416666 0.149001
Si Si5 0.058495 0.084927 0.678263
Si Si6 0.558391 0.186906 0.249633
Si Si7 0.441142 0.519685 0.579477
Si Si8 0.440008 0.934878 0.006630
O O1 0.250000 0.952908 0.169005
O O2 0.501614 0.917506 0.238349
O O3 0.487616 0.920615 0.090499
O O4 0.496554 0.018074 0.167745
O O5 0.250000 0.184687 0.571514
O O6 0.006632 0.250000 0.592850
O O7 0.002385 0.137432 0.627227
O O8 0.005227 0.174602 0.487348
O O9 0.250000 0.847131 0.585894
O O10 0.008630 0.819321 0.664816
O O11 0.007363 0.915829 0.594879
O O12 0.250000 0.418078 0.152514
O O13 0.999629 0.367382 0.203089
O O14 0.009624 0.403853 0.064740
O O15 0.250000 0.085777 0.677803
O O16 0.003964 0.026165 0.639359
O O17 0.750000 0.185302 0.248422
O O18 0.507718 0.250000 0.222242
O O19 0.500000 0.500000 0.500000
O O20 0.250000 0.519142 0.579153
O O21 0.250000 0.933140 0.001769
O O22 0.500000 0.000000 0.000000
#
# Coordination Sequence:
#
# PCOD9447823 Si02
#       8
#     8   8   8   8   8   8   8   8
#     4   9  19  33  51  79 108 133 165 207 258 309
#     4  10  21  36  52  70  95 130 172 215 257 302
#     4  10  20  34  53  75  99 131 172 216 259 309
#     4  10  20  34  53  79 108 138 172 210 257 312
#     4  10  20  33  50  73 100 132 170 209 256 307
#     4  10  21  36  53  74 103 140 180 220 261 308
#     4  10  19  31  48  72  99 128 165 207 255 307
#     4   9  17  31  52  79 109 136 165 202 248 307
#
# _framework density 17.89425
#
# number of rings (size 3 to 8) (size 9 to 14) (size 15 to 20)
#    0.000    2.250    1.250    2.625    0.000    6.500 
#    0.000    0.000    0.000    0.750    0.000    3.500 
#    0.000    0.000    0.000    0.000    0.000    0.000 
#
# Total GULP energy -356878.870892 kJ/mol
# GULP energy per Si atom -5576.232358 kJ/mol
# Density = 1.785352 g / cm^3
# Si number density = 17.894250 Si / 1000 Ang^3
#
#
#
# Elastic Constant Matrix: (Units=GPa)
#
#
# Indices 1 2 3 4 5 6 
#
# 1 7.3185 16.0248 12.6891 0.0000 0.0000 0.0000
# 2 16.0248 90.3969 43.4286 0.0000 0.0000 0.0000
# 3 12.6891 43.4286 137.5160 0.0000 0.0000 0.0000
# 4 0.0000 0.0000 0.0000 13.7099 0.0000 0.0000
# 5 0.0000 0.0000 0.0000 0.0000 30.6086 0.0000
# 6 0.0000 0.0000 0.0000 0.0000 0.0000 16.9193
#
#
#
# Elastic Compliance Matrix: (Units=1/GPa)
#
#
# Indices 1 2 3 4 5 6 
#
# 1 0.234510 -0.036752 -0.010032 0.000000 0.000000 0.000000
# 2 -0.036752 0.018801 -0.002546 0.000000 0.000000 0.000000
# 3 -0.010032 -0.002546 0.009002 0.000000 0.000000 0.000000
# 4 0.000000 0.000000 0.000000 0.072940 0.000000 0.000000
# 5 0.000000 0.000000 0.000000 0.000000 0.032671 0.000000
# 6 0.000000 0.000000 0.000000 0.000000 0.000000 0.059104
#
#
# Mechanical properties :
#
#
# Convention : Reuss Voigt Hill
#
# Bulk Modulus (GPa) = 6.11057 42.16848 24.13953
# Shear Modulus (GPa) = 8.61714 23.12016 15.86865
#
# Velocity S-wave (km/s) = 2.19683 3.59840 2.98115
# Velocity P-wave (km/s) = 3.13958 6.39384 5.03677
#
# Compressibility (1/GPa) = 0.16365089
#
# Stress axis : x y z
#
# Youngs Moduli (GPa) = 4.26421 53.18955 111.09012
#
# Poissons Ratio (x) = 1.95484 1.11451
# Poissons Ratio (y) = 0.15672 0.28285
# Poissons Ratio (z) = 0.04278 0.13543
#
# Static dielectric constant tensor:
#      x y z
#    x 1.619020 0.000000 0.000000 
#    y 0.000000 1.603170 0.000000 
#    z 0.000000 0.000000 1.620740 
# 
# From -- ./inp_files/21422.got.cif
#   From: 2010.05.17/outbox.cif.g08.bks.cpg/sg59_11_cif.got.tgz:21422.got - 2010.06.03 14:40:33.
