data_PCOD9447738
_publ_section_title
;
Structure prediction by ZEFSAII (Michael W. Deem and Ramdas Pophale) SiO2 
 PCOD9447738
Probable space group: P M M N
;
_chemical_formula_sum "Si O2"
_cell_formula_units_Z 64
_cell_length_a 7.859662
_cell_length_b 25.309115
_cell_length_c 16.766922
_cell_angle_alpha 90.000000
_cell_angle_beta 90.000000
_cell_angle_gamma 90.000000
_cell_volume 3335.294390
_symmetry_space_group_name_H-M "P M M N"
_symmetry_group_IT_number 59
_space_group.IT_coordinate_system_code '2'
_symmetry_cell_setting 'orthorhombic'
loop_
_space_group_symop_operation_xyz
x,y,z
1/2-x,1/2-y,z
1/2+x,-y,-z
-x,1/2+y,-z
-x,-y,-z
1/2+x,1/2+y,-z
1/2-x,y,z
x,1/2-y,z
loop_
_atom_site_type_symbol
_atom_site_label
_atom_site_fract_x
_atom_site_fract_y
_atom_site_fract_z
Si Si1 0.046667 0.080564 0.721758
Si Si2 0.041906 0.188233 0.132190
Si Si3 0.547226 0.690681 0.689505
Si Si4 0.953703 0.550537 0.449953
Si Si5 0.954283 0.582298 0.953128
Si Si6 0.543810 0.972264 0.116336
Si Si7 0.558197 0.159032 0.481795
Si Si8 0.955751 0.307399 0.651343
O O1 0.250000 0.076483 0.726434
O O2 0.992574 0.048950 0.642522
O O3 0.979318 0.055471 0.803133
O O4 0.007488 0.141877 0.702829
O O5 0.250000 0.188687 0.129210
O O6 0.990761 0.250000 0.116816
O O7 0.986937 0.173213 0.222884
O O8 0.983836 0.140157 0.075183
O O9 0.750000 0.693154 0.697559
O O10 0.480374 0.750000 0.677880
O O11 0.514731 0.661843 0.606667
O O12 0.750000 0.560182 0.452577
O O13 0.000000 0.500000 0.500000
O O14 0.049329 0.599076 0.489977
O O15 0.750000 0.586291 0.958265
O O16 0.994090 0.533676 0.893467
O O17 0.017301 0.560718 0.038820
O O18 0.750000 0.970655 0.115550
O O19 0.750000 0.179008 0.474982
O O20 0.478426 0.187431 0.559656
O O21 0.750000 0.309007 0.646944
O O22 0.007432 0.250000 0.683306
#
# Coordination Sequence:
#
# PCOD9447738 Si02
#       8
#     8   8   8   8   8   8   8   8
#     4   9  19  34  50  70  97 127 158 197 244 288
#     4   8  15  29  48  71  99 127 157 195 236 282
#     4   9  17  29  45  66  93 123 154 190 231 274
#     4  10  20  34  49  66  92 125 160 196 237 285
#     4   9  17  31  53  76  95 123 160 192 232 287
#     4   9  18  33  51  73 100 124 154 199 242 280
#     4  10  19  31  47  67  92 123 160 199 237 278
#     4   9  18  32  49  69  94 125 161 200 240 283
#
# _framework density 19.188711000000001
#
# number of rings (size 3 to 8) (size 9 to 14) (size 15 to 20)
#    0.000    2.875    0.000    1.875    0.000    3.500 
#    0.000    3.750    0.000    3.375    0.000    0.000 
#    0.000    0.000    0.000    0.000    0.000    0.000 
#
# Total GULP energy -356302.853524 kJ/mol
# GULP energy per Si atom -5567.232086 kJ/mol
# Density = 1.914504 g / cm^3
# Si number density = 19.188711 Si / 1000 Ang^3
#
#
#
# Elastic Constant Matrix: (Units=GPa)
#
#
# Indices 1 2 3 4 5 6 
#
# 1 19.2333 -1.8574 8.7693 0.0000 0.0000 0.0000
# 2 -1.8574 130.8735 88.9228 0.0000 0.0000 0.0000
# 3 8.7693 88.9228 121.4635 0.0000 0.0000 0.0000
# 4 0.0000 0.0000 0.0000 13.6169 0.0000 0.0000
# 5 0.0000 0.0000 0.0000 0.0000 5.6975 0.0000
# 6 0.0000 0.0000 0.0000 0.0000 0.0000 17.8571
#
#
#
# Elastic Compliance Matrix: (Units=1/GPa)
#
#
# Indices 1 2 3 4 5 6 
#
# 1 0.056952 0.007167 -0.009359 0.000000 0.000000 0.000000
# 2 0.007167 0.016106 -0.012308 0.000000 0.000000 0.000000
# 3 -0.009359 -0.012308 0.017919 0.000000 0.000000 0.000000
# 4 0.000000 0.000000 0.000000 0.073438 0.000000 0.000000
# 5 0.000000 0.000000 0.000000 0.000000 0.175514 0.000000
# 6 0.000000 0.000000 0.000000 0.000000 0.000000 0.056000
#
#
# Mechanical properties :
#
#
# Convention : Reuss Voigt Hill
#
# Bulk Modulus (GPa) = 16.13485 51.47107 33.80296
# Shear Modulus (GPa) = 11.22109 19.15000 15.18554
#
# Velocity S-wave (km/s) = 2.42084 3.16251 2.81620
# Velocity P-wave (km/s) = 4.02997 6.34170 5.31309
#
# Compressibility (1/GPa) = 0.06197766
#
# Stress axis : x y z
#
# Youngs Moduli (GPa) = 17.55849 62.09001 55.80524
#
# Poissons Ratio (x) = -0.44502 0.52228
# Poissons Ratio (y) = -0.12585 0.68687
# Poissons Ratio (z) = 0.16433 0.76422
#
# Static dielectric constant tensor:
#      x y z
#    x 1.711780 0.000000 0.000000 
#    y 0.000000 1.701820 0.000000 
#    z 0.000000 0.000000 1.698290 
# 
# From -- ./inp_files/21416.got.cif
#   From: 2010.05.17/outbox.cif.g08.bks.cpg/sg59_11_cif.got.tgz:21416.got - 2010.06.03 14:40:33.
