data_PCOD9447009
_publ_section_title
;
Structure prediction by ZEFSAII (Michael W. Deem and Ramdas Pophale) SiO2 
 PCOD9447009
Probable space group: P M M N
;
_chemical_formula_sum "Si O2"
_cell_formula_units_Z 48
_cell_length_a 32.032164
_cell_length_b 8.682931
_cell_length_c 9.217683
_cell_angle_alpha 90.000000
_cell_angle_beta 90.000000
_cell_angle_gamma 90.000000
_cell_volume 2563.742469
_symmetry_space_group_name_H-M "P M M N"
_symmetry_group_IT_number 59
_space_group.IT_coordinate_system_code '2'
_symmetry_cell_setting 'orthorhombic'
loop_
_space_group_symop_operation_xyz
x,y,z
1/2-x,1/2-y,z
1/2+x,-y,-z
-x,1/2+y,-z
-x,-y,-z
1/2+x,1/2+y,-z
1/2-x,y,z
x,1/2-y,z
loop_
_atom_site_type_symbol
_atom_site_label
_atom_site_fract_x
_atom_site_fract_y
_atom_site_fract_z
Si Si1 0.750000 0.932635 0.335300
Si Si2 0.670508 0.435226 0.167981
Si Si3 0.413766 0.565067 0.661942
Si Si4 0.666235 0.063725 0.830060
Si Si5 0.250000 0.564315 0.341363
Si Si6 0.000159 0.565912 0.335504
Si Si7 0.413297 0.433682 0.335495
O O1 0.750000 0.750000 0.341424
O O2 0.790953 0.990497 0.251432
O O3 0.750000 0.998698 0.497587
O O4 0.675212 0.250000 0.176966
O O5 0.626746 0.475201 0.244175
O O6 0.670064 0.477688 0.998929
O O7 0.417544 0.750000 0.653410
O O8 0.456585 0.496189 0.726824
O O9 0.408400 0.499930 0.498967
O O10 0.661947 0.250000 0.820288
O O11 0.708284 0.018724 0.744996
O O12 0.626137 0.987112 0.757248
O O13 0.250000 0.750000 0.349884
O O14 0.000524 0.750000 0.338261
O O15 0.043399 0.502045 0.272323
O O16 0.000000 0.500000 0.500000
O O17 0.416353 0.250000 0.343128
#
# Coordination Sequence:
#
# PCOD9447009 Si02
#       7
#     4   8   8   8   4   8   8
#     4  12  25  38  58  86 116 144 181 228 272 322
#     4  10  22  40  61  82 111 148 186 225 275 333
#     4  10  19  34  57  84 111 144 186 233 279 329
#     4  10  21  39  60  83 109 144 186 228 273 327
#     4  10  21  38  62  84 108 142 183 226 270 322
#     4  10  18  31  53  80 110 145 185 232 278 325
#     4  11  21  34  54  82 114 148 185 229 276 328
#
# _framework density 18.722629000000001
#
# number of rings (size 3 to 8) (size 9 to 14) (size 15 to 20)
#    0.000    1.667    0.000    7.750    0.000    8.000 
#    0.000    1.667    0.000    0.000    0.000    0.000 
#    0.000    0.000    0.000    0.000    0.000    0.000 
#
# Total GULP energy -268186.234641 kJ/mol
# GULP energy per Si atom -5587.213222 kJ/mol
# Density = 1.868002 g / cm^3
# Si number density = 18.722629 Si / 1000 Ang^3
#
#
#
# Elastic Constant Matrix: (Units=GPa)
#
#
# Indices 1 2 3 4 5 6 
#
# 1 228.7968 83.8720 98.9383 0.0000 0.0000 0.0000
# 2 83.8720 90.3392 48.4942 0.0000 0.0000 0.0000
# 3 98.9383 48.4942 118.2406 0.0000 0.0000 0.0000
# 4 0.0000 0.0000 0.0000 2.1678 0.0000 0.0000
# 5 0.0000 0.0000 0.0000 0.0000 -21.1585 0.0000
# 6 0.0000 0.0000 0.0000 0.0000 0.0000 35.6489
#
#
#
# Elastic Compliance Matrix: (Units=1/GPa)
#
#
# Indices 1 2 3 4 5 6 
#
# 1 0.008375 -0.005147 -0.004897 0.000000 0.000000 0.000000
# 2 -0.005147 0.017357 -0.002812 0.000000 0.000000 0.000000
# 3 -0.004897 -0.002812 0.013708 0.000000 0.000000 0.000000
# 4 0.000000 0.000000 0.000000 0.461301 0.000000 0.000000
# 5 0.000000 0.000000 0.000000 0.000000 -0.047262 0.000000
# 6 0.000000 0.000000 0.000000 0.000000 0.000000 0.028051
#
#
# Mechanical properties :
#
#
# Convention : Reuss Voigt Hill
#
# Bulk Modulus (GPa) = 72.84011 99.99841 86.41926
# Shear Modulus (GPa) = 9.76909 17.06979 13.41944
#
# Velocity S-wave (km/s) = 2.28673 3.02275 2.68012
# Velocity P-wave (km/s) = 6.77949 8.10611 7.47230
#
# Compressibility (1/GPa) = 0.01372870
#
# Stress axis : x y z
#
# Youngs Moduli (GPa) = 119.40387 57.61267 72.94882
#
# Poissons Ratio (x) = 0.29652 0.35722
# Poissons Ratio (y) = 0.61454 0.20515
# Poissons Ratio (z) = 0.58471 0.16202
#
# Static dielectric constant tensor:
#      x y z
#    x 1.662460 0.000000 0.000000 
#    y 0.000000 1.629270 0.000000 
#    z 0.000000 0.000000 1.621460 
# 
# From -- ./inp_files/13004.got.cif
#   From: 2010.05.17/outbox.cif.g08.bks.cpg/sg59_7_cif.got.tgz:13004.got - 2010.06.03 14:40:33.
