data_PCOD9447223
_publ_section_title
;
Structure prediction by ZEFSAII (Michael W. Deem and Ramdas Pophale) SiO2 
 PCOD9447223
Probable space group: P M M N
;
_chemical_formula_sum "Si O2"
_cell_formula_units_Z 48
_cell_length_a 14.581283
_cell_length_b 8.400406
_cell_length_c 20.865991
_cell_angle_alpha 90.000000
_cell_angle_beta 90.000000
_cell_angle_gamma 90.000000
_cell_volume 2555.848053
_symmetry_space_group_name_H-M "P M M N"
_symmetry_group_IT_number 59
_space_group.IT_coordinate_system_code '2'
_symmetry_cell_setting 'orthorhombic'
loop_
_space_group_symop_operation_xyz
x,y,z
1/2-x,1/2-y,z
1/2+x,-y,-z
-x,1/2+y,-z
-x,-y,-z
1/2+x,1/2+y,-z
1/2-x,y,z
x,1/2-y,z
loop_
_atom_site_type_symbol
_atom_site_label
_atom_site_fract_x
_atom_site_fract_y
_atom_site_fract_z
Si Si1 0.250000 0.560875 0.361191
Si Si2 0.750000 0.942831 0.993258
Si Si3 0.442441 0.442051 0.060229
Si Si4 0.552923 0.557299 0.684097
Si Si5 0.549778 0.444565 0.186572
Si Si6 0.939920 0.059103 0.440820
Si Si7 0.250000 0.557469 0.859196
Si Si8 0.250000 0.061418 0.508374
O O1 0.250000 0.750000 0.359758
O O2 0.156784 0.499996 0.327509
O O3 0.250000 0.507650 0.435964
O O4 0.750000 0.750000 0.996828
O O5 0.750000 0.004258 0.066383
O O6 0.660622 0.994979 0.954223
O O7 0.443127 0.250000 0.061855
O O8 0.490019 0.497118 0.125444
O O9 0.500000 0.500000 0.000000
O O10 0.555922 0.750000 0.684738
O O11 0.501891 0.504062 0.748912
O O12 0.490318 0.506630 0.623991
O O13 0.551169 0.250000 0.187469
O O14 0.655473 0.495303 0.175214
O O15 0.936490 0.250000 0.440758
O O16 0.839051 0.993492 0.452954
O O17 0.000000 0.000000 0.500000
O O18 0.250000 0.750000 0.859077
O O19 0.250000 0.250000 0.501300
#
# Coordination Sequence:
#
# PCOD9447223 Si02
#       8
#     4   4   8   8   8   8   4   4
#     4  12  24  39  62  88 118 154 196 245 302 358
#     4  10  20  31  50  82 116 148 186 232 287 341
#     4  10  19  33  54  82 112 147 191 237 284 336
#     4  10  22  40  62  87 118 156 197 241 297 359
#     4   9  19  35  58  86 114 149 194 240 284 345
#     4  11  22  37  61  91 121 154 199 249 298 352
#     4  10  18  33  58  84 110 146 192 236 282 336
#     4  12  24  39  62  90 122 160 204 247 295 353
#
# _framework density 18.780460000000001
#
# number of rings (size 3 to 8) (size 9 to 14) (size 15 to 20)
#    0.000    1.667    3.333    2.000    0.000    2.000 
#    0.000    6.667    0.000    2.000    0.000    0.000 
#    0.000    0.000    0.000    0.000    0.000    0.000 
#
# Total GULP energy -267998.199894 kJ/mol
# GULP energy per Si atom -5583.295831 kJ/mol
# Density = 1.873771 g / cm^3
# Si number density = 18.780460 Si / 1000 Ang^3
#
#
#
# Elastic Constant Matrix: (Units=GPa)
#
#
# Indices 1 2 3 4 5 6 
#
# 1 237.1369 28.3622 120.9031 0.0000 0.0000 0.0000
# 2 28.3622 22.3370 23.9191 0.0000 0.0000 0.0000
# 3 120.9031 23.9191 188.4508 0.0000 0.0000 0.0000
# 4 0.0000 0.0000 0.0000 24.2393 0.0000 0.0000
# 5 0.0000 0.0000 0.0000 0.0000 31.5157 0.0000
# 6 0.0000 0.0000 0.0000 0.0000 0.0000 25.9088
#
#
#
# Elastic Compliance Matrix: (Units=1/GPa)
#
#
# Indices 1 2 3 4 5 6 
#
# 1 0.006632 -0.004472 -0.003687 0.000000 0.000000 0.000000
# 2 -0.004472 0.054827 -0.004090 0.000000 0.000000 0.000000
# 3 -0.003687 -0.004090 0.008191 0.000000 0.000000 0.000000
# 4 0.000000 0.000000 0.000000 0.041255 0.000000 0.000000
# 5 0.000000 0.000000 0.000000 0.000000 0.031730 0.000000
# 6 0.000000 0.000000 0.000000 0.000000 0.000000 0.038597
#
#
# Mechanical properties :
#
#
# Convention : Reuss Voigt Hill
#
# Bulk Modulus (GPa) = 22.14771 88.25486 55.20129
# Shear Modulus (GPa) = 22.64698 34.64878 28.64788
#
# Velocity S-wave (km/s) = 3.47635 4.29993 3.90989
# Velocity P-wave (km/s) = 5.28506 8.47039 7.05972
#
# Compressibility (1/GPa) = 0.04515140
#
# Stress axis : x y z
#
# Youngs Moduli (GPa) = 150.79155 18.23931 122.08634
#
# Poissons Ratio (x) = 0.08157 0.45013
# Poissons Ratio (y) = 0.67439 0.49928
# Poissons Ratio (z) = 0.55597 0.07459
#
# Static dielectric constant tensor:
#      x y z
#    x 1.601140 0.000000 0.000000 
#    y 0.000000 1.649290 0.000000 
#    z 0.000000 0.000000 1.619670 
# 
# From -- ./inp_files/27491.got.cif
#   From: 2010.05.17/outbox.cif.g08.bks.cpg/sg59_14_cif.got.tgz:27491.got - 2010.06.03 14:40:33.
