data_PCOD9447020
_publ_section_title
;
Structure prediction by ZEFSAII (Michael W. Deem and Ramdas Pophale) SiO2 
 PCOD9447020
Probable space group: P M M N
;
_chemical_formula_sum "Si O2"
_cell_formula_units_Z 56
_cell_length_a 7.754085
_cell_length_b 15.421654
_cell_length_c 22.395679
_cell_angle_alpha 90.000000
_cell_angle_beta 90.000000
_cell_angle_gamma 90.000000
_cell_volume 2678.093569
_symmetry_space_group_name_H-M "P M M N"
_symmetry_group_IT_number 59
_space_group.IT_coordinate_system_code '2'
_symmetry_cell_setting 'orthorhombic'
loop_
_space_group_symop_operation_xyz
x,y,z
1/2-x,1/2-y,z
1/2+x,-y,-z
-x,1/2+y,-z
-x,-y,-z
1/2+x,1/2+y,-z
1/2-x,y,z
x,1/2-y,z
loop_
_atom_site_type_symbol
_atom_site_label
_atom_site_fract_x
_atom_site_fract_y
_atom_site_fract_z
Si Si1 0.057612 0.750000 0.403694
Si Si2 0.952281 0.991487 0.213281
Si Si3 0.956781 0.100532 0.008414
Si Si4 0.452711 0.075751 0.661443
Si Si5 0.040954 0.655216 0.120723
Si Si6 0.461498 0.847034 0.859800
Si Si7 0.946841 0.750000 0.534796
Si Si8 0.543015 0.943334 0.558650
O O1 0.250000 0.750000 0.428578
O O2 0.032337 0.836604 0.365214
O O3 0.941895 0.750000 0.462660
O O4 0.750000 0.007566 0.225266
O O5 0.026415 0.953875 0.274642
O O6 0.968542 0.920462 0.161386
O O7 0.024890 0.080141 0.185896
O O8 0.750000 0.111581 0.009805
O O9 0.017679 0.146416 0.947950
O O10 0.020937 0.133026 0.072473
O O11 0.000000 0.000000 0.000000
O O12 0.250000 0.094907 0.668250
O O13 0.474982 0.997340 0.614854
O O14 0.250000 0.648275 0.121275
O O15 0.993104 0.750000 0.144051
O O16 0.250000 0.851371 0.860891
O O17 0.510501 0.750000 0.842995
O O18 0.750000 0.750000 0.557442
O O19 0.022615 0.656232 0.553643
O O20 0.750000 0.939899 0.562427
O O21 0.500000 0.000000 0.500000
#
# Coordination Sequence:
#
# PCOD9447020 Si02
#       8
#     4   8   8   8   8   8   4   8
#     4  12  24  38  64  94 118 156 203 236 283 358
#     4  10  22  39  58  82 111 151 195 236 286 340
#     4  10  18  31  54  80 109 143 181 232 291 345
#     4  11  24  41  59  86 125 160 194 246 298 346
#     4  10  21  35  53  81 113 145 184 233 289 345
#     4   9  17  33  58  82 106 142 191 239 286 346
#     4  10  22  40  64  92 126 158 191 242 299 344
#     4  11  22  39  64  92 122 158 198 241 292 348
#
# _framework density 20.910397
#
# number of rings (size 3 to 8) (size 9 to 14) (size 15 to 20)
#    0.000    1.714    2.857    1.929    1.000    3.714 
#    1.286    0.000    0.000    2.571    0.000    0.000 
#    0.000    0.000    0.000    0.000    0.000    0.000 
#
# Total GULP energy -312766.255315 kJ/mol
# GULP energy per Si atom -5585.111702 kJ/mol
# Density = 2.086280 g / cm^3
# Si number density = 20.910397 Si / 1000 Ang^3
#
#
#
# Elastic Constant Matrix: (Units=GPa)
#
#
# Indices 1 2 3 4 5 6 
#
# 1 35.5078 -11.0403 -7.3942 0.0000 0.0000 0.0000
# 2 -11.0403 174.1873 50.2678 0.0000 0.0000 0.0000
# 3 -7.3942 50.2678 97.8685 0.0000 0.0000 0.0000
# 4 0.0000 0.0000 0.0000 4.3300 0.0000 0.0000
# 5 0.0000 0.0000 0.0000 0.0000 13.0042 0.0000
# 6 0.0000 0.0000 0.0000 0.0000 0.0000 23.3136
#
#
#
# Elastic Compliance Matrix: (Units=1/GPa)
#
#
# Indices 1 2 3 4 5 6 
#
# 1 0.028905 0.001411 0.001459 0.000000 0.000000 0.000000
# 2 0.001411 0.006809 -0.003391 0.000000 0.000000 0.000000
# 3 0.001459 -0.003391 0.012070 0.000000 0.000000 0.000000
# 4 0.000000 0.000000 0.000000 0.230949 0.000000 0.000000
# 5 0.000000 0.000000 0.000000 0.000000 0.076898 0.000000
# 6 0.000000 0.000000 0.000000 0.000000 0.000000 0.042893
#
#
# Mechanical properties :
#
#
# Convention : Reuss Voigt Hill
#
# Bulk Modulus (GPa) = 21.39362 41.24780 31.32071
# Shear Modulus (GPa) = 12.04394 26.51156 19.27775
#
# Velocity S-wave (km/s) = 2.40256 3.56457 3.03961
# Velocity P-wave (km/s) = 4.23671 6.05891 5.22781
#
# Compressibility (1/GPa) = 0.04674292
#
# Stress axis : x y z
#
# Youngs Moduli (GPa) = 34.59557 146.86757 82.85323
#
# Poissons Ratio (x) = -0.20723 -0.12090
# Poissons Ratio (y) = -0.04881 0.28092
# Poissons Ratio (z) = -0.05048 0.49797
#
# Static dielectric constant tensor:
#      x y z
#    x 1.779330 0.000000 0.000000 
#    y 0.000000 1.677100 0.000000 
#    z 0.000000 0.000000 1.731360 
# 
# From -- ./inp_files/29225.got.cif
#   From: 2010.05.17/outbox.cif.g08.bks.cpg/sg59_15_cif.got.tgz:29225.got - 2010.06.03 14:40:33.
