data_PCOD9447580
_publ_section_title
;
Structure prediction by ZEFSAII (Michael W. Deem and Ramdas Pophale) SiO2 
 PCOD9447580
Probable space group: P M M N
;
_chemical_formula_sum "Si O2"
_cell_formula_units_Z 56
_cell_length_a 22.745488
_cell_length_b 11.159205
_cell_length_c 13.377877
_cell_angle_alpha 90.000000
_cell_angle_beta 90.000000
_cell_angle_gamma 90.000000
_cell_volume 3395.593655
_symmetry_space_group_name_H-M "P M M N"
_symmetry_group_IT_number 59
_space_group.IT_coordinate_system_code '2'
_symmetry_cell_setting 'orthorhombic'
loop_
_space_group_symop_operation_xyz
x,y,z
1/2-x,1/2-y,z
1/2+x,-y,-z
-x,1/2+y,-z
-x,-y,-z
1/2+x,1/2+y,-z
1/2-x,y,z
x,1/2-y,z
loop_
_atom_site_type_symbol
_atom_site_label
_atom_site_fract_x
_atom_site_fract_y
_atom_site_fract_z
Si Si1 0.072302 0.386523 0.053799
Si Si2 0.178909 0.750000 0.203002
Si Si3 0.678988 0.250000 0.559527
Si Si4 0.006435 0.887602 0.143350
Si Si5 0.096977 0.964595 0.474677
Si Si6 0.475204 0.387879 0.628394
Si Si7 0.685177 0.891788 0.656871
Si Si8 0.817683 0.994816 0.879438
O O1 0.065628 0.250000 0.093591
O O2 0.045843 0.494613 0.121210
O O3 0.140339 0.422672 0.047301
O O4 0.040303 0.389544 0.947081
O O5 0.250000 0.750000 0.205724
O O6 0.162495 0.750000 0.320706
O O7 0.161839 0.630095 0.144841
O O8 0.750000 0.250000 0.551452
O O9 0.646216 0.136812 0.511532
O O10 0.032419 0.750000 0.142419
O O11 0.978656 0.902520 0.252610
O O12 0.040300 0.913640 0.415729
O O13 0.070539 0.025083 0.573535
O O14 0.131206 0.059244 0.406005
O O15 0.460185 0.250000 0.605484
O O16 0.750000 0.939467 0.623707
O O17 0.686390 0.750000 0.650421
O O18 0.679271 0.930583 0.771687
O O19 0.750000 0.997450 0.911813
#
# Coordination Sequence:
#
# PCOD9447580 Si02
#       8
#     8   4   4   8   8   8   8   8
#     4  10  20  34  53  80 105 132 174 215 265 316
#     4   9  18  30  48  77 107 137 173 207 254 321
#     4  11  20  34  54  79 107 137 178 217 264 323
#     4   9  20  37  56  75 102 141 176 216 259 309
#     4  11  20  32  51  76 103 137 171 217 260 312
#     4  10  21  36  52  74 104 139 180 213 256 315
#     4  10  19  30  46  72 104 136 167 210 270 320
#     4  10  19  30  48  75 106 136 167 211 261 315
#
# _framework density 16.491962999999998
#
# number of rings (size 3 to 8) (size 9 to 14) (size 15 to 20)
#    0.000    2.000    2.143    2.143    1.000    0.857 
#    1.286    0.000    0.000    1.714    0.000    5.000 
#    0.000    0.000    0.000    0.000    0.000    0.000 
#
# Total GULP energy -312062.723096 kJ/mol
# GULP energy per Si atom -5572.548627 kJ/mol
# Density = 1.645443 g / cm^3
# Si number density = 16.491963 Si / 1000 Ang^3
#
#
#
# Elastic Constant Matrix: (Units=GPa)
#
#
# Indices 1 2 3 4 5 6 
#
# 1 68.7662 46.9945 -1.1112 0.0000 0.0000 0.0000
# 2 46.9945 115.6402 25.9944 0.0000 0.0000 0.0000
# 3 -1.1112 25.9944 10.7746 0.0000 0.0000 0.0000
# 4 0.0000 0.0000 0.0000 22.5917 0.0000 0.0000
# 5 0.0000 0.0000 0.0000 0.0000 9.5550 0.0000
# 6 0.0000 0.0000 0.0000 0.0000 0.0000 31.9926
#
#
#
# Elastic Compliance Matrix: (Units=1/GPa)
#
#
# Indices 1 2 3 4 5 6 
#
# 1 0.045396 -0.042608 0.107475 0.000000 0.000000 0.000000
# 2 -0.042608 0.058884 -0.146456 0.000000 0.000000 0.000000
# 3 0.107475 -0.146456 0.457230 0.000000 0.000000 0.000000
# 4 0.000000 0.000000 0.000000 0.044264 0.000000 0.000000
# 5 0.000000 0.000000 0.000000 0.000000 0.104657 0.000000
# 6 0.000000 0.000000 0.000000 0.000000 0.000000 0.031257
#
#
# Mechanical properties :
#
#
# Convention : Reuss Voigt Hill
#
# Bulk Modulus (GPa) = 2.51045 37.65962 20.08504
# Shear Modulus (GPa) = 4.81861 21.04807 12.93334
#
# Velocity S-wave (km/s) = 1.71118 3.57636 2.80343
# Velocity P-wave (km/s) = 2.33017 6.31969 4.76278
#
# Compressibility (1/GPa) = 0.39833457
#
# Stress axis : x y z
#
# Youngs Moduli (GPa) = 22.02815 16.98254 2.18708
#
# Poissons Ratio (x) = 0.72358 -0.23506
# Poissons Ratio (y) = 0.93857 0.32031
# Poissons Ratio (z) = -2.36748 2.48719
#
# Static dielectric constant tensor:
#      x y z
#    x 1.592600 0.000000 0.000000 
#    y 0.000000 1.606250 0.000000 
#    z 0.000000 0.000000 1.511140 
# 
# From -- ./inp_files/18721.got.cif
#   From: 2010.05.17/outbox.cif.g08.bks.cpg/sg59_10_cif.got.tgz:18721.got - 2010.06.03 14:40:33.
