data_PCOD9447808
_publ_section_title
;
Structure prediction by ZEFSAII (Michael W. Deem and Ramdas Pophale) SiO2 
 PCOD9447808
Probable space group: P M M N
;
_chemical_formula_sum "Si O2"
_cell_formula_units_Z 64
_cell_length_a 29.202268
_cell_length_b 7.453226
_cell_length_c 14.523617
_cell_angle_alpha 90.000000
_cell_angle_beta 90.000000
_cell_angle_gamma 90.000000
_cell_volume 3161.081261
_symmetry_space_group_name_H-M "P M M N"
_symmetry_group_IT_number 59
_space_group.IT_coordinate_system_code '2'
_symmetry_cell_setting 'orthorhombic'
loop_
_space_group_symop_operation_xyz
x,y,z
1/2-x,1/2-y,z
1/2+x,-y,-z
-x,1/2+y,-z
-x,-y,-z
1/2+x,1/2+y,-z
1/2-x,y,z
x,1/2-y,z
loop_
_atom_site_type_symbol
_atom_site_label
_atom_site_fract_x
_atom_site_fract_y
_atom_site_fract_z
Si Si1 0.850590 0.039749 0.416368
Si Si2 0.699348 0.965416 0.754525
Si Si3 0.623230 0.548841 0.107561
Si Si4 0.432622 0.032189 0.726302
Si Si5 0.300104 0.531711 0.751047
Si Si6 0.698123 0.969259 0.967761
Si Si7 0.619640 0.036520 0.611043
Si Si8 0.983559 0.465143 0.605245
O O1 0.841632 0.250000 0.430503
O O2 0.809336 0.972984 0.353438
O O3 0.860362 0.960242 0.515564
O O4 0.894597 0.021041 0.349679
O O5 0.750000 0.028697 0.722342
O O6 0.701009 0.750000 0.755607
O O7 0.693677 0.021400 0.860832
O O8 0.656471 0.013758 0.691377
O O9 0.609158 0.750000 0.078724
O O10 0.582236 0.468692 0.170875
O O11 0.662564 0.555762 0.184948
O O12 0.653561 0.466149 0.024831
O O13 0.432476 0.250000 0.731233
O O14 0.480103 0.969435 0.681322
O O15 0.250000 0.483378 0.781998
O O16 0.305191 0.750000 0.756285
O O17 0.750000 0.024940 0.997877
O O18 0.697610 0.750000 0.973893
O O19 0.613850 0.250000 0.598388
O O20 0.567903 0.966716 0.622853
O O21 0.983437 0.250000 0.614307
O O22 0.000000 0.500000 0.500000
#
# Coordination Sequence:
#
# PCOD9447808 Si02
#       8
#     8   8   8   8   8   8   8   8
#     4   9  17  29  43  60  86 122 159 188 221 273
#     4   9  19  35  52  70  92 119 155 199 242 281
#     4   9  16  27  46  69  90 116 149 187 233 280
#     4   9  17  28  44  69  97 120 149 191 235 273
#     4   9  17  27  38  57  88 121 149 181 222 270
#     4   8  14  27  48  70  90 115 151 194 237 284
#     4  10  20  32  48  70  94 124 162 197 234 280
#     4  10  19  31  48  71  97 127 162 198 233 273
#
# _framework density 20.246236
#
# number of rings (size 3 to 8) (size 9 to 14) (size 15 to 20)
#    0.000    2.875    1.250    1.125    0.000    2.500 
#    0.000    1.875    0.000    1.500    0.000    0.000 
#    0.000    0.000    0.000    0.000    0.000    0.000 
#
# Total GULP energy -356348.050524 kJ/mol
# GULP energy per Si atom -5567.938289 kJ/mol
# Density = 2.020015 g / cm^3
# Si number density = 20.246236 Si / 1000 Ang^3
#
#
#
# Elastic Constant Matrix: (Units=GPa)
#
#
# Indices 1 2 3 4 5 6 
#
# 1 95.3953 -10.2689 49.3789 0.0000 0.0000 0.0000
# 2 -10.2689 55.5749 -12.3760 0.0000 0.0000 0.0000
# 3 49.3789 -12.3760 88.6883 0.0000 0.0000 0.0000
# 4 0.0000 0.0000 0.0000 9.6617 0.0000 0.0000
# 5 0.0000 0.0000 0.0000 0.0000 33.4191 0.0000
# 6 0.0000 0.0000 0.0000 0.0000 0.0000 17.2402
#
#
#
# Elastic Compliance Matrix: (Units=1/GPa)
#
#
# Indices 1 2 3 4 5 6 
#
# 1 0.014773 0.000927 -0.008096 0.000000 0.000000 0.000000
# 2 0.000927 0.018629 0.002084 0.000000 0.000000 0.000000
# 3 -0.008096 0.002084 0.016074 0.000000 0.000000 0.000000
# 4 0.000000 0.000000 0.000000 0.103501 0.000000 0.000000
# 5 0.000000 0.000000 0.000000 0.000000 0.029923 0.000000
# 6 0.000000 0.000000 0.000000 0.000000 0.000000 0.058004
#
#
# Mechanical properties :
#
#
# Convention : Reuss Voigt Hill
#
# Bulk Modulus (GPa) = 25.44217 32.56960 29.00589
# Shear Modulus (GPa) = 18.92675 26.25917 22.59296
#
# Velocity S-wave (km/s) = 3.06081 3.60528 3.34415
# Velocity P-wave (km/s) = 5.00850 5.78381 5.41006
#
# Compressibility (1/GPa) = 0.03930482
#
# Stress axis : x y z
#
# Youngs Moduli (GPa) = 67.69071 53.67984 62.21340
#
# Poissons Ratio (x) = -0.04975 0.50367
# Poissons Ratio (y) = -0.06274 -0.12962
# Poissons Ratio (z) = 0.54801 -0.11184
#
# Static dielectric constant tensor:
#      x y z
#    x 1.749650 0.000000 0.000000 
#    y 0.000000 1.760260 0.000000 
#    z 0.000000 0.000000 1.735900 
# 
# From -- ./inp_files/25043.got.cif
#   From: 2010.05.17/outbox.cif.g08.bks.cpg/sg59_13_cif.got.tgz:25043.got - 2010.06.03 14:40:33.
