data_PCOD9447013
_publ_section_title
;
Structure prediction by ZEFSAII (Michael W. Deem and Ramdas Pophale) SiO2 
 PCOD9447013
Probable space group: P M M N
;
_chemical_formula_sum "Si O2"
_cell_formula_units_Z 40
_cell_length_a 18.113963
_cell_length_b 20.845515
_cell_length_c 6.537816
_cell_angle_alpha 90.000000
_cell_angle_beta 90.000000
_cell_angle_gamma 90.000000
_cell_volume 2468.645897
_symmetry_space_group_name_H-M "P M M N"
_symmetry_group_IT_number 59
_space_group.IT_coordinate_system_code '2'
_symmetry_cell_setting 'orthorhombic'
loop_
_space_group_symop_operation_xyz
x,y,z
1/2-x,1/2-y,z
1/2+x,-y,-z
-x,1/2+y,-z
-x,-y,-z
1/2+x,1/2+y,-z
1/2-x,y,z
x,1/2-y,z
loop_
_atom_site_type_symbol
_atom_site_label
_atom_site_fract_x
_atom_site_fract_y
_atom_site_fract_z
Si Si1 0.025859 0.821740 0.157403
Si Si2 0.577189 0.102075 0.461683
Si Si3 0.835356 0.016098 0.784933
Si Si4 0.333783 0.637970 0.921747
Si Si5 0.966673 0.936966 0.890214
O O1 0.995309 0.750000 0.151148
O O2 0.040212 0.847124 0.385535
O O3 0.106209 0.822635 0.048690
O O4 0.979808 0.875191 0.032960
O O5 0.619372 0.050444 0.602466
O O6 0.637158 0.132794 0.308915
O O7 0.514203 0.073213 0.315366
O O8 0.750000 0.004868 0.731770
O O9 0.882023 0.953762 0.844981
O O10 0.836560 0.067211 0.972683
O O11 0.250000 0.661096 0.935134
O O12 0.000000 0.000000 0.000000
#
# Coordination Sequence:
#
# PCOD9447013 Si02
#       5
#     8   8   8   8   8
#     4  10  22  35  49  73 105 140 179 215 255 310
#     4  10  18  31  54  75 106 137 177 208 262 308
#     4  10  19  31  51  83 108 130 167 219 267 310
#     4   9  18  32  50  74 108 140 170 208 253 306
#     4  11  19  35  57  78 103 137 174 220 260 305
#
# _framework density 16.203216000000001
#
# number of rings (size 3 to 8) (size 9 to 14) (size 15 to 20)
#    0.000    2.000    6.000    1.200    0.000    4.400 
#    0.000    0.000    0.000    0.600    0.000    0.000 
#    0.000    0.000    0.000    0.000    0.000    0.000 
#
# Total GULP energy -222971.347763 kJ/mol
# GULP energy per Si atom -5574.283694 kJ/mol
# Density = 1.616634 g / cm^3
# Si number density = 16.203216 Si / 1000 Ang^3
#
#
#
# Elastic Constant Matrix: (Units=GPa)
#
#
# Indices 1 2 3 4 5 6 
#
# 1 57.9656 37.8435 15.0071 0.0000 0.0000 0.0000
# 2 37.8435 106.3584 44.2188 0.0000 0.0000 0.0000
# 3 15.0071 44.2188 100.9313 0.0000 0.0000 0.0000
# 4 0.0000 0.0000 0.0000 1.1527 0.0000 0.0000
# 5 0.0000 0.0000 0.0000 0.0000 10.8333 0.0000
# 6 0.0000 0.0000 0.0000 0.0000 0.0000 13.3051
#
#
#
# Elastic Compliance Matrix: (Units=1/GPa)
#
#
# Indices 1 2 3 4 5 6 
#
# 1 0.022475 -0.008079 0.000198 0.000000 0.000000 0.000000
# 2 -0.008079 0.014400 -0.005108 0.000000 0.000000 0.000000
# 3 0.000198 -0.005108 0.012116 0.000000 0.000000 0.000000
# 4 0.000000 0.000000 0.000000 0.867530 0.000000 0.000000
# 5 0.000000 0.000000 0.000000 0.000000 0.092308 0.000000
# 6 0.000000 0.000000 0.000000 0.000000 0.000000 0.075159
#
#
# Mechanical properties :
#
#
# Convention : Reuss Voigt Hill
#
# Bulk Modulus (GPa) = 43.45292 51.04378 47.24835
# Shear Modulus (GPa) = 4.47372 16.27062 10.37217
#
# Velocity S-wave (km/s) = 1.66343 3.17229 2.53282
# Velocity P-wave (km/s) = 5.52856 6.70735 6.14628
#
# Compressibility (1/GPa) = 0.02301341
#
# Stress axis : x y z
#
# Youngs Moduli (GPa) = 44.49407 69.44290 82.53540
#
# Poissons Ratio (x) = 0.56103 -0.01633
# Poissons Ratio (y) = 0.35947 0.42156
# Poissons Ratio (z) = -0.00880 0.35469
#
# Static dielectric constant tensor:
#      x y z
#    x 1.545780 0.000000 0.000000 
#    y 0.000000 1.567380 0.000000 
#    z 0.000000 0.000000 1.556760 
# 
# From -- ./inp_files/2636.got.cif
#   From: 2010.05.17/outbox.cif.g08.bks.cpg/sg59_2_cif.got.tgz:2636.got - 2010.06.03 14:40:33.
