data_PCOD9447585
_publ_section_title
;
Structure prediction by ZEFSAII (Michael W. Deem and Ramdas Pophale) SiO2 
 PCOD9447585
Probable space group: P M M N
;
_chemical_formula_sum "Si O2"
_cell_formula_units_Z 64
_cell_length_a 9.411324
_cell_length_b 14.936924
_cell_length_c 21.893690
_cell_angle_alpha 90.000000
_cell_angle_beta 90.000000
_cell_angle_gamma 90.000000
_cell_volume 3077.732430
_symmetry_space_group_name_H-M "P M M N"
_symmetry_group_IT_number 59
_space_group.IT_coordinate_system_code '2'
_symmetry_cell_setting 'orthorhombic'
loop_
_space_group_symop_operation_xyz
x,y,z
1/2-x,1/2-y,z
1/2+x,-y,-z
-x,1/2+y,-z
-x,-y,-z
1/2+x,1/2+y,-z
1/2-x,y,z
x,1/2-y,z
loop_
_atom_site_type_symbol
_atom_site_label
_atom_site_fract_x
_atom_site_fract_y
_atom_site_fract_z
Si Si1 0.908683 0.902894 0.122739
Si Si2 0.079141 0.591775 0.369588
Si Si3 0.580919 0.405272 0.498108
Si Si4 0.420239 0.598854 0.634338
Si Si5 0.087780 0.607999 0.237322
Si Si6 0.910696 0.145001 0.993224
Si Si7 0.086225 0.111237 0.246812
Si Si8 0.911405 0.115696 0.130484
O O1 0.750000 0.866643 0.116653
O O2 0.989869 0.863629 0.181310
O O3 0.993448 0.894066 0.059824
O O4 0.900934 0.008684 0.135182
O O5 0.250000 0.569184 0.366970
O O6 0.054675 0.637936 0.435350
O O7 0.048839 0.640167 0.305514
O O8 0.982763 0.502436 0.369490
O O9 0.500000 0.500000 0.500000
O O10 0.750000 0.422458 0.495240
O O11 0.546516 0.360821 0.432860
O O12 0.250000 0.599216 0.643676
O O13 0.499278 0.638401 0.692947
O O14 0.250000 0.633302 0.223862
O O15 0.083912 0.498568 0.242770
O O16 0.750000 0.106264 0.992032
O O17 0.901154 0.250000 0.980519
O O18 0.965606 0.135140 0.062313
O O19 0.250000 0.137635 0.250845
O O20 0.010705 0.145295 0.185604
O O21 0.750000 0.150788 0.135285
#
# Coordination Sequence:
#
# PCOD9447585 Si02
#       8
#     8   8   8   8   8   8   8   8
#     4  10  19  30  47  69  91 115 145 183 219 254
#     4   8  13  21  31  45  68 100 138 177 214 253
#     4   8  13  19  27  41  64  97 136 173 210 252
#     4   9  14  19  29  46  70 101 136 175 215 254
#     4   8  14  24  38  55  77 106 140 178 216 254
#     4  10  21  36  52  69  91 118 144 173 214 264
#     4   9  16  25  38  56  78 106 140 178 217 255
#     4   9  18  32  49  69  90 113 145 182 218 257
#
# _framework density 20.794529000000001
#
# number of rings (size 3 to 8) (size 9 to 14) (size 15 to 20)
#    0.000    3.125    0.000    2.250    0.000    4.750 
#    0.000    0.000    0.000    0.000    0.000    0.000 
#    0.000    0.000    0.000    1.125    0.000   24.500 
#
# Total GULP energy -356546.601027 kJ/mol
# GULP energy per Si atom -5571.040641 kJ/mol
# Density = 2.074720 g / cm^3
# Si number density = 20.794529 Si / 1000 Ang^3
#
#
#
# Elastic Constant Matrix: (Units=GPa)
#
#
# Indices 1 2 3 4 5 6 
#
# 1 96.3917 9.2825 113.5889 0.0000 0.0000 0.0000
# 2 9.2825 46.3139 8.6196 0.0000 0.0000 0.0000
# 3 113.5889 8.6196 243.6325 0.0000 0.0000 0.0000
# 4 0.0000 0.0000 0.0000 -33.6175 0.0000 0.0000
# 5 0.0000 0.0000 0.0000 0.0000 26.5322 0.0000
# 6 0.0000 0.0000 0.0000 0.0000 0.0000 -15.4477
#
#
#
# Elastic Compliance Matrix: (Units=1/GPa)
#
#
# Indices 1 2 3 4 5 6 
#
# 1 0.023348 -0.002671 -0.010791 0.000000 0.000000 0.000000
# 2 -0.002671 0.022040 0.000466 0.000000 0.000000 0.000000
# 3 -0.010791 0.000466 0.009119 0.000000 0.000000 0.000000
# 4 0.000000 0.000000 0.000000 -0.029746 0.000000 0.000000
# 5 0.000000 0.000000 0.000000 0.000000 0.037690 0.000000
# 6 0.000000 0.000000 0.000000 0.000000 0.000000 -0.064735
#
#
# Mechanical properties :
#
#
# Convention : Reuss Voigt Hill
#
# Bulk Modulus (GPa) = 35.07004 72.14668 53.60836
# Shear Modulus (GPa) = 150.53953 12.48322 81.51137
#
# Velocity S-wave (km/s) = 8.51769 2.45279 6.26766
# Velocity P-wave (km/s) = 10.66003 6.54155 8.84387
#
# Compressibility (1/GPa) = 0.02851436
#
# Stress axis : x y z
#
# Youngs Moduli (GPa) = 42.83087 45.37103 109.65989
#
# Poissons Ratio (x) = 0.12119 1.18333
# Poissons Ratio (y) = 0.11441 -0.05106
# Poissons Ratio (z) = 0.46218 -0.02112
#
# Static dielectric constant tensor:
#      x y z
#    x 1.726020 0.000000 0.000000 
#    y 0.000000 1.752930 0.000000 
#    z 0.000000 0.000000 1.787760 
# 
# From -- ./inp_files/29746.got.cif
#   From: 2010.05.17/outbox.cif.g08.bks.cpg/sg59_15_cif.got.tgz:29746.got - 2010.06.03 14:40:33.
