data_PCOD9447064
_publ_section_title
;
Structure prediction by ZEFSAII (Michael W. Deem and Ramdas Pophale) SiO2 
 PCOD9447064
Probable space group: P M M N
;
_chemical_formula_sum "Si O2"
_cell_formula_units_Z 40
_cell_length_a 7.536262
_cell_length_b 10.243660
_cell_length_c 24.915541
_cell_angle_alpha 90.000000
_cell_angle_beta 90.000000
_cell_angle_gamma 90.000000
_cell_volume 1923.452498
_symmetry_space_group_name_H-M "P M M N"
_symmetry_group_IT_number 59
_space_group.IT_coordinate_system_code '2'
_symmetry_cell_setting 'orthorhombic'
loop_
_space_group_symop_operation_xyz
x,y,z
1/2-x,1/2-y,z
1/2+x,-y,-z
-x,1/2+y,-z
-x,-y,-z
1/2+x,1/2+y,-z
1/2-x,y,z
x,1/2-y,z
loop_
_atom_site_type_symbol
_atom_site_label
_atom_site_fract_x
_atom_site_fract_y
_atom_site_fract_z
Si Si1 0.536042 0.399678 0.739331
Si Si2 0.536893 0.098607 0.049268
Si Si3 0.540747 0.898865 0.137815
Si Si4 0.036563 0.250000 0.437437
Si Si5 0.538486 0.250000 0.563308
Si Si6 0.967741 0.501138 0.627837
O O1 0.750000 0.400791 0.739586
O O2 0.479952 0.250000 0.728518
O O3 0.478376 0.432295 0.799438
O O4 0.476035 0.487836 0.689680
O O5 0.750000 0.109676 0.053566
O O6 0.471385 0.250000 0.043901
O O7 0.469132 0.015286 0.100613
O O8 0.500000 0.000000 0.000000
O O9 0.750000 0.889967 0.125824
O O10 0.467962 0.750000 0.129401
O O11 0.250000 0.250000 0.434584
O O12 0.971311 0.374771 0.405125
O O13 0.993506 0.250000 0.500089
O O14 0.750000 0.250000 0.570661
O O15 0.471669 0.123348 0.593994
O O16 0.750000 0.502361 0.628345
#
# Coordination Sequence:
#
# PCOD9447064 Si02
#       6
#     8   8   8   4   4   8
#     4   9  16  30  52  73  93 126 171 208 242 296
#     4  10  21  37  57  81 111 146 181 217 261 310
#     4   9  18  33  52  75 104 136 168 209 260 305
#     4  10  20  32  46  70  98 122 153 202 253 294
#     4  10  18  32  52  68  90 126 163 196 241 302
#     4   9  17  31  50  69  93 126 161 200 248 297
#
# _framework density 20.795938
#
# number of rings (size 3 to 8) (size 9 to 14) (size 15 to 20)
#    0.000    2.600    1.000    1.200    0.000    2.000 
#    1.800    4.000    0.000    0.000    0.000    0.000 
#    0.000    0.000    0.000    0.000    0.000    0.000 
#
# Total GULP energy -223085.975106 kJ/mol
# GULP energy per Si atom -5577.149378 kJ/mol
# Density = 2.074861 g / cm^3
# Si number density = 20.795938 Si / 1000 Ang^3
#
#
#
# Elastic Constant Matrix: (Units=GPa)
#
#
# Indices 1 2 3 4 5 6 
#
# 1 49.1961 8.3711 -5.6817 0.0000 0.0000 0.0000
# 2 8.3711 189.2914 106.6104 0.0000 0.0000 0.0000
# 3 -5.6817 106.6104 154.0511 0.0000 0.0000 0.0000
# 4 0.0000 0.0000 0.0000 24.1904 0.0000 0.0000
# 5 0.0000 0.0000 0.0000 0.0000 26.5501 0.0000
# 6 0.0000 0.0000 0.0000 0.0000 0.0000 0.0611
#
#
#
# Elastic Compliance Matrix: (Units=1/GPa)
#
#
# Indices 1 2 3 4 5 6 
#
# 1 0.020975 -0.002234 0.002320 0.000000 0.000000 0.000000
# 2 -0.002234 0.008895 -0.006238 0.000000 0.000000 0.000000
# 3 0.002320 -0.006238 0.010894 0.000000 0.000000 0.000000
# 4 0.000000 0.000000 0.000000 0.041339 0.000000 0.000000
# 5 0.000000 0.000000 0.000000 0.000000 0.037665 0.000000
# 6 0.000000 0.000000 0.000000 0.000000 0.000000 16.375927
#
#
# Mechanical properties :
#
#
# Convention : Reuss Voigt Hill
#
# Bulk Modulus (GPa) = 35.13856 67.90426 51.52141
# Shear Modulus (GPa) = 0.30271 29.04288 14.67280
#
# Velocity S-wave (km/s) = 0.38194 3.74112 2.65912
# Velocity P-wave (km/s) = 4.13860 7.16832 5.85290
#
# Compressibility (1/GPa) = 0.02845876
#
# Stress axis : x y z
#
# Youngs Moduli (GPa) = 47.67620 112.42213 91.79357
#
# Poissons Ratio (x) = 0.25115 -0.21293
# Poissons Ratio (y) = 0.10651 0.57262
# Poissons Ratio (z) = -0.11059 0.70131
#
# Static dielectric constant tensor:
#      x y z
#    x 1.796210 0.000000 0.000000 
#    y 0.000000 1.677670 0.000000 
#    z 0.000000 0.000000 1.721970 
# 
# From -- ./inp_files/32419.got.cif
#   From: 2010.05.17/outbox.cif.g08.bks.cpg/sg59_17_cif.got.tgz:32419.got - 2010.06.03 14:40:33.
