data_PCOD9447751
_publ_section_title
;
Structure prediction by ZEFSAII (Michael W. Deem and Ramdas Pophale) SiO2 
 PCOD9447751
Probable space group: P M M N
;
_chemical_formula_sum "Si O2"
_cell_formula_units_Z 64
_cell_length_a 23.929417
_cell_length_b 8.759055
_cell_length_c 19.638072
_cell_angle_alpha 90.000000
_cell_angle_beta 90.000000
_cell_angle_gamma 90.000000
_cell_volume 4116.121817
_symmetry_space_group_name_H-M "P M M N"
_symmetry_group_IT_number 59
_space_group.IT_coordinate_system_code '2'
_symmetry_cell_setting 'orthorhombic'
loop_
_space_group_symop_operation_xyz
x,y,z
1/2-x,1/2-y,z
1/2+x,-y,-z
-x,1/2+y,-z
-x,-y,-z
1/2+x,1/2+y,-z
1/2-x,y,z
x,1/2-y,z
loop_
_atom_site_type_symbol
_atom_site_label
_atom_site_fract_x
_atom_site_fract_y
_atom_site_fract_z
Si Si1 0.974863 0.432096 0.605443
Si Si2 0.686712 0.564033 0.387555
Si Si3 0.585741 0.566075 0.480619
Si Si4 0.589243 0.932172 0.024081
Si Si5 0.629149 0.566327 0.245505
Si Si6 0.814956 0.432699 0.109776
Si Si7 0.504330 0.432496 0.253605
Si Si8 0.983629 0.933322 0.897676
O O1 0.972223 0.250000 0.609814
O O2 0.928717 0.493651 0.553100
O O3 0.034647 0.473055 0.570574
O O4 0.973743 0.502856 0.680186
O O5 0.750000 0.510687 0.397152
O O6 0.687096 0.750000 0.388752
O O7 0.643069 0.515083 0.445399
O O8 0.662935 0.521169 0.313478
O O9 0.586144 0.750000 0.487232
O O10 0.595026 0.750000 0.028685
O O11 0.645976 0.010013 0.048476
O O12 0.539407 0.986163 0.074231
O O13 0.566761 0.973009 0.948752
O O14 0.626345 0.750000 0.242787
O O15 0.659811 0.504726 0.178589
O O16 0.566725 0.501087 0.250646
O O17 0.750000 0.475552 0.101973
O O18 0.818785 0.250000 0.114736
O O19 0.508183 0.250000 0.258752
O O20 0.475739 0.471106 0.181349
O O21 0.992385 0.750000 0.903035
#
# Coordination Sequence:
#
# PCOD9447751 Si02
#       8
#     8   8   8   8   8   8   8   8
#     4  10  19  31  47  69  95 124 161 201 241 286
#     4   9  17  30  48  69  95 126 161 201 239 278
#     4   9  17  31  47  67  93 124 161 200 243 286
#     4  10  19  32  51  72  94 125 165 205 243 286
#     4  11  20  32  48  71  99 130 171 205 233 278
#     4  11  23  36  48  67  99 136 170 204 244 289
#     4  11  20  31  49  72 100 132 159 192 245 295
#     4   9  19  33  49  71  99 127 157 198 248 296
#
# _framework density 15.548616000000001
#
# number of rings (size 3 to 8) (size 9 to 14) (size 15 to 20)
#    0.000    2.000    2.500    2.250    0.000    3.000 
#    0.000    0.000    0.000    1.875    0.000    0.875 
#    0.000    3.000    0.000    0.000    0.000    0.000 
#
# Total GULP energy -357097.440013 kJ/mol
# GULP energy per Si atom -5579.647500 kJ/mol
# Density = 1.551323 g / cm^3
# Si number density = 15.548616 Si / 1000 Ang^3
#
#
#
# Elastic Constant Matrix: (Units=GPa)
#
#
# Indices 1 2 3 4 5 6 
#
# 1 92.5918 26.5017 70.4121 0.0000 0.0000 0.0000
# 2 26.5017 31.7292 42.3778 0.0000 0.0000 0.0000
# 3 70.4121 42.3778 146.2704 0.0000 0.0000 0.0000
# 4 0.0000 0.0000 0.0000 20.9741 0.0000 0.0000
# 5 0.0000 0.0000 0.0000 0.0000 18.5626 0.0000
# 6 0.0000 0.0000 0.0000 0.0000 0.0000 19.2961
#
#
#
# Elastic Compliance Matrix: (Units=1/GPa)
#
#
# Indices 1 2 3 4 5 6 
#
# 1 0.017611 -0.005524 -0.006877 0.000000 0.000000 0.000000
# 2 -0.005524 0.053143 -0.012737 0.000000 0.000000 0.000000
# 3 -0.006877 -0.012737 0.013837 0.000000 0.000000 0.000000
# 4 0.000000 0.000000 0.000000 0.047678 0.000000 0.000000
# 5 0.000000 0.000000 0.000000 0.000000 0.053872 0.000000
# 6 0.000000 0.000000 0.000000 0.000000 0.000000 0.051824
#
#
# Mechanical properties :
#
#
# Convention : Reuss Voigt Hill
#
# Bulk Modulus (GPa) = 29.14282 61.01941 45.08112
# Shear Modulus (GPa) = 16.68440 20.51986 18.60213
#
# Velocity S-wave (km/s) = 3.27929 3.63674 3.46263
# Velocity P-wave (km/s) = 5.75518 7.54745 6.71141
#
# Compressibility (1/GPa) = 0.03431376
#
# Stress axis : x y z
#
# Youngs Moduli (GPa) = 56.78247 18.81712 72.26746
#
# Poissons Ratio (x) = 0.10395 0.49699
# Poissons Ratio (y) = 0.31369 0.92050
# Poissons Ratio (z) = 0.39050 0.23968
#
# Static dielectric constant tensor:
#      x y z
#    x 1.499180 0.000000 0.000000 
#    y 0.000000 1.521040 0.000000 
#    z 0.000000 0.000000 1.519860 
# 
# From -- ./inp_files/28436.got.cif
#   From: 2010.05.17/outbox.cif.g08.bks.cpg/sg59_15_cif.got.tgz:28436.got - 2010.06.03 14:40:33.
