data_PCOD9447447
_publ_section_title
;
Structure prediction by ZEFSAII (Michael W. Deem and Ramdas Pophale) SiO2 
 PCOD9447447
Probable space group: P M M N
;
_chemical_formula_sum "Si O2"
_cell_formula_units_Z 56
_cell_length_a 21.774711
_cell_length_b 9.450843
_cell_length_c 18.035966
_cell_angle_alpha 90.000000
_cell_angle_beta 90.000000
_cell_angle_gamma 90.000000
_cell_volume 3711.610171
_symmetry_space_group_name_H-M "P M M N"
_symmetry_group_IT_number 59
_space_group.IT_coordinate_system_code '2'
_symmetry_cell_setting 'orthorhombic'
loop_
_space_group_symop_operation_xyz
x,y,z
1/2-x,1/2-y,z
1/2+x,-y,-z
-x,1/2+y,-z
-x,-y,-z
1/2+x,1/2+y,-z
1/2-x,y,z
x,1/2-y,z
loop_
_atom_site_type_symbol
_atom_site_label
_atom_site_fract_x
_atom_site_fract_y
_atom_site_fract_z
Si Si1 0.043067 0.584589 0.270982
Si Si2 0.586704 0.082375 0.052345
Si Si3 0.583706 0.087044 0.443621
Si Si4 0.936067 0.912863 0.586329
Si Si5 0.397285 0.084023 0.700118
Si Si6 0.322595 0.417951 0.847688
Si Si7 0.533556 0.082419 0.894612
O O1 0.056766 0.750000 0.285271
O O2 0.071982 0.488435 0.334664
O O3 0.059804 0.548638 0.186423
O O4 0.968837 0.569302 0.276498
O O5 0.586856 0.250000 0.066941
O O6 0.645061 0.007127 0.088089
O O7 0.526757 0.009712 0.088898
O O8 0.578823 0.061303 0.963965
O O9 0.602668 0.250000 0.450084
O O10 0.509822 0.085814 0.429101
O O11 0.593486 0.000764 0.519221
O O12 0.612582 0.009646 0.372676
O O13 0.916294 0.750000 0.586632
O O14 0.387441 0.250000 0.682783
O O15 0.355037 0.044876 0.769668
O O16 0.250000 0.441434 0.844203
O O17 0.333751 0.250000 0.859554
O O18 0.516363 0.250000 0.893213
#
# Coordination Sequence:
#
# PCOD9447447 Si02
#       7
#     8   8   8   8   8   8   8
#     4   9  15  25  41  58  82 113 144 176 211 258
#     4  10  19  29  45  66  88 113 147 189 229 267
#     4   9  16  25  37  54  78 109 141 171 205 247
#     4   9  16  24  35  55  82 109 139 171 204 245
#     4   9  16  27  42  58  78 109 146 181 215 253
#     4  10  20  34  49  63  85 119 155 188 226 272
#     4   9  17  30  45  63  88 119 149 180 222 275
#
# _framework density 15.087793
#
# number of rings (size 3 to 8) (size 9 to 14) (size 15 to 20)
#    0.000    2.714    1.429    1.286    0.000    5.429 
#    0.000    0.000    0.000    0.000    0.000    0.000 
#    0.000    1.143    0.000    8.286    0.000    4.429 
#
# Total GULP energy -311975.749925 kJ/mol
# GULP energy per Si atom -5570.995534 kJ/mol
# Density = 1.505345 g / cm^3
# Si number density = 15.087793 Si / 1000 Ang^3
#
#
#
# Elastic Constant Matrix: (Units=GPa)
#
#
# Indices 1 2 3 4 5 6 
#
# 1 31.1632 27.1639 27.2857 0.0000 0.0000 0.0000
# 2 27.1639 90.6104 84.8411 0.0000 0.0000 0.0000
# 3 27.2857 84.8411 144.6731 0.0000 0.0000 0.0000
# 4 0.0000 0.0000 0.0000 30.2533 0.0000 0.0000
# 5 0.0000 0.0000 0.0000 0.0000 9.8250 0.0000
# 6 0.0000 0.0000 0.0000 0.0000 0.0000 12.9136
#
#
#
# Elastic Compliance Matrix: (Units=1/GPa)
#
#
# Indices 1 2 3 4 5 6 
#
# 1 0.043540 -0.011896 -0.001236 0.000000 0.000000 0.000000
# 2 -0.011896 0.027726 -0.014016 0.000000 0.000000 0.000000
# 3 -0.001236 -0.014016 0.015365 0.000000 0.000000 0.000000
# 4 0.000000 0.000000 0.000000 0.033054 0.000000 0.000000
# 5 0.000000 0.000000 0.000000 0.000000 0.101781 0.000000
# 6 0.000000 0.000000 0.000000 0.000000 0.000000 0.077438
#
#
# Mechanical properties :
#
#
# Convention : Reuss Voigt Hill
#
# Bulk Modulus (GPa) = 30.92524 60.55869 45.74197
# Shear Modulus (GPa) = 13.73711 19.07543 16.40627
#
# Velocity S-wave (km/s) = 3.02069 3.55955 3.30113
# Velocity P-wave (km/s) = 5.71904 7.55768 6.70172
#
# Compressibility (1/GPa) = 0.03233604
#
# Stress axis : x y z
#
# Youngs Moduli (GPa) = 22.96720 36.06736 65.08506
#
# Poissons Ratio (x) = 0.42905 0.08042
# Poissons Ratio (y) = 0.27322 0.91222
# Poissons Ratio (z) = 0.02838 0.50551
#
# Static dielectric constant tensor:
#      x y z
#    x 1.462140 0.000000 0.000000 
#    y 0.000000 1.506270 0.000000 
#    z 0.000000 0.000000 1.511440 
# 
# From -- ./inp_files/26061.got.cif
#   From: 2010.05.17/outbox.cif.g08.bks.cpg/sg59_14_cif.got.tgz:26061.got - 2010.06.03 14:40:33.
