data_PCOD9447414
_publ_section_title
;
Structure prediction by ZEFSAII (Michael W. Deem and Ramdas Pophale) SiO2 
 PCOD9447414
Probable space group: P M M N
;
_chemical_formula_sum "Si O2"
_cell_formula_units_Z 64
_cell_length_a 9.269667
_cell_length_b 16.228515
_cell_length_c 22.390696
_cell_angle_alpha 90.000000
_cell_angle_beta 90.000000
_cell_angle_gamma 90.000000
_cell_volume 3368.298003
_symmetry_space_group_name_H-M "P M M N"
_symmetry_group_IT_number 59
_space_group.IT_coordinate_system_code '2'
_symmetry_cell_setting 'orthorhombic'
loop_
_space_group_symop_operation_xyz
x,y,z
1/2-x,1/2-y,z
1/2+x,-y,-z
-x,1/2+y,-z
-x,-y,-z
1/2+x,1/2+y,-z
1/2-x,y,z
x,1/2-y,z
loop_
_atom_site_type_symbol
_atom_site_label
_atom_site_fract_x
_atom_site_fract_y
_atom_site_fract_z
Si Si1 0.419635 0.650000 0.636344
Si Si2 0.083152 0.843557 0.867063
Si Si3 0.413693 0.924258 0.181714
Si Si4 0.588902 0.651688 0.281680
Si Si5 0.416850 0.397711 0.245931
Si Si6 0.415339 0.850901 0.397277
Si Si7 0.415842 0.149442 0.484345
Si Si8 0.922756 0.515989 0.937611
O O1 0.250000 0.629769 0.638163
O O2 0.432119 0.750000 0.641986
O O3 0.507189 0.609701 0.690463
O O4 0.491365 0.625832 0.573410
O O5 0.250000 0.871686 0.863876
O O6 0.081469 0.750000 0.888668
O O7 0.011019 0.847394 0.801861
O O8 0.989905 0.901800 0.909275
O O9 0.250000 0.891770 0.184305
O O10 0.522641 0.867560 0.217421
O O11 0.416260 0.010411 0.218374
O O12 0.449725 0.946562 0.113378
O O13 0.750000 0.617183 0.287331
O O14 0.596687 0.750000 0.288734
O O15 0.487257 0.621301 0.335358
O O16 0.250000 0.369953 0.248852
O O17 0.250000 0.878049 0.401616
O O18 0.414421 0.750000 0.397413
O O19 0.508288 0.877437 0.454343
O O20 0.250000 0.121934 0.480429
O O21 0.414169 0.250000 0.485484
O O22 0.750000 0.522669 0.944041
O O23 0.000000 0.500000 0.000000
#
# Coordination Sequence:
#
# PCOD9447414 Si02
#       8
#     8   8   8   8   8   8   8   8
#     4  10  19  29  43  67  99 134 173 214 257 307
#     4  10  20  34  54  81 111 142 179 221 261 304
#     4   9  20  37  55  77 103 133 168 204 248 303
#     4  10  20  33  52  79 105 129 164 210 256 303
#     4  10  20  33  50  73 102 136 174 215 259 308
#     4   9  16  27  45  68  95 128 164 205 255 307
#     4   9  16  26  41  63  93 128 167 212 258 303
#     4  10  21  38  60  84 111 144 180 216 257 308
#
# _framework density 19.000693999999999
#
# number of rings (size 3 to 8) (size 9 to 14) (size 15 to 20)
#    0.000    2.375    0.000    3.750    0.000   10.000 
#    0.000    0.625    0.000    1.500    0.000    0.000 
#    0.000    0.000    0.000    0.000    0.000    0.000 
#
# Total GULP energy -357193.347510 kJ/mol
# GULP energy per Si atom -5581.146055 kJ/mol
# Density = 1.895745 g / cm^3
# Si number density = 19.000694 Si / 1000 Ang^3
#
#
#
# Elastic Constant Matrix: (Units=GPa)
#
#
# Indices 1 2 3 4 5 6 
#
# 1 151.9391 13.5099 88.6520 0.0000 0.0000 0.0000
# 2 13.5099 4.2293 11.3295 0.0000 0.0000 0.0000
# 3 88.6520 11.3295 154.3135 0.0000 0.0000 0.0000
# 4 0.0000 0.0000 0.0000 23.4408 0.0000 0.0000
# 5 0.0000 0.0000 0.0000 0.0000 36.9239 0.0000
# 6 0.0000 0.0000 0.0000 0.0000 0.0000 19.7762
#
#
#
# Elastic Compliance Matrix: (Units=1/GPa)
#
#
# Indices 1 2 3 4 5 6 
#
# 1 0.011550 -0.023800 -0.004888 0.000000 0.000000 0.000000
# 2 -0.023800 0.343374 -0.011537 0.000000 0.000000 0.000000
# 3 -0.004888 -0.011537 0.010135 0.000000 0.000000 0.000000
# 4 0.000000 0.000000 0.000000 0.042661 0.000000 0.000000
# 5 0.000000 0.000000 0.000000 0.000000 0.027083 0.000000
# 6 0.000000 0.000000 0.000000 0.000000 0.000000 0.050566
#
#
# Mechanical properties :
#
#
# Convention : Reuss Voigt Hill
#
# Bulk Modulus (GPa) = 3.51359 59.71833 31.61596
# Shear Modulus (GPa) = 7.56786 29.16087 18.36436
#
# Velocity S-wave (km/s) = 1.99790 3.92181 3.11225
# Velocity P-wave (km/s) = 2.67868 7.21146 5.43969
#
# Compressibility (1/GPa) = 0.28460906
#
# Stress axis : x y z
#
# Youngs Moduli (GPa) = 86.58204 2.91227 98.66410
#
# Poissons Ratio (x) = 0.06931 0.48226
# Poissons Ratio (y) = 2.06067 1.13830
# Poissons Ratio (z) = 0.42320 0.03360
#
# Static dielectric constant tensor:
#      x y z
#    x 1.647770 0.000000 0.000000 
#    y 0.000000 1.684750 0.000000 
#    z 0.000000 0.000000 1.637920 
# 
# From -- ./inp_files/29366.got.cif
#   From: 2010.05.17/outbox.cif.g08.bks.cpg/sg59_15_cif.got.tgz:29366.got - 2010.06.03 14:40:33.
