data_PCOD9447117
_publ_section_title
;
Structure prediction by ZEFSAII (Michael W. Deem and Ramdas Pophale) SiO2 
 PCOD9447117
Probable space group: P M M N
;
_chemical_formula_sum "Si O2"
_cell_formula_units_Z 64
_cell_length_a 7.880719
_cell_length_b 15.230025
_cell_length_c 26.745661
_cell_angle_alpha 90.000000
_cell_angle_beta 90.000000
_cell_angle_gamma 90.000000
_cell_volume 3210.109110
_symmetry_space_group_name_H-M "P M M N"
_symmetry_group_IT_number 59
_space_group.IT_coordinate_system_code '2'
_symmetry_cell_setting 'orthorhombic'
loop_
_space_group_symop_operation_xyz
x,y,z
1/2-x,1/2-y,z
1/2+x,-y,-z
-x,1/2+y,-z
-x,-y,-z
1/2+x,1/2+y,-z
1/2-x,y,z
x,1/2-y,z
loop_
_atom_site_type_symbol
_atom_site_label
_atom_site_fract_x
_atom_site_fract_y
_atom_site_fract_z
Si Si1 0.545073 0.651395 0.113029
Si Si2 0.048826 0.350225 0.370402
Si Si3 0.957126 0.846308 0.893387
Si Si4 0.947837 0.993626 0.818198
Si Si5 0.047102 0.505335 0.442227
Si Si6 0.047478 0.149395 0.635348
Si Si7 0.448387 0.993113 0.704945
Si Si8 0.046131 0.101778 0.997429
O O1 0.750000 0.639524 0.113271
O O2 0.507185 0.750000 0.128494
O O3 0.466708 0.582749 0.150863
O O4 0.484890 0.637583 0.055808
O O5 0.250000 0.342651 0.379156
O O6 0.980358 0.250000 0.370166
O O7 0.981275 0.418996 0.412198
O O8 0.025484 0.404999 0.319145
O O9 0.750000 0.853371 0.895221
O O10 0.001330 0.750000 0.875097
O O11 0.020005 0.919948 0.855654
O O12 0.016823 0.857666 0.950558
O O13 0.750000 0.974317 0.809743
O O14 0.030423 0.997543 0.764115
O O15 0.250000 0.506000 0.437351
O O16 0.000000 0.500000 0.500000
O O17 0.983110 0.594155 0.415381
O O18 0.250000 0.156617 0.642385
O O19 0.980681 0.250000 0.635587
O O20 0.981261 0.081514 0.678000
O O21 0.250000 0.989327 0.692585
O O22 0.250000 0.113416 0.997083
O O23 0.000000 0.000000 0.000000
#
# Coordination Sequence:
#
# PCOD9447117 Si02
#       8
#     8   8   8   8   8   8   8   8
#     4  10  21  36  55  78 105 139 177 218 267 323
#     4   9  19  37  59  81 108 147 192 232 273 324
#     4   9  18  33  53  76 102 135 174 212 256 318
#     4  11  22  36  55  80 108 140 177 222 273 324
#     4  10  20  34  54  84 120 154 188 228 272 319
#     4   9  19  37  59  80 105 143 188 231 278 329
#     4  10  21  37  57  81 109 141 180 230 281 330
#     4  10  18  32  55  78 102 134 172 214 263 319
#
# _framework density 19.937017000000001
#
# number of rings (size 3 to 8) (size 9 to 14) (size 15 to 20)
#    0.000    2.250    1.250    1.500    0.000    4.750 
#    0.000    3.750    0.000    3.750    0.000    0.000 
#    0.000    0.000    0.000    0.000    0.000    0.000 
#
# Total GULP energy -357001.993305 kJ/mol
# GULP energy per Si atom -5578.156145 kJ/mol
# Density = 1.989164 g / cm^3
# Si number density = 19.937017 Si / 1000 Ang^3
#
#
#
# Elastic Constant Matrix: (Units=GPa)
#
#
# Indices 1 2 3 4 5 6 
#
# 1 19.6124 4.8400 -4.8877 0.0000 0.0000 0.0000
# 2 4.8400 157.1798 60.4244 0.0000 0.0000 0.0000
# 3 -4.8877 60.4244 131.4276 0.0000 0.0000 0.0000
# 4 0.0000 0.0000 0.0000 37.1361 0.0000 0.0000
# 5 0.0000 0.0000 0.0000 0.0000 16.4181 0.0000
# 6 0.0000 0.0000 0.0000 0.0000 0.0000 20.2785
#
#
#
# Elastic Compliance Matrix: (Units=1/GPa)
#
#
# Indices 1 2 3 4 5 6 
#
# 1 0.052514 -0.002876 0.003275 0.000000 0.000000 0.000000
# 2 -0.002876 0.007886 -0.003732 0.000000 0.000000 0.000000
# 3 0.003275 -0.003732 0.009447 0.000000 0.000000 0.000000
# 4 0.000000 0.000000 0.000000 0.026928 0.000000 0.000000
# 5 0.000000 0.000000 0.000000 0.000000 0.060908 0.000000
# 6 0.000000 0.000000 0.000000 0.000000 0.000000 0.049313
#
#
# Mechanical properties :
#
#
# Convention : Reuss Voigt Hill
#
# Bulk Modulus (GPa) = 15.82783 47.66370 31.74577
# Shear Modulus (GPa) = 21.30173 31.28940 26.29557
#
# Velocity S-wave (km/s) = 3.27226 3.96588 3.63565
# Velocity P-wave (km/s) = 4.71520 6.70298 5.79496
#
# Compressibility (1/GPa) = 0.06317985
#
# Stress axis : x y z
#
# Youngs Moduli (GPa) = 19.04243 126.81434 105.85891
#
# Poissons Ratio (x) = 0.36474 -0.34672
# Poissons Ratio (y) = 0.05477 0.39511
# Poissons Ratio (z) = -0.06237 0.47332
#
# Static dielectric constant tensor:
#      x y z
#    x 1.767900 0.000000 0.000000 
#    y 0.000000 1.710170 0.000000 
#    z 0.000000 0.000000 1.684610 
# 
# From -- ./inp_files/31469.got.cif
#   From: 2010.05.17/outbox.cif.g08.bks.cpg/sg59_16_cif.got.tgz:31469.got - 2010.06.03 14:40:33.
