data_PCOD9447815
_publ_section_title
;
Structure prediction by ZEFSAII (Michael W. Deem and Ramdas Pophale) SiO2 
 PCOD9447815
Probable space group: P M M N
;
_chemical_formula_sum "Si O2"
_cell_formula_units_Z 48
_cell_length_a 23.614576
_cell_length_b 17.621144
_cell_length_c 6.642970
_cell_angle_alpha 90.000000
_cell_angle_beta 90.000000
_cell_angle_gamma 90.000000
_cell_volume 2764.245070
_symmetry_space_group_name_H-M "P M M N"
_symmetry_group_IT_number 59
_space_group.IT_coordinate_system_code '2'
_symmetry_cell_setting 'orthorhombic'
loop_
_space_group_symop_operation_xyz
x,y,z
1/2-x,1/2-y,z
1/2+x,-y,-z
-x,1/2+y,-z
-x,-y,-z
1/2+x,1/2+y,-z
1/2-x,y,z
x,1/2-y,z
loop_
_atom_site_type_symbol
_atom_site_label
_atom_site_fract_x
_atom_site_fract_y
_atom_site_fract_z
Si Si1 0.515598 0.661414 0.167260
Si Si2 0.812021 0.166058 0.115257
Si Si3 0.185307 0.952174 0.528235
Si Si4 0.420162 0.038172 0.571489
Si Si5 0.997649 0.941661 0.811735
Si Si6 0.613468 0.163589 0.734519
O O1 0.529323 0.750000 0.183170
O O2 0.558649 0.608011 0.290738
O O3 0.453359 0.648517 0.264014
O O4 0.509518 0.636446 0.932995
O O5 0.750000 0.163244 0.009204
O O6 0.814432 0.250000 0.213343
O O7 0.813207 0.097986 0.270031
O O8 0.863270 0.161636 0.961580
O O9 0.250000 0.966433 0.465236
O O10 0.150305 0.898755 0.377327
O O11 0.146659 0.025929 0.559700
O O12 0.447462 0.045938 0.349301
O O13 0.447224 0.963163 0.679746
O O14 0.000000 0.000000 0.000000
O O15 0.622818 0.250000 0.660075
#
# Coordination Sequence:
#
# PCOD9447815 Si02
#       6
#     8   8   8   8   8   8
#     4  10  21  35  54  78 100 129 168 210 263 315
#     4   9  18  31  46  67  99 138 174 205 238 285
#     4  11  21  32  49  72 100 138 175 204 241 291
#     4  10  20  34  51  74 104 133 167 211 253 297
#     4   9  17  32  54  75 102 133 160 202 259 308
#     4  10  19  31  48  72 102 132 164 203 245 296
#
# _framework density 17.364597
#
# number of rings (size 3 to 8) (size 9 to 14) (size 15 to 20)
#    0.000    2.167    0.000    5.000    0.000    3.667 
#    0.000    4.167    0.000    0.500    0.000    0.000 
#    0.000    0.000    0.000    0.000    0.000    0.000 
#
# Total GULP energy -267466.268767 kJ/mol
# GULP energy per Si atom -5572.213933 kJ/mol
# Density = 1.732507 g / cm^3
# Si number density = 17.364597 Si / 1000 Ang^3
#
#
#
# Elastic Constant Matrix: (Units=GPa)
#
#
# Indices 1 2 3 4 5 6 
#
# 1 112.8459 53.0998 27.8117 0.0000 0.0000 0.0000
# 2 53.0998 86.8214 34.0906 0.0000 0.0000 0.0000
# 3 27.8117 34.0906 69.5065 0.0000 0.0000 0.0000
# 4 0.0000 0.0000 0.0000 35.7889 0.0000 0.0000
# 5 0.0000 0.0000 0.0000 0.0000 17.7484 0.0000
# 6 0.0000 0.0000 0.0000 0.0000 0.0000 26.3279
#
#
#
# Elastic Compliance Matrix: (Units=1/GPa)
#
#
# Indices 1 2 3 4 5 6 
#
# 1 0.012578 -0.007080 -0.001560 0.000000 0.000000 0.000000
# 2 -0.007080 0.018250 -0.006118 0.000000 0.000000 0.000000
# 3 -0.001560 -0.006118 0.018012 0.000000 0.000000 0.000000
# 4 0.000000 0.000000 0.000000 0.027942 0.000000 0.000000
# 5 0.000000 0.000000 0.000000 0.000000 0.056343 0.000000
# 6 0.000000 0.000000 0.000000 0.000000 0.000000 0.037983
#
#
# Mechanical properties :
#
#
# Convention : Reuss Voigt Hill
#
# Bulk Modulus (GPa) = 51.75075 55.46423 53.60749
# Shear Modulus (GPa) = 24.14697 26.25113 25.19905
#
# Velocity S-wave (km/s) = 3.73310 3.89236 3.81356
# Velocity P-wave (km/s) = 6.96050 7.22571 7.09434
#
# Compressibility (1/GPa) = 0.01932339
#
# Stress axis : x y z
#
# Youngs Moduli (GPa) = 79.50644 54.79377 55.51767
#
# Poissons Ratio (x) = 0.38793 0.08662
# Poissons Ratio (y) = 0.56289 0.33967
# Poissons Ratio (z) = 0.12405 0.33524
#
# Static dielectric constant tensor:
#      x y z
#    x 1.612890 0.000000 0.000000 
#    y 0.000000 2.084530 0.000000 
#    z 0.000000 0.000000 1.613540 
# 
# From -- ./inp_files/2843.got.cif
#   From: 2010.05.17/outbox.cif.g08.bks.cpg/sg59_2_cif.got.tgz:2843.got - 2010.06.03 14:40:33.
