data_PCOD9447604
_publ_section_title
;
Structure prediction by ZEFSAII (Michael W. Deem and Ramdas Pophale) SiO2 
 PCOD9447604
Probable space group: P M M N
;
_chemical_formula_sum "Si O2"
_cell_formula_units_Z 64
_cell_length_a 17.391787
_cell_length_b 9.197347
_cell_length_c 23.641770
_cell_angle_alpha 90.000000
_cell_angle_beta 90.000000
_cell_angle_gamma 90.000000
_cell_volume 3781.697338
_symmetry_space_group_name_H-M "P M M N"
_symmetry_group_IT_number 59
_space_group.IT_coordinate_system_code '2'
_symmetry_cell_setting 'orthorhombic'
loop_
_space_group_symop_operation_xyz
x,y,z
1/2-x,1/2-y,z
1/2+x,-y,-z
-x,1/2+y,-z
-x,-y,-z
1/2+x,1/2+y,-z
1/2-x,y,z
x,1/2-y,z
loop_
_atom_site_type_symbol
_atom_site_label
_atom_site_fract_x
_atom_site_fract_y
_atom_site_fract_z
Si Si1 0.598013 0.578917 0.072021
Si Si2 0.989812 0.076427 0.242000
Si Si3 0.660523 0.075756 0.964377
Si Si4 0.486536 0.076948 0.638895
Si Si5 0.334720 0.576813 0.822523
Si Si6 0.061682 0.578586 0.138346
Si Si7 0.337465 0.424219 0.563699
Si Si8 0.426555 0.923368 0.471514
O O1 0.612962 0.750000 0.067400
O O2 0.652932 0.505647 0.118620
O O3 0.512913 0.559031 0.097881
O O4 0.611110 0.503112 0.012227
O O5 0.996205 0.250000 0.243995
O O6 0.904232 0.037526 0.218992
O O7 0.998912 0.007963 0.303444
O O8 0.047205 0.011459 0.195003
O O9 0.750000 0.041914 0.972991
O O10 0.649927 0.250000 0.969956
O O11 0.632712 0.036309 0.901393
O O12 0.482267 0.250000 0.649597
O O13 0.405478 0.035346 0.607949
O O14 0.556400 0.051856 0.594681
O O15 0.250000 0.545158 0.799292
O O16 0.340042 0.750000 0.833228
O O17 0.066520 0.750000 0.152380
O O18 0.250000 0.455680 0.582461
O O19 0.344269 0.250000 0.555229
O O20 0.355782 0.505048 0.504615
O O21 0.427730 0.750000 0.480978
O O22 0.500000 0.000000 0.500000
#
# Coordination Sequence:
#
# PCOD9447604 Si02
#       8
#     8   8   8   8   8   8   8   8
#     4  10  19  30  47  71  95 120 152 189 231 282
#     4  10  20  32  49  71  92 121 163 203 236 273
#     4  10  20  33  50  71  93 119 151 189 238 292
#     4   9  18  32  49  70  98 131 164 197 235 281
#     4   9  18  32  46  62  91 127 157 189 231 278
#     4   9  19  35  51  67  92 125 158 193 235 285
#     4   9  18  32  50  75 107 137 162 194 240 289
#     4   9  17  30  49  72  98 130 166 201 237 279
#
# _framework density 16.923617
#
# number of rings (size 3 to 8) (size 9 to 14) (size 15 to 20)
#    0.000    2.625    0.000    2.625    0.000    6.750 
#    0.000    0.000    0.000    0.750    0.000    1.750 
#    0.000    0.000    0.000    0.000    0.000    0.000 
#
# Total GULP energy -356650.992146 kJ/mol
# GULP energy per Si atom -5572.671752 kJ/mol
# Density = 1.688510 g / cm^3
# Si number density = 16.923617 Si / 1000 Ang^3
#
#
#
# Elastic Constant Matrix: (Units=GPa)
#
#
# Indices 1 2 3 4 5 6 
#
# 1 12.9664 11.8422 16.2615 0.0000 0.0000 0.0000
# 2 11.8422 33.9182 52.0295 0.0000 0.0000 0.0000
# 3 16.2615 52.0295 124.6306 0.0000 0.0000 0.0000
# 4 0.0000 0.0000 0.0000 31.4770 0.0000 0.0000
# 5 0.0000 0.0000 0.0000 0.0000 12.2600 0.0000
# 6 0.0000 0.0000 0.0000 0.0000 0.0000 16.9989
#
#
#
# Elastic Compliance Matrix: (Units=1/GPa)
#
#
# Indices 1 2 3 4 5 6 
#
# 1 0.114274 -0.047344 0.004855 0.000000 0.000000 0.000000
# 2 -0.047344 0.101599 -0.036237 0.000000 0.000000 0.000000
# 3 0.004855 -0.036237 0.022518 0.000000 0.000000 0.000000
# 4 0.000000 0.000000 0.000000 0.031769 0.000000 0.000000
# 5 0.000000 0.000000 0.000000 0.000000 0.081566 0.000000
# 6 0.000000 0.000000 0.000000 0.000000 0.000000 0.058827
#
#
# Mechanical properties :
#
#
# Convention : Reuss Voigt Hill
#
# Bulk Modulus (GPa) = 12.35521 36.86462 24.60991
# Shear Modulus (GPa) = 8.40356 18.23931 13.32144
#
# Velocity S-wave (km/s) = 2.23078 3.28646 2.80866
# Velocity P-wave (km/s) = 3.73518 6.01925 5.00914
#
# Compressibility (1/GPa) = 0.08093750
#
# Stress axis : x y z
#
# Youngs Moduli (GPa) = 8.75093 9.84262 44.40854
#
# Poissons Ratio (x) = 0.46599 -0.21558
# Poissons Ratio (y) = 0.41430 1.60924
# Poissons Ratio (z) = -0.04248 0.35667
#
# Static dielectric constant tensor:
#      x y z
#    x 1.592910 0.000000 0.000000 
#    y 0.000000 1.561660 0.000000 
#    z 0.000000 0.000000 1.562600 
# 
# From -- ./inp_files/32317.got.cif
#   From: 2010.05.17/outbox.cif.g08.bks.cpg/sg59_17_cif.got.tgz:32317.got - 2010.06.03 14:40:33.
