data_PCOD9447850
_publ_section_title
;
Structure prediction by ZEFSAII (Michael W. Deem and Ramdas Pophale) SiO2 
 PCOD9447850
Probable space group: P M M N
;
_chemical_formula_sum "Si O2"
_cell_formula_units_Z 64
_cell_length_a 30.536637
_cell_length_b 8.721320
_cell_length_c 15.228259
_cell_angle_alpha 90.000000
_cell_angle_beta 90.000000
_cell_angle_gamma 90.000000
_cell_volume 4055.586632
_symmetry_space_group_name_H-M "P M M N"
_symmetry_group_IT_number 59
_space_group.IT_coordinate_system_code '2'
_symmetry_cell_setting 'orthorhombic'
loop_
_space_group_symop_operation_xyz
x,y,z
1/2-x,1/2-y,z
1/2+x,-y,-z
-x,1/2+y,-z
-x,-y,-z
1/2+x,1/2+y,-z
1/2-x,y,z
x,1/2-y,z
loop_
_atom_site_type_symbol
_atom_site_label
_atom_site_fract_x
_atom_site_fract_y
_atom_site_fract_z
Si Si1 0.390206 0.066097 0.037033
Si Si2 0.030594 0.434667 0.375261
Si Si3 0.438769 0.565864 0.866885
Si Si4 0.113849 0.433023 0.704073
Si Si5 0.036530 0.063453 0.174106
Si Si6 0.065281 0.567202 0.547844
Si Si7 0.299150 0.432227 0.803486
Si Si8 0.700609 0.067205 0.002852
O O1 0.389651 0.250000 0.034098
O O2 0.422630 0.014489 0.114968
O O3 0.340686 0.006614 0.045701
O O4 0.411303 0.005529 0.946394
O O5 0.034294 0.250000 0.378421
O O6 0.038601 0.486426 0.275584
O O7 0.061808 0.506479 0.448848
O O8 0.981055 0.473932 0.405079
O O9 0.436597 0.750000 0.872256
O O10 0.418028 0.511963 0.775042
O O11 0.489778 0.517298 0.867257
O O12 0.108018 0.250000 0.708545
O O13 0.102247 0.492211 0.607812
O O14 0.162857 0.471081 0.735656
O O15 0.036335 0.250000 0.175179
O O16 0.069233 0.750000 0.548559
O O17 0.250000 0.461168 0.770483
O O18 0.302847 0.250000 0.823360
O O19 0.304680 0.521055 0.894827
O O20 0.750000 0.016768 0.976784
O O21 0.698442 0.250000 0.994706
#
# Coordination Sequence:
#
# PCOD9447850 Si02
#       8
#     8   8   8   8   8   8   8   8
#     4  11  21  33  49  71  97 130 168 202 242 292
#     4   9  17  33  50  67  93 125 161 201 240 280
#     4  11  20  33  48  67  99 135 168 202 236 279
#     4  11  20  30  48  73  98 129 165 198 238 292
#     4   9  19  34  50  68  96 133 168 203 243 283
#     4  10  19  31  49  71  96 125 157 197 242 287
#     4   9  18  32  49  69  95 125 159 201 243 285
#     4  10  20  33  49  69  94 125 161 201 247 292
#
# _framework density 15.7807
#
# number of rings (size 3 to 8) (size 9 to 14) (size 15 to 20)
#    0.000    2.000    2.500    2.250    0.000    1.750 
#    0.000    3.125    0.000    0.000    0.000    0.875 
#    0.000    3.000    0.000    0.000    0.000    0.000 
#
# Total GULP energy -357041.650330 kJ/mol
# GULP energy per Si atom -5578.775786 kJ/mol
# Density = 1.574478 g / cm^3
# Si number density = 15.780700 Si / 1000 Ang^3
#
#
#
# Elastic Constant Matrix: (Units=GPa)
#
#
# Indices 1 2 3 4 5 6 
#
# 1 123.0326 34.0333 42.9015 0.0000 0.0000 0.0000
# 2 34.0333 29.3660 15.3687 0.0000 0.0000 0.0000
# 3 42.9015 15.3687 61.9756 0.0000 0.0000 0.0000
# 4 0.0000 0.0000 0.0000 18.7584 0.0000 0.0000
# 5 0.0000 0.0000 0.0000 0.0000 22.4656 0.0000
# 6 0.0000 0.0000 0.0000 0.0000 0.0000 20.1082
#
#
#
# Elastic Compliance Matrix: (Units=1/GPa)
#
#
# Indices 1 2 3 4 5 6 
#
# 1 0.013905 -0.012729 -0.006469 0.000000 0.000000 0.000000
# 2 -0.012729 0.050785 -0.003782 0.000000 0.000000 0.000000
# 3 -0.006469 -0.003782 0.021551 0.000000 0.000000 0.000000
# 4 0.000000 0.000000 0.000000 0.053309 0.000000 0.000000
# 5 0.000000 0.000000 0.000000 0.000000 0.044512 0.000000
# 6 0.000000 0.000000 0.000000 0.000000 0.000000 0.049731
#
#
# Mechanical properties :
#
#
# Convention : Reuss Voigt Hill
#
# Bulk Modulus (GPa) = 24.82585 44.33125 34.57855
# Shear Modulus (GPa) = 17.05437 20.40450 18.72943
#
# Velocity S-wave (km/s) = 3.29098 3.59974 3.44882
# Velocity P-wave (km/s) = 5.49606 6.74022 6.14968
#
# Compressibility (1/GPa) = 0.04028059
#
# Stress axis : x y z
#
# Youngs Moduli (GPa) = 71.91785 19.69097 46.40138
#
# Poissons Ratio (x) = 0.25065 0.30016
# Poissons Ratio (y) = 0.91546 0.17549
# Poissons Ratio (z) = 0.46522 0.07447
#
# Static dielectric constant tensor:
#      x y z
#    x 1.540840 0.000000 0.000000 
#    y 0.000000 1.529660 0.000000 
#    z 0.000000 0.000000 1.505100 
# 
# From -- ./inp_files/21929.got.cif
#   From: 2010.05.17/outbox.cif.g08.bks.cpg/sg59_11_cif.got.tgz:21929.got - 2010.06.03 14:40:33.
