data_PCOD9447809
_publ_section_title
;
Structure prediction by ZEFSAII (Michael W. Deem and Ramdas Pophale) SiO2 
 PCOD9447809
Probable space group: P M M N
;
_chemical_formula_sum "Si O2"
_cell_formula_units_Z 64
_cell_length_a 17.935757
_cell_length_b 8.341005
_cell_length_c 24.018540
_cell_angle_alpha 90.000000
_cell_angle_beta 90.000000
_cell_angle_gamma 90.000000
_cell_volume 3593.227357
_symmetry_space_group_name_H-M "P M M N"
_symmetry_group_IT_number 59
_space_group.IT_coordinate_system_code '2'
_symmetry_cell_setting 'orthorhombic'
loop_
_space_group_symop_operation_xyz
x,y,z
1/2-x,1/2-y,z
1/2+x,-y,-z
-x,1/2+y,-z
-x,-y,-z
1/2+x,1/2+y,-z
1/2-x,y,z
x,1/2-y,z
loop_
_atom_site_type_symbol
_atom_site_label
_atom_site_fract_x
_atom_site_fract_y
_atom_site_fract_z
Si Si1 0.571962 0.443158 0.965634
Si Si2 0.555277 0.058441 0.632518
Si Si3 0.664677 0.943576 0.544671
Si Si4 0.979190 0.558218 0.134845
Si Si5 0.979329 0.058395 0.259897
Si Si6 0.165706 0.944125 0.933074
Si Si7 0.407763 0.056913 0.568603
Si Si8 0.331850 0.943647 0.676766
O O1 0.575398 0.250000 0.964590
O O2 0.549273 0.497400 0.903642
O O3 0.500000 0.500000 0.000000
O O4 0.641139 0.496146 0.004128
O O5 0.552609 0.250000 0.633855
O O6 0.486597 0.998601 0.593307
O O7 0.629454 0.001817 0.602132
O O8 0.539641 0.995549 0.694375
O O9 0.750000 0.995335 0.537613
O O10 0.663234 0.750000 0.543919
O O11 0.615440 0.002440 0.492238
O O12 0.976686 0.750000 0.132414
O O13 0.900877 0.497597 0.108186
O O14 0.989177 0.504498 0.197953
O O15 0.977892 0.250000 0.258383
O O16 0.899563 0.000137 0.284452
O O17 0.250000 0.998882 0.919706
O O18 0.166199 0.750000 0.931737
O O19 0.410494 0.250000 0.566576
O O20 0.347712 0.005901 0.614759
O O21 0.250000 0.994259 0.696024
O O22 0.334042 0.750000 0.675579
#
# Coordination Sequence:
#
# PCOD9447809 Si02
#       8
#     8   8   8   8   8   8   8   8
#     4   8  15  28  46  68  94 124 156 191 230 273
#     4  10  20  34  52  73  97 126 164 208 248 288
#     4  10  20  33  50  73 100 128 157 193 244 304
#     4  10  19  31  48  71  98 127 163 204 241 280
#     4  10  20  34  51  69  93 129 169 204 242 289
#     4   9  17  30  49  73 101 131 160 191 233 286
#     4   9  18  32  50  72  97 126 158 193 239 296
#     4   9  18  31  46  66  93 124 158 197 239 285
#
# _framework density 17.811285999999999
#
# number of rings (size 3 to 8) (size 9 to 14) (size 15 to 20)
#    0.000    2.625    0.000    1.875    0.000    3.750 
#    0.000    1.250    0.000    0.750    0.000    1.750 
#    0.000    0.000    0.000    0.000    0.000    0.000 
#
# Total GULP energy -356582.061562 kJ/mol
# GULP energy per Si atom -5571.594712 kJ/mol
# Density = 1.777075 g / cm^3
# Si number density = 17.811286 Si / 1000 Ang^3
#
#
#
# Elastic Constant Matrix: (Units=GPa)
#
#
# Indices 1 2 3 4 5 6 
#
# 1 37.6841 9.7551 36.5757 0.0000 0.0000 0.0000
# 2 9.7551 10.2891 13.0883 0.0000 0.0000 0.0000
# 3 36.5757 13.0883 142.9144 0.0000 0.0000 0.0000
# 4 0.0000 0.0000 0.0000 21.9400 0.0000 0.0000
# 5 0.0000 0.0000 0.0000 0.0000 12.5831 0.0000
# 6 0.0000 0.0000 0.0000 0.0000 0.0000 17.4844
#
#
#
# Elastic Compliance Matrix: (Units=1/GPa)
#
#
# Indices 1 2 3 4 5 6 
#
# 1 0.041999 -0.029594 -0.008038 0.000000 0.000000 0.000000
# 2 -0.029594 0.130858 -0.004410 0.000000 0.000000 0.000000
# 3 -0.008038 -0.004410 0.009458 0.000000 0.000000 0.000000
# 4 0.000000 0.000000 0.000000 0.045579 0.000000 0.000000
# 5 0.000000 0.000000 0.000000 0.000000 0.079472 0.000000
# 6 0.000000 0.000000 0.000000 0.000000 0.000000 0.057194
#
#
# Mechanical properties :
#
#
# Convention : Reuss Voigt Hill
#
# Bulk Modulus (GPa) = 10.18017 34.41398 22.29708
# Shear Modulus (GPa) = 10.38659 19.16606 14.77633
#
# Velocity S-wave (km/s) = 2.41746 3.28390 2.88341
# Velocity P-wave (km/s) = 3.67698 5.80879 4.86118
#
# Compressibility (1/GPa) = 0.09823015
#
# Stress axis : x y z
#
# Youngs Moduli (GPa) = 23.80991 7.64185 105.72666
#
# Poissons Ratio (x) = 0.22615 0.84988
# Poissons Ratio (y) = 0.70464 0.46628
# Poissons Ratio (z) = 0.19140 0.03370
#
# Static dielectric constant tensor:
#      x y z
#    x 1.620620 0.000000 0.000000 
#    y 0.000000 1.612680 0.000000 
#    z 0.000000 0.000000 1.615160 
# 
# From -- ./inp_files/30698.got.cif
#   From: 2010.05.17/outbox.cif.g08.bks.cpg/sg59_16_cif.got.tgz:30698.got - 2010.06.03 14:40:33.
