data_PCOD9447818
_publ_section_title
;
Structure prediction by ZEFSAII (Michael W. Deem and Ramdas Pophale) SiO2 
 PCOD9447818
Probable space group: P M M N
;
_chemical_formula_sum "Si O2"
_cell_formula_units_Z 56
_cell_length_a 20.271171
_cell_length_b 7.383897
_cell_length_c 16.330160
_cell_angle_alpha 90.000000
_cell_angle_beta 90.000000
_cell_angle_gamma 90.000000
_cell_volume 2444.302247
_symmetry_space_group_name_H-M "P M M N"
_symmetry_group_IT_number 59
_space_group.IT_coordinate_system_code '2'
_symmetry_cell_setting 'orthorhombic'
loop_
_space_group_symop_operation_xyz
x,y,z
1/2-x,1/2-y,z
1/2+x,-y,-z
-x,1/2+y,-z
-x,-y,-z
1/2+x,1/2+y,-z
1/2-x,y,z
x,1/2-y,z
loop_
_atom_site_type_symbol
_atom_site_label
_atom_site_fract_x
_atom_site_fract_y
_atom_site_fract_z
Si Si1 0.675094 0.470744 0.025868
Si Si2 0.075075 0.455933 0.642713
Si Si3 0.826332 0.468868 0.212289
Si Si4 0.177106 0.031595 0.321913
Si Si5 0.676462 0.529021 0.488109
Si Si6 0.551455 0.033614 0.928120
Si Si7 0.962311 0.460397 0.750078
O O1 0.750000 0.528070 0.009505
O O2 0.674803 0.250000 0.025735
O O3 0.657039 0.524021 0.119053
O O4 0.621938 0.534388 0.960369
O O5 0.060058 0.250000 0.616197
O O6 0.124751 0.455854 0.720086
O O7 0.117490 0.538438 0.568938
O O8 0.007943 0.540191 0.678243
O O9 0.750000 0.519923 0.227608
O O10 0.830033 0.250000 0.216028
O O11 0.250000 0.971813 0.293882
O O12 0.176589 0.250000 0.319947
O O13 0.169265 0.977298 0.417055
O O14 0.114578 0.968023 0.271345
O O15 0.750000 0.472661 0.459891
O O16 0.676291 0.750000 0.484945
O O17 0.557998 0.250000 0.918009
O O18 0.528646 0.959939 0.840513
O O19 0.500000 0.000000 0.000000
O O20 0.982800 0.250000 0.754026
#
# Coordination Sequence:
#
# PCOD9447818 Si02
#       7
#     8   8   8   8   8   8   8
#     4   8  15  29  48  67  88 122 167 205 239 288
#     4  10  19  31  48  72 104 137 167 198 240 302
#     4   9  17  29  46  70  98 126 163 211 252 288
#     4   9  19  37  58  76  95 126 172 216 251 299
#     4   8  15  30  52  74  96 129 171 207 241 291
#     4  10  20  34  52  73 100 134 169 205 246 295
#     4  10  22  35  49  77 109 133 163 208 260 306
#
# _framework density 22.910422000000001
#
# number of rings (size 3 to 8) (size 9 to 14) (size 15 to 20)
#    0.000    2.857    0.000    3.000    0.000    3.429 
#    0.000    2.143    0.000    2.143    0.000    0.000 
#    0.000    0.000    0.000    0.000    0.000    0.000 
#
# Total GULP energy -312763.022409 kJ/mol
# GULP energy per Si atom -5585.053972 kJ/mol
# Density = 2.285828 g / cm^3
# Si number density = 22.910422 Si / 1000 Ang^3
#
#
#
# Elastic Constant Matrix: (Units=GPa)
#
#
# Indices 1 2 3 4 5 6 
#
# 1 91.4258 -8.9897 38.3217 0.0000 0.0000 0.0000
# 2 -8.9897 79.4323 -4.7178 0.0000 0.0000 0.0000
# 3 38.3217 -4.7178 62.2678 0.0000 0.0000 0.0000
# 4 0.0000 0.0000 0.0000 1.0526 0.0000 0.0000
# 5 0.0000 0.0000 0.0000 0.0000 40.6281 0.0000
# 6 0.0000 0.0000 0.0000 0.0000 0.0000 10.4401
#
#
#
# Elastic Compliance Matrix: (Units=1/GPa)
#
#
# Indices 1 2 3 4 5 6 
#
# 1 0.014843 0.001142 -0.009048 0.000000 0.000000 0.000000
# 2 0.001142 0.012734 0.000262 0.000000 0.000000 0.000000
# 3 -0.009048 0.000262 0.021648 0.000000 0.000000 0.000000
# 4 0.000000 0.000000 0.000000 0.949991 0.000000 0.000000
# 5 0.000000 0.000000 0.000000 0.000000 0.024614 0.000000
# 6 0.000000 0.000000 0.000000 0.000000 0.000000 0.095784
#
#
# Mechanical properties :
#
#
# Convention : Reuss Voigt Hill
#
# Bulk Modulus (GPa) = 29.46642 31.37271 30.41956
# Shear Modulus (GPa) = 4.36219 24.32496 14.34357
#
# Velocity S-wave (km/s) = 1.38136 3.26197 2.50486
# Velocity P-wave (km/s) = 3.92858 5.28305 4.65534
#
# Compressibility (1/GPa) = 0.03393693
#
# Stress axis : x y z
#
# Youngs Moduli (GPa) = 67.37296 78.52886 46.19359
#
# Poissons Ratio (x) = -0.08971 0.41797
# Poissons Ratio (y) = -0.07697 -0.01209
# Poissons Ratio (z) = 0.60960 -0.02055
#
# Static dielectric constant tensor:
#      x y z
#    x 1.858510 0.000000 0.000000 
#    y 0.000000 1.841450 0.000000 
#    z 0.000000 0.000000 1.852370 
# 
# From -- ./inp_files/24193.got.cif
#   From: 2010.05.17/outbox.cif.g08.bks.cpg/sg59_13_cif.got.tgz:24193.got - 2010.06.03 14:40:33.
