data_PCOD9447484
_publ_section_title
;
Structure prediction by ZEFSAII (Michael W. Deem and Ramdas Pophale) SiO2 
 PCOD9447484
Probable space group: P M M N
;
_chemical_formula_sum "Si O2"
_cell_formula_units_Z 64
_cell_length_a 25.560725
_cell_length_b 9.029954
_cell_length_c 18.876601
_cell_angle_alpha 90.000000
_cell_angle_beta 90.000000
_cell_angle_gamma 90.000000
_cell_volume 4356.949257
_symmetry_space_group_name_H-M "P M M N"
_symmetry_group_IT_number 59
_space_group.IT_coordinate_system_code '2'
_symmetry_cell_setting 'orthorhombic'
loop_
_space_group_symop_operation_xyz
x,y,z
1/2-x,1/2-y,z
1/2+x,-y,-z
-x,1/2+y,-z
-x,-y,-z
1/2+x,1/2+y,-z
1/2-x,y,z
x,1/2-y,z
loop_
_atom_site_type_symbol
_atom_site_label
_atom_site_fract_x
_atom_site_fract_y
_atom_site_fract_z
Si Si1 0.390197 0.072396 0.819900
Si Si2 0.190261 0.427488 0.565718
Si Si3 0.039201 0.920482 0.101160
Si Si4 0.581124 0.926749 0.498576
Si Si5 0.002650 0.573217 0.765431
Si Si6 0.077199 0.079038 0.969055
Si Si7 0.008216 0.926232 0.386112
Si Si8 0.311829 0.920267 0.717383
O O1 0.397124 0.250000 0.816025
O O2 0.386806 0.032201 0.903159
O O3 0.441038 0.994086 0.786848
O O4 0.341727 0.017868 0.774527
O O5 0.250000 0.461382 0.541828
O O6 0.187737 0.250000 0.578148
O O7 0.141831 0.464203 0.514520
O O8 0.180820 0.511164 0.639489
O O9 0.050228 0.750000 0.117859
O O10 0.981074 0.926606 0.065782
O O11 0.035917 0.015826 0.172512
O O12 0.076525 0.982855 0.039756
O O13 0.576878 0.750000 0.512532
O O14 0.546604 0.955636 0.427634
O O15 0.553316 0.015987 0.561214
O O16 0.004414 0.750000 0.764872
O O17 0.989346 0.509496 0.688377
O O18 0.087465 0.250000 0.987275
O O19 0.012013 0.750000 0.375377
O O20 0.250000 0.921751 0.731280
O O21 0.330372 0.750000 0.719264
#
# Coordination Sequence:
#
# PCOD9447484 Si02
#       8
#     8   8   8   8   8   8   8   8
#     4  10  19  30  44  61  83 113 148 181 213 255
#     4   9  17  30  48  66  85 113 147 182 220 261
#     4   9  16  26  40  58  82 110 139 170 203 242
#     4   9  18  31  45  62  85 112 144 181 219 261
#     4  11  20  29  43  62  86 114 144 178 215 254
#     4   8  15  26  39  57  80 107 139 172 205 240
#     4  10  19  30  44  62  86 116 148 180 216 261
#     4  10  20  31  43  62  87 113 144 182 219 254
#
# _framework density 14.689177000000001
#
# number of rings (size 3 to 8) (size 9 to 14) (size 15 to 20)
#    0.000    2.500    0.000    4.125    0.000    6.250 
#    0.000    0.000    0.000    0.000    0.000    0.000 
#    0.000    1.000    0.000    5.250    0.000    4.375 
#
# Total GULP energy -356637.508313 kJ/mol
# GULP energy per Si atom -5572.461067 kJ/mol
# Density = 1.465574 g / cm^3
# Si number density = 14.689177 Si / 1000 Ang^3
#
#
#
# Elastic Constant Matrix: (Units=GPa)
#
#
# Indices 1 2 3 4 5 6 
#
# 1 54.2388 30.1443 33.8343 0.0000 0.0000 0.0000
# 2 30.1443 84.4461 60.4855 0.0000 0.0000 0.0000
# 3 33.8343 60.4855 99.0740 0.0000 0.0000 0.0000
# 4 0.0000 0.0000 0.0000 27.4507 0.0000 0.0000
# 5 0.0000 0.0000 0.0000 0.0000 21.0478 0.0000
# 6 0.0000 0.0000 0.0000 0.0000 0.0000 17.1605
#
#
#
# Elastic Compliance Matrix: (Units=1/GPa)
#
#
# Indices 1 2 3 4 5 6 
#
# 1 0.024516 -0.004895 -0.005384 0.000000 0.000000 0.000000
# 2 -0.004895 0.022022 -0.011773 0.000000 0.000000 0.000000
# 3 -0.005384 -0.011773 0.019119 0.000000 0.000000 0.000000
# 4 0.000000 0.000000 0.000000 0.036429 0.000000 0.000000
# 5 0.000000 0.000000 0.000000 0.000000 0.047511 0.000000
# 6 0.000000 0.000000 0.000000 0.000000 0.000000 0.058273
#
#
# Mechanical properties :
#
#
# Convention : Reuss Voigt Hill
#
# Bulk Modulus (GPa) = 46.39567 54.07636 50.23601
# Shear Modulus (GPa) = 19.29324 20.68476 19.98900
#
# Velocity S-wave (km/s) = 3.62806 3.75662 3.69290
# Velocity P-wave (km/s) = 7.01455 7.46391 7.24272
#
# Compressibility (1/GPa) = 0.02155374
#
# Stress axis : x y z
#
# Youngs Moduli (GPa) = 40.78966 45.41006 52.30304
#
# Poissons Ratio (x) = 0.22229 0.28159
# Poissons Ratio (y) = 0.19967 0.61574
# Poissons Ratio (z) = 0.21960 0.53460
#
# Static dielectric constant tensor:
#      x y z
#    x 1.484230 0.000000 0.000000 
#    y 0.000000 1.491540 0.000000 
#    z 0.000000 0.000000 1.479330 
# 
# From -- ./inp_files/31070.got.cif
#   From: 2010.05.17/outbox.cif.g08.bks.cpg/sg59_16_cif.got.tgz:31070.got - 2010.06.03 14:40:33.
