data_PCOD9447067
_publ_section_title
;
Structure prediction by ZEFSAII (Michael W. Deem and Ramdas Pophale) SiO2 
 PCOD9447067
Probable space group: P M M N
;
_chemical_formula_sum "Si O2"
_cell_formula_units_Z 48
_cell_length_a 9.902794
_cell_length_b 8.410686
_cell_length_c 30.081523
_cell_angle_alpha 90.000000
_cell_angle_beta 90.000000
_cell_angle_gamma 90.000000
_cell_volume 2505.468719
_symmetry_space_group_name_H-M "P M M N"
_symmetry_group_IT_number 59
_space_group.IT_coordinate_system_code '2'
_symmetry_cell_setting 'orthorhombic'
loop_
_space_group_symop_operation_xyz
x,y,z
1/2-x,1/2-y,z
1/2+x,-y,-z
-x,1/2+y,-z
-x,-y,-z
1/2+x,1/2+y,-z
1/2-x,y,z
x,1/2-y,z
loop_
_atom_site_type_symbol
_atom_site_label
_atom_site_fract_x
_atom_site_fract_y
_atom_site_fract_z
Si Si1 0.407579 0.939467 0.121782
Si Si2 0.405734 0.561708 0.801568
Si Si3 0.250000 0.941917 0.448584
Si Si4 0.408245 0.559750 0.959102
Si Si5 0.409998 0.062894 0.703775
Si Si6 0.001654 0.444353 0.609158
Si Si7 0.250000 0.441771 0.549185
O O1 0.250000 0.995342 0.119525
O O2 0.404477 0.750000 0.115661
O O3 0.481834 0.980233 0.167981
O O4 0.507090 0.010675 0.084442
O O5 0.250000 0.506422 0.810778
O O6 0.409062 0.750000 0.810032
O O7 0.432960 0.527212 0.749754
O O8 0.250000 0.750000 0.450308
O O9 0.375009 0.995265 0.419209
O O10 0.250000 0.000270 0.498876
O O11 0.250000 0.502867 0.959470
O O12 0.402086 0.750000 0.961204
O O13 0.500000 0.500000 0.000000
O O14 0.250000 0.052998 0.693207
O O15 0.440833 0.250000 0.710991
O O16 0.487131 0.002755 0.660129
O O17 0.004015 0.250000 0.611556
O O18 0.124677 0.495338 0.578483
O O19 0.250000 0.250000 0.547776
#
# Coordination Sequence:
#
# PCOD9447067 Si02
#       7
#     8   8   4   8   8   8   4
#     4  11  24  41  61  88 120 156 201 246 289 344
#     4  10  21  37  58  85 115 147 185 233 289 347
#     4  10  20  32  46  72 102 128 162 214 269 312
#     4  11  24  41  63  93 127 164 206 250 296 346
#     4   9  16  31  55  77  98 134 181 223 266 325
#     4   9  17  31  51  72  97 131 171 213 260 317
#     4  10  18  32  52  70  94 132 174 208 251 320
#
# _framework density 19.158093000000001
#
# number of rings (size 3 to 8) (size 9 to 14) (size 15 to 20)
#    0.000    2.000    0.833    3.000    0.000    7.667 
#    1.500    1.667    0.000    0.000    0.000    0.000 
#    0.000    0.000    0.000    0.000    0.000    0.000 
#
# Total GULP energy -267747.290729 kJ/mol
# GULP energy per Si atom -5578.068557 kJ/mol
# Density = 1.911449 g / cm^3
# Si number density = 19.158093 Si / 1000 Ang^3
#
#
#
# Elastic Constant Matrix: (Units=GPa)
#
#
# Indices 1 2 3 4 5 6 
#
# 1 171.5737 24.8810 76.0026 0.0000 0.0000 0.0000
# 2 24.8810 28.8309 11.3208 0.0000 0.0000 0.0000
# 3 76.0026 11.3208 123.3167 0.0000 0.0000 0.0000
# 4 0.0000 0.0000 0.0000 35.1701 0.0000 0.0000
# 5 0.0000 0.0000 0.0000 0.0000 260.4055 0.0000
# 6 0.0000 0.0000 0.0000 0.0000 0.0000 26.1815
#
#
#
# Elastic Compliance Matrix: (Units=1/GPa)
#
#
# Indices 1 2 3 4 5 6 
#
# 1 0.008834 -0.005691 -0.004922 0.000000 0.000000 0.000000
# 2 -0.005691 0.039648 -0.000132 0.000000 0.000000 0.000000
# 3 -0.004922 -0.000132 0.011155 0.000000 0.000000 0.000000
# 4 0.000000 0.000000 0.000000 0.028433 0.000000 0.000000
# 5 0.000000 0.000000 0.000000 0.000000 0.003840 0.000000
# 6 0.000000 0.000000 0.000000 0.000000 0.000000 0.038195
#
#
# Mechanical properties :
#
#
# Convention : Reuss Voigt Hill
#
# Bulk Modulus (GPa) = 26.21484 60.90333 43.55908
# Shear Modulus (GPa) = 30.42986 78.45252 54.44119
#
# Velocity S-wave (km/s) = 3.98974 6.40617 5.33653
# Velocity P-wave (km/s) = 5.91077 9.30470 7.79470
#
# Compressibility (1/GPa) = 0.03814633
#
# Stress axis : x y z
#
# Youngs Moduli (GPa) = 113.19786 25.22176 89.64594
#
# Poissons Ratio (x) = 0.14354 0.44125
# Poissons Ratio (y) = 0.64421 0.01186
# Poissons Ratio (z) = 0.55718 0.00334
#
# Static dielectric constant tensor:
#      x y z
#    x 1.650970 0.000000 0.000000 
#    y 0.000000 1.675260 0.000000 
#    z 0.000000 0.000000 1.650860 
# 
# From -- ./inp_files/33062.got.cif
#   From: 2010.05.17/outbox.cif.g08.bks.cpg/sg59_17_cif.got.tgz:33062.got - 2010.06.03 14:40:33.
