data_PCOD9447222
_publ_section_title
;
Structure prediction by ZEFSAII (Michael W. Deem and Ramdas Pophale) SiO2 
 PCOD9447222
Probable space group: P M M N
;
_chemical_formula_sum "Si O2"
_cell_formula_units_Z 64
_cell_length_a 7.602808
_cell_length_b 19.246856
_cell_length_c 20.425287
_cell_angle_alpha 90.000000
_cell_angle_beta 90.000000
_cell_angle_gamma 90.000000
_cell_volume 2988.835326
_symmetry_space_group_name_H-M "P M M N"
_symmetry_group_IT_number 59
_space_group.IT_coordinate_system_code '2'
_symmetry_cell_setting 'orthorhombic'
loop_
_space_group_symop_operation_xyz
x,y,z
1/2-x,1/2-y,z
1/2+x,-y,-z
-x,1/2+y,-z
-x,-y,-z
1/2+x,1/2+y,-z
1/2-x,y,z
x,1/2-y,z
loop_
_atom_site_type_symbol
_atom_site_label
_atom_site_fract_x
_atom_site_fract_y
_atom_site_fract_z
Si Si1 0.464708 0.672068 0.214961
Si Si2 0.034511 0.829609 0.974294
Si Si3 0.959373 0.418972 0.512733
Si Si4 0.965638 0.090778 0.659617
Si Si5 0.042473 0.172075 0.387357
Si Si6 0.536916 0.425079 0.904417
Si Si7 0.454562 0.924110 0.859854
Si Si8 0.955851 0.558344 0.710296
O O1 0.250000 0.672134 0.213624
O O2 0.522785 0.750000 0.199612
O O3 0.519619 0.647362 0.286891
O O4 0.519887 0.616685 0.160467
O O5 0.250000 0.829973 0.974504
O O6 0.979368 0.750000 0.983723
O O7 0.974680 0.862759 0.905735
O O8 0.979656 0.880725 0.032863
O O9 0.750000 0.411826 0.512865
O O10 0.024754 0.399252 0.585225
O O11 0.000000 0.500000 0.500000
O O12 0.026549 0.370156 0.454918
O O13 0.750000 0.090999 0.659258
O O14 0.027270 0.015636 0.685993
O O15 0.250000 0.179422 0.374060
O O16 0.967984 0.250000 0.390942
O O17 0.967092 0.122924 0.330033
O O18 0.750000 0.427723 0.904708
O O19 0.472739 0.503765 0.899457
O O20 0.250000 0.910222 0.848720
O O21 0.533743 0.933327 0.788075
O O22 0.750000 0.555138 0.692812
#
# Coordination Sequence:
#
# PCOD9447222 Si02
#       8
#     8   8   8   8   8   8   8   8
#     4   9  16  27  49  80 104 127 170 223 266 307
#     4   9  19  35  54  79 111 144 183 230 277 325
#     4  11  21  35  58  85 114 150 189 231 283 342
#     4   9  17  31  52  79 107 136 174 225 275 321
#     4  10  22  40  60  83 114 151 192 242 295 342
#     4  10  18  33  58  81 103 142 186 223 265 328
#     4  11  22  34  53  83 114 144 179 229 286 332
#     4  10  19  37  59  79 106 144 190 232 275 334
#
# _framework density 21.413022999999999
#
# number of rings (size 3 to 8) (size 9 to 14) (size 15 to 20)
#    0.000    2.125    2.500    1.500    0.000    3.250 
#    0.000    1.875    0.000    4.125    0.000    0.000 
#    0.000    0.000    0.000    0.000    0.000    0.000 
#
# Total GULP energy -357477.662245 kJ/mol
# GULP energy per Si atom -5585.588473 kJ/mol
# Density = 2.136429 g / cm^3
# Si number density = 21.413023 Si / 1000 Ang^3
#
#
#
# Elastic Constant Matrix: (Units=GPa)
#
#
# Indices 1 2 3 4 5 6 
#
# 1 41.8147 -9.3050 -13.4714 0.0000 0.0000 0.0000
# 2 -9.3050 89.8084 25.5944 0.0000 0.0000 0.0000
# 3 -13.4714 25.5944 94.4863 0.0000 0.0000 0.0000
# 4 0.0000 0.0000 0.0000 29.1985 0.0000 0.0000
# 5 0.0000 0.0000 0.0000 0.0000 71.2151 0.0000
# 6 0.0000 0.0000 0.0000 0.0000 0.0000 7.5485
#
#
#
# Elastic Compliance Matrix: (Units=1/GPa)
#
#
# Indices 1 2 3 4 5 6 
#
# 1 0.025311 0.001727 0.003141 0.000000 0.000000 0.000000
# 2 0.001727 0.012184 -0.003054 0.000000 0.000000 0.000000
# 3 0.003141 -0.003054 0.011859 0.000000 0.000000 0.000000
# 4 0.000000 0.000000 0.000000 0.034248 0.000000 0.000000
# 5 0.000000 0.000000 0.000000 0.000000 0.014042 0.000000
# 6 0.000000 0.000000 0.000000 0.000000 0.000000 0.132477
#
#
# Mechanical properties :
#
#
# Convention : Reuss Voigt Hill
#
# Bulk Modulus (GPa) = 18.87424 25.74950 22.31187
# Shear Modulus (GPa) = 20.47883 36.47851 28.47867
#
# Velocity S-wave (km/s) = 3.09588 4.13191 3.65083
# Velocity P-wave (km/s) = 4.64896 5.90041 5.31167
#
# Compressibility (1/GPa) = 0.05298226
#
# Stress axis : x y z
#
# Youngs Moduli (GPa) = 39.50804 82.07353 84.32658
#
# Poissons Ratio (x) = -0.14177 -0.26486
# Poissons Ratio (y) = -0.06825 0.25755
# Poissons Ratio (z) = -0.12409 0.25067
#
# Static dielectric constant tensor:
#      x y z
#    x 1.822700 0.000000 0.000000 
#    y 0.000000 1.754930 0.000000 
#    z 0.000000 0.000000 1.736250 
# 
# From -- ./inp_files/28293.got.cif
#   From: 2010.05.17/outbox.cif.g08.bks.cpg/sg59_15_cif.got.tgz:28293.got - 2010.06.03 14:40:33.
