data_PCOD9447891
_publ_section_title
;
Structure prediction by ZEFSAII (Michael W. Deem and Ramdas Pophale) SiO2 
 PCOD9447891
Probable space group: P M M N
;
_chemical_formula_sum "Si O2"
_cell_formula_units_Z 40
_cell_length_a 7.860220
_cell_length_b 9.190107
_cell_length_c 30.393522
_cell_angle_alpha 90.000000
_cell_angle_beta 90.000000
_cell_angle_gamma 90.000000
_cell_volume 2195.514444
_symmetry_space_group_name_H-M "P M M N"
_symmetry_group_IT_number 59
_space_group.IT_coordinate_system_code '2'
_symmetry_cell_setting 'orthorhombic'
loop_
_space_group_symop_operation_xyz
x,y,z
1/2-x,1/2-y,z
1/2+x,-y,-z
-x,1/2+y,-z
-x,-y,-z
1/2+x,1/2+y,-z
1/2-x,y,z
x,1/2-y,z
loop_
_atom_site_type_symbol
_atom_site_label
_atom_site_fract_x
_atom_site_fract_y
_atom_site_fract_z
Si Si1 0.955076 0.414481 0.455938
Si Si2 0.553367 0.074579 0.954383
Si Si3 0.956115 0.580705 0.368891
Si Si4 0.750000 0.571908 0.210888
Si Si5 0.939381 0.072683 0.728123
Si Si6 0.250000 0.426836 0.889904
O O1 0.750000 0.410767 0.453197
O O2 0.019346 0.250000 0.458499
O O3 0.015336 0.492929 0.411481
O O4 0.000000 0.500000 0.500000
O O5 0.750000 0.039262 0.943978
O O6 0.541592 0.250000 0.959263
O O7 0.418383 0.029852 0.916994
O O8 0.500000 0.000000 0.000000
O O9 0.750000 0.575364 0.366675
O O10 0.004814 0.750000 0.374051
O O11 0.023887 0.526303 0.322007
O O12 0.750000 0.750000 0.210521
O O13 0.584387 0.524874 0.238223
O O14 0.750000 0.522714 0.160453
O O15 0.750000 0.029444 0.741515
O O16 0.946367 0.250000 0.727179
O O17 0.250000 0.250000 0.888749
#
# Coordination Sequence:
#
# PCOD9447891 Si02
#       6
#     8   8   8   4   8   4
#     4  10  21  35  51  73 101 133 168 205 251 304
#     4  10  19  31  49  73 101 136 177 218 263 313
#     4   9  16  29  48  68  94 128 163 202 249 298
#     4   9  16  28  44  67 103 137 163 205 260 305
#     4   9  16  26  44  70  97 128 166 203 246 303
#     4   9  18  30  45  69 103 137 171 215 264 309
#
# _framework density 18.218964
#
# number of rings (size 3 to 8) (size 9 to 14) (size 15 to 20)
#    0.000    2.600    2.000    0.600    0.000    2.800 
#    0.000    6.000    0.000    0.000    0.000    2.800 
#    0.000    0.000    0.000    0.000    0.000    0.000 
#
# Total GULP energy -223068.829343 kJ/mol
# GULP energy per Si atom -5576.720734 kJ/mol
# Density = 1.817750 g / cm^3
# Si number density = 18.218964 Si / 1000 Ang^3
#
#
#
# Elastic Constant Matrix: (Units=GPa)
#
#
# Indices 1 2 3 4 5 6 
#
# 1 129.1604 27.9901 94.0171 0.0000 0.0000 0.0000
# 2 27.9901 33.7053 41.7038 0.0000 0.0000 0.0000
# 3 94.0171 41.7038 196.8227 0.0000 0.0000 0.0000
# 4 0.0000 0.0000 0.0000 21.3056 0.0000 0.0000
# 5 0.0000 0.0000 0.0000 0.0000 23.1983 0.0000
# 6 0.0000 0.0000 0.0000 0.0000 0.0000 11.4575
#
#
#
# Elastic Compliance Matrix: (Units=1/GPa)
#
#
# Indices 1 2 3 4 5 6 
#
# 1 0.012250 -0.003975 -0.005009 0.000000 0.000000 0.000000
# 2 -0.003975 0.041500 -0.006895 0.000000 0.000000 0.000000
# 3 -0.005009 -0.006895 0.008934 0.000000 0.000000 0.000000
# 4 0.000000 0.000000 0.000000 0.046936 0.000000 0.000000
# 5 0.000000 0.000000 0.000000 0.000000 0.043107 0.000000
# 6 0.000000 0.000000 0.000000 0.000000 0.000000 0.087279
#
#
# Mechanical properties :
#
#
# Convention : Reuss Voigt Hill
#
# Bulk Modulus (GPa) = 32.33382 76.34558 54.33970
# Shear Modulus (GPa) = 17.72589 24.25745 20.99167
#
# Velocity S-wave (km/s) = 3.12258 3.65285 3.39807
# Velocity P-wave (km/s) = 5.54856 7.73217 6.72953
#
# Compressibility (1/GPa) = 0.03092737
#
# Stress axis : x y z
#
# Youngs Moduli (GPa) = 81.63269 24.09610 111.92681
#
# Poissons Ratio (x) = 0.09578 0.56068
# Poissons Ratio (y) = 0.32447 0.77170
# Poissons Ratio (z) = 0.40892 0.16613
#
# Static dielectric constant tensor:
#      x y z
#    x 1.646950 0.000000 0.000000 
#    y 0.000000 1.619030 0.000000 
#    z 0.000000 0.000000 1.597600 
# 
# From -- ./inp_files/32431.got.cif
#   From: 2010.05.17/outbox.cif.g08.bks.cpg/sg59_17_cif.got.tgz:32431.got - 2010.06.03 14:40:33.
