data_PCOD9447308
_publ_section_title
;
Structure prediction by ZEFSAII (Michael W. Deem and Ramdas Pophale) SiO2 
 PCOD9447308
Probable space group: P M M N
;
_chemical_formula_sum "Si O2"
_cell_formula_units_Z 48
_cell_length_a 28.914598
_cell_length_b 8.547639
_cell_length_c 10.433902
_cell_angle_alpha 90.000000
_cell_angle_beta 90.000000
_cell_angle_gamma 90.000000
_cell_volume 2578.755005
_symmetry_space_group_name_H-M "P M M N"
_symmetry_group_IT_number 59
_space_group.IT_coordinate_system_code '2'
_symmetry_cell_setting 'orthorhombic'
loop_
_space_group_symop_operation_xyz
x,y,z
1/2-x,1/2-y,z
1/2+x,-y,-z
-x,1/2+y,-z
-x,-y,-z
1/2+x,1/2+y,-z
1/2-x,y,z
x,1/2-y,z
loop_
_atom_site_type_symbol
_atom_site_label
_atom_site_fract_x
_atom_site_fract_y
_atom_site_fract_z
Si Si1 0.006618 0.437093 0.355538
Si Si2 0.103665 0.936946 0.254428
Si Si3 0.653314 0.562996 0.500251
Si Si4 0.250000 0.438780 0.624190
Si Si5 0.351733 0.940992 0.988181
Si Si6 0.750000 0.438634 0.086381
Si Si7 0.906970 0.060994 0.266467
O O1 0.008996 0.250000 0.362934
O O2 0.961008 0.480775 0.274203
O O3 0.000000 0.500000 0.500000
O O4 0.053425 0.498643 0.292227
O O5 0.100674 0.750000 0.250489
O O6 0.123118 0.993219 0.117769
O O7 0.138306 0.986808 0.367066
O O8 0.651886 0.750000 0.513409
O O9 0.704038 0.515204 0.452097
O O10 0.617888 0.510922 0.389854
O O11 0.250000 0.250000 0.637449
O O12 0.250000 0.511264 0.765342
O O13 0.351413 0.750000 0.988954
O O14 0.298291 0.992959 0.976163
O O15 0.380404 0.989272 0.862062
O O16 0.750000 0.250000 0.081033
O O17 0.903506 0.250000 0.274998
#
# Coordination Sequence:
#
# PCOD9447308 Si02
#       7
#     8   8   8   4   8   4   8
#     4  11  22  36  59  88 119 153 197 245 296 353
#     4  11  23  39  58  84 121 158 197 243 292 346
#     4  11  22  37  58  85 118 151 193 241 290 348
#     4  10  22  37  56  88 120 148 188 243 296 348
#     4   9  20  37  59  88 118 150 194 245 291 345
#     4  10  18  35  64  88 112 152 196 239 292 348
#     4  10  20  37  61  87 113 148 195 242 289 346
#
# _framework density 18.613634000000001
#
# number of rings (size 3 to 8) (size 9 to 14) (size 15 to 20)
#    0.000    1.667    3.333    1.500    0.000    2.667 
#    0.000    4.167    0.000    0.000    0.000    0.000 
#    0.000    0.000    0.000    0.000    0.000    0.000 
#
# Total GULP energy -268101.829084 kJ/mol
# GULP energy per Si atom -5585.454773 kJ/mol
# Density = 1.857127 g / cm^3
# Si number density = 18.613634 Si / 1000 Ang^3
#
#
#
# Elastic Constant Matrix: (Units=GPa)
#
#
# Indices 1 2 3 4 5 6 
#
# 1 146.4484 29.0466 54.5911 0.0000 0.0000 0.0000
# 2 29.0466 21.0731 19.1863 0.0000 0.0000 0.0000
# 3 54.5911 19.1863 121.9148 0.0000 0.0000 0.0000
# 4 0.0000 0.0000 0.0000 8.7926 0.0000 0.0000
# 5 0.0000 0.0000 0.0000 0.0000 27.7438 0.0000
# 6 0.0000 0.0000 0.0000 0.0000 0.0000 22.8260
#
#
#
# Elastic Compliance Matrix: (Units=1/GPa)
#
#
# Indices 1 2 3 4 5 6 
#
# 1 0.010119 -0.011465 -0.002727 0.000000 0.000000 0.000000
# 2 -0.011465 0.068380 -0.005628 0.000000 0.000000 0.000000
# 3 -0.002727 -0.005628 0.010309 0.000000 0.000000 0.000000
# 4 0.000000 0.000000 0.000000 0.113732 0.000000 0.000000
# 5 0.000000 0.000000 0.000000 0.000000 0.036044 0.000000
# 6 0.000000 0.000000 0.000000 0.000000 0.000000 0.043810
#
#
# Mechanical properties :
#
#
# Convention : Reuss Voigt Hill
#
# Bulk Modulus (GPa) = 20.33767 55.00938 37.67352
# Shear Modulus (GPa) = 14.77444 24.31330 19.54387
#
# Velocity S-wave (km/s) = 2.82040 3.61807 3.24385
# Velocity P-wave (km/s) = 4.64286 6.86086 5.85779
#
# Compressibility (1/GPa) = 0.04916985
#
# Stress axis : x y z
#
# Youngs Moduli (GPa) = 98.82704 14.62411 97.00212
#
# Poissons Ratio (x) = 0.16766 0.26450
# Poissons Ratio (y) = 1.13303 0.54589
# Poissons Ratio (z) = 0.26947 0.08230
#
# Static dielectric constant tensor:
#      x y z
#    x 1.650310 0.000000 0.000000 
#    y 0.000000 1.634050 0.000000 
#    z 0.000000 0.000000 1.608510 
# 
# From -- ./inp_files/6393.got.cif
#   From: 2010.05.17/outbox.cif.g08.bks.cpg/sg59_4_cif.got.tgz:6393.got - 2010.06.03 14:40:33.
