data_PCOD9447707
_publ_section_title
;
Structure prediction by ZEFSAII (Michael W. Deem and Ramdas Pophale) SiO2 
 PCOD9447707
Probable space group: P M M N
;
_chemical_formula_sum "Si O2"
_cell_formula_units_Z 64
_cell_length_a 7.459026
_cell_length_b 16.022679
_cell_length_c 24.744031
_cell_angle_alpha 90.000000
_cell_angle_beta 90.000000
_cell_angle_gamma 90.000000
_cell_volume 2957.247710
_symmetry_space_group_name_H-M "P M M N"
_symmetry_group_IT_number 59
_space_group.IT_coordinate_system_code '2'
_symmetry_cell_setting 'orthorhombic'
loop_
_space_group_symop_operation_xyz
x,y,z
1/2-x,1/2-y,z
1/2+x,-y,-z
-x,1/2+y,-z
-x,-y,-z
1/2+x,1/2+y,-z
1/2-x,y,z
x,1/2-y,z
loop_
_atom_site_type_symbol
_atom_site_label
_atom_site_fract_x
_atom_site_fract_y
_atom_site_fract_z
Si Si1 0.457890 0.103862 0.061071
Si Si2 0.533899 0.656229 0.566288
Si Si3 0.961081 0.992506 0.365372
Si Si4 0.468625 0.341430 0.828199
Si Si5 0.029556 0.001602 0.757368
Si Si6 0.957581 0.159353 0.178970
Si Si7 0.467769 0.406984 0.943206
Si Si8 0.968831 0.844730 0.442175
O O1 0.250000 0.127782 0.062796
O O2 0.540695 0.141173 0.114929
O O3 0.474436 0.003221 0.063351
O O4 0.530115 0.126246 0.001518
O O5 0.750000 0.657506 0.565916
O O6 0.473846 0.750000 0.581967
O O7 0.479279 0.581045 0.604798
O O8 0.475100 0.640538 0.504342
O O9 0.750000 0.975062 0.359946
O O10 0.033801 0.917510 0.402612
O O11 0.031666 0.996384 0.304479
O O12 0.250000 0.342695 0.828254
O O13 0.525987 0.250000 0.809962
O O14 0.527331 0.416638 0.790218
O O15 0.524066 0.357837 0.890056
O O16 0.250000 0.001109 0.758318
O O17 0.965963 0.919279 0.788960
O O18 0.750000 0.163550 0.195542
O O19 0.039524 0.250000 0.189516
O O20 0.250000 0.407401 0.944947
O O21 0.750000 0.846282 0.442354
O O22 0.021087 0.750000 0.426910
#
# Coordination Sequence:
#
# PCOD9447707 Si02
#       8
#     8   8   8   8   8   8   8   8
#     4  10  19  30  50  77 101 126 159 205 253 293
#     4   9  18  33  51  71 101 140 170 195 242 306
#     4  10  19  30  51  79 101 127 167 215 254 284
#     4   9  16  28  50  75  96 123 159 198 241 293
#     4   9  18  32  48  71 101 128 162 207 249 292
#     4  10  20  35  53  68  92 135 173 202 247 304
#     4   9  17  31  51  74 102 131 158 193 245 305
#     4   8  15  29  49  75 107 136 161 196 248 304
#
# _framework density 21.641743999999999
#
# number of rings (size 3 to 8) (size 9 to 14) (size 15 to 20)
#    0.000    2.750    1.250    1.500    0.000    2.500 
#    0.000    5.625    0.000    1.500    0.000    0.000 
#    0.000    0.000    0.000    0.000    0.000    0.000 
#
# Total GULP energy -357285.223988 kJ/mol
# GULP energy per Si atom -5582.581625 kJ/mol
# Density = 2.159249 g / cm^3
# Si number density = 21.641744 Si / 1000 Ang^3
#
#
#
# Elastic Constant Matrix: (Units=GPa)
#
#
# Indices 1 2 3 4 5 6 
#
# 1 62.1750 -2.7483 0.5501 0.0000 0.0000 0.0000
# 2 -2.7483 180.9517 117.7142 0.0000 0.0000 0.0000
# 3 0.5501 117.7142 160.9504 0.0000 0.0000 0.0000
# 4 0.0000 0.0000 0.0000 -7.9459 0.0000 0.0000
# 5 0.0000 0.0000 0.0000 0.0000 22.2314 0.0000
# 6 0.0000 0.0000 0.0000 0.0000 0.0000 3.7830
#
#
#
# Elastic Compliance Matrix: (Units=1/GPa)
#
#
# Indices 1 2 3 4 5 6 
#
# 1 0.016111 0.000535 -0.000446 0.000000 0.000000 0.000000
# 2 0.000535 0.010560 -0.007725 0.000000 0.000000 0.000000
# 3 -0.000446 -0.007725 0.011864 0.000000 0.000000 0.000000
# 4 0.000000 0.000000 0.000000 -0.125850 0.000000 0.000000
# 5 0.000000 0.000000 0.000000 0.000000 0.044981 0.000000
# 6 0.000000 0.000000 0.000000 0.000000 0.000000 0.264342
#
#
# Mechanical properties :
#
#
# Convention : Reuss Voigt Hill
#
# Bulk Modulus (GPa) = 42.98685 70.56766 56.77726
# Shear Modulus (GPa) = 20.40525 22.85110 21.62817
#
# Velocity S-wave (km/s) = 3.07394 3.25296 3.16472
# Velocity P-wave (km/s) = 5.70131 6.84010 6.29650
#
# Compressibility (1/GPa) = 0.02326293
#
# Stress axis : x y z
#
# Youngs Moduli (GPa) = 62.06847 94.69951 84.28607
#
# Poissons Ratio (x) = -0.05067 0.03763
# Poissons Ratio (y) = -0.03321 0.65110
# Poissons Ratio (z) = 0.02771 0.73154
#
# Static dielectric constant tensor:
#      x y z
#    x 1.803620 0.000000 0.000000 
#    y 0.000000 1.768160 0.000000 
#    z 0.000000 0.000000 1.753880 
# 
# From -- ./inp_files/31580.got.cif
#   From: 2010.05.17/outbox.cif.g08.bks.cpg/sg59_16_cif.got.tgz:31580.got - 2010.06.03 14:40:33.
