data_PCOD9447210
_publ_section_title
;
Structure prediction by ZEFSAII (Michael W. Deem and Ramdas Pophale) SiO2 
 PCOD9447210
Probable space group: P M M N
;
_chemical_formula_sum "Si O2"
_cell_formula_units_Z 64
_cell_length_a 7.787008
_cell_length_b 19.700083
_cell_length_c 20.000705
_cell_angle_alpha 90.000000
_cell_angle_beta 90.000000
_cell_angle_gamma 90.000000
_cell_volume 3068.202229
_symmetry_space_group_name_H-M "P M M N"
_symmetry_group_IT_number 59
_space_group.IT_coordinate_system_code '2'
_symmetry_cell_setting 'orthorhombic'
loop_
_space_group_symop_operation_xyz
x,y,z
1/2-x,1/2-y,z
1/2+x,-y,-z
-x,1/2+y,-z
-x,-y,-z
1/2+x,1/2+y,-z
1/2-x,y,z
x,1/2-y,z
loop_
_atom_site_type_symbol
_atom_site_label
_atom_site_fract_x
_atom_site_fract_y
_atom_site_fract_z
Si Si1 0.949914 0.173416 0.366138
Si Si2 0.960958 0.946309 0.865946
Si Si3 0.950503 0.955958 0.714230
Si Si4 0.045138 0.173252 0.041268
Si Si5 0.042486 0.909395 0.354659
Si Si6 0.040476 0.827445 0.224173
Si Si7 0.457404 0.907616 0.092098
Si Si8 0.952731 0.673411 0.483814
O O1 0.750000 0.174174 0.348046
O O2 0.019843 0.250000 0.357340
O O3 0.035757 0.115946 0.321894
O O4 0.964739 0.156832 0.444840
O O5 0.750000 0.944901 0.865690
O O6 0.021394 0.953225 0.789403
O O7 0.021470 0.877814 0.901756
O O8 0.013065 0.013874 0.906367
O O9 0.750000 0.973173 0.723299
O O10 0.020492 0.015868 0.666950
O O11 0.250000 0.178175 0.050790
O O12 0.975048 0.250000 0.042009
O O13 0.015868 0.136049 0.970789
O O14 0.250000 0.909578 0.356955
O O15 0.987094 0.859932 0.294339
O O16 0.985713 0.879754 0.425310
O O17 0.250000 0.827755 0.223897
O O18 0.983357 0.750000 0.217421
O O19 0.985401 0.872376 0.161181
O O20 0.250000 0.907214 0.091840
O O21 0.750000 0.675902 0.495802
O O22 0.010735 0.750000 0.463867
#
# Coordination Sequence:
#
# PCOD9447210 Si02
#       8
#     8   8   8   8   8   8   8   8
#     4  10  22  40  60  82 109 143 183 227 276 326
#     4   9  18  35  57  79 107 143 183 225 270 326
#     4  10  20  36  59  85 110 140 183 229 273 327
#     4  10  21  35  51  76 110 145 181 224 276 328
#     4  10  19  33  54  81 112 144 179 224 275 329
#     4   9  16  27  48  77 106 139 178 218 263 315
#     4  10  18  33  56  80 105 139 183 227 268 317
#     4  10  21  37  57  82 112 147 187 228 270 321
#
# _framework density 20.859120999999998
#
# number of rings (size 3 to 8) (size 9 to 14) (size 15 to 20)
#    0.000    2.250    1.250    1.875    0.000    4.250 
#    0.000    3.125    0.000    2.250    0.000    0.000 
#    0.000    0.000    0.000    0.000    0.000    0.000 
#
# Total GULP energy -357369.530066 kJ/mol
# GULP energy per Si atom -5583.898907 kJ/mol
# Density = 2.081164 g / cm^3
# Si number density = 20.859121 Si / 1000 Ang^3
#
#
#
# Elastic Constant Matrix: (Units=GPa)
#
#
# Indices 1 2 3 4 5 6 
#
# 1 26.8536 -0.2877 -7.3668 0.0000 0.0000 0.0000
# 2 -0.2877 155.8867 55.0297 0.0000 0.0000 0.0000
# 3 -7.3668 55.0297 44.8505 0.0000 0.0000 0.0000
# 4 0.0000 0.0000 0.0000 34.6130 0.0000 0.0000
# 5 0.0000 0.0000 0.0000 0.0000 -2.8404 0.0000
# 6 0.0000 0.0000 0.0000 0.0000 0.0000 15.9578
#
#
#
# Elastic Compliance Matrix: (Units=1/GPa)
#
#
# Indices 1 2 3 4 5 6 
#
# 1 0.040360 -0.003997 0.011533 0.000000 0.000000 0.000000
# 2 -0.003997 0.011712 -0.015027 0.000000 0.000000 0.000000
# 3 0.011533 -0.015027 0.042628 0.000000 0.000000 0.000000
# 4 0.000000 0.000000 0.000000 0.028891 0.000000 0.000000
# 5 0.000000 0.000000 0.000000 0.000000 -0.352065 0.000000
# 6 0.000000 0.000000 0.000000 0.000000 0.000000 0.062665
#
#
# Mechanical properties :
#
#
# Convention : Reuss Voigt Hill
#
# Bulk Modulus (GPa) = 12.54402 35.81568 24.17985
# Shear Modulus (GPa) = -40.23991 21.56046 -9.33973
#
# Velocity S-wave (km/s) = -4.39695 3.21849 -2.11831
# Velocity P-wave (km/s) = 4.44419 5.56948 2.37364
#
# Compressibility (1/GPa) = 0.07971928
#
# Stress axis : x y z
#
# Youngs Moduli (GPa) = 24.77694 85.38135 23.45883
#
# Poissons Ratio (x) = 0.34126 -0.27056
# Poissons Ratio (y) = 0.09903 0.35251
# Poissons Ratio (z) = -0.28576 1.28301
#
# Static dielectric constant tensor:
#      x y z
#    x 1.774030 0.000000 0.000000 
#    y 0.000000 1.749910 0.000000 
#    z 0.000000 0.000000 1.706260 
# 
# From -- ./inp_files/28213.got.cif
#   From: 2010.05.17/outbox.cif.g08.bks.cpg/sg59_15_cif.got.tgz:28213.got - 2010.06.03 14:40:33.
