data_PCOD9447544
_publ_section_title
;
Structure prediction by ZEFSAII (Michael W. Deem and Ramdas Pophale) SiO2 
 PCOD9447544
Probable space group: P M M N
;
_chemical_formula_sum "Si O2"
_cell_formula_units_Z 64
_cell_length_a 9.174392
_cell_length_b 23.966143
_cell_length_c 18.561178
_cell_angle_alpha 90.000000
_cell_angle_beta 90.000000
_cell_angle_gamma 90.000000
_cell_volume 4081.135126
_symmetry_space_group_name_H-M "P M M N"
_symmetry_group_IT_number 59
_space_group.IT_coordinate_system_code '2'
_symmetry_cell_setting 'orthorhombic'
loop_
_space_group_symop_operation_xyz
x,y,z
1/2-x,1/2-y,z
1/2+x,-y,-z
-x,1/2+y,-z
-x,-y,-z
1/2+x,1/2+y,-z
1/2-x,y,z
x,1/2-y,z
loop_
_atom_site_type_symbol
_atom_site_label
_atom_site_fract_x
_atom_site_fract_y
_atom_site_fract_z
Si Si1 0.926995 0.883828 0.638420
Si Si2 0.582543 0.182147 0.073464
Si Si3 0.075356 0.184667 0.502653
Si Si4 0.925299 0.124019 0.635021
Si Si5 0.082332 0.317900 0.929436
Si Si6 0.425533 0.184334 0.221762
Si Si7 0.574133 0.002190 0.578483
Si Si8 0.424787 0.684300 0.218278
O O1 0.750000 0.882078 0.640183
O O2 0.972817 0.848638 0.568407
O O3 0.975293 0.853908 0.711690
O O4 0.969542 0.947743 0.624386
O O5 0.750000 0.163758 0.074489
O O6 0.582337 0.250000 0.071332
O O7 0.499364 0.167239 0.146781
O O8 0.501225 0.162987 0.001142
O O9 0.250000 0.177306 0.509948
O O10 0.045889 0.250000 0.493999
O O11 0.997788 0.160517 0.572645
O O12 0.750000 0.129349 0.630346
O O13 0.962895 0.059700 0.618800
O O14 0.968784 0.147489 0.713082
O O15 0.250000 0.335896 0.930105
O O16 0.080983 0.250000 0.931086
O O17 0.002604 0.333444 0.855407
O O18 0.250000 0.180324 0.214797
O O19 0.458509 0.250000 0.235860
O O20 0.750000 0.000414 0.568830
O O21 0.500000 0.000000 0.500000
O O22 0.250000 0.680275 0.208997
O O23 0.458175 0.750000 0.231923
#
# Coordination Sequence:
#
# PCOD9447544 Si02
#       8
#     8   8   8   8   8   8   8   8
#     4   9  17  30  47  66  89 118 154 195 235 273
#     4   9  16  26  41  63  93 125 151 177 217 269
#     4  10  19  30  46  67  91 121 155 189 230 280
#     4  10  20  32  47  67  91 121 156 193 236 281
#     4   9  16  26  42  65  91 119 152 184 215 261
#     4   9  16  27  44  65  90 120 153 188 226 271
#     4  10  19  33  51  68  87 117 158 201 240 278
#     4   9  17  29  43  61  90 123 150 181 225 275
#
# _framework density 15.681912000000001
#
# number of rings (size 3 to 8) (size 9 to 14) (size 15 to 20)
#    0.000    2.625    1.250    1.500    0.000    5.750 
#    0.000    2.500    0.000    1.500    0.000    0.875 
#    0.000    0.000    0.000    0.000    0.000    0.000 
#
# Total GULP energy -356651.875478 kJ/mol
# GULP energy per Si atom -5572.685554 kJ/mol
# Density = 1.564622 g / cm^3
# Si number density = 15.681912 Si / 1000 Ang^3
#
#
#
# Elastic Constant Matrix: (Units=GPa)
#
#
# Indices 1 2 3 4 5 6 
#
# 1 29.9637 19.1879 40.8757 0.0000 0.0000 0.0000
# 2 19.1879 46.4314 34.3788 0.0000 0.0000 0.0000
# 3 40.8757 34.3788 139.8408 0.0000 0.0000 0.0000
# 4 0.0000 0.0000 0.0000 3.4143 0.0000 0.0000
# 5 0.0000 0.0000 0.0000 0.0000 27.2739 0.0000
# 6 0.0000 0.0000 0.0000 0.0000 0.0000 13.0099
#
#
#
# Elastic Compliance Matrix: (Units=1/GPa)
#
#
# Indices 1 2 3 4 5 6 
#
# 1 0.063225 -0.015214 -0.014741 0.000000 0.000000 0.000000
# 2 -0.015214 0.029991 -0.002926 0.000000 0.000000 0.000000
# 3 -0.014741 -0.002926 0.012179 0.000000 0.000000 0.000000
# 4 0.000000 0.000000 0.000000 0.292884 0.000000 0.000000
# 5 0.000000 0.000000 0.000000 0.000000 0.036665 0.000000
# 6 0.000000 0.000000 0.000000 0.000000 0.000000 0.076864
#
#
# Mechanical properties :
#
#
# Convention : Reuss Voigt Hill
#
# Bulk Modulus (GPa) = 25.23082 45.01342 35.12212
# Shear Modulus (GPa) = 8.46339 16.85920 12.66130
#
# Velocity S-wave (km/s) = 2.32565 3.28239 2.84453
# Velocity P-wave (km/s) = 4.83069 6.56748 5.76486
#
# Compressibility (1/GPa) = 0.03963407
#
# Stress axis : x y z
#
# Youngs Moduli (GPa) = 15.81661 33.34368 82.10849
#
# Poissons Ratio (x) = 0.50728 1.21032
# Poissons Ratio (y) = 0.24063 0.24025
# Poissons Ratio (z) = 0.23315 0.09756
#
# Static dielectric constant tensor:
#      x y z
#    x 1.533560 0.000000 0.000000 
#    y 0.000000 1.510930 0.000000 
#    z 0.000000 0.000000 1.505900 
# 
# From -- ./inp_files/26457.got.cif
#   From: 2010.05.17/outbox.cif.g08.bks.cpg/sg59_14_cif.got.tgz:26457.got - 2010.06.03 14:40:33.
