data_PCOD9447072
_publ_section_title
;
Structure prediction by ZEFSAII (Michael W. Deem and Ramdas Pophale) SiO2 
 PCOD9447072
Probable space group: P M M N
;
_chemical_formula_sum "Si O2"
_cell_formula_units_Z 64
_cell_length_a 29.445429
_cell_length_b 8.046271
_cell_length_c 12.683811
_cell_angle_alpha 90.000000
_cell_angle_beta 90.000000
_cell_angle_gamma 90.000000
_cell_volume 3005.123355
_symmetry_space_group_name_H-M "P M M N"
_symmetry_group_IT_number 59
_space_group.IT_coordinate_system_code '2'
_symmetry_cell_setting 'orthorhombic'
loop_
_space_group_symop_operation_xyz
x,y,z
1/2-x,1/2-y,z
1/2+x,-y,-z
-x,1/2+y,-z
-x,-y,-z
1/2+x,1/2+y,-z
1/2-x,y,z
x,1/2-y,z
loop_
_atom_site_type_symbol
_atom_site_label
_atom_site_fract_x
_atom_site_fract_y
_atom_site_fract_z
Si Si1 0.421521 0.553977 0.027131
Si Si2 0.460894 0.051892 0.251464
Si Si3 0.797755 0.056396 0.794651
Si Si4 0.321855 0.062421 0.987504
Si Si5 0.198664 0.547095 0.536371
Si Si6 0.126888 0.950791 0.359737
Si Si7 0.557264 0.450263 0.204667
Si Si8 0.660143 0.450765 0.240249
O O1 0.409386 0.750000 0.022856
O O2 0.375490 0.452188 0.011533
O O3 0.449724 0.517308 0.920654
O O4 0.443579 0.518515 0.139312
O O5 0.462432 0.250000 0.240539
O O6 0.512669 0.990029 0.265992
O O7 0.424203 0.010406 0.341059
O O8 0.750000 0.980172 0.758523
O O9 0.796836 0.250000 0.764120
O O10 0.842944 0.989445 0.740317
O O11 0.800282 0.044135 0.919868
O O12 0.306225 0.250000 0.000224
O O13 0.316146 0.005024 0.867921
O O14 0.250000 0.493626 0.508117
O O15 0.199093 0.750000 0.533471
O O16 0.157867 0.496029 0.458485
O O17 0.185792 0.494873 0.654696
O O18 0.124120 0.750000 0.361209
O O19 0.559329 0.250000 0.216765
O O20 0.607436 0.510917 0.237028
O O21 0.659089 0.250000 0.240290
#
# Coordination Sequence:
#
# PCOD9447072 Si02
#       8
#     8   8   8   8   8   8   8   8
#     4  10  18  32  52  75 106 145 187 226 265 314
#     4  11  20  31  49  76 110 147 185 222 269 327
#     4  10  20  34  53  75 104 143 181 220 273 334
#     4  11  21  33  51  79 114 146 176 218 273 331
#     4   9  18  35  62  89 105 130 183 240 279 319
#     4  10  20  35  55  80 110 140 179 231 278 322
#     4   8  17  31  49  75 108 147 185 222 267 322
#     4   9  18  36  59  80 108 143 184 231 276 324
#
# _framework density 21.296963999999999
#
# number of rings (size 3 to 8) (size 9 to 14) (size 15 to 20)
#    0.000    2.250    1.250    3.375    0.000    2.250 
#    0.000    8.125    0.000    1.875    0.000    0.000 
#    0.000    0.000    0.000    0.000    0.000    0.000 
#
# Total GULP energy -356990.984460 kJ/mol
# GULP energy per Si atom -5577.984132 kJ/mol
# Density = 2.124849 g / cm^3
# Si number density = 21.296964 Si / 1000 Ang^3
#
#
#
# Elastic Constant Matrix: (Units=GPa)
#
#
# Indices 1 2 3 4 5 6 
#
# 1 49.9922 1.0654 1.2418 0.0000 0.0000 0.0000
# 2 1.0654 28.4244 -1.4441 0.0000 0.0000 0.0000
# 3 1.2418 -1.4441 73.0140 0.0000 0.0000 0.0000
# 4 0.0000 0.0000 0.0000 3.9737 0.0000 0.0000
# 5 0.0000 0.0000 0.0000 0.0000 30.3275 0.0000
# 6 0.0000 0.0000 0.0000 0.0000 0.0000 10.5215
#
#
#
# Elastic Compliance Matrix: (Units=1/GPa)
#
#
# Indices 1 2 3 4 5 6 
#
# 1 0.020028 -0.000769 -0.000356 0.000000 0.000000 0.000000
# 2 -0.000769 0.035246 0.000710 0.000000 0.000000 0.000000
# 3 -0.000356 0.000710 0.013716 0.000000 0.000000 0.000000
# 4 0.000000 0.000000 0.000000 0.251654 0.000000 0.000000
# 5 0.000000 0.000000 0.000000 0.000000 0.032973 0.000000
# 6 0.000000 0.000000 0.000000 0.000000 0.000000 0.095044
#
#
# Mechanical properties :
#
#
# Convention : Reuss Voigt Hill
#
# Bulk Modulus (GPa) = 14.67102 17.01741 15.84421
# Shear Modulus (GPa) = 10.58849 19.00237 14.79543
#
# Velocity S-wave (km/s) = 2.23218 2.99031 2.63861
# Velocity P-wave (km/s) = 3.68066 4.46436 4.09131
#
# Compressibility (1/GPa) = 0.06816158
#
# Stress axis : x y z
#
# Youngs Moduli (GPa) = 49.92924 28.37209 72.90697
#
# Poissons Ratio (x) = 0.02181 0.02594
# Poissons Ratio (y) = 0.03838 -0.05178
# Poissons Ratio (z) = 0.01777 -0.02015
#
# Static dielectric constant tensor:
#      x y z
#    x 1.796100 0.000000 0.000000 
#    y 0.000000 1.775110 0.000000 
#    z 0.000000 0.000000 1.763040 
# 
# From -- ./inp_files/19268.got.cif
#   From: 2010.05.17/outbox.cif.g08.bks.cpg/sg59_10_cif.got.tgz:19268.got - 2010.06.03 14:40:33.
