data_PCOD9447473
_publ_section_title
;
Structure prediction by ZEFSAII (Michael W. Deem and Ramdas Pophale) SiO2 
 PCOD9447473
Probable space group: P M M N
;
_chemical_formula_sum "Si O2"
_cell_formula_units_Z 40
_cell_length_a 21.278216
_cell_length_b 9.188101
_cell_length_c 12.969398
_cell_angle_alpha 90.000000
_cell_angle_beta 90.000000
_cell_angle_gamma 90.000000
_cell_volume 2535.600283
_symmetry_space_group_name_H-M "P M M N"
_symmetry_group_IT_number 59
_space_group.IT_coordinate_system_code '2'
_symmetry_cell_setting 'orthorhombic'
loop_
_space_group_symop_operation_xyz
x,y,z
1/2-x,1/2-y,z
1/2+x,-y,-z
-x,1/2+y,-z
-x,-y,-z
1/2+x,1/2+y,-z
1/2-x,y,z
x,1/2-y,z
loop_
_atom_site_type_symbol
_atom_site_label
_atom_site_fract_x
_atom_site_fract_y
_atom_site_fract_z
Si Si1 0.956836 0.424059 0.141608
Si Si2 0.556505 0.423362 0.369780
Si Si3 0.088006 0.423826 0.427625
Si Si4 0.676379 0.575041 0.760830
Si Si5 0.586976 0.076686 0.917996
O O1 0.970667 0.250000 0.144696
O O2 0.927838 0.463639 0.252150
O O3 0.022082 0.508391 0.124728
O O4 0.914561 0.451539 0.041028
O O5 0.563842 0.250000 0.381686
O O6 0.593283 0.502482 0.460997
O O7 0.482216 0.457413 0.385711
O O8 0.092024 0.250000 0.439352
O O9 0.138702 0.469523 0.342479
O O10 0.750000 0.542162 0.753435
O O11 0.668913 0.750000 0.771226
O O12 0.643533 0.497429 0.857105
O O13 0.587103 0.250000 0.902166
#
# Coordination Sequence:
#
# PCOD9447473 Si02
#       5
#     8   8   8   8   8
#     4   9  17  31  48  69  99 129 154 189 240 293
#     4   9  16  28  47  68  95 124 150 189 237 284
#     4   9  17  29  45  68  94 121 157 194 232 278
#     4  10  20  35  52  67  93 132 164 193 234 284
#     4  10  19  29  47  73  98 124 159 199 236 276
#
# _framework density 15.775357
#
# number of rings (size 3 to 8) (size 9 to 14) (size 15 to 20)
#    0.000    2.600    2.000    0.600    0.000    2.800 
#    0.000    0.000    0.000    1.200    0.000    5.600 
#    0.000    0.000    0.000    0.000    0.000    0.000 
#
# Total GULP energy -222885.616441 kJ/mol
# GULP energy per Si atom -5572.140411 kJ/mol
# Density = 1.573945 g / cm^3
# Si number density = 15.775357 Si / 1000 Ang^3
#
#
#
# Elastic Constant Matrix: (Units=GPa)
#
#
# Indices 1 2 3 4 5 6 
#
# 1 77.1835 35.2740 59.3061 0.0000 0.0000 0.0000
# 2 35.2740 25.3731 51.8822 0.0000 0.0000 0.0000
# 3 59.3061 51.8822 164.0633 0.0000 0.0000 0.0000
# 4 0.0000 0.0000 0.0000 30.0170 0.0000 0.0000
# 5 0.0000 0.0000 0.0000 0.0000 19.7582 0.0000
# 6 0.0000 0.0000 0.0000 0.0000 0.0000 18.0736
#
#
#
# Elastic Compliance Matrix: (Units=1/GPa)
#
#
# Indices 1 2 3 4 5 6 
#
# 1 0.039510 -0.072793 0.008737 0.000000 0.000000 0.000000
# 2 -0.072793 0.245642 -0.051367 0.000000 0.000000 0.000000
# 3 0.008737 -0.051367 0.019181 0.000000 0.000000 0.000000
# 4 0.000000 0.000000 0.000000 0.033314 0.000000 0.000000
# 5 0.000000 0.000000 0.000000 0.000000 0.050612 0.000000
# 6 0.000000 0.000000 0.000000 0.000000 0.000000 0.055329
#
#
# Mechanical properties :
#
#
# Convention : Reuss Voigt Hill
#
# Bulk Modulus (GPa) = 13.60765 62.17162 37.88963
# Shear Modulus (GPa) = 7.15381 21.58027 14.36704
#
# Velocity S-wave (km/s) = 2.13182 3.70262 3.02110
# Velocity P-wave (km/s) = 3.83460 7.60101 6.01995
#
# Compressibility (1/GPa) = 0.07348808
#
# Stress axis : x y z
#
# Youngs Moduli (GPa) = 25.31011 4.07097 52.13588
#
# Poissons Ratio (x) = 0.29634 -0.45553
# Poissons Ratio (y) = 1.84239 2.67805
# Poissons Ratio (z) = -0.22114 0.20911
#
# Static dielectric constant tensor:
#      x y z
#    x 1.493360 0.000000 0.000000 
#    y 0.000000 1.527740 0.000000 
#    z 0.000000 0.000000 1.549070 
# 
# From -- ./inp_files/14029.got.cif
#   From: 2010.05.17/outbox.cif.g08.bks.cpg/sg59_8_cif.got.tgz:14029.got - 2010.06.03 14:40:33.
