data_PCOD9447027
_publ_section_title
;
Structure prediction by ZEFSAII (Michael W. Deem and Ramdas Pophale) SiO2 
 PCOD9447027
Probable space group: P M M N
;
_chemical_formula_sum "Si O2"
_cell_formula_units_Z 56
_cell_length_a 8.826198
_cell_length_b 20.577174
_cell_length_c 15.809484
_cell_angle_alpha 90.000000
_cell_angle_beta 90.000000
_cell_angle_gamma 90.000000
_cell_volume 2871.290217
_symmetry_space_group_name_H-M "P M M N"
_symmetry_group_IT_number 59
_space_group.IT_coordinate_system_code '2'
_symmetry_cell_setting 'orthorhombic'
loop_
_space_group_symop_operation_xyz
x,y,z
1/2-x,1/2-y,z
1/2+x,-y,-z
-x,1/2+y,-z
-x,-y,-z
1/2+x,1/2+y,-z
1/2-x,y,z
x,1/2-y,z
loop_
_atom_site_type_symbol
_atom_site_label
_atom_site_fract_x
_atom_site_fract_y
_atom_site_fract_z
Si Si1 0.567902 0.463090 0.583200
Si Si2 0.428466 0.822828 0.988500
Si Si3 0.419091 0.326859 0.366734
Si Si4 0.072376 0.448242 0.934391
Si Si5 0.064974 0.326546 0.552693
Si Si6 0.422515 0.503204 0.228450
Si Si7 0.925547 0.645734 0.813861
O O1 0.500000 0.500000 0.500000
O O2 0.750000 0.461369 0.572865
O O3 0.503972 0.389472 0.598737
O O4 0.532662 0.499396 0.672597
O O5 0.250000 0.836366 0.994457
O O6 0.457547 0.750000 0.019641
O O7 0.480808 0.827470 0.891251
O O8 0.520394 0.877383 0.036879
O O9 0.250000 0.358208 0.361954
O O10 0.399105 0.250000 0.373032
O O11 0.488061 0.343189 0.456531
O O12 0.495128 0.338201 0.277481
O O13 0.250000 0.456094 0.942354
O O14 0.023709 0.457529 0.837131
O O15 0.000000 0.500000 0.000000
O O16 0.250000 0.329031 0.554335
O O17 0.025434 0.250000 0.572510
O O18 0.250000 0.528741 0.226733
O O19 0.420804 0.431817 0.187217
O O20 0.750000 0.669616 0.817616
#
# Coordination Sequence:
#
# PCOD9447027 Si02
#       7
#     8   8   8   8   8   8   8
#     4  11  23  39  61  90 126 164 208 259 310 367
#     4  11  24  40  59  87 124 161 199 249 307 362
#     4   8  14  26  47  76 109 148 193 238 290 355
#     4  12  24  41  66  92 120 157 202 250 300 362
#     4   9  18  35  58  82 113 157 206 256 313 371
#     4  10  22  39  60  88 119 159 207 252 304 365
#     4  10  18  31  55  82 111 150 196 246 300 365
#
# _framework density 19.503426999999999
#
# number of rings (size 3 to 8) (size 9 to 14) (size 15 to 20)
#    0.000    1.857    1.429    4.286    0.000    5.429 
#    0.000    2.857    0.000    1.714    0.000    0.000 
#    0.000    0.000    0.000    0.000    0.000    0.000 
#
# Total GULP energy -312070.893254 kJ/mol
# GULP energy per Si atom -5572.694522 kJ/mol
# Density = 1.945904 g / cm^3
# Si number density = 19.503427 Si / 1000 Ang^3
#
#
#
# Elastic Constant Matrix: (Units=GPa)
#
#
# Indices 1 2 3 4 5 6 
#
# 1 76.5002 37.2560 40.3896 0.0000 0.0000 0.0000
# 2 37.2560 66.4600 28.0080 0.0000 0.0000 0.0000
# 3 40.3896 28.0080 78.1583 0.0000 0.0000 0.0000
# 4 0.0000 0.0000 0.0000 31.5530 0.0000 0.0000
# 5 0.0000 0.0000 0.0000 0.0000 71.7584 0.0000
# 6 0.0000 0.0000 0.0000 0.0000 0.0000 24.5298
#
#
#
# Elastic Compliance Matrix: (Units=1/GPa)
#
#
# Indices 1 2 3 4 5 6 
#
# 1 0.021538 -0.008697 -0.008014 0.000000 0.000000 0.000000
# 2 -0.008697 0.021235 -0.003115 0.000000 0.000000 0.000000
# 3 -0.008014 -0.003115 0.018052 0.000000 0.000000 0.000000
# 4 0.000000 0.000000 0.000000 0.031693 0.000000 0.000000
# 5 0.000000 0.000000 0.000000 0.000000 0.013936 0.000000
# 6 0.000000 0.000000 0.000000 0.000000 0.000000 0.040767
#
#
# Mechanical properties :
#
#
# Convention : Reuss Voigt Hill
#
# Bulk Modulus (GPa) = 47.22865 48.04730 47.63797
# Shear Modulus (GPa) = 25.78259 33.26590 29.52425
#
# Velocity S-wave (km/s) = 3.63981 4.13442 3.89498
# Velocity P-wave (km/s) = 6.47553 6.89058 6.68627
#
# Compressibility (1/GPa) = 0.02117359
#
# Stress axis : x y z
#
# Youngs Moduli (GPa) = 46.42926 47.09286 55.39504
#
# Poissons Ratio (x) = 0.40955 0.44392
# Poissons Ratio (y) = 0.40378 0.17257
# Poissons Ratio (z) = 0.37207 0.14671
#
# Static dielectric constant tensor:
#      x y z
#    x 1.683900 0.000000 0.000000 
#    y 0.000000 1.695260 0.000000 
#    z 0.000000 0.000000 1.755690 
# 
# From -- ./inp_files/21056.got.cif
#   From: 2010.05.17/outbox.cif.g08.bks.cpg/sg59_11_cif.got.tgz:21056.got - 2010.06.03 14:40:33.
