data_PCOD9447457
_publ_section_title
;
Structure prediction by ZEFSAII (Michael W. Deem and Ramdas Pophale) SiO2 
 PCOD9447457
Probable space group: P M M N
;
_chemical_formula_sum "Si O2"
_cell_formula_units_Z 64
_cell_length_a 24.534524
_cell_length_b 9.181432
_cell_length_c 16.799217
_cell_angle_alpha 90.000000
_cell_angle_beta 90.000000
_cell_angle_gamma 90.000000
_cell_volume 3784.226291
_symmetry_space_group_name_H-M "P M M N"
_symmetry_group_IT_number 59
_space_group.IT_coordinate_system_code '2'
_symmetry_cell_setting 'orthorhombic'
loop_
_space_group_symop_operation_xyz
x,y,z
1/2-x,1/2-y,z
1/2+x,-y,-z
-x,1/2+y,-z
-x,-y,-z
1/2+x,1/2+y,-z
1/2-x,y,z
x,1/2-y,z
loop_
_atom_site_type_symbol
_atom_site_label
_atom_site_fract_x
_atom_site_fract_y
_atom_site_fract_z
Si Si1 0.816056 0.583182 0.089883
Si Si2 0.915525 0.925274 0.367860
Si Si3 0.813771 0.921915 0.619161
Si Si4 0.623920 0.922607 0.784746
Si Si5 0.814696 0.076471 0.928857
Si Si6 0.028992 0.576717 0.302729
Si Si7 0.591810 0.077498 0.532961
Si Si8 0.187626 0.072443 0.732303
O O1 0.750000 0.587991 0.090876
O O2 0.835277 0.750000 0.079271
O O3 0.830448 0.529295 0.178345
O O4 0.831676 0.485203 0.015160
O O5 0.915211 0.750000 0.377755
O O6 0.857516 0.971997 0.331467
O O7 0.965266 0.959666 0.308270
O O8 0.925617 0.997970 0.452773
O O9 0.750000 0.954678 0.615813
O O10 0.821602 0.750000 0.601215
O O11 0.837039 0.946919 0.707903
O O12 0.849355 0.016608 0.559144
O O13 0.620092 0.750000 0.798012
O O14 0.650634 0.000746 0.859998
O O15 0.565779 0.989072 0.759281
O O16 0.750000 0.042675 0.917927
O O17 0.820811 0.250000 0.925888
O O18 0.035244 0.750000 0.288277
O O19 0.053350 0.546672 0.391003
O O20 0.592778 0.250000 0.520931
O O21 0.250000 0.024312 0.717007
O O22 0.188698 0.250000 0.733212
#
# Coordination Sequence:
#
# PCOD9447457 Si02
#       8
#     8   8   8   8   8   8   8   8
#     4   8  14  27  47  69  94 123 154 189 229 275
#     4  10  19  32  52  73  93 123 162 201 241 287
#     4   9  18  32  48  66  91 124 159 193 233 283
#     4  10  19  31  49  71  95 125 162 202 239 278
#     4  10  19  29  45  72 103 131 157 187 228 279
#     4   9  19  34  49  67  94 127 162 201 245 287
#     4  10  20  32  46  67  95 125 159 200 242 283
#     4   8  15  29  50  75  98 120 151 193 239 284
#
# _framework density 16.912307999999999
#
# number of rings (size 3 to 8) (size 9 to 14) (size 15 to 20)
#    0.000    2.750    0.000    2.625    0.000    3.500 
#    0.000    1.875    0.000    1.500    0.000    0.000 
#    0.000    0.000    0.000    0.000    0.000    0.000 
#
# Total GULP energy -356742.100798 kJ/mol
# GULP energy per Si atom -5574.095325 kJ/mol
# Density = 1.687381 g / cm^3
# Si number density = 16.912308 Si / 1000 Ang^3
#
#
#
# Elastic Constant Matrix: (Units=GPa)
#
#
# Indices 1 2 3 4 5 6 
#
# 1 69.3848 20.4353 9.5170 0.0000 0.0000 0.0000
# 2 20.4353 28.4188 22.5059 0.0000 0.0000 0.0000
# 3 9.5170 22.5059 38.9842 0.0000 0.0000 0.0000
# 4 0.0000 0.0000 0.0000 17.9837 0.0000 0.0000
# 5 0.0000 0.0000 0.0000 0.0000 13.9372 0.0000
# 6 0.0000 0.0000 0.0000 0.0000 0.0000 17.9743
#
#
#
# Elastic Compliance Matrix: (Units=1/GPa)
#
#
# Indices 1 2 3 4 5 6 
#
# 1 0.019015 -0.018417 0.005990 0.000000 0.000000 0.000000
# 2 -0.018417 0.082664 -0.043227 0.000000 0.000000 0.000000
# 3 0.005990 -0.043227 0.049144 0.000000 0.000000 0.000000
# 4 0.000000 0.000000 0.000000 0.055606 0.000000 0.000000
# 5 0.000000 0.000000 0.000000 0.000000 0.071750 0.000000
# 6 0.000000 0.000000 0.000000 0.000000 0.000000 0.055635
#
#
# Mechanical properties :
#
#
# Convention : Reuss Voigt Hill
#
# Bulk Modulus (GPa) = 25.30597 26.85601 26.08099
# Shear Modulus (GPa) = 10.91004 15.60102 13.25553
#
# Velocity S-wave (km/s) = 2.54263 3.04051 2.80264
# Velocity P-wave (km/s) = 4.85957 5.31416 5.09194
#
# Compressibility (1/GPa) = 0.03951637
#
# Stress axis : x y z
#
# Youngs Moduli (GPa) = 52.59006 12.09714 20.34837
#
# Poissons Ratio (x) = 0.22280 -0.12190
# Poissons Ratio (y) = 0.96857 0.87959
# Poissons Ratio (z) = -0.31504 0.52292
#
# Static dielectric constant tensor:
#      x y z
#    x 1.571780 0.000000 0.000000 
#    y 0.000000 1.562610 0.000000 
#    z 0.000000 0.000000 1.562660 
# 
# From -- ./inp_files/24768.got.cif
#   From: 2010.05.17/outbox.cif.g08.bks.cpg/sg59_13_cif.got.tgz:24768.got - 2010.06.03 14:40:33.
