data_PCOD9447018
_publ_section_title
;
Structure prediction by ZEFSAII (Michael W. Deem and Ramdas Pophale) SiO2 
 PCOD9447018
Probable space group: P M M N
;
_chemical_formula_sum "Si O2"
_cell_formula_units_Z 48
_cell_length_a 17.578649
_cell_length_b 16.724320
_cell_length_c 9.188742
_cell_angle_alpha 90.000000
_cell_angle_beta 90.000000
_cell_angle_gamma 90.000000
_cell_volume 2701.406999
_symmetry_space_group_name_H-M "P M M N"
_symmetry_group_IT_number 59
_space_group.IT_coordinate_system_code '2'
_symmetry_cell_setting 'orthorhombic'
loop_
_space_group_symop_operation_xyz
x,y,z
1/2-x,1/2-y,z
1/2+x,-y,-z
-x,1/2+y,-z
-x,-y,-z
1/2+x,1/2+y,-z
1/2-x,y,z
x,1/2-y,z
loop_
_atom_site_type_symbol
_atom_site_label
_atom_site_fract_x
_atom_site_fract_y
_atom_site_fract_z
Si Si1 0.941893 0.159603 0.119802
Si Si2 0.384364 0.161993 0.227612
Si Si3 0.166417 0.062615 0.989506
Si Si4 0.659652 0.502799 0.595842
Si Si5 0.401905 0.501652 0.726962
Si Si6 0.935677 0.439656 0.837083
O O1 0.912151 0.250000 0.130620
O O2 0.895850 0.091050 0.205685
O O3 0.025796 0.158611 0.191994
O O4 0.946955 0.132697 0.949972
O O5 0.365716 0.250000 0.284610
O O6 0.359543 0.089245 0.331383
O O7 0.343826 0.145604 0.072484
O O8 0.250000 0.030338 0.026761
O O9 0.153536 0.056348 0.818629
O O10 0.099674 0.008546 0.058916
O O11 0.750000 0.494761 0.581222
O O12 0.618376 0.497810 0.441188
O O13 0.624951 0.436689 0.706359
O O14 0.486226 0.469288 0.764560
#
# Coordination Sequence:
#
# PCOD9447018 Si02
#       6
#     8   8   8   8   8   8
#     4  10  19  34  58  86 107 133 183 237 277 313
#     4  10  19  34  54  80 111 142 178 218 269 328
#     4  10  18  31  54  79 106 140 176 220 266 315
#     4  11  23  35  55  82 111 149 184 221 272 328
#     4  11  19  36  56  80 110 146 184 225 263 322
#     4  10  18  35  56  78 105 142 182 222 261 318
#
# _framework density 17.768519000000001
#
# number of rings (size 3 to 8) (size 9 to 14) (size 15 to 20)
#    0.000    1.667    5.000    4.000    0.000    1.333 
#    0.000    2.500    0.000   21.000    0.000    0.000 
#    0.000    0.000    0.000    0.000    0.000    0.000 
#
# Total GULP energy -267312.894454 kJ/mol
# GULP energy per Si atom -5569.018634 kJ/mol
# Density = 1.772808 g / cm^3
# Si number density = 17.768519 Si / 1000 Ang^3
#
#
#
# Elastic Constant Matrix: (Units=GPa)
#
#
# Indices 1 2 3 4 5 6 
#
# 1 77.9749 13.5429 21.7825 0.0000 0.0000 0.0000
# 2 13.5429 80.5317 27.1862 0.0000 0.0000 0.0000
# 3 21.7825 27.1862 105.4112 0.0000 0.0000 0.0000
# 4 0.0000 0.0000 0.0000 17.1726 0.0000 0.0000
# 5 0.0000 0.0000 0.0000 0.0000 17.0118 0.0000
# 6 0.0000 0.0000 0.0000 0.0000 0.0000 11.0436
#
#
#
# Elastic Compliance Matrix: (Units=1/GPa)
#
#
# Indices 1 2 3 4 5 6 
#
# 1 0.013770 -0.001484 -0.002463 0.000000 0.000000 0.000000
# 2 -0.001484 0.013762 -0.003242 0.000000 0.000000 0.000000
# 3 -0.002463 -0.003242 0.010832 0.000000 0.000000 0.000000
# 4 0.000000 0.000000 0.000000 0.058232 0.000000 0.000000
# 5 0.000000 0.000000 0.000000 0.000000 0.058783 0.000000
# 6 0.000000 0.000000 0.000000 0.000000 0.000000 0.090551
#
#
# Mechanical properties :
#
#
# Convention : Reuss Voigt Hill
#
# Bulk Modulus (GPa) = 41.69316 43.21567 42.45442
# Shear Modulus (GPa) = 18.63561 22.47268 20.55415
#
# Velocity S-wave (km/s) = 3.24203 3.56019 3.40483
# Velocity P-wave (km/s) = 6.12617 6.42450 6.27711
#
# Compressibility (1/GPa) = 0.02398475
#
# Stress axis : x y z
#
# Youngs Moduli (GPa) = 72.61944 72.66543 92.32057
#
# Poissons Ratio (x) = 0.10786 0.22736
# Poissons Ratio (y) = 0.10779 0.29935
# Poissons Ratio (z) = 0.17884 0.23562
#
# Static dielectric constant tensor:
#      x y z
#    x 1.650060 0.000000 0.000000 
#    y 0.000000 1.632890 0.000000 
#    z 0.000000 0.000000 1.634790 
# 
# From -- ./inp_files/10403.got.cif
#   From: 2010.05.17/outbox.cif.g08.bks.cpg/sg59_6_cif.got.tgz:10403.got - 2010.06.03 14:40:33.
