data_PCOD9447921
_publ_section_title
;
Structure prediction by ZEFSAII (Michael W. Deem and Ramdas Pophale) SiO2 
 PCOD9447921
Probable space group: P M M N
;
_chemical_formula_sum "Si O2"
_cell_formula_units_Z 64
_cell_length_a 31.678476
_cell_length_b 8.647186
_cell_length_c 11.733668
_cell_angle_alpha 90.000000
_cell_angle_beta 90.000000
_cell_angle_gamma 90.000000
_cell_volume 3214.199852
_symmetry_space_group_name_H-M "P M M N"
_symmetry_group_IT_number 59
_space_group.IT_coordinate_system_code '2'
_symmetry_cell_setting 'orthorhombic'
loop_
_space_group_symop_operation_xyz
x,y,z
1/2-x,1/2-y,z
1/2+x,-y,-z
-x,1/2+y,-z
-x,-y,-z
1/2+x,1/2+y,-z
1/2-x,y,z
x,1/2-y,z
loop_
_atom_site_type_symbol
_atom_site_label
_atom_site_fract_x
_atom_site_fract_y
_atom_site_fract_z
Si Si1 0.139092 0.073267 0.445326
Si Si2 0.023043 0.436117 0.831699
Si Si3 0.914467 0.937163 0.354051
Si Si4 0.844752 0.071244 0.180751
Si Si5 0.155291 0.069190 0.063918
Si Si6 0.201863 0.924081 0.603563
Si Si7 0.797523 0.433260 0.734532
Si Si8 0.564386 0.434845 0.939783
O O1 0.131444 0.250000 0.412910
O O2 0.098238 0.013051 0.517130
O O3 0.174860 0.054351 0.542790
O O4 0.163102 0.990994 0.341960
O O5 0.026679 0.250000 0.846099
O O6 0.040993 0.474509 0.706514
O O7 0.974741 0.478864 0.858097
O O8 0.050676 0.512477 0.932822
O O9 0.909760 0.750000 0.352947
O O10 0.881445 0.011752 0.265096
O O11 0.852906 0.250000 0.148785
O O12 0.803884 0.064619 0.261391
O O13 0.840717 0.970183 0.069121
O O14 0.159400 0.250000 0.085192
O O15 0.189866 0.980341 0.137996
O O16 0.108085 0.012735 0.094494
O O17 0.250000 0.932596 0.569100
O O18 0.185783 0.750000 0.572063
O O19 0.750000 0.493357 0.705982
O O20 0.795934 0.250000 0.722583
O O21 0.569113 0.250000 0.938161
#
# Coordination Sequence:
#
# PCOD9447921 Si02
#       8
#     8   8   8   8   8   8   8   8
#     4  10  20  34  55  82 109 137 175 223 273 324
#     4   9  17  30  51  81 117 153 188 226 269 320
#     4   9  17  31  52  80 114 148 178 218 273 325
#     4  10  19  31  49  75 105 140 181 221 267 326
#     4  12  24  38  56  78 110 147 183 228 280 333
#     4   9  18  32  50  73 103 137 171 213 266 322
#     4  11  25  44  63  80 101 136 185 236 282 331
#     4  10  19  31  51  81 115 152 191 228 268 321
#
# _framework density 19.911643999999999
#
# number of rings (size 3 to 8) (size 9 to 14) (size 15 to 20)
#    0.000    2.000    1.250    3.000    0.000    4.750 
#    0.000    1.250    0.000    0.750    0.000    0.000 
#    0.000    0.000    0.000    0.000    0.000    0.000 
#
# Total GULP energy -356730.731322 kJ/mol
# GULP energy per Si atom -5573.917677 kJ/mol
# Density = 1.986632 g / cm^3
# Si number density = 19.911644 Si / 1000 Ang^3
#
#
#
# Elastic Constant Matrix: (Units=GPa)
#
#
# Indices 1 2 3 4 5 6 
#
# 1 29.3613 -1.2736 3.7828 0.0000 0.0000 0.0000
# 2 -1.2736 25.4700 0.6925 0.0000 0.0000 0.0000
# 3 3.7828 0.6925 45.5725 0.0000 0.0000 0.0000
# 4 0.0000 0.0000 0.0000 29.0151 0.0000 0.0000
# 5 0.0000 0.0000 0.0000 0.0000 17.1062 0.0000
# 6 0.0000 0.0000 0.0000 0.0000 0.0000 18.5603
#
#
#
# Elastic Compliance Matrix: (Units=1/GPa)
#
#
# Indices 1 2 3 4 5 6 
#
# 1 0.034509 0.001804 -0.002892 0.000000 0.000000 0.000000
# 2 0.001804 0.039372 -0.000748 0.000000 0.000000 0.000000
# 3 -0.002892 -0.000748 0.022194 0.000000 0.000000 0.000000
# 4 0.000000 0.000000 0.000000 0.034465 0.000000 0.000000
# 5 0.000000 0.000000 0.000000 0.000000 0.058458 0.000000
# 6 0.000000 0.000000 0.000000 0.000000 0.000000 0.053878
#
#
# Mechanical properties :
#
#
# Convention : Reuss Voigt Hill
#
# Bulk Modulus (GPa) = 10.82195 11.86745 11.34470
# Shear Modulus (GPa) = 18.02772 19.41646 18.72209
#
# Velocity S-wave (km/s) = 3.01223 3.12610 3.06969
# Velocity P-wave (km/s) = 4.18865 4.35924 4.27480
#
# Compressibility (1/GPa) = 0.09240481
#
# Stress axis : x y z
#
# Youngs Moduli (GPa) = 28.97768 25.39853 45.05624
#
# Poissons Ratio (x) = -0.04582 0.13030
# Poissons Ratio (y) = -0.05228 0.03370
# Poissons Ratio (z) = 0.08380 0.01900
#
# Static dielectric constant tensor:
#      x y z
#    x 1.742590 0.000000 0.000000 
#    y 0.000000 1.690270 0.000000 
#    z 0.000000 0.000000 1.737980 
# 
# From -- ./inp_files/19375.got.cif
#   From: 2010.05.17/outbox.cif.g08.bks.cpg/sg59_10_cif.got.tgz:19375.got - 2010.06.03 14:40:33.
