data_PCOD9447804
_publ_section_title
;
Structure prediction by ZEFSAII (Michael W. Deem and Ramdas Pophale) SiO2 
 PCOD9447804
Probable space group: P M M N
;
_chemical_formula_sum "Si O2"
_cell_formula_units_Z 48
_cell_length_a 9.004259
_cell_length_b 20.289088
_cell_length_c 15.638181
_cell_angle_alpha 90.000000
_cell_angle_beta 90.000000
_cell_angle_gamma 90.000000
_cell_volume 2856.911189
_symmetry_space_group_name_H-M "P M M N"
_symmetry_group_IT_number 59
_space_group.IT_coordinate_system_code '2'
_symmetry_cell_setting 'orthorhombic'
loop_
_space_group_symop_operation_xyz
x,y,z
1/2-x,1/2-y,z
1/2+x,-y,-z
-x,1/2+y,-z
-x,-y,-z
1/2+x,1/2+y,-z
1/2-x,y,z
x,1/2-y,z
loop_
_atom_site_type_symbol
_atom_site_label
_atom_site_fract_x
_atom_site_fract_y
_atom_site_fract_z
Si Si1 0.074757 0.826172 0.603596
Si Si2 0.927669 0.434386 0.540238
Si Si3 0.419824 0.912636 0.925632
Si Si4 0.573941 0.597195 0.752212
Si Si5 0.070882 0.045158 0.717244
Si Si6 0.079254 0.427637 0.904395
O O1 0.250000 0.834437 0.624867
O O2 0.048937 0.750000 0.582429
O O3 0.043289 0.874252 0.524200
O O4 0.978922 0.849040 0.684257
O O5 0.750000 0.443229 0.547993
O O6 0.000000 0.500000 0.500000
O O7 0.000520 0.424031 0.632779
O O8 0.250000 0.891471 0.915188
O O9 0.519411 0.886719 0.848013
O O10 0.422939 0.992622 0.916213
O O11 0.480964 0.898092 0.020029
O O12 0.750000 0.587853 0.750478
O O13 0.493580 0.528889 0.725177
O O14 0.250000 0.041555 0.711657
O O15 0.032262 0.081977 0.806096
O O16 0.250000 0.406574 0.914717
#
# Coordination Sequence:
#
# PCOD9447804 Si02
#       6
#     8   8   8   8   8   8
#     4  10  22  39  55  72 100 137 174 213 259 312
#     4  11  21  33  53  77 102 133 171 216 263 312
#     4   9  16  26  42  64  95 131 163 199 245 298
#     4  11  20  30  48  72  99 132 169 209 253 305
#     4  10  19  31  48  71 102 135 169 209 256 308
#     4   8  15  26  40  63  95 129 163 202 245 291
#
# _framework density 16.801362999999998
#
# number of rings (size 3 to 8) (size 9 to 14) (size 15 to 20)
#    0.000    2.167    1.667    4.000    0.000    5.667 
#    0.000    0.000    0.000    0.000    0.000    1.167 
#    0.000    4.000    0.000    0.000    0.000    0.000 
#
# Total GULP energy -267682.621463 kJ/mol
# GULP energy per Si atom -5576.721280 kJ/mol
# Density = 1.676312 g / cm^3
# Si number density = 16.801363 Si / 1000 Ang^3
#
#
#
# Elastic Constant Matrix: (Units=GPa)
#
#
# Indices 1 2 3 4 5 6 
#
# 1 93.3727 37.3571 75.8570 0.0000 0.0000 0.0000
# 2 37.3571 47.6617 36.5771 0.0000 0.0000 0.0000
# 3 75.8570 36.5771 155.0833 0.0000 0.0000 0.0000
# 4 0.0000 0.0000 0.0000 12.1653 0.0000 0.0000
# 5 0.0000 0.0000 0.0000 0.0000 36.3153 0.0000
# 6 0.0000 0.0000 0.0000 0.0000 0.0000 13.1316
#
#
#
# Elastic Compliance Matrix: (Units=1/GPa)
#
#
# Indices 1 2 3 4 5 6 
#
# 1 0.021477 -0.010710 -0.007979 0.000000 0.000000 0.000000
# 2 -0.010710 0.030959 -0.002063 0.000000 0.000000 0.000000
# 3 -0.007979 -0.002063 0.010838 0.000000 0.000000 0.000000
# 4 0.000000 0.000000 0.000000 0.082201 0.000000 0.000000
# 5 0.000000 0.000000 0.000000 0.000000 0.027537 0.000000
# 6 0.000000 0.000000 0.000000 0.000000 0.000000 0.076152
#
#
# Mechanical properties :
#
#
# Convention : Reuss Voigt Hill
#
# Bulk Modulus (GPa) = 45.93711 66.18889 56.06300
# Shear Modulus (GPa) = 16.78272 22.07754 19.43013
#
# Velocity S-wave (km/s) = 3.16395 3.62889 3.40437
# Velocity P-wave (km/s) = 6.38342 7.55241 6.99239
#
# Compressibility (1/GPa) = 0.02176889
#
# Stress axis : x y z
#
# Youngs Moduli (GPa) = 46.56099 32.30064 92.27074
#
# Poissons Ratio (x) = 0.34595 0.73625
# Poissons Ratio (y) = 0.49868 0.19036
# Poissons Ratio (z) = 0.37152 0.06664
#
# Static dielectric constant tensor:
#      x y z
#    x 1.569950 0.000000 0.000000 
#    y 0.000000 1.542030 0.000000 
#    z 0.000000 0.000000 1.591510 
# 
# From -- ./inp_files/20708.got.cif
#   From: 2010.05.17/outbox.cif.g08.bks.cpg/sg59_11_cif.got.tgz:20708.got - 2010.06.03 14:40:33.
