data_PCOD9447865
_publ_section_title
;
Structure prediction by ZEFSAII (Michael W. Deem and Ramdas Pophale) SiO2 
 PCOD9447865
Probable space group: P M M N
;
_chemical_formula_sum "Si O2"
_cell_formula_units_Z 64
_cell_length_a 20.821321
_cell_length_b 8.989571
_cell_length_c 21.153246
_cell_angle_alpha 90.000000
_cell_angle_beta 90.000000
_cell_angle_gamma 90.000000
_cell_volume 3959.353393
_symmetry_space_group_name_H-M "P M M N"
_symmetry_group_IT_number 59
_space_group.IT_coordinate_system_code '2'
_symmetry_cell_setting 'orthorhombic'
loop_
_space_group_symop_operation_xyz
x,y,z
1/2-x,1/2-y,z
1/2+x,-y,-z
-x,1/2+y,-z
-x,-y,-z
1/2+x,1/2+y,-z
1/2-x,y,z
x,1/2-y,z
loop_
_atom_site_type_symbol
_atom_site_label
_atom_site_fract_x
_atom_site_fract_y
_atom_site_fract_z
Si Si1 0.323555 0.928261 0.129407
Si Si2 0.448250 0.923958 0.306445
Si Si3 0.048952 0.573160 0.451929
Si Si4 0.678865 0.429390 0.020933
Si Si5 0.179241 0.080893 0.463642
Si Si6 0.546124 0.572453 0.820762
Si Si7 0.538789 0.069425 0.058563
Si Si8 0.178489 0.083406 0.311334
O O1 0.250000 0.969124 0.147412
O O2 0.330339 0.750000 0.138607
O O3 0.328712 0.958510 0.054059
O O4 0.382620 0.010887 0.162650
O O5 0.462178 0.750000 0.302097
O O6 0.462011 0.976062 0.378515
O O7 0.477072 0.010977 0.247083
O O8 0.372303 0.956549 0.297805
O O9 0.043268 0.750000 0.452217
O O10 0.119697 0.525293 0.475017
O O11 0.000000 0.500000 0.500000
O O12 0.750000 0.485601 0.040593
O O13 0.680803 0.250000 0.027630
O O14 0.613522 0.479703 0.055005
O O15 0.250000 0.033206 0.486053
O O16 0.166995 0.250000 0.486208
O O17 0.182530 0.089361 0.387394
O O18 0.548396 0.750000 0.819170
O O19 0.497914 0.527261 0.877118
O O20 0.537336 0.250000 0.053048
O O21 0.500000 0.000000 0.000000
O O22 0.250000 0.055636 0.287470
O O23 0.157503 0.250000 0.290631
#
# Coordination Sequence:
#
# PCOD9447865 Si02
#       8
#     8   8   8   8   8   8   8   8
#     4   9  17  30  48  67  90 127 168 199 231 274
#     4  10  21  34  47  65  91 125 163 198 234 285
#     4  10  20  33  51  74  97 125 162 203 247 293
#     4   8  14  27  48  70  91 118 154 195 235 278
#     4   8  14  26  45  69  97 127 156 188 230 280
#     4  11  22  32  45  68  96 127 159 197 245 287
#     4  10  19  31  49  72  95 121 156 195 237 282
#     4   8  14  26  44  64  88 120 155 191 230 269
#
# _framework density 16.164256000000002
#
# number of rings (size 3 to 8) (size 9 to 14) (size 15 to 20)
#    0.000    2.750    1.250    2.625    0.000    3.250 
#    0.000    2.500    0.000    0.375    0.000    0.875 
#    0.000    3.000    0.000    0.000    0.000    0.000 
#
# Total GULP energy -356296.350528 kJ/mol
# GULP energy per Si atom -5567.130477 kJ/mol
# Density = 1.612747 g / cm^3
# Si number density = 16.164256 Si / 1000 Ang^3
#
#
#
# Elastic Constant Matrix: (Units=GPa)
#
#
# Indices 1 2 3 4 5 6 
#
# 1 107.6847 29.7604 61.4712 0.0000 0.0000 0.0000
# 2 29.7604 31.8091 35.2985 0.0000 0.0000 0.0000
# 3 61.4712 35.2985 88.1288 0.0000 0.0000 0.0000
# 4 0.0000 0.0000 0.0000 20.3170 0.0000 0.0000
# 5 0.0000 0.0000 0.0000 0.0000 14.1041 0.0000
# 6 0.0000 0.0000 0.0000 0.0000 0.0000 20.9431
#
#
#
# Elastic Compliance Matrix: (Units=1/GPa)
#
#
# Indices 1 2 3 4 5 6 
#
# 1 0.015795 -0.004593 -0.009177 0.000000 0.000000 0.000000
# 2 -0.004593 0.057926 -0.019997 0.000000 0.000000 0.000000
# 3 -0.009177 -0.019997 0.025758 0.000000 0.000000 0.000000
# 4 0.000000 0.000000 0.000000 0.049220 0.000000 0.000000
# 5 0.000000 0.000000 0.000000 0.000000 0.070901 0.000000
# 6 0.000000 0.000000 0.000000 0.000000 0.000000 0.047748
#
#
# Mechanical properties :
#
#
# Convention : Reuss Voigt Hill
#
# Bulk Modulus (GPa) = 31.30602 53.40918 42.35760
# Shear Modulus (GPa) = 14.47044 17.81234 16.14139
#
# Velocity S-wave (km/s) = 2.99526 3.32318 3.16347
# Velocity P-wave (km/s) = 5.60103 6.91650 6.29323
#
# Compressibility (1/GPa) = 0.03194274
#
# Stress axis : x y z
#
# Youngs Moduli (GPa) = 63.31298 17.26331 38.82309
#
# Poissons Ratio (x) = 0.07930 0.35628
# Poissons Ratio (y) = 0.29082 0.77636
# Poissons Ratio (z) = 0.58103 0.34522
#
# Static dielectric constant tensor:
#      x y z
#    x 1.567550 0.000000 0.000000 
#    y 0.000000 1.551040 0.000000 
#    z 0.000000 0.000000 1.557010 
# 
# From -- ./inp_files/32297.got.cif
#   From: 2010.05.17/outbox.cif.g08.bks.cpg/sg59_17_cif.got.tgz:32297.got - 2010.06.03 14:40:33.
