data_PCOD9447986
_publ_section_title
;
Structure prediction by ZEFSAII (Michael W. Deem and Ramdas Pophale) SiO2 
 PCOD9447986
Probable space group: P M M N
;
_chemical_formula_sum "Si O2"
_cell_formula_units_Z 64
_cell_length_a 20.619654
_cell_length_b 8.673886
_cell_length_c 20.598481
_cell_angle_alpha 90.000000
_cell_angle_beta 90.000000
_cell_angle_gamma 90.000000
_cell_volume 3684.090403
_symmetry_space_group_name_H-M "P M M N"
_symmetry_group_IT_number 59
_space_group.IT_coordinate_system_code '2'
_symmetry_cell_setting 'orthorhombic'
loop_
_space_group_symop_operation_xyz
x,y,z
1/2-x,1/2-y,z
1/2+x,-y,-z
-x,1/2+y,-z
-x,-y,-z
1/2+x,1/2+y,-z
1/2-x,y,z
x,1/2-y,z
loop_
_atom_site_type_symbol
_atom_site_label
_atom_site_fract_x
_atom_site_fract_y
_atom_site_fract_z
Si Si1 0.581221 0.064729 0.339567
Si Si2 0.675567 0.065301 0.591572
Si Si3 0.433179 0.936614 0.029283
Si Si4 0.822550 0.062250 0.069935
Si Si5 0.175586 0.434323 0.551750
Si Si6 0.596963 0.064218 0.193136
Si Si7 0.067223 0.065427 0.312944
Si Si8 0.045316 0.934049 0.174126
O O1 0.582959 0.250000 0.347027
O O2 0.609646 0.026228 0.268234
O O3 0.505227 0.017371 0.336979
O O4 0.623802 0.990645 0.395753
O O5 0.750000 0.018885 0.607581
O O6 0.672512 0.250000 0.592071
O O7 0.661998 0.005523 0.518913
O O8 0.623192 0.999469 0.641310
O O9 0.436192 0.750000 0.027207
O O10 0.425752 0.982089 0.104616
O O11 0.374079 0.988596 0.983919
O O12 0.500000 0.000000 0.000000
O O13 0.750000 0.006272 0.058517
O O14 0.821486 0.250000 0.067725
O O15 0.848625 0.020792 0.141356
O O16 0.250000 0.478699 0.569566
O O17 0.173081 0.250000 0.546741
O O18 0.587316 0.250000 0.189833
O O19 0.529830 0.984902 0.173218
O O20 0.068419 0.250000 0.313804
O O21 0.074523 0.008783 0.238876
O O22 0.049968 0.750000 0.179820
#
# Coordination Sequence:
#
# PCOD9447986 Si02
#       8
#     8   8   8   8   8   8   8   8
#     4   9  19  33  51  78 107 138 177 219 267 314
#     4  10  21  38  60  83 107 138 177 222 270 320
#     4  10  19  31  52  77 101 136 179 220 266 318
#     4   9  17  30  49  74 103 135 175 221 265 313
#     4  10  21  36  54  77 106 143 183 219 262 320
#     4   9  17  31  51  73  99 134 175 215 261 316
#     4  10  21  37  57  81 109 141 177 222 269 320
#     4  10  19  31  50  78 106 134 174 220 267 317
#
# _framework density 17.371994999999998
#
# number of rings (size 3 to 8) (size 9 to 14) (size 15 to 20)
#    0.000    2.375    1.250    2.250    0.000    5.500 
#    0.000    1.875    0.000    3.750    0.000    0.000 
#    0.000    0.000    0.000    0.000    0.000    0.000 
#
# Total GULP energy -356969.735294 kJ/mol
# GULP energy per Si atom -5577.652114 kJ/mol
# Density = 1.733246 g / cm^3
# Si number density = 17.371995 Si / 1000 Ang^3
#
#
#
# Elastic Constant Matrix: (Units=GPa)
#
#
# Indices 1 2 3 4 5 6 
#
# 1 133.4764 34.7079 115.5598 0.0000 0.0000 0.0000
# 2 34.7079 29.2817 43.2940 0.0000 0.0000 0.0000
# 3 115.5598 43.2940 163.5665 0.0000 0.0000 0.0000
# 4 0.0000 0.0000 0.0000 24.8550 0.0000 0.0000
# 5 0.0000 0.0000 0.0000 0.0000 28.7236 0.0000
# 6 0.0000 0.0000 0.0000 0.0000 0.0000 24.5516
#
#
#
# Elastic Compliance Matrix: (Units=1/GPa)
#
#
# Indices 1 2 3 4 5 6 
#
# 1 0.019654 -0.004544 -0.012683 0.000000 0.000000 0.000000
# 2 -0.004544 0.057160 -0.011919 0.000000 0.000000 0.000000
# 3 -0.012683 -0.011919 0.018229 0.000000 0.000000 0.000000
# 4 0.000000 0.000000 0.000000 0.040233 0.000000 0.000000
# 5 0.000000 0.000000 0.000000 0.000000 0.034815 0.000000
# 6 0.000000 0.000000 0.000000 0.000000 0.000000 0.040730
#
#
# Mechanical properties :
#
#
# Convention : Reuss Voigt Hill
#
# Bulk Modulus (GPa) = 27.21021 79.27199 53.24110
# Shear Modulus (GPa) = 17.77062 24.47691 21.12377
#
# Velocity S-wave (km/s) = 3.20182 3.75772 3.49085
# Velocity P-wave (km/s) = 5.41906 8.03482 6.85290
#
# Compressibility (1/GPa) = 0.03675091
#
# Stress axis : x y z
#
# Youngs Moduli (GPa) = 50.88064 17.49475 54.85802
#
# Poissons Ratio (x) = 0.07950 0.69575
# Poissons Ratio (y) = 0.23121 0.65386
# Poissons Ratio (z) = 0.64530 0.20852
#
# Static dielectric constant tensor:
#      x y z
#    x 1.575150 0.000000 0.000000 
#    y 0.000000 1.587020 0.000000 
#    z 0.000000 0.000000 1.583110 
# 
# From -- ./inp_files/28253.got.cif
#   From: 2010.05.17/outbox.cif.g08.bks.cpg/sg59_15_cif.got.tgz:28253.got - 2010.06.03 14:40:33.
