data_PCOD9447338
_publ_section_title
;
Structure prediction by ZEFSAII (Michael W. Deem and Ramdas Pophale) SiO2 
 PCOD9447338
Probable space group: P M M N
;
_chemical_formula_sum "Si O2"
_cell_formula_units_Z 64
_cell_length_a 8.604447
_cell_length_b 32.423507
_cell_length_c 12.742253
_cell_angle_alpha 90.000000
_cell_angle_beta 90.000000
_cell_angle_gamma 90.000000
_cell_volume 3554.914624
_symmetry_space_group_name_H-M "P M M N"
_symmetry_group_IT_number 59
_space_group.IT_coordinate_system_code '2'
_symmetry_cell_setting 'orthorhombic'
loop_
_space_group_symop_operation_xyz
x,y,z
1/2-x,1/2-y,z
1/2+x,-y,-z
-x,1/2+y,-z
-x,-y,-z
1/2+x,1/2+y,-z
1/2-x,y,z
x,1/2-y,z
loop_
_atom_site_type_symbol
_atom_site_label
_atom_site_fract_x
_atom_site_fract_y
_atom_site_fract_z
Si Si1 0.062419 0.297111 0.695720
Si Si2 0.064403 0.643310 0.470629
Si Si3 0.061612 0.133154 0.861891
Si Si4 0.564616 0.428066 0.694752
Si Si5 0.073185 0.965201 0.929819
Si Si6 0.574679 0.017132 0.315593
Si Si7 0.935942 0.892728 0.677710
Si Si8 0.931273 0.878778 0.909672
O O1 0.250000 0.298267 0.690176
O O2 0.013979 0.250000 0.712893
O O3 0.015323 0.328306 0.788861
O O4 0.994567 0.316312 0.589428
O O5 0.250000 0.643781 0.479090
O O6 0.019848 0.604670 0.395593
O O7 0.990334 0.635909 0.583405
O O8 0.250000 0.130566 0.864380
O O9 0.002297 0.091755 0.802822
O O10 0.005292 0.140075 0.981615
O O11 0.750000 0.429040 0.704384
O O12 0.506609 0.473510 0.663290
O O13 0.250000 0.953854 0.961748
O O14 0.081044 0.980563 0.810672
O O15 0.956893 0.926972 0.932407
O O16 0.000000 0.000000 0.000000
O O17 0.750000 0.016841 0.358526
O O18 0.495076 0.060578 0.344559
O O19 0.750000 0.894443 0.684028
O O20 0.996773 0.875824 0.791010
O O21 0.750000 0.867435 0.903581
#
# Coordination Sequence:
#
# PCOD9447338 Si02
#       8
#     8   8   8   8   8   8   8   8
#     4   9  18  34  58  85 107 127 154 191 239 296
#     4  10  21  36  53  74 101 132 166 206 251 298
#     4   9  17  31  51  75 103 131 159 197 247 299
#     4  10  20  32  47  70  98 129 169 214 258 302
#     4  10  19  28  40  60  88 124 166 209 248 287
#     4  10  20  32  45  64  93 130 172 215 258 300
#     4  10  20  34  51  70  96 134 178 217 250 290
#     4   9  18  31  47  68  95 128 164 201 242 287
#
# _framework density 18.003245
#
# number of rings (size 3 to 8) (size 9 to 14) (size 15 to 20)
#    0.000    2.375    0.000    2.625    0.000    7.750 
#    0.000    0.000    0.000    0.750    0.000    3.500 
#    0.000    0.000    0.000    0.000    0.000    0.000 
#
# Total GULP energy -356671.615381 kJ/mol
# GULP energy per Si atom -5572.993990 kJ/mol
# Density = 1.796227 g / cm^3
# Si number density = 18.003245 Si / 1000 Ang^3
#
#
#
# Elastic Constant Matrix: (Units=GPa)
#
#
# Indices 1 2 3 4 5 6 
#
# 1 20.3538 4.9061 12.2504 0.0000 0.0000 0.0000
# 2 4.9061 60.4365 35.0151 0.0000 0.0000 0.0000
# 3 12.2504 35.0151 102.3661 0.0000 0.0000 0.0000
# 4 0.0000 0.0000 0.0000 14.1681 0.0000 0.0000
# 5 0.0000 0.0000 0.0000 0.0000 11.6979 0.0000
# 6 0.0000 0.0000 0.0000 0.0000 0.0000 18.9835
#
#
#
# Elastic Compliance Matrix: (Units=1/GPa)
#
#
# Indices 1 2 3 4 5 6 
#
# 1 0.052974 -0.000782 -0.006072 0.000000 0.000000 0.000000
# 2 -0.000782 0.020647 -0.006969 0.000000 0.000000 0.000000
# 3 -0.006072 -0.006969 0.012879 0.000000 0.000000 0.000000
# 4 0.000000 0.000000 0.000000 0.070581 0.000000 0.000000
# 5 0.000000 0.000000 0.000000 0.000000 0.085485 0.000000
# 6 0.000000 0.000000 0.000000 0.000000 0.000000 0.052677
#
#
# Mechanical properties :
#
#
# Convention : Reuss Voigt Hill
#
# Bulk Modulus (GPa) = 16.99117 31.94440 24.46779
# Shear Modulus (GPa) = 14.59815 17.70222 16.15019
#
# Velocity S-wave (km/s) = 2.85065 3.13913 2.99836
# Velocity P-wave (km/s) = 4.50481 5.56067 5.06035
#
# Compressibility (1/GPa) = 0.05885409
#
# Stress axis : x y z
#
# Youngs Moduli (GPa) = 18.87720 48.43215 77.64409
#
# Poissons Ratio (x) = 0.03790 0.47144
# Poissons Ratio (y) = 0.01477 0.54110
# Poissons Ratio (z) = 0.11462 0.33752
#
# Static dielectric constant tensor:
#      x y z
#    x 1.630080 0.000000 0.000000 
#    y 0.000000 1.576800 0.000000 
#    z 0.000000 0.000000 1.666290 
# 
# From -- ./inp_files/15015.got.cif
#   From: 2010.05.17/outbox.cif.g08.bks.cpg/sg59_8_cif.got.tgz:15015.got - 2010.06.03 14:40:33.
