data_PCOD9447758
_publ_section_title
;
Structure prediction by ZEFSAII (Michael W. Deem and Ramdas Pophale) SiO2 
 PCOD9447758
Probable space group: P M M N
;
_chemical_formula_sum "Si O2"
_cell_formula_units_Z 64
_cell_length_a 8.691866
_cell_length_b 29.302601
_cell_length_c 16.158271
_cell_angle_alpha 90.000000
_cell_angle_beta 90.000000
_cell_angle_gamma 90.000000
_cell_volume 4115.419220
_symmetry_space_group_name_H-M "P M M N"
_symmetry_group_IT_number 59
_space_group.IT_coordinate_system_code '2'
_symmetry_cell_setting 'orthorhombic'
loop_
_space_group_symop_operation_xyz
x,y,z
1/2-x,1/2-y,z
1/2+x,-y,-z
-x,1/2+y,-z
-x,-y,-z
1/2+x,1/2+y,-z
1/2-x,y,z
x,1/2-y,z
loop_
_atom_site_type_symbol
_atom_site_label
_atom_site_fract_x
_atom_site_fract_y
_atom_site_fract_z
Si Si1 0.934066 0.801872 0.901289
Si Si2 0.064975 0.449118 0.316207
Si Si3 0.065572 0.606747 0.837394
Si Si4 0.065386 0.447940 0.679386
Si Si5 0.935612 0.394078 0.833626
Si Si6 0.934987 0.551151 0.502010
Si Si7 0.935538 0.449100 0.998876
Si Si8 0.435178 0.801449 0.085580
O O1 0.750000 0.804856 0.898867
O O2 0.979414 0.750000 0.877844
O O3 0.005694 0.841773 0.846495
O O4 0.990824 0.808900 0.995622
O O5 0.250000 0.449770 0.310681
O O6 0.018519 0.430432 0.407739
O O7 0.997714 0.418984 0.242738
O O8 0.004869 0.501273 0.309877
O O9 0.250000 0.606750 0.835815
O O10 0.015146 0.579092 0.919968
O O11 0.250000 0.452017 0.682449
O O12 0.019918 0.429351 0.587729
O O13 0.008021 0.415769 0.752425
O O14 0.750000 0.396338 0.826738
O O15 0.980159 0.341842 0.852720
O O16 0.981267 0.423171 0.914858
O O17 0.750000 0.549475 0.502876
O O18 0.000000 0.500000 0.500000
O O19 0.750000 0.450929 0.999986
O O20 0.000000 0.500000 0.000000
O O21 0.250000 0.804218 0.074785
O O22 0.473652 0.750000 0.113016
#
# Coordination Sequence:
#
# PCOD9447758 Si02
#       8
#     8   8   8   8   8   8   8   8
#     4  10  20  33  50  72  95 121 157 199 240 281
#     4  10  19  32  49  70  95 126 158 198 241 280
#     4  11  21  34  49  69  95 127 162 196 235 282
#     4  10  19  31  47  70  96 127 161 195 232 280
#     4  10  19  32  46  66  93 124 159 194 233 280
#     4   8  16  30  47  66  92 121 155 195 238 279
#     4  10  21  33  43  60  90 127 160 188 222 268
#     4   9  17  32  52  69  89 120 157 198 241 280
#
# _framework density 15.551271
#
# number of rings (size 3 to 8) (size 9 to 14) (size 15 to 20)
#    0.000    2.250    1.250    2.250    0.000    5.750 
#    0.000    0.000    0.000    0.000    0.000    0.875 
#    0.000    5.000    0.000    0.000    0.000    0.000 
#
# Total GULP energy -356755.171451 kJ/mol
# GULP energy per Si atom -5574.299554 kJ/mol
# Density = 1.551588 g / cm^3
# Si number density = 15.551271 Si / 1000 Ang^3
#
#
#
# Elastic Constant Matrix: (Units=GPa)
#
#
# Indices 1 2 3 4 5 6 
#
# 1 25.2067 31.5423 35.0701 0.0000 0.0000 0.0000
# 2 31.5423 106.3725 68.1801 0.0000 0.0000 0.0000
# 3 35.0701 68.1801 143.3401 0.0000 0.0000 0.0000
# 4 0.0000 0.0000 0.0000 7.8318 0.0000 0.0000
# 5 0.0000 0.0000 0.0000 0.0000 17.5280 0.0000
# 6 0.0000 0.0000 0.0000 0.0000 0.0000 22.4169
#
#
#
# Elastic Compliance Matrix: (Units=1/GPa)
#
#
# Indices 1 2 3 4 5 6 
#
# 1 0.073317 -0.014735 -0.010929 0.000000 0.000000 0.000000
# 2 -0.014735 0.016486 -0.004236 0.000000 0.000000 0.000000
# 3 -0.010929 -0.004236 0.011665 0.000000 0.000000 0.000000
# 4 0.000000 0.000000 0.000000 0.127685 0.000000 0.000000
# 5 0.000000 0.000000 0.000000 0.000000 0.057051 0.000000
# 6 0.000000 0.000000 0.000000 0.000000 0.000000 0.044609
#
#
# Mechanical properties :
#
#
# Convention : Reuss Voigt Hill
#
# Bulk Modulus (GPa) = 24.00014 60.50048 42.25031
# Shear Modulus (GPa) = 12.36083 18.89711 15.62897
#
# Velocity S-wave (km/s) = 2.82236 3.48968 3.17361
# Velocity P-wave (km/s) = 5.10758 7.43139 6.37624
#
# Compressibility (1/GPa) = 0.04166642
#
# Stress axis : x y z
#
# Youngs Moduli (GPa) = 13.63945 60.65905 85.72419
#
# Poissons Ratio (x) = 0.89383 0.93688
# Poissons Ratio (y) = 0.20098 0.36314
# Poissons Ratio (z) = 0.14907 0.25696
#
# Static dielectric constant tensor:
#      x y z
#    x 1.526980 0.000000 0.000000 
#    y 0.000000 1.502140 0.000000 
#    z 0.000000 0.000000 1.530430 
# 
# From -- ./inp_files/21804.got.cif
#   From: 2010.05.17/outbox.cif.g08.bks.cpg/sg59_11_cif.got.tgz:21804.got - 2010.06.03 14:40:33.
