data_PCOD9447392
_publ_section_title
;
Structure prediction by ZEFSAII (Michael W. Deem and Ramdas Pophale) SiO2 
 PCOD9447392
Probable space group: P M M N
;
_chemical_formula_sum "Si O2"
_cell_formula_units_Z 64
_cell_length_a 9.489052
_cell_length_b 14.156331
_cell_length_c 32.332244
_cell_angle_alpha 90.000000
_cell_angle_beta 90.000000
_cell_angle_gamma 90.000000
_cell_volume 4343.195542
_symmetry_space_group_name_H-M "P M M N"
_symmetry_group_IT_number 59
_space_group.IT_coordinate_system_code '2'
_symmetry_cell_setting 'orthorhombic'
loop_
_space_group_symop_operation_xyz
x,y,z
1/2-x,1/2-y,z
1/2+x,-y,-z
-x,1/2+y,-z
-x,-y,-z
1/2+x,1/2+y,-z
1/2-x,y,z
x,1/2-y,z
loop_
_atom_site_type_symbol
_atom_site_label
_atom_site_fract_x
_atom_site_fract_y
_atom_site_fract_z
Si Si1 0.587199 0.363541 0.478099
Si Si2 0.418524 0.527258 0.937642
Si Si3 0.918983 0.360854 0.144696
Si Si4 0.080318 0.138438 0.318441
Si Si5 0.588118 0.864665 0.774415
Si Si6 0.418789 0.962013 0.608132
Si Si7 0.918502 0.359985 0.978283
Si Si8 0.418260 0.358685 0.559747
O O1 0.750000 0.391326 0.485511
O O2 0.581075 0.250000 0.474770
O O3 0.544225 0.406370 0.434156
O O4 0.493361 0.390174 0.517430
O O5 0.250000 0.510522 0.936922
O O6 0.460116 0.576440 0.894698
O O7 0.499685 0.430798 0.947935
O O8 0.446235 0.599836 0.975509
O O9 0.750000 0.365662 0.149016
O O10 0.954928 0.250000 0.137468
O O11 0.992518 0.392937 0.187059
O O12 0.250000 0.130105 0.321834
O O13 0.046038 0.250000 0.323156
O O14 0.041096 0.107354 0.271726
O O15 0.002100 0.079548 0.353402
O O16 0.750000 0.894920 0.780565
O O17 0.588312 0.750000 0.773616
O O18 0.250000 0.951971 0.614419
O O19 0.451863 0.070506 0.596926
O O20 0.750000 0.366792 0.971498
O O21 0.958893 0.250000 0.974861
O O22 0.250000 0.362986 0.553344
O O23 0.457828 0.250000 0.567941
#
# Coordination Sequence:
#
# PCOD9447392 Si02
#       8
#     8   8   8   8   8   8   8   8
#     4   9  17  28  41  59  83 108 135 169 206 241
#     4   9  17  28  42  62  87 114 146 183 218 252
#     4   9  16  26  42  64  88 114 143 173 207 248
#     4   9  18  31  45  63  88 114 137 163 200 249
#     4   8  15  28  43  60  85 113 137 165 204 248
#     4  10  19  29  43  63  85 110 139 171 206 242
#     4   9  17  29  43  59  84 118 151 182 217 255
#     4   9  18  31  44  59  81 109 141 174 205 238
#
# _framework density 14.735694000000001
#
# number of rings (size 3 to 8) (size 9 to 14) (size 15 to 20)
#    0.000    3.000    0.000    1.875    0.000    4.500 
#    0.000    2.500    0.000    2.250    0.000    0.875 
#    0.000    3.000    0.000    0.000    0.000    0.000 
#
# Total GULP energy -356466.527593 kJ/mol
# GULP energy per Si atom -5569.789494 kJ/mol
# Density = 1.470216 g / cm^3
# Si number density = 14.735694 Si / 1000 Ang^3
#
#
#
# Elastic Constant Matrix: (Units=GPa)
#
#
# Indices 1 2 3 4 5 6 
#
# 1 28.9504 38.3503 54.8672 0.0000 0.0000 0.0000
# 2 38.3503 87.9207 68.6733 0.0000 0.0000 0.0000
# 3 54.8672 68.6733 141.8452 0.0000 0.0000 0.0000
# 4 0.0000 0.0000 0.0000 24.6626 0.0000 0.0000
# 5 0.0000 0.0000 0.0000 0.0000 29.6801 0.0000
# 6 0.0000 0.0000 0.0000 0.0000 0.0000 19.6573
#
#
#
# Elastic Compliance Matrix: (Units=1/GPa)
#
#
# Indices 1 2 3 4 5 6 
#
# 1 0.192821 -0.041570 -0.054460 0.000000 0.000000 0.000000
# 2 -0.041570 0.027252 0.002886 0.000000 0.000000 0.000000
# 3 -0.054460 0.002886 0.026719 0.000000 0.000000 0.000000
# 4 0.000000 0.000000 0.000000 0.040547 0.000000 0.000000
# 5 0.000000 0.000000 0.000000 0.000000 0.033693 0.000000
# 6 0.000000 0.000000 0.000000 0.000000 0.000000 0.050872
#
#
# Mechanical properties :
#
#
# Convention : Reuss Voigt Hill
#
# Bulk Modulus (GPa) = 16.52763 64.72198 40.62480
# Shear Modulus (GPa) = 8.64514 21.25503 14.95008
#
# Velocity S-wave (km/s) = 2.42478 3.80204 3.18865
# Velocity P-wave (km/s) = 4.36804 7.95558 6.41759
#
# Compressibility (1/GPa) = 0.06050475
#
# Stress axis : x y z
#
# Youngs Moduli (GPa) = 5.18614 36.69408 37.42722
#
# Poissons Ratio (x) = 1.52536 2.03828
# Poissons Ratio (y) = 0.21559 -0.10800
# Poissons Ratio (z) = 0.28244 -0.10588
#
# Static dielectric constant tensor:
#      x y z
#    x 1.492320 0.000000 0.000000 
#    y 0.000000 1.489380 0.000000 
#    z 0.000000 0.000000 1.470960 
# 
# From -- ./inp_files/33229.got.cif
#   From: 2010.05.17/outbox.cif.g08.bks.cpg/sg59_17_cif.got.tgz:33229.got - 2010.06.03 14:40:33.
