data_PCOD9447620
_publ_section_title
;
Structure prediction by ZEFSAII (Michael W. Deem and Ramdas Pophale) SiO2 
 PCOD9447620
Probable space group: P M M N
;
_chemical_formula_sum "Si O2"
_cell_formula_units_Z 64
_cell_length_a 35.924233
_cell_length_b 7.464679
_cell_length_c 11.055505
_cell_angle_alpha 90.000000
_cell_angle_beta 90.000000
_cell_angle_gamma 90.000000
_cell_volume 2964.675924
_symmetry_space_group_name_H-M "P M M N"
_symmetry_group_IT_number 59
_space_group.IT_coordinate_system_code '2'
_symmetry_cell_setting 'orthorhombic'
loop_
_space_group_symop_operation_xyz
x,y,z
1/2-x,1/2-y,z
1/2+x,-y,-z
-x,1/2+y,-z
-x,-y,-z
1/2+x,1/2+y,-z
1/2-x,y,z
x,1/2-y,z
loop_
_atom_site_type_symbol
_atom_site_label
_atom_site_fract_x
_atom_site_fract_y
_atom_site_fract_z
Si Si1 0.054075 0.957163 0.264451
Si Si2 0.209371 0.535067 0.539043
Si Si3 0.901280 0.532457 0.089721
Si Si4 0.291338 0.968513 0.258640
Si Si5 0.975933 0.531700 0.208454
Si Si6 0.439927 0.466059 0.534781
Si Si7 0.369901 0.956718 0.169805
Si Si8 0.367652 0.038935 0.659039
O O1 0.056701 0.750000 0.225717
O O2 0.094665 0.039203 0.240076
O O3 0.018133 0.034415 0.196032
O O4 0.046199 0.961375 0.407579
O O5 0.250000 0.470959 0.581229
O O6 0.210351 0.750000 0.537156
O O7 0.174379 0.485088 0.619322
O O8 0.204454 0.478882 0.399550
O O9 0.900701 0.750000 0.083329
O O10 0.944137 0.476639 0.113805
O O11 0.878633 0.470946 0.208547
O O12 0.882482 0.463602 0.968857
O O13 0.250000 0.028333 0.217481
O O14 0.290246 0.750000 0.252986
O O15 0.328570 0.031932 0.191021
O O16 0.976573 0.750000 0.206810
O O17 0.961550 0.481491 0.343103
O O18 0.441884 0.250000 0.525196
O O19 0.397370 0.527369 0.559979
O O20 0.366974 0.750000 0.211079
O O21 0.375194 0.250000 0.665878
#
# Coordination Sequence:
#
# PCOD9447620 Si02
#       8
#     8   8   8   8   8   8   8   8
#     4  10  19  30  47  72  99 124 153 196 246 288
#     4   9  17  30  51  78 102 123 151 188 233 289
#     4   9  19  36  52  64  88 130 168 194 229 279
#     4   8  15  30  50  70  96 127 151 179 230 287
#     4   8  16  32  50  67  93 128 159 191 238 290
#     4   9  17  30  48  70  95 124 160 196 234 289
#     4  10  20  32  48  72  96 120 159 204 237 271
#     4   9  18  32  49  68  93 127 161 193 235 283
#
# _framework density 21.587520999999999
#
# number of rings (size 3 to 8) (size 9 to 14) (size 15 to 20)
#    0.000    3.000    0.000    3.375    0.000    3.250 
#    0.000    3.750    0.000    3.375    0.000    0.000 
#    0.000    0.000    0.000    0.000    0.000    0.000 
#
# Total GULP energy -356985.398672 kJ/mol
# GULP energy per Si atom -5577.896854 kJ/mol
# Density = 2.153839 g / cm^3
# Si number density = 21.587521 Si / 1000 Ang^3
#
#
#
# Elastic Constant Matrix: (Units=GPa)
#
#
# Indices 1 2 3 4 5 6 
#
# 1 183.4294 8.1363 31.7946 0.0000 0.0000 0.0000
# 2 8.1363 59.9233 -4.5582 0.0000 0.0000 0.0000
# 3 31.7946 -4.5582 39.2165 0.0000 0.0000 0.0000
# 4 0.0000 0.0000 0.0000 10.6228 0.0000 0.0000
# 5 0.0000 0.0000 0.0000 0.0000 21.5642 0.0000
# 6 0.0000 0.0000 0.0000 0.0000 0.0000 39.0894
#
#
#
# Elastic Compliance Matrix: (Units=1/GPa)
#
#
# Indices 1 2 3 4 5 6 
#
# 1 0.006439 -0.001283 -0.005370 0.000000 0.000000 0.000000
# 2 -0.001283 0.017092 0.003027 0.000000 0.000000 0.000000
# 3 -0.005370 0.003027 0.030205 0.000000 0.000000 0.000000
# 4 0.000000 0.000000 0.000000 0.094137 0.000000 0.000000
# 5 0.000000 0.000000 0.000000 0.000000 0.046373 0.000000
# 6 0.000000 0.000000 0.000000 0.000000 0.000000 0.025582
#
#
# Mechanical properties :
#
#
# Convention : Reuss Voigt Hill
#
# Bulk Modulus (GPa) = 21.51242 39.25720 30.38481
# Shear Modulus (GPa) = 20.61214 30.73505 25.67360
#
# Velocity S-wave (km/s) = 3.09336 3.77734 3.45233
# Velocity P-wave (km/s) = 4.76921 6.10320 5.47697
#
# Compressibility (1/GPa) = 0.04648478
#
# Stress axis : x y z
#
# Youngs Moduli (GPa) = 155.29494 58.50553 33.10733
#
# Poissons Ratio (x) = 0.07505 0.17778
# Poissons Ratio (y) = 0.19921 -0.10021
# Poissons Ratio (z) = 0.83390 -0.17708
#
# Static dielectric constant tensor:
#      x y z
#    x 1.848370 0.000000 0.000000 
#    y 0.000000 1.824710 0.000000 
#    z 0.000000 0.000000 1.746050 
# 
# From -- ./inp_files/13198.got.cif
#   From: 2010.05.17/outbox.cif.g08.bks.cpg/sg59_7_cif.got.tgz:13198.got - 2010.06.03 14:40:33.
