data_PCOD9447040
_publ_section_title
;
Structure prediction by ZEFSAII (Michael W. Deem and Ramdas Pophale) SiO2 
 PCOD9447040
Probable space group: P M M N
;
_chemical_formula_sum "Si O2"
_cell_formula_units_Z 64
_cell_length_a 29.427599
_cell_length_b 8.536037
_cell_length_c 16.177554
_cell_angle_alpha 90.000000
_cell_angle_beta 90.000000
_cell_angle_gamma 90.000000
_cell_volume 4063.721872
_symmetry_space_group_name_H-M "P M M N"
_symmetry_group_IT_number 59
_space_group.IT_coordinate_system_code '2'
_symmetry_cell_setting 'orthorhombic'
loop_
_space_group_symop_operation_xyz
x,y,z
1/2-x,1/2-y,z
1/2+x,-y,-z
-x,1/2+y,-z
-x,-y,-z
1/2+x,1/2+y,-z
1/2-x,y,z
x,1/2-y,z
loop_
_atom_site_type_symbol
_atom_site_label
_atom_site_fract_x
_atom_site_fract_y
_atom_site_fract_z
Si Si1 0.051168 0.560796 0.496532
Si Si2 0.551646 0.437659 0.999993
Si Si3 0.444585 0.437146 0.173820
Si Si4 0.393478 0.939394 0.659689
Si Si5 0.393651 0.939323 0.333137
Si Si6 0.050099 0.940681 0.818559
Si Si7 0.198715 0.062532 0.598001
Si Si8 0.800931 0.060734 0.588102
O O1 0.050540 0.750000 0.497391
O O2 0.079523 0.509208 0.577122
O O3 0.076054 0.511143 0.412145
O O4 0.000000 0.500000 0.500000
O O5 0.551461 0.250000 0.996093
O O6 0.572274 0.502832 0.915451
O O7 0.500000 0.500000 0.000000
O O8 0.569311 0.485256 0.090926
O O9 0.445458 0.250000 0.171847
O O10 0.414305 0.494821 0.249337
O O11 0.497198 0.491444 0.186932
O O12 0.393349 0.750000 0.659836
O O13 0.420231 0.994590 0.741139
O O14 0.341938 0.996824 0.653040
O O15 0.394830 0.750000 0.329359
O O16 0.341983 0.988635 0.352867
O O17 0.049462 0.750000 0.816051
O O18 0.250000 0.012901 0.622099
O O19 0.197120 0.250000 0.598257
O O20 0.191293 0.003006 0.504219
O O21 0.750000 0.013697 0.614141
O O22 0.802241 0.250000 0.582935
#
# Coordination Sequence:
#
# PCOD9447040 Si02
#       8
#     8   8   8   8   8   8   8   8
#     4  10  20  31  43  63  93 128 160 188 223 270
#     4   9  16  29  47  69  95 123 154 194 236 274
#     4  10  19  31  47  68  93 127 161 191 231 276
#     4  10  18  32  49  66  90 123 160 192 224 273
#     4  10  19  31  45  67  93 120 156 194 231 274
#     4   8  16  29  47  68  92 121 155 190 226 266
#     4  10  20  32  46  67  93 118 150 195 241 278
#     4   9  17  32  52  68  86 117 155 194 237 282
#
# _framework density 15.74911
#
# number of rings (size 3 to 8) (size 9 to 14) (size 15 to 20)
#    0.000    2.500    1.250    2.625    0.000    3.250 
#    0.000    3.750    0.000    0.000    0.000    0.875 
#    0.000    3.000    0.000    0.000    0.000    0.000 
#
# Total GULP energy -356677.074466 kJ/mol
# GULP energy per Si atom -5573.079289 kJ/mol
# Density = 1.571326 g / cm^3
# Si number density = 15.749110 Si / 1000 Ang^3
#
#
#
# Elastic Constant Matrix: (Units=GPa)
#
#
# Indices 1 2 3 4 5 6 
#
# 1 102.7090 19.9435 61.7470 0.0000 0.0000 0.0000
# 2 19.9435 13.1096 25.1624 0.0000 0.0000 0.0000
# 3 61.7470 25.1624 132.7046 0.0000 0.0000 0.0000
# 4 0.0000 0.0000 0.0000 18.6710 0.0000 0.0000
# 5 0.0000 0.0000 0.0000 0.0000 10.7753 0.0000
# 6 0.0000 0.0000 0.0000 0.0000 0.0000 21.2185
#
#
#
# Elastic Compliance Matrix: (Units=1/GPa)
#
#
# Indices 1 2 3 4 5 6 
#
# 1 0.015187 -0.015000 -0.004222 0.000000 0.000000 0.000000
# 2 -0.015000 0.134740 -0.018569 0.000000 0.000000 0.000000
# 3 -0.004222 -0.018569 0.013021 0.000000 0.000000 0.000000
# 4 0.000000 0.000000 0.000000 0.053559 0.000000 0.000000
# 5 0.000000 0.000000 0.000000 0.000000 0.092805 0.000000
# 6 0.000000 0.000000 0.000000 0.000000 0.000000 0.047129
#
#
# Mechanical properties :
#
#
# Convention : Reuss Voigt Hill
#
# Bulk Modulus (GPa) = 11.44609 51.35877 31.40243
# Shear Modulus (GPa) = 10.84257 19.57765 15.21011
#
# Velocity S-wave (km/s) = 2.62669 3.52958 3.11106
# Velocity P-wave (km/s) = 4.05991 7.02082 5.73476
#
# Compressibility (1/GPa) = 0.08736612
#
# Stress axis : x y z
#
# Youngs Moduli (GPa) = 65.84439 7.42169 76.79831
#
# Poissons Ratio (x) = 0.11132 0.32428
# Poissons Ratio (y) = 0.98765 1.42606
# Poissons Ratio (z) = 0.27803 0.13781
#
# Static dielectric constant tensor:
#      x y z
#    x 1.519870 0.000000 0.000000 
#    y 0.000000 1.536310 0.000000 
#    z 0.000000 0.000000 1.530500 
# 
# From -- ./inp_files/25105.got.cif
#   From: 2010.05.17/outbox.cif.g08.bks.cpg/sg59_13_cif.got.tgz:25105.got - 2010.06.03 14:40:33.
