data_PCOD9447614
_publ_section_title
;
Structure prediction by ZEFSAII (Michael W. Deem and Ramdas Pophale) SiO2 
 PCOD9447614
Probable space group: P M M N
;
_chemical_formula_sum "Si O2"
_cell_formula_units_Z 64
_cell_length_a 19.042810
_cell_length_b 12.728168
_cell_length_c 14.817681
_cell_angle_alpha 90.000000
_cell_angle_beta 90.000000
_cell_angle_gamma 90.000000
_cell_volume 3591.510778
_symmetry_space_group_name_H-M "P M M N"
_symmetry_group_IT_number 59
_space_group.IT_coordinate_system_code '2'
_symmetry_cell_setting 'orthorhombic'
loop_
_space_group_symop_operation_xyz
x,y,z
1/2-x,1/2-y,z
1/2+x,-y,-z
-x,1/2+y,-z
-x,-y,-z
1/2+x,1/2+y,-z
1/2-x,y,z
x,1/2-y,z
loop_
_atom_site_type_symbol
_atom_site_label
_atom_site_fract_x
_atom_site_fract_y
_atom_site_fract_z
Si Si1 0.908155 0.368843 0.149073
Si Si2 0.169600 0.423296 0.807283
Si Si3 0.060794 0.129364 0.653837
Si Si4 0.568560 0.054079 0.957784
Si Si5 0.672445 0.876154 0.487400
Si Si6 0.669818 0.874655 0.702633
Si Si7 0.961966 0.498850 0.773373
Si Si8 0.167551 0.364251 0.014841
O O1 0.897737 0.250000 0.180035
O O2 0.850549 0.453884 0.180684
O O3 0.981176 0.417140 0.187589
O O4 0.908418 0.371028 0.039225
O O5 0.250000 0.408965 0.779686
O O6 0.116313 0.374275 0.736490
O O7 0.160413 0.373478 0.906393
O O8 0.039616 0.250000 0.636691
O O9 0.106109 0.085283 0.569877
O O10 0.996808 0.058542 0.688049
O O11 0.549741 0.084376 0.855655
O O12 0.625868 0.962273 0.947610
O O13 0.500000 0.000000 0.000000
O O14 0.750000 0.916512 0.459408
O O15 0.673505 0.750000 0.472185
O O16 0.665522 0.891220 0.594415
O O17 0.750000 0.900438 0.730820
O O18 0.659547 0.750000 0.719467
O O19 0.609430 0.942925 0.747656
O O20 0.250000 0.370317 0.035732
O O21 0.140526 0.250000 0.044592
#
# Coordination Sequence:
#
# PCOD9447614 Si02
#       8
#     8   8   8   8   8   8   8   8
#     4   9  18  32  47  63  90 130 165 196 240 284
#     4   9  17  28  44  69  95 120 157 199 236 280
#     4  10  19  30  47  71  99 129 157 190 236 284
#     4   9  19  31  42  62  90 121 157 194 230 277
#     4   8  15  29  49  74 101 126 153 185 228 284
#     4   9  18  33  53  75  98 124 154 193 240 283
#     4  10  20  32  47  71  97 122 161 203 235 278
#     4   9  17  29  45  65  89 115 147 193 243 283
#
# _framework density 17.819799
#
# number of rings (size 3 to 8) (size 9 to 14) (size 15 to 20)
#    0.000    2.875    0.000    2.625    0.000    5.500 
#    0.000    1.250    0.000    0.375    0.000    1.750 
#    0.000    5.000    0.000    0.000    0.000    0.000 
#
# Total GULP energy -356532.228630 kJ/mol
# GULP energy per Si atom -5570.816072 kJ/mol
# Density = 1.777924 g / cm^3
# Si number density = 17.819799 Si / 1000 Ang^3
#
#
#
# Elastic Constant Matrix: (Units=GPa)
#
#
# Indices 1 2 3 4 5 6 
#
# 1 86.5086 19.2287 26.8136 0.0000 0.0000 0.0000
# 2 19.2287 65.4322 6.2342 0.0000 0.0000 0.0000
# 3 26.8136 6.2342 56.6079 0.0000 0.0000 0.0000
# 4 0.0000 0.0000 0.0000 25.4387 0.0000 0.0000
# 5 0.0000 0.0000 0.0000 0.0000 25.2050 0.0000
# 6 0.0000 0.0000 0.0000 0.0000 0.0000 17.5729
#
#
#
# Elastic Compliance Matrix: (Units=1/GPa)
#
#
# Indices 1 2 3 4 5 6 
#
# 1 0.014344 -0.003606 -0.006397 0.000000 0.000000 0.000000
# 2 -0.003606 0.016351 -0.000093 0.000000 0.000000 0.000000
# 3 -0.006397 -0.000093 0.020706 0.000000 0.000000 0.000000
# 4 0.000000 0.000000 0.000000 0.039310 0.000000 0.000000
# 5 0.000000 0.000000 0.000000 0.000000 0.039675 0.000000
# 6 0.000000 0.000000 0.000000 0.000000 0.000000 0.056906
#
#
# Mechanical properties :
#
#
# Convention : Reuss Voigt Hill
#
# Bulk Modulus (GPa) = 32.04150 34.78909 33.41530
# Shear Modulus (GPa) = 22.94773 24.06146 23.50459
#
# Velocity S-wave (km/s) = 3.59244 3.67858 3.63577
# Velocity P-wave (km/s) = 5.93526 6.13251 6.03470
#
# Compressibility (1/GPa) = 0.03120953
#
# Stress axis : x y z
#
# Youngs Moduli (GPa) = 69.71633 61.15657 48.29574
#
# Poissons Ratio (x) = 0.22052 0.30896
# Poissons Ratio (y) = 0.25138 0.00448
# Poissons Ratio (z) = 0.44599 0.00568
#
# Static dielectric constant tensor:
#      x y z
#    x 1.609320 0.000000 0.000000 
#    y 0.000000 1.596400 0.000000 
#    z 0.000000 0.000000 1.667720 
# 
# From -- ./inp_files/23940.got.cif
#   From: 2010.05.17/outbox.cif.g08.bks.cpg/sg59_12_cif.got.tgz:23940.got - 2010.06.03 14:40:33.
