data_PCOD9447271
_publ_section_title
;
Structure prediction by ZEFSAII (Michael W. Deem and Ramdas Pophale) SiO2 
 PCOD9447271
Probable space group: P M M N
;
_chemical_formula_sum "Si O2"
_cell_formula_units_Z 64
_cell_length_a 8.793428
_cell_length_b 20.343871
_cell_length_c 20.730461
_cell_angle_alpha 90.000000
_cell_angle_beta 90.000000
_cell_angle_gamma 90.000000
_cell_volume 3708.521193
_symmetry_space_group_name_H-M "P M M N"
_symmetry_group_IT_number 59
_space_group.IT_coordinate_system_code '2'
_symmetry_cell_setting 'orthorhombic'
loop_
_space_group_symop_operation_xyz
x,y,z
1/2-x,1/2-y,z
1/2+x,-y,-z
-x,1/2+y,-z
-x,-y,-z
1/2+x,1/2+y,-z
1/2-x,y,z
x,1/2-y,z
loop_
_atom_site_type_symbol
_atom_site_label
_atom_site_fract_x
_atom_site_fract_y
_atom_site_fract_z
Si Si1 0.433320 0.575983 0.729885
Si Si2 0.066241 0.325204 0.665144
Si Si3 0.430976 0.592337 0.948862
Si Si4 0.431537 0.590738 0.445826
Si Si5 0.067061 0.551053 0.586276
Si Si6 0.567340 0.559955 0.082178
Si Si7 0.064887 0.071065 0.772980
Si Si8 0.567993 0.674322 0.834186
O O1 0.250000 0.579539 0.736365
O O2 0.473076 0.583248 0.654484
O O3 0.480239 0.502269 0.751209
O O4 0.505421 0.629621 0.776300
O O5 0.250000 0.327347 0.664175
O O6 0.019106 0.250000 0.675658
O O7 0.013722 0.374188 0.722108
O O8 0.005856 0.353595 0.597849
O O9 0.250000 0.600024 0.946622
O O10 0.466840 0.518021 0.924546
O O11 0.507689 0.643288 0.900667
O O12 0.490006 0.595649 0.022017
O O13 0.250000 0.593857 0.440251
O O14 0.489919 0.520156 0.420205
O O15 0.471999 0.591517 0.521855
O O16 0.250000 0.540543 0.586288
O O17 0.750000 0.566985 0.076852
O O18 0.517847 0.582645 0.153145
O O19 0.250000 0.071483 0.772537
O O20 0.750000 0.671932 0.834051
O O21 0.518998 0.750000 0.827623
#
# Coordination Sequence:
#
# PCOD9447271 Si02
#       8
#     8   8   8   8   8   8   8   8
#     4  10  18  34  58  80 104 138 181 229 270 316
#     4  10  20  35  55  77 106 148 188 223 270 327
#     4  10  19  33  54  80 106 139 178 214 258 318
#     4  10  19  31  51  80 109 140 176 222 273 317
#     4   9  18  33  54  79 108 138 175 222 269 319
#     4   9  17  31  52  79 109 136 168 220 272 307
#     4   9  16  31  54  79 106 138 180 225 264 313
#     4  11  24  39  54  77 111 145 177 221 276 330
#
# _framework density 17.257553000000001
#
# number of rings (size 3 to 8) (size 9 to 14) (size 15 to 20)
#    0.000    2.250    2.500    1.125    0.000    2.750 
#    0.000    1.875    0.000    6.000    0.000    0.000 
#    0.000    0.000    0.000    0.000    0.000    0.000 
#
# Total GULP energy -357019.154340 kJ/mol
# GULP energy per Si atom -5578.424287 kJ/mol
# Density = 1.721827 g / cm^3
# Si number density = 17.257553 Si / 1000 Ang^3
#
#
#
# Elastic Constant Matrix: (Units=GPa)
#
#
# Indices 1 2 3 4 5 6 
#
# 1 16.2106 34.7050 37.2949 0.0000 0.0000 0.0000
# 2 34.7050 126.5763 90.9818 0.0000 0.0000 0.0000
# 3 37.2949 90.9818 169.9191 0.0000 0.0000 0.0000
# 4 0.0000 0.0000 0.0000 23.9937 0.0000 0.0000
# 5 0.0000 0.0000 0.0000 0.0000 28.9310 0.0000
# 6 0.0000 0.0000 0.0000 0.0000 0.0000 21.4213
#
#
#
# Elastic Compliance Matrix: (Units=1/GPa)
#
#
# Indices 1 2 3 4 5 6 
#
# 1 0.190984 -0.036145 -0.022565 0.000000 0.000000 0.000000
# 2 -0.036145 0.019684 -0.002606 0.000000 0.000000 0.000000
# 3 -0.022565 -0.002606 0.012233 0.000000 0.000000 0.000000
# 4 0.000000 0.000000 0.000000 0.041678 0.000000 0.000000
# 5 0.000000 0.000000 0.000000 0.000000 0.034565 0.000000
# 6 0.000000 0.000000 0.000000 0.000000 0.000000 0.046683
#
#
# Mechanical properties :
#
#
# Convention : Reuss Voigt Hill
#
# Bulk Modulus (GPa) = 9.97315 70.96328 40.46822
# Shear Modulus (GPa) = 9.96248 24.85081 17.40665
#
# Velocity S-wave (km/s) = 2.40528 3.79884 3.17935
# Velocity P-wave (km/s) = 3.67496 7.77503 6.08097
#
# Compressibility (1/GPa) = 0.10026923
#
# Stress axis : x y z
#
# Youngs Moduli (GPa) = 5.23603 50.80225 81.74356
#
# Poissons Ratio (x) = 1.83626 1.84453
# Poissons Ratio (y) = 0.18926 0.21305
# Poissons Ratio (z) = 0.11815 0.13241
#
# Static dielectric constant tensor:
#      x y z
#    x 1.584930 0.000000 0.000000 
#    y 0.000000 1.560070 0.000000 
#    z 0.000000 0.000000 1.595390 
# 
# From -- ./inp_files/29425.got.cif
#   From: 2010.05.17/outbox.cif.g08.bks.cpg/sg59_15_cif.got.tgz:29425.got - 2010.06.03 14:40:33.
