data_PCOD9447876
_publ_section_title
;
Structure prediction by ZEFSAII (Michael W. Deem and Ramdas Pophale) SiO2 
 PCOD9447876
Probable space group: P M M N
;
_chemical_formula_sum "Si O2"
_cell_formula_units_Z 64
_cell_length_a 8.781692
_cell_length_b 23.793351
_cell_length_c 19.487241
_cell_angle_alpha 90.000000
_cell_angle_beta 90.000000
_cell_angle_gamma 90.000000
_cell_volume 4071.778722
_symmetry_space_group_name_H-M "P M M N"
_symmetry_group_IT_number 59
_space_group.IT_coordinate_system_code '2'
_symmetry_cell_setting 'orthorhombic'
loop_
_space_group_symop_operation_xyz
x,y,z
1/2-x,1/2-y,z
1/2+x,-y,-z
-x,1/2+y,-z
-x,-y,-z
1/2+x,1/2+y,-z
1/2-x,y,z
x,1/2-y,z
loop_
_atom_site_type_symbol
_atom_site_label
_atom_site_fract_x
_atom_site_fract_y
_atom_site_fract_z
Si Si1 0.431951 0.411130 0.519623
Si Si2 0.567848 0.418084 0.973210
Si Si3 0.931195 0.496455 0.748577
Si Si4 0.432424 0.815675 0.389539
Si Si5 0.568325 0.629135 0.252748
Si Si6 0.567439 0.185377 0.882117
Si Si7 0.431103 0.521791 0.890398
Si Si8 0.431888 0.976079 0.605565
O O1 0.250000 0.405923 0.515252
O O2 0.504688 0.354932 0.549900
O O3 0.500085 0.430960 0.447248
O O4 0.466090 0.462458 0.572508
O O5 0.750000 0.427958 0.965164
O O6 0.533663 0.356347 0.945084
O O7 0.481730 0.463325 0.926032
O O8 0.530846 0.431373 0.052247
O O9 0.750000 0.492948 0.745908
O O10 0.999463 0.433418 0.750090
O O11 0.984757 0.526382 0.818280
O O12 0.995278 0.525714 0.680435
O O13 0.250000 0.821215 0.385366
O O14 0.469872 0.750000 0.398564
O O15 0.504831 0.838880 0.319289
O O16 0.750000 0.625163 0.256843
O O17 0.516729 0.662139 0.184889
O O18 0.750000 0.182240 0.869383
O O19 0.527928 0.250000 0.895280
O O20 0.250000 0.521275 0.879146
O O21 0.250000 0.970598 0.609373
#
# Coordination Sequence:
#
# PCOD9447876 Si02
#       8
#     8   8   8   8   8   8   8   8
#     4  10  20  34  53  76 102 134 169 209 254 299
#     4   9  18  32  49  70  97 131 166 204 249 298
#     4  12  22  33  51  74 102 135 168 206 255 307
#     4  11  23  37  53  73 101 140 179 213 250 293
#     4  12  23  34  48  71 101 136 175 212 248 292
#     4  10  20  34  51  71  98 134 172 207 245 293
#     4  10  19  31  49  72  98 128 165 207 252 300
#     4  10  20  34  53  76 103 132 165 208 255 306
#
# _framework density 15.717946
#
# number of rings (size 3 to 8) (size 9 to 14) (size 15 to 20)
#    0.000    1.500    2.500    4.125    0.000    4.250 
#    0.000    0.000    0.000    0.000    0.000    0.875 
#    0.000    5.000    0.000    0.000    0.000    0.000 
#
# Total GULP energy -357460.518249 kJ/mol
# GULP energy per Si atom -5585.320598 kJ/mol
# Density = 1.568217 g / cm^3
# Si number density = 15.717946 Si / 1000 Ang^3
#
#
#
# Elastic Constant Matrix: (Units=GPa)
#
#
# Indices 1 2 3 4 5 6 
#
# 1 72.1400 43.4386 62.1694 0.0000 0.0000 0.0000
# 2 43.4386 87.9247 68.2431 0.0000 0.0000 0.0000
# 3 62.1694 68.2431 143.0103 0.0000 0.0000 0.0000
# 4 0.0000 0.0000 0.0000 16.9027 0.0000 0.0000
# 5 0.0000 0.0000 0.0000 0.0000 27.4282 0.0000
# 6 0.0000 0.0000 0.0000 0.0000 0.0000 19.9147
#
#
#
# Elastic Compliance Matrix: (Units=1/GPa)
#
#
# Indices 1 2 3 4 5 6 
#
# 1 0.023988 -0.005968 -0.007580 0.000000 0.000000 0.000000
# 2 -0.005968 0.019548 -0.006734 0.000000 0.000000 0.000000
# 3 -0.007580 -0.006734 0.013501 0.000000 0.000000 0.000000
# 4 0.000000 0.000000 0.000000 0.059162 0.000000 0.000000
# 5 0.000000 0.000000 0.000000 0.000000 0.036459 0.000000
# 6 0.000000 0.000000 0.000000 0.000000 0.000000 0.050214
#
#
# Mechanical properties :
#
#
# Convention : Reuss Voigt Hill
#
# Bulk Modulus (GPa) = 60.70337 72.30856 66.50596
# Shear Modulus (GPa) = 20.08615 21.46404 20.77510
#
# Velocity S-wave (km/s) = 3.57867 3.69938 3.63952
# Velocity P-wave (km/s) = 7.46861 8.02190 7.75019
#
# Compressibility (1/GPa) = 0.01647355
#
# Stress axis : x y z
#
# Youngs Moduli (GPa) = 41.68769 51.15559 74.06722
#
# Poissons Ratio (x) = 0.30527 0.56146
# Poissons Ratio (y) = 0.24877 0.49877
# Poissons Ratio (z) = 0.31601 0.34448
#
# Static dielectric constant tensor:
#      x y z
#    x 1.524010 0.000000 0.000000 
#    y 0.000000 1.504540 0.000000 
#    z 0.000000 0.000000 1.519520 
# 
# From -- ./inp_files/26497.got.cif
#   From: 2010.05.17/outbox.cif.g08.bks.cpg/sg59_14_cif.got.tgz:26497.got - 2010.06.03 14:40:33.
