data_PCOD9447833
_publ_section_title
;
Structure prediction by ZEFSAII (Michael W. Deem and Ramdas Pophale) SiO2 
 PCOD9447833
Probable space group: P M M N
;
_chemical_formula_sum "Si O2"
_cell_formula_units_Z 48
_cell_length_a 12.468148
_cell_length_b 20.824953
_cell_length_c 10.446679
_cell_angle_alpha 90.000000
_cell_angle_beta 90.000000
_cell_angle_gamma 90.000000
_cell_volume 2712.465536
_symmetry_space_group_name_H-M "P M M N"
_symmetry_group_IT_number 59
_space_group.IT_coordinate_system_code '2'
_symmetry_cell_setting 'orthorhombic'
loop_
_space_group_symop_operation_xyz
x,y,z
1/2-x,1/2-y,z
1/2+x,-y,-z
-x,1/2+y,-z
-x,-y,-z
1/2+x,1/2+y,-z
1/2-x,y,z
x,1/2-y,z
loop_
_atom_site_type_symbol
_atom_site_label
_atom_site_fract_x
_atom_site_fract_y
_atom_site_fract_z
Si Si1 0.125841 0.324760 0.498667
Si Si2 0.631116 0.575759 0.998165
Si Si3 0.056818 0.324238 0.205598
Si Si4 0.967238 0.473465 0.817442
Si Si5 0.454080 0.568341 0.451427
Si Si6 0.372431 0.913596 0.723429
O O1 0.250000 0.335823 0.532531
O O2 0.098821 0.250000 0.528709
O O3 0.111670 0.332121 0.344958
O O4 0.047396 0.377963 0.557513
O O5 0.750000 0.575102 0.054065
O O6 0.616912 0.633784 0.899441
O O7 0.610119 0.511546 0.913576
O O8 0.537164 0.577007 0.102632
O O9 0.056571 0.250000 0.172497
O O10 0.937297 0.352737 0.222648
O O11 0.912180 0.445060 0.691185
O O12 0.055697 0.526166 0.770296
O O13 0.500000 0.500000 0.500000
O O14 0.378486 0.589216 0.568458
O O15 0.250000 0.918352 0.765240
#
# Coordination Sequence:
#
# PCOD9447833 Si02
#       6
#     8   8   8   8   8   8
#     4   9  17  30  48  68  94 127 157 193 245 296
#     4  10  19  31  49  69  93 130 165 193 236 288
#     4   9  18  31  46  69  97 121 156 202 237 276
#     4   9  19  33  46  69 101 125 155 201 242 279
#     4   9  18  30  46  71  98 123 156 201 245 286
#     4   9  17  30  49  71  94 124 159 195 242 290
#
# _framework density 17.696078
#
# number of rings (size 3 to 8) (size 9 to 14) (size 15 to 20)
#    0.000    2.833    0.000    2.000    0.000    5.333 
#    0.000    0.833    0.000    0.000    0.000    0.000 
#    0.000    1.333    0.000    0.000    0.000    0.000 
#
# Total GULP energy -267386.428825 kJ/mol
# GULP energy per Si atom -5570.550601 kJ/mol
# Density = 1.765580 g / cm^3
# Si number density = 17.696078 Si / 1000 Ang^3
#
#
#
# Elastic Constant Matrix: (Units=GPa)
#
#
# Indices 1 2 3 4 5 6 
#
# 1 49.2660 4.5846 -20.7706 0.0000 0.0000 0.0000
# 2 4.5846 60.5912 -2.3789 0.0000 0.0000 0.0000
# 3 -20.7706 -2.3789 41.7438 0.0000 0.0000 0.0000
# 4 0.0000 0.0000 0.0000 24.5174 0.0000 0.0000
# 5 0.0000 0.0000 0.0000 0.0000 5.4614 0.0000
# 6 0.0000 0.0000 0.0000 0.0000 0.0000 10.6769
#
#
#
# Elastic Compliance Matrix: (Units=1/GPa)
#
#
# Indices 1 2 3 4 5 6 
#
# 1 0.025813 -0.001452 0.012761 0.000000 0.000000 0.000000
# 2 -0.001452 0.016623 0.000225 0.000000 0.000000 0.000000
# 3 0.012761 0.000225 0.030318 0.000000 0.000000 0.000000
# 4 0.000000 0.000000 0.000000 0.040787 0.000000 0.000000
# 5 0.000000 0.000000 0.000000 0.000000 0.183104 0.000000
# 6 0.000000 0.000000 0.000000 0.000000 0.000000 0.093660
#
#
# Mechanical properties :
#
#
# Convention : Reuss Voigt Hill
#
# Bulk Modulus (GPa) = 10.43603 12.71902 11.57753
# Shear Modulus (GPa) = 12.52574 19.47554 16.00064
#
# Velocity S-wave (km/s) = 2.66339 3.32106 3.01024
# Velocity P-wave (km/s) = 3.92025 4.68071 4.31725
#
# Compressibility (1/GPa) = 0.09582187
#
# Stress axis : x y z
#
# Youngs Moduli (GPa) = 38.73978 60.15858 32.98358
#
# Poissons Ratio (x) = 0.08736 -0.42091
# Poissons Ratio (y) = 0.05625 -0.00741
# Poissons Ratio (z) = -0.49437 -0.01352
#
# Static dielectric constant tensor:
#      x y z
#    x 1.608580 0.000000 0.000000 
#    y 0.000000 1.588580 0.000000 
#    z 0.000000 0.000000 1.634560 
# 
# From -- ./inp_files/15928.got.cif
#   From: 2010.05.17/outbox.cif.g08.bks.cpg/sg59_8_cif.got.tgz:15928.got - 2010.06.03 14:40:33.
