data_PCOD9447032
_publ_section_title
;
Structure prediction by ZEFSAII (Michael W. Deem and Ramdas Pophale) SiO2 
 PCOD9447032
Probable space group: P M M N
;
_chemical_formula_sum "Si O2"
_cell_formula_units_Z 64
_cell_length_a 8.354837
_cell_length_b 15.997201
_cell_length_c 24.571442
_cell_angle_alpha 90.000000
_cell_angle_beta 90.000000
_cell_angle_gamma 90.000000
_cell_volume 3284.071676
_symmetry_space_group_name_H-M "P M M N"
_symmetry_group_IT_number 59
_space_group.IT_coordinate_system_code '2'
_symmetry_cell_setting 'orthorhombic'
loop_
_space_group_symop_operation_xyz
x,y,z
1/2-x,1/2-y,z
1/2+x,-y,-z
-x,1/2+y,-z
-x,-y,-z
1/2+x,1/2+y,-z
1/2-x,y,z
x,1/2-y,z
loop_
_atom_site_type_symbol
_atom_site_label
_atom_site_fract_x
_atom_site_fract_y
_atom_site_fract_z
Si Si1 0.941197 0.499965 0.186786
Si Si2 0.054516 0.157166 0.617767
Si Si3 0.556750 0.342843 0.882616
Si Si4 0.056537 0.999233 0.688834
Si Si5 0.557687 0.404315 0.001342
Si Si6 0.058674 0.342972 0.117237
Si Si7 0.943274 0.904534 0.500225
Si Si8 0.943635 0.656844 0.618345
O O1 0.750000 0.501596 0.187803
O O2 0.000745 0.498822 0.248952
O O3 0.998579 0.582391 0.155283
O O4 0.993650 0.417408 0.154421
O O5 0.250000 0.156247 0.618214
O O6 0.003398 0.250000 0.634793
O O7 0.003745 0.139115 0.555624
O O8 0.000388 0.081602 0.656246
O O9 0.750000 0.343830 0.881977
O O10 0.502352 0.250000 0.866079
O O11 0.507020 0.361219 0.944924
O O12 0.250000 0.001455 0.689219
O O13 0.004647 0.916529 0.656855
O O14 0.750000 0.402676 0.004072
O O15 0.500000 0.500000 0.000000
O O16 0.490488 0.360766 0.055039
O O17 0.250000 0.344755 0.120653
O O18 0.001943 0.250000 0.133179
O O19 0.750000 0.903199 0.500036
O O20 0.996219 0.861420 0.556208
O O21 0.000000 0.000000 0.500000
O O22 0.750000 0.654945 0.618908
O O23 0.995345 0.750000 0.634807
#
# Coordination Sequence:
#
# PCOD9447032 Si02
#       8
#     8   8   8   8   8   8   8   8
#     4  11  24  40  60  85 115 153 198 249 295 340
#     4   9  17  32  56  82 110 145 183 225 276 337
#     4  10  22  40  62  88 120 157 192 230 284 348
#     4  10  22  39  58  83 111 146 194 240 286 336
#     4  11  21  36  62  93 124 156 190 231 287 348
#     4  11  24  41  62  88 118 155 198 242 292 351
#     4  10  18  31  55  83 112 146 182 224 279 339
#     4  10  21  36  56  84 115 148 187 230 282 344
#
# _framework density 19.488002999999999
#
# number of rings (size 3 to 8) (size 9 to 14) (size 15 to 20)
#    0.000    1.750    2.500    1.875    0.000    6.000 
#    0.000    3.750    0.000    2.250    0.000    0.000 
#    0.000    0.000    0.000    0.000    0.000    0.000 
#
# Total GULP energy -357534.991230 kJ/mol
# GULP energy per Si atom -5586.484238 kJ/mol
# Density = 1.944365 g / cm^3
# Si number density = 19.488003 Si / 1000 Ang^3
#
#
#
# Elastic Constant Matrix: (Units=GPa)
#
#
# Indices 1 2 3 4 5 6 
#
# 1 12.6691 21.1538 20.9793 0.0000 0.0000 0.0000
# 2 21.1538 214.3087 103.6907 0.0000 0.0000 0.0000
# 3 20.9793 103.6907 170.1664 0.0000 0.0000 0.0000
# 4 0.0000 0.0000 0.0000 -2.4755 0.0000 0.0000
# 5 0.0000 0.0000 0.0000 0.0000 12.8851 0.0000
# 6 0.0000 0.0000 0.0000 0.0000 0.0000 17.7311
#
#
#
# Elastic Compliance Matrix: (Units=1/GPa)
#
#
# Indices 1 2 3 4 5 6 
#
# 1 0.103960 -0.005758 -0.009308 0.000000 0.000000 0.000000
# 2 -0.005758 0.006936 -0.003517 0.000000 0.000000 0.000000
# 3 -0.009308 -0.003517 0.009167 0.000000 0.000000 0.000000
# 4 0.000000 0.000000 0.000000 -0.403956 0.000000 0.000000
# 5 0.000000 0.000000 0.000000 0.000000 0.077609 0.000000
# 6 0.000000 0.000000 0.000000 0.000000 0.000000 0.056398
#
#
# Mechanical properties :
#
#
# Convention : Reuss Voigt Hill
#
# Bulk Modulus (GPa) = 12.06306 76.53242 44.29774
# Shear Modulus (GPa) = -58.76288 22.38282 -18.19003
#
# Velocity S-wave (km/s) = -5.49716 3.39269 -3.05847
# Velocity P-wave (km/s) = 5.83852 7.39621 3.21058
#
# Compressibility (1/GPa) = 0.08289769
#
# Stress axis : x y z
#
# Youngs Moduli (GPa) = 9.61905 144.17643 109.08686
#
# Poissons Ratio (x) = 0.83015 1.01542
# Poissons Ratio (y) = 0.05539 0.38361
# Poissons Ratio (z) = 0.08954 0.50700
#
# Static dielectric constant tensor:
#      x y z
#    x 1.679070 0.000000 0.000000 
#    y 0.000000 1.664260 0.000000 
#    z 0.000000 0.000000 1.666360 
# 
# From -- ./inp_files/31466.got.cif
#   From: 2010.05.17/outbox.cif.g08.bks.cpg/sg59_16_cif.got.tgz:31466.got - 2010.06.03 14:40:33.
