data_PCOD9447771
_publ_section_title
;
Structure prediction by ZEFSAII (Michael W. Deem and Ramdas Pophale) SiO2 
 PCOD9447771
Probable space group: P M M N
;
_chemical_formula_sum "Si O2"
_cell_formula_units_Z 40
_cell_length_a 7.842667
_cell_length_b 18.826882
_cell_length_c 13.517501
_cell_angle_alpha 90.000000
_cell_angle_beta 90.000000
_cell_angle_gamma 90.000000
_cell_volume 1995.899118
_symmetry_space_group_name_H-M "P M M N"
_symmetry_group_IT_number 59
_space_group.IT_coordinate_system_code '2'
_symmetry_cell_setting 'orthorhombic'
loop_
_space_group_symop_operation_xyz
x,y,z
1/2-x,1/2-y,z
1/2+x,-y,-z
-x,1/2+y,-z
-x,-y,-z
1/2+x,1/2+y,-z
1/2-x,y,z
x,1/2-y,z
loop_
_atom_site_type_symbol
_atom_site_label
_atom_site_fract_x
_atom_site_fract_y
_atom_site_fract_z
Si Si1 0.548967 0.828126 0.488906
Si Si2 0.042017 0.063275 0.673453
Si Si3 0.457531 0.429274 0.890834
Si Si4 0.449339 0.900351 0.683758
Si Si5 0.448243 0.404950 0.100182
O O1 0.750000 0.824496 0.466146
O O2 0.474455 0.750000 0.472041
O O3 0.478577 0.889366 0.417065
O O4 0.532142 0.850255 0.602786
O O5 0.250000 0.059769 0.670358
O O6 0.997552 0.096178 0.780827
O O7 0.982891 0.981290 0.671053
O O8 0.250000 0.434736 0.895898
O O9 0.529358 0.509364 0.896108
O O10 0.513577 0.387439 0.989433
O O11 0.250000 0.901724 0.661060
O O12 0.469833 0.878442 0.798304
O O13 0.250000 0.386264 0.105160
#
# Coordination Sequence:
#
# PCOD9447771 Si02
#       5
#     8   8   8   8   8
#     4  10  20  33  49  68  91 119 152 192 236 280
#     4   8  15  29  48  70  94 120 152 189 229 273
#     4   8  14  25  42  66  96 124 149 184 230 277
#     4  10  19  31  48  68  93 124 157 192 229 275
#     4   9  15  24  42  68  96 122 151 189 230 271
#
# _framework density 20.041094000000001
#
# number of rings (size 3 to 8) (size 9 to 14) (size 15 to 20)
#    0.000    3.000    0.000    3.000    0.000    1.200 
#    0.000    4.000    0.000    1.200    0.000    5.600 
#    0.000    0.000    0.000    0.000    0.000    0.000 
#
# Total GULP energy -222694.474074 kJ/mol
# GULP energy per Si atom -5567.361852 kJ/mol
# Density = 1.999548 g / cm^3
# Si number density = 20.041094 Si / 1000 Ang^3
#
#
#
# Elastic Constant Matrix: (Units=GPa)
#
#
# Indices 1 2 3 4 5 6 
#
# 1 21.1615 2.4696 -7.2906 0.0000 0.0000 0.0000
# 2 2.4696 18.2072 -2.2443 0.0000 0.0000 0.0000
# 3 -7.2906 -2.2443 62.7087 0.0000 0.0000 0.0000
# 4 0.0000 0.0000 0.0000 -3.3751 0.0000 0.0000
# 5 0.0000 0.0000 0.0000 0.0000 17.4228 0.0000
# 6 0.0000 0.0000 0.0000 0.0000 0.0000 4.8218
#
#
#
# Elastic Compliance Matrix: (Units=1/GPa)
#
#
# Indices 1 2 3 4 5 6 
#
# 1 0.049888 -0.006079 0.005583 0.000000 0.000000 0.000000
# 2 -0.006079 0.055907 0.001294 0.000000 0.000000 0.000000
# 3 0.005583 0.001294 0.016642 0.000000 0.000000 0.000000
# 4 0.000000 0.000000 0.000000 -0.296287 0.000000 0.000000
# 5 0.000000 0.000000 0.000000 0.000000 0.057396 0.000000
# 6 0.000000 0.000000 0.000000 0.000000 0.000000 0.207393
#
#
# Mechanical properties :
#
#
# Convention : Reuss Voigt Hill
#
# Bulk Modulus (GPa) = 8.06229 9.77185 8.91707
# Shear Modulus (GPa) = 38.25869 11.05006 24.65437
#
# Velocity S-wave (km/s) = 4.37396 2.35067 3.51121
# Velocity P-wave (km/s) = 5.43511 3.50058 4.57135
#
# Compressibility (1/GPa) = 0.12403421
#
# Stress axis : x y z
#
# Youngs Moduli (GPa) = 20.04471 17.88671 60.08849
#
# Poissons Ratio (x) = 0.10873 -0.33545
# Poissons Ratio (y) = 0.12184 -0.07776
# Poissons Ratio (z) = -0.11190 -0.02315
#
# Static dielectric constant tensor:
#      x y z
#    x 1.718380 0.000000 0.000000 
#    y 0.000000 1.687660 0.000000 
#    z 0.000000 0.000000 1.766190 
# 
# From -- ./inp_files/14063.got.cif
#   From: 2010.05.17/outbox.cif.g08.bks.cpg/sg59_8_cif.got.tgz:14063.got - 2010.06.03 14:40:33.
