data_PCOD9447220
_publ_section_title
;
Structure prediction by ZEFSAII (Michael W. Deem and Ramdas Pophale) SiO2 
 PCOD9447220
Probable space group: P M M N
;
_chemical_formula_sum "Si O2"
_cell_formula_units_Z 64
_cell_length_a 14.279886
_cell_length_b 17.459605
_cell_length_c 12.009402
_cell_angle_alpha 90.000000
_cell_angle_beta 90.000000
_cell_angle_gamma 90.000000
_cell_volume 2994.198146
_symmetry_space_group_name_H-M "P M M N"
_symmetry_group_IT_number 59
_space_group.IT_coordinate_system_code '2'
_symmetry_cell_setting 'orthorhombic'
loop_
_space_group_symop_operation_xyz
x,y,z
1/2-x,1/2-y,z
1/2+x,-y,-z
-x,1/2+y,-z
-x,-y,-z
1/2+x,1/2+y,-z
1/2-x,y,z
x,1/2-y,z
loop_
_atom_site_type_symbol
_atom_site_label
_atom_site_fract_x
_atom_site_fract_y
_atom_site_fract_z
Si Si1 0.145764 0.660821 0.164587
Si Si2 0.348344 0.541559 0.509997
Si Si3 0.056512 0.334948 0.740331
Si Si4 0.852283 0.659054 0.898051
Si Si5 0.044295 0.919179 0.965147
Si Si6 0.088802 0.998953 0.753538
Si Si7 0.899009 0.574876 0.677843
Si Si8 0.493047 0.165851 0.500355
O O1 0.250000 0.637792 0.205143
O O2 0.151075 0.750000 0.131643
O O3 0.056627 0.657815 0.246744
O O4 0.112976 0.611925 0.059209
O O5 0.250000 0.583212 0.496741
O O6 0.357778 0.514116 0.637863
O O7 0.351738 0.473064 0.420999
O O8 0.433863 0.597597 0.488838
O O9 0.083099 0.250000 0.783886
O O10 0.099184 0.412515 0.789976
O O11 0.073763 0.336983 0.607917
O O12 0.750000 0.645605 0.955753
O O13 0.856622 0.750000 0.875238
O O14 0.849573 0.607651 0.786077
O O15 0.952870 0.635399 0.951144
O O16 0.102199 0.938068 0.852435
O O17 0.000000 0.000000 0.000000
O O18 0.980750 0.981317 0.721638
O O19 0.941674 0.648240 0.614567
O O20 0.536729 0.250000 0.499491
#
# Coordination Sequence:
#
# PCOD9447220 Si02
#       8
#     8   8   8   8   8   8   8   8
#     4  10  22  39  59  86 116 147 190 243 298 352
#     4  11  21  33  52  79 116 152 184 231 283 337
#     4  10  18  33  57  82 111 146 181 231 287 341
#     4  10  22  39  59  86 117 150 197 249 291 340
#     4  11  22  37  62  84 111 153 192 239 297 350
#     4  10  19  37  54  79 109 143 192 230 278 341
#     4  10  18  35  57  80 111 150 191 233 281 333
#     4  10  19  33  56  81 111 152 189 228 282 349
#
# _framework density 21.374670999999999
#
# number of rings (size 3 to 8) (size 9 to 14) (size 15 to 20)
#    0.000    1.750    3.750    1.875    0.000    1.750 
#    0.000    1.875    0.000    1.125    0.000    0.000 
#    0.000    0.000    0.000    0.000    0.000    0.000 
#
# Total GULP energy -356692.963190 kJ/mol
# GULP energy per Si atom -5573.327550 kJ/mol
# Density = 2.132602 g / cm^3
# Si number density = 21.374671 Si / 1000 Ang^3
#
#
#
# Elastic Constant Matrix: (Units=GPa)
#
#
# Indices 1 2 3 4 5 6 
#
# 1 25.3187 1.6643 -19.7402 0.0000 0.0000 0.0000
# 2 1.6643 90.8844 3.1741 0.0000 0.0000 0.0000
# 3 -19.7402 3.1741 47.5167 0.0000 0.0000 0.0000
# 4 0.0000 0.0000 0.0000 31.8130 0.0000 0.0000
# 5 0.0000 0.0000 0.0000 0.0000 0.7074 0.0000
# 6 0.0000 0.0000 0.0000 0.0000 0.0000 8.8420
#
#
#
# Elastic Compliance Matrix: (Units=1/GPa)
#
#
# Indices 1 2 3 4 5 6 
#
# 1 0.058755 -0.001933 0.024538 0.000000 0.000000 0.000000
# 2 -0.001933 0.011092 -0.001544 0.000000 0.000000 0.000000
# 3 0.024538 -0.001544 0.031342 0.000000 0.000000 0.000000
# 4 0.000000 0.000000 0.000000 0.031434 0.000000 0.000000
# 5 0.000000 0.000000 0.000000 0.000000 1.413582 0.000000
# 6 0.000000 0.000000 0.000000 0.000000 0.000000 0.113096
#
#
# Mechanical properties :
#
#
# Convention : Reuss Voigt Hill
#
# Bulk Modulus (GPa) = 6.97777 14.87958 10.92868
# Shear Modulus (GPa) = 3.00309 20.18058 11.59183
#
# Velocity S-wave (km/s) = 1.18660 3.07601 2.33130
# Velocity P-wave (km/s) = 2.26913 4.42631 3.51719
#
# Compressibility (1/GPa) = 0.14331221
#
# Stress axis : x y z
#
# Youngs Moduli (GPa) = 17.01981 90.15253 31.90566
#
# Poissons Ratio (x) = 0.17426 -0.78290
# Poissons Ratio (y) = 0.03290 0.04926
# Poissons Ratio (z) = -0.41763 0.13919
#
# Static dielectric constant tensor:
#      x y z
#    x 1.643110 0.000000 0.000000 
#    y 0.000000 1.764030 0.000000 
#    z 0.000000 0.000000 1.822620 
# 
# From -- ./inp_files/17235.got.cif
#   From: 2010.05.17/outbox.cif.g08.bks.cpg/sg59_9_cif.got.tgz:17235.got - 2010.06.03 14:40:33.
