data_PCOD9447683
_publ_section_title
;
Structure prediction by ZEFSAII (Michael W. Deem and Ramdas Pophale) SiO2 
 PCOD9447683
Probable space group: P M M N
;
_chemical_formula_sum "Si O2"
_cell_formula_units_Z 48
_cell_length_a 23.096646
_cell_length_b 12.682495
_cell_length_c 10.491943
_cell_angle_alpha 90.000000
_cell_angle_beta 90.000000
_cell_angle_gamma 90.000000
_cell_volume 3073.332441
_symmetry_space_group_name_H-M "P M M N"
_symmetry_group_IT_number 59
_space_group.IT_coordinate_system_code '2'
_symmetry_cell_setting 'orthorhombic'
loop_
_space_group_symop_operation_xyz
x,y,z
1/2-x,1/2-y,z
1/2+x,-y,-z
-x,1/2+y,-z
-x,-y,-z
1/2+x,1/2+y,-z
1/2-x,y,z
x,1/2-y,z
loop_
_atom_site_type_symbol
_atom_site_label
_atom_site_fract_x
_atom_site_fract_y
_atom_site_fract_z
Si Si1 0.682819 0.625403 0.276190
Si Si2 0.464869 0.875167 0.873795
Si Si3 0.080451 0.988261 0.121493
Si Si4 0.423568 0.501418 0.627713
Si Si5 0.181857 0.126854 0.027733
Si Si6 0.542647 0.124063 0.623712
O O1 0.750000 0.598080 0.300460
O O2 0.675607 0.750000 0.302626
O O3 0.637038 0.557389 0.353850
O O4 0.671944 0.611475 0.124278
O O5 0.467144 0.750000 0.868088
O O6 0.529220 0.924599 0.879344
O O7 0.434985 0.924076 0.749180
O O8 0.431761 0.914675 0.999625
O O9 0.140590 0.048950 0.104230
O O10 0.073040 0.921296 0.249720
O O11 0.429256 0.569615 0.499953
O O12 0.475940 0.416199 0.627390
O O13 0.250000 0.109715 0.051514
O O14 0.168984 0.250000 0.055473
O O15 0.545106 0.250000 0.618335
#
# Coordination Sequence:
#
# PCOD9447683 Si02
#       6
#     8   8   8   8   8   8
#     4   9  17  31  54  80 102 127 163 209 256 298
#     4  10  19  30  49  74 100 130 166 208 246 289
#     4  10  19  32  49  75 102 130 165 204 250 299
#     4  10  19  34  53  75 102 133 169 208 249 297
#     4   9  17  31  53  78 103 130 162 207 258 302
#     4  10  21  34  51  74 104 139 167 201 254 303
#
# _framework density 15.618226
#
# number of rings (size 3 to 8) (size 9 to 14) (size 15 to 20)
#    0.000    2.333    1.667    3.000    0.000    0.000 
#    0.000    3.333    0.000    8.000    0.000    0.000 
#    0.000    0.000    0.000    0.000    0.000    0.000 
#
# Total GULP energy -267729.093653 kJ/mol
# GULP energy per Si atom -5577.689451 kJ/mol
# Density = 1.558268 g / cm^3
# Si number density = 15.618226 Si / 1000 Ang^3
#
#
#
# Elastic Constant Matrix: (Units=GPa)
#
#
# Indices 1 2 3 4 5 6 
#
# 1 81.8630 73.0873 55.8276 0.0000 0.0000 0.0000
# 2 73.0873 139.5477 70.4651 0.0000 0.0000 0.0000
# 3 55.8276 70.4651 124.6001 0.0000 0.0000 0.0000
# 4 0.0000 0.0000 0.0000 11.9890 0.0000 0.0000
# 5 0.0000 0.0000 0.0000 0.0000 16.9064 0.0000
# 6 0.0000 0.0000 0.0000 0.0000 0.0000 20.6207
#
#
#
# Elastic Compliance Matrix: (Units=1/GPa)
#
#
# Indices 1 2 3 4 5 6 
#
# 1 0.025277 -0.010526 -0.005373 0.000000 0.000000 0.000000
# 2 -0.010526 0.014413 -0.003435 0.000000 0.000000 0.000000
# 3 -0.005373 -0.003435 0.012376 0.000000 0.000000 0.000000
# 4 0.000000 0.000000 0.000000 0.083410 0.000000 0.000000
# 5 0.000000 0.000000 0.000000 0.000000 0.059149 0.000000
# 6 0.000000 0.000000 0.000000 0.000000 0.000000 0.048495
#
#
# Mechanical properties :
#
#
# Convention : Reuss Voigt Hill
#
# Bulk Modulus (GPa) = 74.63413 82.75233 78.69323
# Shear Modulus (GPa) = 17.46706 19.67860 18.57283
#
# Velocity S-wave (km/s) = 3.34784 3.55347 3.45219
# Velocity P-wave (km/s) = 7.92681 8.36275 8.14770
#
# Compressibility (1/GPa) = 0.01339870
#
# Stress axis : x y z
#
# Youngs Moduli (GPa) = 39.56187 69.38040 80.80350
#
# Poissons Ratio (x) = 0.73027 0.43415
# Poissons Ratio (y) = 0.41641 0.27757
# Poissons Ratio (z) = 0.21256 0.23833
#
# Static dielectric constant tensor:
#      x y z
#    x 1.504020 0.000000 0.000000 
#    y 0.000000 1.492190 0.000000 
#    z 0.000000 0.000000 1.515880 
# 
# From -- ./inp_files/7567.got.cif
#   From: 2010.05.17/outbox.cif.g08.bks.cpg/sg59_4_cif.got.tgz:7567.got - 2010.06.03 14:40:33.
