data_PCOD9447287
_publ_section_title
;
Structure prediction by ZEFSAII (Michael W. Deem and Ramdas Pophale) SiO2 
 PCOD9447287
Probable space group: P M M N
;
_chemical_formula_sum "Si O2"
_cell_formula_units_Z 64
_cell_length_a 8.655279
_cell_length_b 15.916220
_cell_length_c 24.386050
_cell_angle_alpha 90.000000
_cell_angle_beta 90.000000
_cell_angle_gamma 90.000000
_cell_volume 3359.405781
_symmetry_space_group_name_H-M "P M M N"
_symmetry_group_IT_number 59
_space_group.IT_coordinate_system_code '2'
_symmetry_cell_setting 'orthorhombic'
loop_
_space_group_symop_operation_xyz
x,y,z
1/2-x,1/2-y,z
1/2+x,-y,-z
-x,1/2+y,-z
-x,-y,-z
1/2+x,1/2+y,-z
1/2-x,y,z
x,1/2-y,z
loop_
_atom_site_type_symbol
_atom_site_label
_atom_site_fract_x
_atom_site_fract_y
_atom_site_fract_z
Si Si1 0.063013 0.499491 0.438769
Si Si2 0.564257 0.085103 0.752638
Si Si3 0.566876 0.397974 0.245483
Si Si4 0.565188 0.843994 0.869858
Si Si5 0.437948 0.656472 0.365409
Si Si6 0.933600 0.499267 0.061119
Si Si7 0.563850 0.844385 0.637660
Si Si8 0.564222 0.344453 0.871611
O O1 0.250000 0.499751 0.440279
O O2 0.010825 0.582431 0.405723
O O3 0.014563 0.417015 0.404447
O O4 0.000000 0.500000 0.500000
O O5 0.750000 0.069684 0.750671
O O6 0.520699 0.132873 0.696986
O O7 0.531816 0.137032 0.807583
O O8 0.480254 0.995921 0.755204
O O9 0.750000 0.388415 0.241027
O O10 0.487509 0.356133 0.192874
O O11 0.507893 0.360573 0.302755
O O12 0.750000 0.851438 0.872407
O O13 0.520762 0.750000 0.888328
O O14 0.492949 0.917877 0.905922
O O15 0.250000 0.657287 0.367238
O O16 0.492420 0.750000 0.379717
O O17 0.750000 0.497312 0.059277
O O18 0.988693 0.582638 0.092781
O O19 0.000000 0.500000 0.000000
O O20 0.750000 0.850281 0.643195
O O21 0.525420 0.750000 0.618900
O O22 0.750000 0.349438 0.878330
O O23 0.514452 0.250000 0.886089
#
# Coordination Sequence:
#
# PCOD9447287 Si02
#       8
#     8   8   8   8   8   8   8   8
#     4  10  21  37  56  81 111 149 194 241 291 346
#     4  10  18  34  61  88 120 157 194 237 291 356
#     4  12  23  35  58  92 127 158 191 240 301 360
#     4  11  24  43  67  93 123 161 204 251 304 363
#     4   9  17  32  57  86 112 144 190 238 284 341
#     4  12  26  44  66  91 123 164 207 256 305 355
#     4  10  21  39  61  83 111 153 200 241 288 351
#     4  10  21  38  64  96 126 160 202 247 298 359
#
# _framework density 19.050988
#
# number of rings (size 3 to 8) (size 9 to 14) (size 15 to 20)
#    0.000    1.500    2.500    3.375    0.000    6.000 
#    0.000    0.000    0.000    1.875    0.000    0.000 
#    0.000    0.000    0.000    0.000    0.000    0.000 
#
# Total GULP energy -357702.776214 kJ/mol
# GULP energy per Si atom -5589.105878 kJ/mol
# Density = 1.900763 g / cm^3
# Si number density = 19.050988 Si / 1000 Ang^3
#
#
#
# Elastic Constant Matrix: (Units=GPa)
#
#
# Indices 1 2 3 4 5 6 
#
# 1 43.0068 57.1138 43.6899 0.0000 0.0000 0.0000
# 2 57.1138 201.4970 93.7926 0.0000 0.0000 0.0000
# 3 43.6899 93.7926 158.2756 0.0000 0.0000 0.0000
# 4 0.0000 0.0000 0.0000 -1.7552 0.0000 0.0000
# 5 0.0000 0.0000 0.0000 0.0000 31.5588 0.0000
# 6 0.0000 0.0000 0.0000 0.0000 0.0000 4.9013
#
#
#
# Elastic Compliance Matrix: (Units=1/GPa)
#
#
# Indices 1 2 3 4 5 6 
#
# 1 0.041211 -0.008818 -0.006150 0.000000 0.000000 0.000000
# 2 -0.008818 0.008740 -0.002745 0.000000 0.000000 0.000000
# 3 -0.006150 -0.002745 0.009642 0.000000 0.000000 0.000000
# 4 0.000000 0.000000 0.000000 -0.569734 0.000000 0.000000
# 5 0.000000 0.000000 0.000000 0.000000 0.031687 0.000000
# 6 0.000000 0.000000 0.000000 0.000000 0.000000 0.204028
#
#
# Mechanical properties :
#
#
# Convention : Reuss Voigt Hill
#
# Bulk Modulus (GPa) = 41.37982 87.99688 64.68835
# Shear Modulus (GPa) = -21.65035 20.81984 -0.41525
#
# Velocity S-wave (km/s) = -3.37477 3.30941 -0.46738
# Velocity P-wave (km/s) = 2.56559 7.80342 5.80843
#
# Compressibility (1/GPa) = 0.02416637
#
# Stress axis : x y z
#
# Youngs Moduli (GPa) = 24.26547 114.41356 103.70766
#
# Poissons Ratio (x) = 1.00894 0.63780
# Poissons Ratio (y) = 0.21398 0.28470
# Poissons Ratio (z) = 0.14923 0.31408
#
# Static dielectric constant tensor:
#      x y z
#    x 1.641620 0.000000 0.000000 
#    y 0.000000 1.668070 0.000000 
#    z 0.000000 0.000000 1.625310 
# 
# From -- ./inp_files/31441.got.cif
#   From: 2010.05.17/outbox.cif.g08.bks.cpg/sg59_16_cif.got.tgz:31441.got - 2010.06.03 14:40:33.
