data_PCOD9447472
_publ_section_title
;
Structure prediction by ZEFSAII (Michael W. Deem and Ramdas Pophale) SiO2 
 PCOD9447472
Probable space group: P M M N
;
_chemical_formula_sum "Si O2"
_cell_formula_units_Z 64
_cell_length_a 9.183468
_cell_length_b 19.775735
_cell_length_c 20.576517
_cell_angle_alpha 90.000000
_cell_angle_beta 90.000000
_cell_angle_gamma 90.000000
_cell_volume 3736.897745
_symmetry_space_group_name_H-M "P M M N"
_symmetry_group_IT_number 59
_space_group.IT_coordinate_system_code '2'
_symmetry_cell_setting 'orthorhombic'
loop_
_space_group_symop_operation_xyz
x,y,z
1/2-x,1/2-y,z
1/2+x,-y,-z
-x,1/2+y,-z
-x,-y,-z
1/2+x,1/2+y,-z
1/2-x,y,z
x,1/2-y,z
loop_
_atom_site_type_symbol
_atom_site_label
_atom_site_fract_x
_atom_site_fract_y
_atom_site_fract_z
Si Si1 0.925160 0.453663 0.903572
Si Si2 0.925540 0.829186 0.495027
Si Si3 0.922470 0.089012 0.045653
Si Si4 0.575790 0.071650 0.401525
Si Si5 0.416650 0.171074 0.143571
Si Si6 0.082767 0.931637 0.239290
Si Si7 0.418158 0.408946 0.270039
Si Si8 0.075816 0.417094 0.628091
O O1 0.750000 0.463732 0.898673
O O2 0.972474 0.422135 0.834634
O O3 0.000418 0.525120 0.919482
O O4 0.955397 0.411207 0.968808
O O5 0.750000 0.833242 0.503320
O O6 0.967191 0.750000 0.502558
O O7 0.960256 0.858920 0.423597
O O8 0.000684 0.880994 0.545003
O O9 0.750000 0.082209 0.053033
O O10 0.984580 0.152997 0.082796
O O11 0.750000 0.074795 0.407977
O O12 0.520826 0.098261 0.331833
O O13 0.531975 0.991515 0.400611
O O14 0.250000 0.147829 0.131163
O O15 0.414524 0.250000 0.155777
O O16 0.467997 0.133645 0.208374
O O17 0.250000 0.907811 0.243120
O O18 0.994362 0.905514 0.301330
O O19 0.082611 0.012821 0.248971
O O20 0.250000 0.390230 0.286059
O O21 0.250000 0.419843 0.635689
#
# Coordination Sequence:
#
# PCOD9447472 Si02
#       8
#     8   8   8   8   8   8   8   8
#     4   9  17  31  49  72 101 129 160 201 250 300
#     4  10  21  37  55  73  98 135 173 205 244 303
#     4  10  19  29  47  73 100 129 163 207 251 290
#     4  10  20  33  52  78 106 130 159 209 260 299
#     4  10  20  34  50  66  94 137 176 207 241 293
#     4   9  16  29  51  74  99 128 160 200 245 297
#     4   9  17  31  49  70  97 130 167 200 237 292
#     4   9  19  34  52  77 105 130 163 209 257 300
#
# _framework density 17.126505999999999
#
# number of rings (size 3 to 8) (size 9 to 14) (size 15 to 20)
#    0.000    2.500    1.250    1.125    0.000    3.500 
#    0.000    1.250    0.000    0.750    0.000    3.500 
#    0.000    0.000    0.000    0.000    0.000    0.000 
#
# Total GULP energy -356595.457332 kJ/mol
# GULP energy per Si atom -5571.804021 kJ/mol
# Density = 1.708752 g / cm^3
# Si number density = 17.126506 Si / 1000 Ang^3
#
#
#
# Elastic Constant Matrix: (Units=GPa)
#
#
# Indices 1 2 3 4 5 6 
#
# 1 20.8797 11.8945 29.8075 0.0000 0.0000 0.0000
# 2 11.8945 30.7949 20.6978 0.0000 0.0000 0.0000
# 3 29.8075 20.6978 103.2761 0.0000 0.0000 0.0000
# 4 0.0000 0.0000 0.0000 12.6095 0.0000 0.0000
# 5 0.0000 0.0000 0.0000 0.0000 30.3451 0.0000
# 6 0.0000 0.0000 0.0000 0.0000 0.0000 17.8867
#
#
#
# Elastic Compliance Matrix: (Units=1/GPa)
#
#
# Indices 1 2 3 4 5 6 
#
# 1 0.091232 -0.020271 -0.022269 0.000000 0.000000 0.000000
# 2 -0.020271 0.042032 -0.002573 0.000000 0.000000 0.000000
# 3 -0.022269 -0.002573 0.016626 0.000000 0.000000 0.000000
# 4 0.000000 0.000000 0.000000 0.079305 0.000000 0.000000
# 5 0.000000 0.000000 0.000000 0.000000 0.032954 0.000000
# 6 0.000000 0.000000 0.000000 0.000000 0.000000 0.055907
#
#
# Mechanical properties :
#
#
# Convention : Reuss Voigt Hill
#
# Bulk Modulus (GPa) = 16.76062 31.08337 23.92200
# Shear Modulus (GPa) = 11.67761 18.33833 15.00797
#
# Velocity S-wave (km/s) = 2.61405 3.27579 2.96345
# Velocity P-wave (km/s) = 4.34955 5.70056 5.07026
#
# Compressibility (1/GPa) = 0.05966366
#
# Stress axis : x y z
#
# Youngs Moduli (GPa) = 10.96110 23.79141 60.14811
#
# Poissons Ratio (x) = 0.48228 1.33942
# Poissons Ratio (y) = 0.22219 0.15477
# Poissons Ratio (z) = 0.24409 0.06122
#
# Static dielectric constant tensor:
#      x y z
#    x 1.585480 0.000000 0.000000 
#    y 0.000000 1.572970 0.000000 
#    z 0.000000 0.000000 1.592650 
# 
# From -- ./inp_files/26196.got.cif
#   From: 2010.05.17/outbox.cif.g08.bks.cpg/sg59_14_cif.got.tgz:26196.got - 2010.06.03 14:40:33.
