data_PCOD9447323
_publ_section_title
;
Structure prediction by ZEFSAII (Michael W. Deem and Ramdas Pophale) SiO2 
 PCOD9447323
Probable space group: P M M N
;
_chemical_formula_sum "Si O2"
_cell_formula_units_Z 64
_cell_length_a 30.069673
_cell_length_b 17.954454
_cell_length_c 6.334988
_cell_angle_alpha 90.000000
_cell_angle_beta 90.000000
_cell_angle_gamma 90.000000
_cell_volume 3420.162213
_symmetry_space_group_name_H-M "P M M N"
_symmetry_group_IT_number 59
_space_group.IT_coordinate_system_code '2'
_symmetry_cell_setting 'orthorhombic'
loop_
_space_group_symop_operation_xyz
x,y,z
1/2-x,1/2-y,z
1/2+x,-y,-z
-x,1/2+y,-z
-x,-y,-z
1/2+x,1/2+y,-z
1/2-x,y,z
x,1/2-y,z
loop_
_atom_site_type_symbol
_atom_site_label
_atom_site_fract_x
_atom_site_fract_y
_atom_site_fract_z
Si Si1 0.842684 0.162330 0.994868
Si Si2 0.563202 0.932861 0.243646
Si Si3 0.300399 0.966932 0.778620
Si Si4 0.403526 0.334854 0.365835
Si Si5 0.986467 0.668424 0.954626
Si Si6 0.428269 0.891884 0.741412
Si Si7 0.140597 0.443156 0.091738
Si Si8 0.136070 0.578350 0.396609
O O1 0.840272 0.250000 0.028358
O O2 0.840658 0.139607 0.749621
O O3 0.805469 0.114109 0.113332
O O4 0.889123 0.130267 0.093332
O O5 0.577986 0.888471 0.451106
O O6 0.557794 0.021215 0.263876
O O7 0.521238 0.893892 0.132242
O O8 0.604660 0.925800 0.085980
O O9 0.250000 0.982902 0.717412
O O10 0.333010 0.959678 0.576516
O O11 0.317873 0.025374 0.956595
O O12 0.394870 0.250000 0.437539
O O13 0.443349 0.331966 0.195409
O O14 0.361042 0.372857 0.249776
O O15 0.989905 0.750000 0.055460
O O16 0.028922 0.653548 0.809383
O O17 0.405016 0.882911 0.514572
O O18 0.124120 0.511691 0.237494
#
# Coordination Sequence:
#
# PCOD9447323 Si02
#       8
#     8   8   8   8   8   8   8   8
#     4  10  22  38  57  82 117 154 191 233 277 328
#     4  11  19  36  57  80 110 149 190 240 283 334
#     4  10  21  37  60  86 113 143 181 227 277 334
#     4  10  21  36  57  85 115 147 186 236 291 341
#     4  10  23  35  49  78 117 151 192 241 286 331
#     4  11  20  36  57  79 110 154 198 239 279 331
#     4  10  18  38  59  83 113 141 189 229 278 339
#     4  10  19  36  57  83 108 147 191 233 275 332
#
# _framework density 18.712564
#
# number of rings (size 3 to 8) (size 9 to 14) (size 15 to 20)
#    0.000    1.750    5.000    1.125    0.000    6.750 
#    0.000    1.250    0.000    0.375    0.000    0.000 
#    0.000    0.000    0.000    0.000    0.000    0.000 
#
# Total GULP energy -356482.813276 kJ/mol
# GULP energy per Si atom -5570.043957 kJ/mol
# Density = 1.866997 g / cm^3
# Si number density = 18.712564 Si / 1000 Ang^3
#
#
#
# Elastic Constant Matrix: (Units=GPa)
#
#
# Indices 1 2 3 4 5 6 
#
# 1 37.5764 15.2351 -7.1531 0.0000 0.0000 0.0000
# 2 15.2351 51.5377 5.5377 0.0000 0.0000 0.0000
# 3 -7.1531 5.5377 49.9388 0.0000 0.0000 0.0000
# 4 0.0000 0.0000 0.0000 12.2952 0.0000 0.0000
# 5 0.0000 0.0000 0.0000 0.0000 6.8171 0.0000
# 6 0.0000 0.0000 0.0000 0.0000 0.0000 10.8515
#
#
#
# Elastic Compliance Matrix: (Units=1/GPa)
#
#
# Indices 1 2 3 4 5 6 
#
# 1 0.031739 -0.009990 0.005654 0.000000 0.000000 0.000000
# 2 -0.009990 0.022782 -0.003957 0.000000 0.000000 0.000000
# 3 0.005654 -0.003957 0.021273 0.000000 0.000000 0.000000
# 4 0.000000 0.000000 0.000000 0.081333 0.000000 0.000000
# 5 0.000000 0.000000 0.000000 0.000000 0.146690 0.000000
# 6 0.000000 0.000000 0.000000 0.000000 0.000000 0.092153
#
#
# Mechanical properties :
#
#
# Convention : Reuss Voigt Hill
#
# Bulk Modulus (GPa) = 16.88972 18.47693 17.68333
# Shear Modulus (GPa) = 11.56628 14.35498 12.96063
#
# Velocity S-wave (km/s) = 2.48886 2.77272 2.63462
# Velocity P-wave (km/s) = 4.15989 4.48844 4.32729
#
# Compressibility (1/GPa) = 0.05920761
#
# Stress axis : x y z
#
# Youngs Moduli (GPa) = 31.50686 43.89499 47.00756
#
# Poissons Ratio (x) = 0.43851 -0.26578
# Poissons Ratio (y) = 0.31475 0.18602
# Poissons Ratio (z) = -0.17814 0.17370
#
# Static dielectric constant tensor:
#      x y z
#    x 1.654490 0.000000 0.000000 
#    y 0.000000 1.681620 0.000000 
#    z 0.000000 0.000000 1.671730 
# 
# From -- ./inp_files/4636.got.cif
#   From: 2010.05.17/outbox.cif.g08.bks.cpg/sg59_3_cif.got.tgz:4636.got - 2010.06.03 14:40:33.
