data_PCOD9447024
_publ_section_title
;
Structure prediction by ZEFSAII (Michael W. Deem and Ramdas Pophale) SiO2 
 PCOD9447024
Probable space group: P M M N
;
_chemical_formula_sum "Si O2"
_cell_formula_units_Z 56
_cell_length_a 16.210606
_cell_length_b 8.606102
_cell_length_c 20.687064
_cell_angle_alpha 90.000000
_cell_angle_beta 90.000000
_cell_angle_gamma 90.000000
_cell_volume 2886.054961
_symmetry_space_group_name_H-M "P M M N"
_symmetry_group_IT_number 59
_space_group.IT_coordinate_system_code '2'
_symmetry_cell_setting 'orthorhombic'
loop_
_space_group_symop_operation_xyz
x,y,z
1/2-x,1/2-y,z
1/2+x,-y,-z
-x,1/2+y,-z
-x,-y,-z
1/2+x,1/2+y,-z
1/2-x,y,z
x,1/2-y,z
loop_
_atom_site_type_symbol
_atom_site_label
_atom_site_fract_x
_atom_site_fract_y
_atom_site_fract_z
Si Si1 0.509483 0.566058 0.571919
Si Si2 0.839639 0.930841 0.379080
Si Si3 0.003692 0.573081 0.070817
Si Si4 0.340843 0.573861 0.892285
Si Si5 0.557087 0.438008 0.790099
Si Si6 0.654353 0.938093 0.671655
Si Si7 0.382673 0.572870 0.746195
O O1 0.500000 0.500000 0.500000
O O2 0.519601 0.750000 0.567568
O O3 0.421152 0.522789 0.601767
O O4 0.586244 0.510265 0.617431
O O5 0.750000 0.983970 0.404742
O O6 0.849333 0.750000 0.396106
O O7 0.839971 0.955966 0.302410
O O8 0.029071 0.750000 0.063361
O O9 0.055519 0.511952 0.133586
O O10 0.908904 0.551968 0.091693
O O11 0.000000 0.500000 0.000000
O O12 0.250000 0.543376 0.918702
O O13 0.366649 0.750000 0.912432
O O14 0.339217 0.576771 0.815049
O O15 0.550198 0.250000 0.789098
O O16 0.629185 0.491388 0.741552
O O17 0.475638 0.516280 0.759480
O O18 0.750000 0.976820 0.655517
O O19 0.648646 0.750000 0.676088
O O20 0.382327 0.750000 0.720480
#
# Coordination Sequence:
#
# PCOD9447024 Si02
#       7
#     8   8   8   8   8   8   8
#     4  11  24  42  64  89 121 162 202 251 311 370
#     4  11  23  37  56  85 121 157 193 239 292 347
#     4  10  21  36  55  81 113 153 196 242 296 357
#     4   9  18  32  51  77 109 144 182 227 280 341
#     4  10  20  35  58  87 118 152 196 247 300 355
#     4  10  22  41  65  92 121 159 208 258 311 370
#     4  10  18  31  54  83 115 150 186 227 281 344
#
# _framework density 19.403649999999999
#
# number of rings (size 3 to 8) (size 9 to 14) (size 15 to 20)
#    0.000    1.857    1.429    2.571    0.000    5.714 
#    0.000    2.143    0.000    0.857    0.000    0.000 
#    0.000    0.000    0.000    0.000    0.000    0.000 
#
# Total GULP energy -311873.458293 kJ/mol
# GULP energy per Si atom -5569.168898 kJ/mol
# Density = 1.935949 g / cm^3
# Si number density = 19.403650 Si / 1000 Ang^3
#
#
#
# Elastic Constant Matrix: (Units=GPa)
#
#
# Indices 1 2 3 4 5 6 
#
# 1 109.6178 16.7905 49.4157 0.0000 0.0000 0.0000
# 2 16.7905 30.2229 21.8364 0.0000 0.0000 0.0000
# 3 49.4157 21.8364 119.3268 0.0000 0.0000 0.0000
# 4 0.0000 0.0000 0.0000 34.2748 0.0000 0.0000
# 5 0.0000 0.0000 0.0000 0.0000 2.2578 0.0000
# 6 0.0000 0.0000 0.0000 0.0000 0.0000 20.1428
#
#
#
# Elastic Compliance Matrix: (Units=1/GPa)
#
#
# Indices 1 2 3 4 5 6 
#
# 1 0.011512 -0.003401 -0.004145 0.000000 0.000000 0.000000
# 2 -0.003401 0.039133 -0.005753 0.000000 0.000000 0.000000
# 3 -0.004145 -0.005753 0.011150 0.000000 0.000000 0.000000
# 4 0.000000 0.000000 0.000000 0.029176 0.000000 0.000000
# 5 0.000000 0.000000 0.000000 0.000000 0.442902 0.000000
# 6 0.000000 0.000000 0.000000 0.000000 0.000000 0.049645
#
#
# Mechanical properties :
#
#
# Convention : Reuss Voigt Hill
#
# Bulk Modulus (GPa) = 28.41102 48.36141 38.38622
# Shear Modulus (GPa) = 8.04054 22.74343 15.39198
#
# Velocity S-wave (km/s) = 2.03785 3.42734 2.81953
# Velocity P-wave (km/s) = 4.49566 6.37497 5.51594
#
# Compressibility (1/GPa) = 0.03519761
#
# Stress axis : x y z
#
# Youngs Moduli (GPa) = 86.86509 25.55364 89.68867
#
# Poissons Ratio (x) = 0.08690 0.37177
# Poissons Ratio (y) = 0.29541 0.51598
# Poissons Ratio (z) = 0.36006 0.14701
#
# Static dielectric constant tensor:
#      x y z
#    x 1.713180 0.000000 0.000000 
#    y 0.000000 1.703880 0.000000 
#    z 0.000000 0.000000 1.763800 
# 
# From -- ./inp_files/30310.got.cif
#   From: 2010.05.17/outbox.cif.g08.bks.cpg/sg59_16_cif.got.tgz:30310.got - 2010.06.03 14:40:33.
