data_PCOD9447502
_publ_section_title
;
Structure prediction by ZEFSAII (Michael W. Deem and Ramdas Pophale) SiO2 
 PCOD9447502
Probable space group: P M M N
;
_chemical_formula_sum "Si O2"
_cell_formula_units_Z 64
_cell_length_a 14.147892
_cell_length_b 9.076989
_cell_length_c 32.229671
_cell_angle_alpha 90.000000
_cell_angle_beta 90.000000
_cell_angle_gamma 90.000000
_cell_volume 4138.942731
_symmetry_space_group_name_H-M "P M M N"
_symmetry_group_IT_number 59
_space_group.IT_coordinate_system_code '2'
_symmetry_cell_setting 'orthorhombic'
loop_
_space_group_symop_operation_xyz
x,y,z
1/2-x,1/2-y,z
1/2+x,-y,-z
-x,1/2+y,-z
-x,-y,-z
1/2+x,1/2+y,-z
1/2-x,y,z
x,1/2-y,z
loop_
_atom_site_type_symbol
_atom_site_label
_atom_site_fract_x
_atom_site_fract_y
_atom_site_fract_z
Si Si1 0.362456 0.074573 0.312944
Si Si2 0.035002 0.925682 0.064280
Si Si3 0.142464 0.073202 0.562561
Si Si4 0.637634 0.574135 0.858434
Si Si5 0.039108 0.572343 0.391197
Si Si6 0.636436 0.078985 0.522743
Si Si7 0.135286 0.580415 0.227401
Si Si8 0.140085 0.926372 0.977796
O O1 0.250000 0.044850 0.318367
O O2 0.374675 0.250000 0.310786
O O3 0.417831 0.006485 0.351574
O O4 0.393522 0.000391 0.269708
O O5 0.030289 0.750000 0.069914
O O6 0.079340 0.002267 0.104347
O O7 0.102776 0.955672 0.024538
O O8 0.932495 0.990076 0.052247
O O9 0.250000 0.022604 0.569812
O O10 0.142583 0.250000 0.559456
O O11 0.069438 0.033864 0.598640
O O12 0.109268 0.010658 0.518218
O O13 0.750000 0.542994 0.864187
O O14 0.625951 0.750000 0.857825
O O15 0.607845 0.505114 0.814324
O O16 0.047911 0.750000 0.386378
O O17 0.093971 0.529865 0.433485
O O18 0.750000 0.070660 0.525862
O O19 0.609301 0.250000 0.516872
O O20 0.250000 0.580432 0.227695
O O21 0.103704 0.750000 0.226609
O O22 0.250000 0.968219 0.973404
O O23 0.132286 0.750000 0.971114
#
# Coordination Sequence:
#
# PCOD9447502 Si02
#       8
#     8   8   8   8   8   8   8   8
#     4  10  20  32  46  67  94 119 144 177 217 264
#     4  10  19  30  46  69  95 124 162 203 240 282
#     4   9  18  31  45  62  85 113 147 186 222 254
#     4  10  19  30  46  69  97 127 158 192 229 271
#     4  10  19  30  45  64  87 117 149 179 215 261
#     4   9  17  28  42  61  85 113 145 180 217 258
#     4   9  17  30  48  68  92 122 151 180 219 268
#     4   9  18  32  47  64  92 129 165 202 243 283
#
# _framework density 15.462885999999999
#
# number of rings (size 3 to 8) (size 9 to 14) (size 15 to 20)
#    0.000    2.500    0.000    2.625    0.000    5.750 
#    0.000    1.250    0.000    0.000    0.000    0.875 
#    0.000    5.000    0.000    0.000    0.000    0.000 
#
# Total GULP energy -356891.294437 kJ/mol
# GULP energy per Si atom -5576.426476 kJ/mol
# Density = 1.542769 g / cm^3
# Si number density = 15.462886 Si / 1000 Ang^3
#
#
#
# Elastic Constant Matrix: (Units=GPa)
#
#
# Indices 1 2 3 4 5 6 
#
# 1 85.6084 50.7141 70.1817 0.0000 0.0000 0.0000
# 2 50.7141 62.7571 72.0006 0.0000 0.0000 0.0000
# 3 70.1817 72.0006 149.2854 0.0000 0.0000 0.0000
# 4 0.0000 0.0000 0.0000 31.5431 0.0000 0.0000
# 5 0.0000 0.0000 0.0000 0.0000 26.4420 0.0000
# 6 0.0000 0.0000 0.0000 0.0000 0.0000 19.3385
#
#
#
# Elastic Compliance Matrix: (Units=1/GPa)
#
#
# Indices 1 2 3 4 5 6 
#
# 1 0.023547 -0.014168 -0.004237 0.000000 0.000000 0.000000
# 2 -0.014168 0.044199 -0.014657 0.000000 0.000000 0.000000
# 3 -0.004237 -0.014657 0.015759 0.000000 0.000000 0.000000
# 4 0.000000 0.000000 0.000000 0.031703 0.000000 0.000000
# 5 0.000000 0.000000 0.000000 0.000000 0.037819 0.000000
# 6 0.000000 0.000000 0.000000 0.000000 0.000000 0.051710
#
#
# Mechanical properties :
#
#
# Convention : Reuss Voigt Hill
#
# Bulk Modulus (GPa) = 57.52750 75.93820 66.73285
# Shear Modulus (GPa) = 18.07307 22.44835 20.26071
#
# Velocity S-wave (km/s) = 3.42249 3.81433 3.62371
# Velocity P-wave (km/s) = 7.27339 8.28344 7.79479
#
# Compressibility (1/GPa) = 0.01738299
#
# Stress axis : x y z
#
# Youngs Moduli (GPa) = 42.46736 22.62496 63.45411
#
# Poissons Ratio (x) = 0.32054 0.26885
# Poissons Ratio (y) = 0.60167 0.93003
# Poissons Ratio (z) = 0.17993 0.33161
#
# Static dielectric constant tensor:
#      x y z
#    x 1.518690 0.000000 0.000000 
#    y 0.000000 1.517660 0.000000 
#    z 0.000000 0.000000 1.486540 
# 
# From -- ./inp_files/33329.got.cif
#   From: 2010.05.17/outbox.cif.g08.bks.cpg/sg59_17_cif.got.tgz:33329.got - 2010.06.03 14:40:33.
