data_PCOD9447366
_publ_section_title
;
Structure prediction by ZEFSAII (Michael W. Deem and Ramdas Pophale) SiO2 
 PCOD9447366
Probable space group: P M M N
;
_chemical_formula_sum "Si O2"
_cell_formula_units_Z 64
_cell_length_a 14.713430
_cell_length_b 8.866633
_cell_length_c 23.553214
_cell_angle_alpha 90.000000
_cell_angle_beta 90.000000
_cell_angle_gamma 90.000000
_cell_volume 3072.718947
_symmetry_space_group_name_H-M "P M M N"
_symmetry_group_IT_number 59
_space_group.IT_coordinate_system_code '2'
_symmetry_cell_setting 'orthorhombic'
loop_
_space_group_symop_operation_xyz
x,y,z
1/2-x,1/2-y,z
1/2+x,-y,-z
-x,1/2+y,-z
-x,-y,-z
1/2+x,1/2+y,-z
1/2-x,y,z
x,1/2-y,z
loop_
_atom_site_type_symbol
_atom_site_label
_atom_site_fract_x
_atom_site_fract_y
_atom_site_fract_z
Si Si1 0.949314 0.933352 0.695472
Si Si2 0.652815 0.929647 0.159206
Si Si3 0.882565 0.078841 0.043161
Si Si4 0.598339 0.922221 0.929481
Si Si5 0.617890 0.422041 0.458375
Si Si6 0.902475 0.578657 0.571510
Si Si7 0.653084 0.065709 0.334711
Si Si8 0.948776 0.431776 0.812799
O O1 0.945812 0.750000 0.697727
O O2 0.056158 0.979971 0.690614
O O3 0.901424 0.980877 0.636179
O O4 0.912630 0.004931 0.753189
O O5 0.750000 0.990629 0.181115
O O6 0.652749 0.750000 0.167129
O O7 0.555419 0.984212 0.182501
O O8 0.650830 0.969706 0.092645
O O9 0.850936 0.250000 0.051172
O O10 0.991583 0.083259 0.052875
O O11 0.859675 0.017182 0.980962
O O12 0.631416 0.750000 0.927054
O O13 0.600941 0.001151 0.868136
O O14 0.647502 0.250000 0.461201
O O15 0.509319 0.419785 0.446131
O O16 0.640951 0.495722 0.518177
O O17 0.653914 0.489858 0.399903
O O18 0.869688 0.750000 0.573363
O O19 0.750000 0.019949 0.308691
O O20 0.650576 0.250000 0.335635
O O21 0.946190 0.250000 0.814439
#
# Coordination Sequence:
#
# PCOD9447366 Si02
#       8
#     8   8   8   8   8   8   8   8
#     4   9  17  28  40  55  77 107 140 168 197 238
#     4   9  18  31  43  56  80 114 145 170 200 239
#     4   9  16  26  42  63  82 100 129 170 210 244
#     4   9  16  27  43  60  79 104 132 164 206 252
#     4   8  13  22  38  57  73  93 125 162 199 238
#     4   8  14  24  37  53  74  98 124 159 202 241
#     4   8  14  25  40  57  78 105 136 168 199 233
#     4  10  19  29  41  58  81 109 141 176 207 234
#
# _framework density 20.82846
#
# number of rings (size 3 to 8) (size 9 to 14) (size 15 to 20)
#    0.000    3.250    0.000    2.625    0.000    4.750 
#    0.000    1.875    0.000    1.125    0.000    0.000 
#    0.000    1.000    0.000    6.500    0.000    4.750 
#
# Total GULP energy -356380.466325 kJ/mol
# GULP energy per Si atom -5568.444786 kJ/mol
# Density = 2.078105 g / cm^3
# Si number density = 20.828460 Si / 1000 Ang^3
#
#
#
# Elastic Constant Matrix: (Units=GPa)
#
#
# Indices 1 2 3 4 5 6 
#
# 1 23.3629 -8.4053 -9.6456 0.0000 0.0000 0.0000
# 2 -8.4053 20.8783 28.1559 0.0000 0.0000 0.0000
# 3 -9.6456 28.1559 183.5380 0.0000 0.0000 0.0000
# 4 0.0000 0.0000 0.0000 28.9886 0.0000 0.0000
# 5 0.0000 0.0000 0.0000 0.0000 -15.1268 0.0000
# 6 0.0000 0.0000 0.0000 0.0000 0.0000 -5.7058
#
#
#
# Elastic Compliance Matrix: (Units=1/GPa)
#
#
# Indices 1 2 3 4 5 6 
#
# 1 0.050102 0.020954 -0.000582 0.000000 0.000000 0.000000
# 2 0.020954 0.069154 -0.009507 0.000000 0.000000 0.000000
# 3 -0.000582 -0.009507 0.006876 0.000000 0.000000 0.000000
# 4 0.000000 0.000000 0.000000 0.034496 0.000000 0.000000
# 5 0.000000 0.000000 0.000000 0.000000 -0.066108 0.000000
# 6 0.000000 0.000000 0.000000 0.000000 0.000000 -0.175261
#
#
# Mechanical properties :
#
#
# Convention : Reuss Voigt Hill
#
# Bulk Modulus (GPa) = 6.76302 27.55435 17.15868
# Shear Modulus (GPa) = -94.01401 16.14283 -38.93559
#
# Velocity S-wave (km/s) = -6.72572 2.78697 -4.32828
# Velocity P-wave (km/s) = 7.55378 4.85944 4.08934
#
# Compressibility (1/GPa) = 0.14786300
#
# Stress axis : x y z
#
# Youngs Moduli (GPa) = 19.95939 14.46051 145.42504
#
# Poissons Ratio (x) = -0.30301 0.08457
# Poissons Ratio (y) = -0.41824 1.38261
# Poissons Ratio (z) = 0.01161 0.13748
#
# Static dielectric constant tensor:
#      x y z
#    x 1.839790 0.000000 0.000000 
#    y 0.000000 1.698700 0.000000 
#    z 0.000000 0.000000 1.747460 
# 
# From -- ./inp_files/30976.got.cif
#   From: 2010.05.17/outbox.cif.g08.bks.cpg/sg59_16_cif.got.tgz:30976.got - 2010.06.03 14:40:33.
