data_PCOD9447367
_publ_section_title
;
Structure prediction by ZEFSAII (Michael W. Deem and Ramdas Pophale) SiO2 
 PCOD9447367
Probable space group: P M M N
;
_chemical_formula_sum "Si O2"
_cell_formula_units_Z 64
_cell_length_a 9.182780
_cell_length_b 13.965900
_cell_length_c 35.153749
_cell_angle_alpha 90.000000
_cell_angle_beta 90.000000
_cell_angle_gamma 90.000000
_cell_volume 4508.320214
_symmetry_space_group_name_H-M "P M M N"
_symmetry_group_IT_number 59
_space_group.IT_coordinate_system_code '2'
_symmetry_cell_setting 'orthorhombic'
loop_
_space_group_symop_operation_xyz
x,y,z
1/2-x,1/2-y,z
1/2+x,-y,-z
-x,1/2+y,-z
-x,-y,-z
1/2+x,1/2+y,-z
1/2-x,y,z
x,1/2-y,z
loop_
_atom_site_type_symbol
_atom_site_label
_atom_site_fract_x
_atom_site_fract_y
_atom_site_fract_z
Si Si1 0.917526 0.133570 0.790728
Si Si2 0.074811 0.950440 0.443257
Si Si3 0.576568 0.049222 0.941793
Si Si4 0.082087 0.366596 0.714532
Si Si5 0.576926 0.635515 0.131244
Si Si6 0.575333 0.642378 0.515022
Si Si7 0.423785 0.863720 0.362969
Si Si8 0.577162 0.640797 0.986206
O O1 0.750000 0.102088 0.792647
O O2 0.917082 0.250000 0.789746
O O3 0.994875 0.101231 0.751908
O O4 0.005934 0.106979 0.828517
O O5 0.250000 0.939160 0.445709
O O6 0.037760 0.059539 0.454747
O O7 0.030996 0.919341 0.401015
O O8 0.001010 0.885211 0.475445
O O9 0.750000 0.062493 0.938423
O O10 0.497746 0.080272 0.903360
O O11 0.547432 0.939348 0.954331
O O12 0.513615 0.112417 0.976496
O O13 0.250000 0.396468 0.716130
O O14 0.079515 0.250000 0.714975
O O15 0.006294 0.395132 0.675101
O O16 0.750000 0.620052 0.131790
O O17 0.552161 0.750000 0.126069
O O18 0.750000 0.638683 0.509676
O O19 0.535552 0.750000 0.526603
O O20 0.250000 0.875514 0.357534
O O21 0.450264 0.750000 0.368784
O O22 0.750000 0.633652 0.995428
O O23 0.546888 0.750000 0.974768
#
# Coordination Sequence:
#
# PCOD9447367 Si02
#       8
#     8   8   8   8   8   8   8   8
#     4   9  16  26  40  57  78 105 136 166 194 229
#     4   9  17  28  41  57  77 103 135 167 199 238
#     4  10  19  29  43  63  83 105 138 175 206 240
#     4   9  16  25  37  54  77 104 131 158 192 234
#     4  10  19  29  41  58  83 113 140 167 201 240
#     4   9  17  28  41  57  78 103 131 166 206 242
#     4   9  16  25  37  53  74 101 132 163 192 226
#     4   9  18  32  46  59  80 110 139 169 208 248
#
# _framework density 14.195975000000001
#
# number of rings (size 3 to 8) (size 9 to 14) (size 15 to 20)
#    0.000    2.750    0.000    2.250    0.000    7.250 
#    0.000    1.250    0.000    0.000    0.000    0.000 
#    0.000    1.000    0.000    8.500    0.000    2.375 
#
# Total GULP energy -356569.192963 kJ/mol
# GULP energy per Si atom -5571.393640 kJ/mol
# Density = 1.416366 g / cm^3
# Si number density = 14.195975 Si / 1000 Ang^3
#
#
#
# Elastic Constant Matrix: (Units=GPa)
#
#
# Indices 1 2 3 4 5 6 
#
# 1 67.4432 37.2349 72.1350 0.0000 0.0000 0.0000
# 2 37.2349 63.4899 48.4007 0.0000 0.0000 0.0000
# 3 72.1350 48.4007 150.1014 0.0000 0.0000 0.0000
# 4 0.0000 0.0000 0.0000 18.9285 0.0000 0.0000
# 5 0.0000 0.0000 0.0000 0.0000 28.1175 0.0000
# 6 0.0000 0.0000 0.0000 0.0000 0.0000 13.9246
#
#
#
# Elastic Compliance Matrix: (Units=1/GPa)
#
#
# Indices 1 2 3 4 5 6 
#
# 1 0.034845 -0.010170 -0.013467 0.000000 0.000000 0.000000
# 2 -0.010170 0.023852 -0.002804 0.000000 0.000000 0.000000
# 3 -0.013467 -0.002804 0.014038 0.000000 0.000000 0.000000
# 4 0.000000 0.000000 0.000000 0.052831 0.000000 0.000000
# 5 0.000000 0.000000 0.000000 0.000000 0.035565 0.000000
# 6 0.000000 0.000000 0.000000 0.000000 0.000000 0.071816
#
#
# Mechanical properties :
#
#
# Convention : Reuss Voigt Hill
#
# Bulk Modulus (GPa) = 50.36453 66.28619 58.32536
# Shear Modulus (GPa) = 17.09720 20.41169 18.75445
#
# Velocity S-wave (km/s) = 3.47417 3.79601 3.63865
# Velocity P-wave (km/s) = 7.18667 8.12453 7.66995
#
# Compressibility (1/GPa) = 0.01985524
#
# Stress axis : x y z
#
# Youngs Moduli (GPa) = 28.69827 41.92462 71.23524
#
# Poissons Ratio (x) = 0.42636 0.95929
# Poissons Ratio (y) = 0.29185 0.19974
# Poissons Ratio (z) = 0.38647 0.11755
#
# Static dielectric constant tensor:
#      x y z
#    x 1.474590 0.000000 0.000000 
#    y 0.000000 1.457290 0.000000 
#    z 0.000000 0.000000 1.449690 
# 
# From -- ./inp_files/33239.got.cif
#   From: 2010.05.17/outbox.cif.g08.bks.cpg/sg59_17_cif.got.tgz:33239.got - 2010.06.03 14:40:33.
