data_PCOD9447435
_publ_section_title
;
Structure prediction by ZEFSAII (Michael W. Deem and Ramdas Pophale) SiO2 
 PCOD9447435
Probable space group: P M M N
;
_chemical_formula_sum "Si O2"
_cell_formula_units_Z 64
_cell_length_a 9.283192
_cell_length_b 14.130787
_cell_length_c 32.205262
_cell_angle_alpha 90.000000
_cell_angle_beta 90.000000
_cell_angle_gamma 90.000000
_cell_volume 4224.647907
_symmetry_space_group_name_H-M "P M M N"
_symmetry_group_IT_number 59
_space_group.IT_coordinate_system_code '2'
_symmetry_cell_setting 'orthorhombic'
loop_
_space_group_symop_operation_xyz
x,y,z
1/2-x,1/2-y,z
1/2+x,-y,-z
-x,1/2+y,-z
-x,-y,-z
1/2+x,1/2+y,-z
1/2-x,y,z
x,1/2-y,z
loop_
_atom_site_type_symbol
_atom_site_label
_atom_site_fract_x
_atom_site_fract_y
_atom_site_fract_z
Si Si1 0.577450 0.858223 0.438356
Si Si2 0.415223 0.635216 0.767917
Si Si3 0.583329 0.363769 0.477866
Si Si4 0.421400 0.468662 0.064223
Si Si5 0.423106 0.539469 0.608640
Si Si6 0.078327 0.360519 0.978018
Si Si7 0.920916 0.862802 0.685175
Si Si8 0.576438 0.138227 0.138420
O O1 0.750000 0.860081 0.443162
O O2 0.532196 0.750000 0.430481
O O3 0.508455 0.890583 0.481860
O O4 0.541233 0.930587 0.401734
O O5 0.250000 0.604462 0.760915
O O6 0.413846 0.750000 0.768646
O O7 0.514584 0.606667 0.729639
O O8 0.460975 0.607632 0.814430
O O9 0.750000 0.391962 0.484354
O O10 0.577089 0.250000 0.474797
O O11 0.536554 0.405797 0.433839
O O12 0.250000 0.477256 0.069811
O O13 0.491035 0.569188 0.051825
O O14 0.496218 0.422986 0.104128
O O15 0.447040 0.399138 0.024749
O O16 0.250000 0.549136 0.613994
O O17 0.502892 0.582197 0.647906
O O18 0.250000 0.369600 0.970051
O O19 0.039263 0.250000 0.974573
O O20 0.750000 0.876322 0.684210
O O21 0.950018 0.750000 0.680387
O O22 0.750000 0.130059 0.134309
O O23 0.540899 0.250000 0.133576
#
# Coordination Sequence:
#
# PCOD9447435 Si02
#       8
#     8   8   8   8   8   8   8   8
#     4   9  18  31  45  62  84 110 143 182 217 246
#     4   8  15  29  47  65  88 119 149 175 209 258
#     4   9  17  28  42  61  84 111 143 175 208 250
#     4  10  19  29  44  68  94 120 154 195 236 274
#     4  10  19  30  45  63  85 116 147 173 208 256
#     4   9  18  32  46  61  88 126 163 196 230 270
#     4  10  20  31  44  66  93 116 140 174 215 258
#     4   9  17  29  46  68  93 122 154 184 217 263
#
# _framework density 15.149191
#
# number of rings (size 3 to 8) (size 9 to 14) (size 15 to 20)
#    0.000    2.750    0.000    2.625    0.000    4.250 
#    0.000    2.500    0.000    0.000    0.000    0.875 
#    0.000    3.000    0.000    0.000    0.000    0.000 
#
# Total GULP energy -356691.580939 kJ/mol
# GULP energy per Si atom -5573.305952 kJ/mol
# Density = 1.511471 g / cm^3
# Si number density = 15.149191 Si / 1000 Ang^3
#
#
#
# Elastic Constant Matrix: (Units=GPa)
#
#
# Indices 1 2 3 4 5 6 
#
# 1 49.5811 48.4276 69.9743 0.0000 0.0000 0.0000
# 2 48.4276 86.8565 68.7172 0.0000 0.0000 0.0000
# 3 69.9743 68.7172 141.3002 0.0000 0.0000 0.0000
# 4 0.0000 0.0000 0.0000 25.6396 0.0000 0.0000
# 5 0.0000 0.0000 0.0000 0.0000 28.4179 0.0000
# 6 0.0000 0.0000 0.0000 0.0000 0.0000 18.5503
#
#
#
# Elastic Compliance Matrix: (Units=1/GPa)
#
#
# Indices 1 2 3 4 5 6 
#
# 1 0.090502 -0.024384 -0.032960 0.000000 0.000000 0.000000
# 2 -0.024384 0.025283 -0.000220 0.000000 0.000000 0.000000
# 3 -0.032960 -0.000220 0.023507 0.000000 0.000000 0.000000
# 4 0.000000 0.000000 0.000000 0.039002 0.000000 0.000000
# 5 0.000000 0.000000 0.000000 0.000000 0.035189 0.000000
# 6 0.000000 0.000000 0.000000 0.000000 0.000000 0.053908
#
#
# Mechanical properties :
#
#
# Convention : Reuss Voigt Hill
#
# Bulk Modulus (GPa) = 41.38456 72.44179 56.91318
# Shear Modulus (GPa) = 12.80173 20.56280 16.68226
#
# Velocity S-wave (km/s) = 2.91012 3.68822 3.32203
# Velocity P-wave (km/s) = 6.21844 8.12773 7.23633
#
# Compressibility (1/GPa) = 0.02416360
#
# Stress axis : x y z
#
# Youngs Moduli (GPa) = 11.04951 39.55232 42.54136
#
# Poissons Ratio (x) = 0.96443 1.40215
# Poissons Ratio (y) = 0.26943 0.00938
# Poissons Ratio (z) = 0.36419 0.00872
#
# Static dielectric constant tensor:
#      x y z
#    x 1.504880 0.000000 0.000000 
#    y 0.000000 1.505990 0.000000 
#    z 0.000000 0.000000 1.483570 
# 
# From -- ./inp_files/33252.got.cif
#   From: 2010.05.17/outbox.cif.g08.bks.cpg/sg59_17_cif.got.tgz:33252.got - 2010.06.03 14:40:33.
