data_PCOD9447704
_publ_section_title
;
Structure prediction by ZEFSAII (Michael W. Deem and Ramdas Pophale) SiO2 
 PCOD9447704
Probable space group: P M M N
;
_chemical_formula_sum "Si O2"
_cell_formula_units_Z 48
_cell_length_a 8.818337
_cell_length_b 16.024655
_cell_length_c 19.674743
_cell_angle_alpha 90.000000
_cell_angle_beta 90.000000
_cell_angle_gamma 90.000000
_cell_volume 2780.253832
_symmetry_space_group_name_H-M "P M M N"
_symmetry_group_IT_number 59
_space_group.IT_coordinate_system_code '2'
_symmetry_cell_setting 'orthorhombic'
loop_
_space_group_symop_operation_xyz
x,y,z
1/2-x,1/2-y,z
1/2+x,-y,-z
-x,1/2+y,-z
-x,-y,-z
1/2+x,1/2+y,-z
1/2-x,y,z
x,1/2-y,z
loop_
_atom_site_type_symbol
_atom_site_label
_atom_site_fract_x
_atom_site_fract_y
_atom_site_fract_z
Si Si1 0.566830 0.505231 0.836362
Si Si2 0.432093 0.575588 0.297503
Si Si3 0.432262 0.573383 0.454568
Si Si4 0.575570 0.750000 0.457024
Si Si5 0.576781 0.750000 0.291887
Si Si6 0.567424 0.155408 0.078728
Si Si7 0.565570 0.156652 0.920694
O O1 0.750000 0.508356 0.839681
O O2 0.521885 0.493200 0.757644
O O3 0.501743 0.585736 0.873211
O O4 0.515499 0.421323 0.875817
O O5 0.250000 0.580482 0.297711
O O6 0.480004 0.561191 0.375361
O O7 0.493018 0.665112 0.272725
O O8 0.500000 0.500000 0.500000
O O9 0.250000 0.572580 0.457483
O O10 0.492810 0.664359 0.477028
O O11 0.750000 0.750000 0.480019
O O12 0.575535 0.750000 0.374559
O O13 0.750000 0.750000 0.268711
O O14 0.750000 0.150475 0.081234
O O15 0.523182 0.250000 0.097695
O O16 0.523060 0.142927 0.999634
O O17 0.750000 0.158013 0.917966
O O18 0.514138 0.250000 0.899983
#
# Coordination Sequence:
#
# PCOD9447704 Si02
#       7
#     8   8   8   4   4   8   8
#     4  10  19  30  50  75  97 126 165 204 245 289
#     4   9  19  32  48  73 103 132 164 202 248 297
#     4  10  19  33  53  76 104 135 170 209 251 299
#     4   9  17  31  51  77 103 131 164 199 246 299
#     4   9  17  29  47  71 101 133 162 191 236 297
#     4   9  18  33  50  67  93 130 167 204 249 292
#     4   8  15  28  47  72  99 128 161 195 238 296
#
# _framework density 17.264612
#
# number of rings (size 3 to 8) (size 9 to 14) (size 15 to 20)
#    0.000    2.833    0.000    2.500    1.167    3.667 
#    0.000    0.000    1.833    1.000    0.000    0.000 
#    0.000    0.000    0.000    0.000    0.000    0.000 
#
# Total GULP energy -267550.695133 kJ/mol
# GULP energy per Si atom -5573.972815 kJ/mol
# Density = 1.722532 g / cm^3
# Si number density = 17.264612 Si / 1000 Ang^3
#
#
#
# Elastic Constant Matrix: (Units=GPa)
#
#
# Indices 1 2 3 4 5 6 
#
# 1 21.4616 36.0003 27.7775 0.0000 0.0000 0.0000
# 2 36.0003 142.6106 82.1437 0.0000 0.0000 0.0000
# 3 27.7775 82.1437 85.9392 0.0000 0.0000 0.0000
# 4 0.0000 0.0000 0.0000 28.2082 0.0000 0.0000
# 5 0.0000 0.0000 0.0000 0.0000 16.7305 0.0000
# 6 0.0000 0.0000 0.0000 0.0000 0.0000 33.4725
#
#
#
# Elastic Compliance Matrix: (Units=1/GPa)
#
#
# Indices 1 2 3 4 5 6 
#
# 1 0.090170 -0.013294 -0.016438 0.000000 0.000000 0.000000
# 2 -0.013294 0.017562 -0.012489 0.000000 0.000000 0.000000
# 3 -0.016438 -0.012489 0.028887 0.000000 0.000000 0.000000
# 4 0.000000 0.000000 0.000000 0.035451 0.000000 0.000000
# 5 0.000000 0.000000 0.000000 0.000000 0.059771 0.000000
# 6 0.000000 0.000000 0.000000 0.000000 0.000000 0.029875
#
#
# Mechanical properties :
#
#
# Convention : Reuss Voigt Hill
#
# Bulk Modulus (GPa) = 19.16583 60.20603 39.68593
# Shear Modulus (GPa) = 13.75322 22.62157 18.18740
#
# Velocity S-wave (km/s) = 2.82550 3.62371 3.24921
# Velocity P-wave (km/s) = 4.66582 7.24269 6.09206
#
# Compressibility (1/GPa) = 0.05217618
#
# Stress axis : x y z
#
# Youngs Moduli (GPa) = 11.09013 56.94163 34.61756
#
# Poissons Ratio (x) = 0.75698 0.56905
# Poissons Ratio (y) = 0.14743 0.43235
# Poissons Ratio (z) = 0.18230 0.71116
#
# Static dielectric constant tensor:
#      x y z
#    x 1.585720 0.000000 0.000000 
#    y 0.000000 1.566950 0.000000 
#    z 0.000000 0.000000 1.598620 
# 
# From -- ./inp_files/25582.got.cif
#   From: 2010.05.17/outbox.cif.g08.bks.cpg/sg59_13_cif.got.tgz:25582.got - 2010.06.03 14:40:33.
