data_PCOD9447553
_publ_section_title
;
Structure prediction by ZEFSAII (Michael W. Deem and Ramdas Pophale) SiO2 
 PCOD9447553
Probable space group: P M M N
;
_chemical_formula_sum "Si O2"
_cell_formula_units_Z 48
_cell_length_a 24.408616
_cell_length_b 8.821464
_cell_length_c 14.101215
_cell_angle_alpha 90.000000
_cell_angle_beta 90.000000
_cell_angle_gamma 90.000000
_cell_volume 3036.269769
_symmetry_space_group_name_H-M "P M M N"
_symmetry_group_IT_number 59
_space_group.IT_coordinate_system_code '2'
_symmetry_cell_setting 'orthorhombic'
loop_
_space_group_symop_operation_xyz
x,y,z
1/2-x,1/2-y,z
1/2+x,-y,-z
-x,1/2+y,-z
-x,-y,-z
1/2+x,1/2+y,-z
1/2-x,y,z
x,1/2-y,z
loop_
_atom_site_type_symbol
_atom_site_label
_atom_site_fract_x
_atom_site_fract_y
_atom_site_fract_z
Si Si1 0.688181 0.934542 0.353805
Si Si2 0.813333 0.567390 0.134885
Si Si3 0.023061 0.068673 0.145539
Si Si4 0.914844 0.068813 0.028020
Si Si5 0.475190 0.569076 0.353343
Si Si6 0.084109 0.067327 0.528003
O O1 0.750000 0.983694 0.377961
O O2 0.688048 0.750000 0.354705
O O3 0.676439 0.978105 0.244725
O O4 0.640887 0.984523 0.425075
O O5 0.750000 0.529451 0.112822
O O6 0.818574 0.750000 0.129782
O O7 0.857639 0.492071 0.067294
O O8 0.026885 0.250000 0.147312
O O9 0.963399 0.026883 0.102183
O O10 0.029620 0.003101 0.250190
O O11 0.067136 0.002588 0.071813
O O12 0.913850 0.250000 0.019923
O O13 0.471429 0.750000 0.346517
O O14 0.430842 0.506826 0.427955
O O15 0.534323 0.530958 0.399923
O O16 0.085215 0.250000 0.517143
#
# Coordination Sequence:
#
# PCOD9447553 Si02
#       6
#     8   8   8   8   8   8
#     4   8  14  26  46  70  93 120 155 190 223 265
#     4   9  17  30  49  72  98 128 159 190 227 274
#     4  10  20  33  49  69  94 124 157 193 235 284
#     4  10  20  32  48  71  97 124 154 192 237 280
#     4  10  19  30  46  68  94 123 154 190 232 277
#     4   9  17  29  46  68  94 123 153 188 230 274
#
# _framework density 15.808871999999999
#
# number of rings (size 3 to 8) (size 9 to 14) (size 15 to 20)
#    0.000    2.667    0.000    3.500    0.000    4.333 
#    0.000    0.833    0.000    2.500    0.000    2.333 
#    0.000    0.000    0.000    0.000    0.000    0.000 
#
# Total GULP energy -267657.366197 kJ/mol
# GULP energy per Si atom -5576.195129 kJ/mol
# Density = 1.577289 g / cm^3
# Si number density = 15.808872 Si / 1000 Ang^3
#
#
#
# Elastic Constant Matrix: (Units=GPa)
#
#
# Indices 1 2 3 4 5 6 
#
# 1 110.7832 39.6130 86.3296 0.0000 0.0000 0.0000
# 2 39.6130 31.7908 49.9925 0.0000 0.0000 0.0000
# 3 86.3296 49.9925 156.1344 0.0000 0.0000 0.0000
# 4 0.0000 0.0000 0.0000 22.5907 0.0000 0.0000
# 5 0.0000 0.0000 0.0000 0.0000 25.4720 0.0000
# 6 0.0000 0.0000 0.0000 0.0000 0.0000 21.5718
#
#
#
# Elastic Compliance Matrix: (Units=1/GPa)
#
#
# Indices 1 2 3 4 5 6 
#
# 1 0.018529 -0.014053 -0.005745 0.000000 0.000000 0.000000
# 2 -0.014053 0.074015 -0.015928 0.000000 0.000000 0.000000
# 3 -0.005745 -0.015928 0.014681 0.000000 0.000000 0.000000
# 4 0.000000 0.000000 0.000000 0.044266 0.000000 0.000000
# 5 0.000000 0.000000 0.000000 0.000000 0.039259 0.000000
# 6 0.000000 0.000000 0.000000 0.000000 0.000000 0.046357
#
#
# Mechanical properties :
#
#
# Convention : Reuss Voigt Hill
#
# Bulk Modulus (GPa) = 27.95530 72.28652 50.12091
# Shear Modulus (GPa) = 15.60139 22.11178 18.85658
#
# Velocity S-wave (km/s) = 3.14487 3.74397 3.45742
# Velocity P-wave (km/s) = 5.55955 8.03208 6.90735
#
# Compressibility (1/GPa) = 0.03577139
#
# Stress axis : x y z
#
# Youngs Moduli (GPa) = 53.97034 13.51079 68.11301
#
# Poissons Ratio (x) = 0.18987 0.39132
# Poissons Ratio (y) = 0.75845 1.08494
# Poissons Ratio (z) = 0.31007 0.21521
#
# Static dielectric constant tensor:
#      x y z
#    x 1.523550 0.000000 0.000000 
#    y 0.000000 1.524500 0.000000 
#    z 0.000000 0.000000 1.499720 
# 
# From -- ./inp_files/14328.got.cif
#   From: 2010.05.17/outbox.cif.g08.bks.cpg/sg59_8_cif.got.tgz:14328.got - 2010.06.03 14:40:33.
