data_PCOD9447916
_publ_section_title
;
Structure prediction by ZEFSAII (Michael W. Deem and Ramdas Pophale) SiO2 
 PCOD9447916
Probable space group: P M M N
;
_chemical_formula_sum "Si O2"
_cell_formula_units_Z 64
_cell_length_a 14.676325
_cell_length_b 16.287629
_cell_length_c 12.016557
_cell_angle_alpha 90.000000
_cell_angle_beta 90.000000
_cell_angle_gamma 90.000000
_cell_volume 2872.468267
_symmetry_space_group_name_H-M "P M M N"
_symmetry_group_IT_number 59
_space_group.IT_coordinate_system_code '2'
_symmetry_cell_setting 'orthorhombic'
loop_
_space_group_symop_operation_xyz
x,y,z
1/2-x,1/2-y,z
1/2+x,-y,-z
-x,1/2+y,-z
-x,-y,-z
1/2+x,1/2+y,-z
1/2-x,y,z
x,1/2-y,z
loop_
_atom_site_type_symbol
_atom_site_label
_atom_site_fract_x
_atom_site_fract_y
_atom_site_fract_z
Si Si1 0.992046 0.160624 0.989154
Si Si2 0.359501 0.657228 0.566366
Si Si3 0.599594 0.158571 0.759682
Si Si4 0.354546 0.979670 0.398658
Si Si5 0.109094 0.341380 0.685362
Si Si6 0.142882 0.342899 0.425263
Si Si7 0.645888 0.371018 0.172289
Si Si8 0.151733 0.441450 0.901354
O O1 0.035544 0.250000 0.965929
O O2 0.918524 0.148572 0.890461
O O3 0.069171 0.092574 0.974859
O O4 0.936926 0.164914 0.102360
O O5 0.250000 0.659439 0.546146
O O6 0.393191 0.750000 0.538457
O O7 0.395909 0.580724 0.493651
O O8 0.371526 0.639762 0.696763
O O9 0.639401 0.250000 0.739257
O O10 0.647137 0.080013 0.707654
O O11 0.499484 0.157938 0.703651
O O12 0.250000 0.995667 0.433796
O O13 0.395045 0.070587 0.376603
O O14 0.142245 0.250000 0.709099
O O15 0.133467 0.358015 0.558052
O O16 0.146781 0.399725 0.779918
O O17 0.250000 0.337711 0.395722
O O18 0.105244 0.250000 0.401862
O O19 0.750000 0.340537 0.152344
O O20 0.645020 0.463722 0.128087
O O21 0.250000 0.423625 0.953493
#
# Coordination Sequence:
#
# PCOD9447916 Si02
#       8
#     8   8   8   8   8   8   8   8
#     4  10  21  36  54  79 112 145 182 229 276 331
#     4   9  17  29  47  73 105 141 181 224 270 324
#     4   9  19  33  48  72 105 138 173 216 266 322
#     4  10  19  31  49  74 105 141 179 219 269 324
#     4   9  17  30  49  74 103 133 168 212 264 321
#     4   9  17  29  46  69  96 126 166 217 266 314
#     4  10  20  34  53  77 108 147 188 229 275 329
#     4  10  19  32  53  80 108 139 178 227 281 331
#
# _framework density 22.28049
#
# number of rings (size 3 to 8) (size 9 to 14) (size 15 to 20)
#    0.000    2.500    0.000    3.375    0.000    6.000 
#    0.000    1.250    0.000    0.000    0.000    8.750 
#    0.000   12.000    0.000   14.750    0.000    0.000 
#
# Total GULP energy -356934.281928 kJ/mol
# GULP energy per Si atom -5577.098155 kJ/mol
# Density = 2.222978 g / cm^3
# Si number density = 22.280490 Si / 1000 Ang^3
#
#
#
# Elastic Constant Matrix: (Units=GPa)
#
#
# Indices 1 2 3 4 5 6 
#
# 1 51.0591 35.1430 6.1381 0.0000 0.0000 0.0000
# 2 35.1430 151.2963 12.2704 0.0000 0.0000 0.0000
# 3 6.1381 12.2704 28.9208 0.0000 0.0000 0.0000
# 4 0.0000 0.0000 0.0000 23.6423 0.0000 0.0000
# 5 0.0000 0.0000 0.0000 0.0000 18.0092 0.0000
# 6 0.0000 0.0000 0.0000 0.0000 0.0000 31.5198
#
#
#
# Elastic Compliance Matrix: (Units=1/GPa)
#
#
# Indices 1 2 3 4 5 6 
#
# 1 0.023524 -0.005240 -0.002770 0.000000 0.000000 0.000000
# 2 -0.005240 0.008012 -0.002287 0.000000 0.000000 0.000000
# 3 -0.002770 -0.002287 0.036135 0.000000 0.000000 0.000000
# 4 0.000000 0.000000 0.000000 0.042297 0.000000 0.000000
# 5 0.000000 0.000000 0.000000 0.000000 0.055527 0.000000
# 6 0.000000 0.000000 0.000000 0.000000 0.000000 0.031726
#
#
# Mechanical properties :
#
#
# Convention : Reuss Voigt Hill
#
# Bulk Modulus (GPa) = 21.24100 37.59768 29.41934
# Shear Modulus (GPa) = 21.41247 26.48255 23.94751
#
# Velocity S-wave (km/s) = 3.10343 3.45135 3.28200
# Velocity P-wave (km/s) = 4.73243 5.72658 5.25307
#
# Compressibility (1/GPa) = 0.04707876
#
# Stress axis : x y z
#
# Youngs Moduli (GPa) = 42.50896 124.81112 27.67364
#
# Poissons Ratio (x) = 0.65396 0.07665
# Poissons Ratio (y) = 0.22273 0.06330
# Poissons Ratio (z) = 0.11774 0.28548
#
# Static dielectric constant tensor:
#      x y z
#    x 1.872510 0.000000 0.000000 
#    y 0.000000 1.961430 0.000000 
#    z 0.000000 0.000000 1.787090 
# 
# From -- ./inp_files/17817.got.cif
#   From: 2010.05.17/outbox.cif.g08.bks.cpg/sg59_9_cif.got.tgz:17817.got - 2010.06.03 14:40:33.
