data_PCOD9447014
_publ_section_title
;
Structure prediction by ZEFSAII (Michael W. Deem and Ramdas Pophale) SiO2 
 PCOD9447014
Probable space group: P M M N
;
_chemical_formula_sum "Si O2"
_cell_formula_units_Z 56
_cell_length_a 15.751604
_cell_length_b 7.425894
_cell_length_c 22.259796
_cell_angle_alpha 90.000000
_cell_angle_beta 90.000000
_cell_angle_gamma 90.000000
_cell_volume 2603.722587
_symmetry_space_group_name_H-M "P M M N"
_symmetry_group_IT_number 59
_space_group.IT_coordinate_system_code '2'
_symmetry_cell_setting 'orthorhombic'
loop_
_space_group_symop_operation_xyz
x,y,z
1/2-x,1/2-y,z
1/2+x,-y,-z
-x,1/2+y,-z
-x,-y,-z
1/2+x,1/2+y,-z
1/2-x,y,z
x,1/2-y,z
loop_
_atom_site_type_symbol
_atom_site_label
_atom_site_fract_x
_atom_site_fract_y
_atom_site_fract_z
Si Si1 0.344345 0.970243 0.870813
Si Si2 0.846252 0.532526 0.424363
Si Si3 0.600312 0.464765 0.998517
Si Si4 0.005282 0.539101 0.786073
Si Si5 0.344192 0.967973 0.132363
Si Si6 0.989575 0.960456 0.652637
Si Si7 0.846838 0.530379 0.561718
O O1 0.250000 0.020906 0.851103
O O2 0.348170 0.750000 0.872317
O O3 0.360564 0.032156 0.939183
O O4 0.418434 0.035391 0.826858
O O5 0.750000 0.474661 0.409004
O O6 0.846492 0.750000 0.423988
O O7 0.864640 0.474030 0.492989
O O8 0.919683 0.472007 0.379888
O O9 0.614344 0.250000 0.998086
O O10 0.500000 0.500000 0.000000
O O11 0.637320 0.532621 0.935595
O O12 0.025964 0.750000 0.778086
O O13 0.918721 0.526024 0.823543
O O14 0.994850 0.460919 0.719511
O O15 0.250000 0.024947 0.151135
O O16 0.345908 0.750000 0.131326
O O17 0.967291 0.750000 0.659712
O O18 0.917117 0.035560 0.608446
O O19 0.750000 0.478222 0.576822
O O20 0.848762 0.750000 0.561052
#
# Coordination Sequence:
#
# PCOD9447014 Si02
#       7
#     8   8   8   8   8   8   8
#     4   9  17  31  51  72  97 131 168 204 247 302
#     4   9  18  33  53  75 100 134 172 208 253 308
#     4  10  18  31  54  77  99 128 165 212 261 304
#     4  10  21  35  51  76 105 136 173 210 251 300
#     4  10  21  36  54  76 102 135 174 213 256 304
#     4  10  20  32  51  78 105 134 170 212 256 299
#     4   8  15  30  51  74 101 133 170 211 255 305
#
# _framework density 21.507667000000001
#
# number of rings (size 3 to 8) (size 9 to 14) (size 15 to 20)
#    0.000    2.571    1.429    1.714    0.000    4.000 
#    0.000    2.857    0.000    3.857    0.000    0.000 
#    0.000    0.000    0.000    0.000    0.000    0.000 
#
# Total GULP energy -312751.205356 kJ/mol
# GULP energy per Si atom -5584.842953 kJ/mol
# Density = 2.145871 g / cm^3
# Si number density = 21.507667 Si / 1000 Ang^3
#
#
#
# Elastic Constant Matrix: (Units=GPa)
#
#
# Indices 1 2 3 4 5 6 
#
# 1 153.4605 -16.5930 99.1369 0.0000 0.0000 0.0000
# 2 -16.5930 64.7080 -1.4299 0.0000 0.0000 0.0000
# 3 99.1369 -1.4299 167.6186 0.0000 0.0000 0.0000
# 4 0.0000 0.0000 0.0000 -33.1070 0.0000 0.0000
# 5 0.0000 0.0000 0.0000 0.0000 -6.0607 0.0000
# 6 0.0000 0.0000 0.0000 0.0000 0.0000 18.2172
#
#
#
# Elastic Compliance Matrix: (Units=1/GPa)
#
#
# Indices 1 2 3 4 5 6 
#
# 1 0.010990 0.002675 -0.006477 0.000000 0.000000 0.000000
# 2 0.002675 0.016108 -0.001445 0.000000 0.000000 0.000000
# 3 -0.006477 -0.001445 0.009784 0.000000 0.000000 0.000000
# 4 0.000000 0.000000 0.000000 -0.030205 0.000000 0.000000
# 5 0.000000 0.000000 0.000000 0.000000 -0.164996 0.000000
# 6 0.000000 0.000000 0.000000 0.000000 0.000000 0.054893
#
#
# Mechanical properties :
#
#
# Convention : Reuss Voigt Hill
#
# Bulk Modulus (GPa) = 37.89492 60.89058 49.39275
# Shear Modulus (GPa) = -59.42735 16.12141 -21.65297
#
# Velocity S-wave (km/s) = -5.26220 2.74079 -3.17638
# Velocity P-wave (km/s) = 4.38902 6.19584 3.09233
#
# Compressibility (1/GPa) = 0.02638876
#
# Stress axis : x y z
#
# Youngs Moduli (GPa) = 90.99364 62.08077 102.20360
#
# Poissons Ratio (x) = -0.16606 0.66197
# Poissons Ratio (y) = -0.24340 0.14765
# Poissons Ratio (z) = 0.58937 0.08969
#
# Static dielectric constant tensor:
#      x y z
#    x 1.738110 0.000000 0.000000 
#    y 0.000000 1.889090 0.000000 
#    z 0.000000 0.000000 1.759150 
# 
# From -- ./inp_files/29177.got.cif
#   From: 2010.05.17/outbox.cif.g08.bks.cpg/sg59_15_cif.got.tgz:29177.got - 2010.06.03 14:40:33.
