data_PCOD9447028
_publ_section_title
;
Structure prediction by ZEFSAII (Michael W. Deem and Ramdas Pophale) SiO2 
 PCOD9447028
Probable space group: P M M N
;
_chemical_formula_sum "Si O2"
_cell_formula_units_Z 48
_cell_length_a 15.055965
_cell_length_b 8.680851
_cell_length_c 20.489422
_cell_angle_alpha 90.000000
_cell_angle_beta 90.000000
_cell_angle_gamma 90.000000
_cell_volume 2677.938541
_symmetry_space_group_name_H-M "P M M N"
_symmetry_group_IT_number 59
_space_group.IT_coordinate_system_code '2'
_symmetry_cell_setting 'orthorhombic'
loop_
_space_group_symop_operation_xyz
x,y,z
1/2-x,1/2-y,z
1/2+x,-y,-z
-x,1/2+y,-z
-x,-y,-z
1/2+x,1/2+y,-z
1/2-x,y,z
x,1/2-y,z
loop_
_atom_site_type_symbol
_atom_site_label
_atom_site_fract_x
_atom_site_fract_y
_atom_site_fract_z
Si Si1 0.943486 0.069847 0.057420
Si Si2 0.560526 0.435246 0.208351
Si Si3 0.750000 0.937181 0.479341
Si Si4 0.750000 0.564538 0.632824
Si Si5 0.750000 0.570897 0.216995
Si Si6 0.943956 0.936009 0.439548
Si Si7 0.436016 0.564751 0.316218
Si Si8 0.750000 0.428967 0.077741
O O1 0.964196 0.250000 0.060696
O O2 0.950560 0.012830 0.132479
O O3 0.840066 0.050852 0.039360
O O4 0.000000 0.000000 0.000000
O O5 0.563164 0.250000 0.209283
O O6 0.655429 0.496127 0.236217
O O7 0.479667 0.498303 0.250875
O O8 0.750000 0.750000 0.477441
O O9 0.750000 0.981234 0.555950
O O10 0.841711 0.988926 0.445894
O O11 0.750000 0.750000 0.635666
O O12 0.839242 0.500728 0.666180
O O13 0.750000 0.750000 0.234580
O O14 0.750000 0.542249 0.138966
O O15 0.943812 0.750000 0.442979
O O16 0.995624 0.980389 0.374081
O O17 0.000000 0.000000 0.500000
O O18 0.431670 0.750000 0.313149
O O19 0.750000 0.250000 0.103641
#
# Coordination Sequence:
#
# PCOD9447028 Si02
#       8
#     8   8   4   4   4   8   8   4
#     4   9  18  33  55  80 108 144 185 230 275 328
#     4  10  21  38  57  80 114 154 191 226 277 345
#     4   9  18  34  56  80 107 144 183 221 273 336
#     4  11  21  37  61  79 105 153 193 223 279 351
#     4  10  18  31  55  83 110 141 179 228 282 328
#     4  10  20  35  55  80 109 140 181 229 276 327
#     4  11  23  37  57  85 114 144 187 242 286 325
#     4   8  16  32  50  74 108 146 181 214 268 339
#
# _framework density 17.924234999999999
#
# number of rings (size 3 to 8) (size 9 to 14) (size 15 to 20)
#    0.000    2.167    1.667    3.000    0.000    4.667 
#    0.000    2.917    0.000    4.000    0.000    0.000 
#    0.000    0.000    0.000    0.000    0.000    0.000 
#
# Total GULP energy -267622.570752 kJ/mol
# GULP energy per Si atom -5575.470224 kJ/mol
# Density = 1.788344 g / cm^3
# Si number density = 17.924235 Si / 1000 Ang^3
#
#
#
# Elastic Constant Matrix: (Units=GPa)
#
#
# Indices 1 2 3 4 5 6 
#
# 1 177.2310 45.1387 80.7962 0.0000 0.0000 0.0000
# 2 45.1387 43.2141 30.4714 0.0000 0.0000 0.0000
# 3 80.7962 30.4714 94.0406 0.0000 0.0000 0.0000
# 4 0.0000 0.0000 0.0000 24.4305 0.0000 0.0000
# 5 0.0000 0.0000 0.0000 0.0000 33.7642 0.0000
# 6 0.0000 0.0000 0.0000 0.0000 0.0000 30.1491
#
#
#
# Elastic Compliance Matrix: (Units=1/GPa)
#
#
# Indices 1 2 3 4 5 6 
#
# 1 0.010306 -0.005860 -0.006955 0.000000 0.000000 0.000000
# 2 -0.005860 0.033326 -0.005763 0.000000 0.000000 0.000000
# 3 -0.006955 -0.005763 0.018477 0.000000 0.000000 0.000000
# 4 0.000000 0.000000 0.000000 0.040932 0.000000 0.000000
# 5 0.000000 0.000000 0.000000 0.000000 0.029617 0.000000
# 6 0.000000 0.000000 0.000000 0.000000 0.000000 0.033169
#
#
# Mechanical properties :
#
#
# Convention : Reuss Voigt Hill
#
# Bulk Modulus (GPa) = 40.07969 69.69981 54.88975
# Shear Modulus (GPa) = 23.66284 28.20739 25.93512
#
# Velocity S-wave (km/s) = 3.63734 3.97129 3.80798
# Velocity P-wave (km/s) = 6.32847 7.74587 7.07276
#
# Compressibility (1/GPa) = 0.02495029
#
# Stress axis : x y z
#
# Youngs Moduli (GPa) = 97.03321 30.00680 54.12116
#
# Poissons Ratio (x) = 0.17585 0.37644
# Poissons Ratio (y) = 0.56864 0.31192
# Poissons Ratio (z) = 0.67491 0.17294
#
# Static dielectric constant tensor:
#      x y z
#    x 1.617290 0.000000 0.000000 
#    y 0.000000 1.616940 0.000000 
#    z 0.000000 0.000000 1.608630 
# 
# From -- ./inp_files/27520.got.cif
#   From: 2010.05.17/outbox.cif.g08.bks.cpg/sg59_14_cif.got.tgz:27520.got - 2010.06.03 14:40:33.
