data_PCOD9447260
_publ_section_title
;
Structure prediction by ZEFSAII (Michael W. Deem and Ramdas Pophale) SiO2 
 PCOD9447260
Probable space group: P M M N
;
_chemical_formula_sum "Si O2"
_cell_formula_units_Z 56
_cell_length_a 22.817284
_cell_length_b 7.498098
_cell_length_c 15.028034
_cell_angle_alpha 90.000000
_cell_angle_beta 90.000000
_cell_angle_gamma 90.000000
_cell_volume 2571.089704
_symmetry_space_group_name_H-M "P M M N"
_symmetry_group_IT_number 59
_space_group.IT_coordinate_system_code '2'
_symmetry_cell_setting 'orthorhombic'
loop_
_space_group_symop_operation_xyz
x,y,z
1/2-x,1/2-y,z
1/2+x,-y,-z
-x,1/2+y,-z
-x,-y,-z
1/2+x,1/2+y,-z
1/2-x,y,z
x,1/2-y,z
loop_
_atom_site_type_symbol
_atom_site_label
_atom_site_fract_x
_atom_site_fract_y
_atom_site_fract_z
Si Si1 0.750000 0.954447 0.450578
Si Si2 0.815640 0.039983 0.749654
Si Si3 0.052498 0.469074 0.712293
Si Si4 0.877936 0.536052 0.460708
Si Si5 0.682794 0.534295 0.953532
Si Si6 0.367866 0.461263 0.866546
Si Si7 0.572974 0.037036 0.646075
Si Si8 0.250000 0.538119 0.756004
O O1 0.750000 0.750000 0.482781
O O2 0.687673 0.035646 0.478672
O O3 0.750000 0.956020 0.342676
O O4 0.750000 0.964143 0.737094
O O5 0.811741 0.250000 0.729122
O O6 0.868016 0.963058 0.691107
O O7 0.831673 0.023118 0.853774
O O8 0.052681 0.250000 0.712279
O O9 0.095651 0.526607 0.632593
O O10 0.079586 0.530971 0.805481
O O11 0.987173 0.529706 0.688845
O O12 0.872664 0.750000 0.453575
O O13 0.921286 0.495454 0.541289
O O14 0.750000 0.477884 0.971274
O O15 0.682152 0.750000 0.954418
O O16 0.642812 0.467430 0.034290
O O17 0.377591 0.250000 0.876028
O O18 0.307725 0.484505 0.810900
O O19 0.572673 0.250000 0.659899
O O20 0.250000 0.750000 0.745003
#
# Coordination Sequence:
#
# PCOD9447260 Si02
#       8
#     4   8   8   8   8   8   8   4
#     4  10  20  36  54  75 106 139 174 211 256 318
#     4   9  19  35  52  71 103 141 170 210 268 317
#     4   9  18  34  56  77 101 141 181 212 252 314
#     4  10  20  34  55  78 102 137 176 216 263 305
#     4   9  17  30  53  80 100 128 173 218 255 299
#     4  10  18  34  56  76 106 142 176 210 257 315
#     4  10  21  36  54  76 103 138 181 219 260 314
#     4  12  22  30  48  81 114 139 170 213 262 308
#
# _framework density 21.780647999999999
#
# number of rings (size 3 to 8) (size 9 to 14) (size 15 to 20)
#    0.000    2.286    2.143    1.071    1.000    1.714 
#    0.000    1.429    0.000    0.000    0.000    0.000 
#    0.000    0.000    0.000    0.000    0.000    0.000 
#
# Total GULP energy -312759.639850 kJ/mol
# GULP energy per Si atom -5584.993569 kJ/mol
# Density = 2.173107 g / cm^3
# Si number density = 21.780648 Si / 1000 Ang^3
#
#
#
# Elastic Constant Matrix: (Units=GPa)
#
#
# Indices 1 2 3 4 5 6 
#
# 1 85.9400 9.0759 18.2163 0.0000 0.0000 0.0000
# 2 9.0759 61.2470 -1.1475 0.0000 0.0000 0.0000
# 3 18.2163 -1.1475 44.2758 0.0000 0.0000 0.0000
# 4 0.0000 0.0000 0.0000 14.8366 0.0000 0.0000
# 5 0.0000 0.0000 0.0000 0.0000 -15.0115 0.0000
# 6 0.0000 0.0000 0.0000 0.0000 0.0000 -6.3205
#
#
#
# Elastic Compliance Matrix: (Units=1/GPa)
#
#
# Indices 1 2 3 4 5 6 
#
# 1 0.012994 -0.002027 -0.005399 0.000000 0.000000 0.000000
# 2 -0.002027 0.016651 0.001265 0.000000 0.000000 0.000000
# 3 -0.005399 0.001265 0.024840 0.000000 0.000000 0.000000
# 4 0.000000 0.000000 0.000000 0.067401 0.000000 0.000000
# 5 0.000000 0.000000 0.000000 0.000000 -0.066616 0.000000
# 6 0.000000 0.000000 0.000000 0.000000 0.000000 -0.158215
#
#
# Mechanical properties :
#
#
# Convention : Reuss Voigt Hill
#
# Bulk Modulus (GPa) = 23.71619 27.08358 25.39988
# Shear Modulus (GPa) = -65.30109 9.72211 -27.78949
#
# Velocity S-wave (km/s) = -5.48145 2.11503 -3.57582
# Velocity P-wave (km/s) = 5.39903 4.29257 2.31553
#
# Compressibility (1/GPa) = 0.04216529
#
# Stress axis : x y z
#
# Youngs Moduli (GPa) = 76.95607 60.05514 40.25806
#
# Poissons Ratio (x) = 0.12172 0.21735
# Poissons Ratio (y) = 0.15597 -0.05094
# Poissons Ratio (z) = 0.41547 -0.07600
#
# Static dielectric constant tensor:
#      x y z
#    x 1.801670 0.000000 0.000000 
#    y 0.000000 1.811620 0.000000 
#    z 0.000000 0.000000 1.767110 
# 
# From -- ./inp_files/24368.got.cif
#   From: 2010.05.17/outbox.cif.g08.bks.cpg/sg59_13_cif.got.tgz:24368.got - 2010.06.03 14:40:33.
