data_PCOD9447131
_publ_section_title
;
Structure prediction by ZEFSAII (Michael W. Deem and Ramdas Pophale) SiO2 
 PCOD9447131
Probable space group: P M M N
;
_chemical_formula_sum "Si O2"
_cell_formula_units_Z 48
_cell_length_a 10.265452
_cell_length_b 17.435053
_cell_length_c 15.269118
_cell_angle_alpha 90.000000
_cell_angle_beta 90.000000
_cell_angle_gamma 90.000000
_cell_volume 2732.846885
_symmetry_space_group_name_H-M "P M M N"
_symmetry_group_IT_number 59
_space_group.IT_coordinate_system_code '2'
_symmetry_cell_setting 'orthorhombic'
loop_
_space_group_symop_operation_xyz
x,y,z
1/2-x,1/2-y,z
1/2+x,-y,-z
-x,1/2+y,-z
-x,-y,-z
1/2+x,1/2+y,-z
1/2-x,y,z
x,1/2-y,z
loop_
_atom_site_type_symbol
_atom_site_label
_atom_site_fract_x
_atom_site_fract_y
_atom_site_fract_z
Si Si1 0.750000 0.008097 0.623873
Si Si2 0.400877 0.842189 0.846845
Si Si3 0.475472 0.386876 0.807354
Si Si4 0.750000 0.161478 0.734616
Si Si5 0.750000 0.992826 0.416432
Si Si6 0.750000 0.834282 0.320502
Si Si7 0.482624 0.956387 0.705222
Si Si8 0.601505 0.657243 0.998405
O O1 0.750000 0.096184 0.659174
O O2 0.750000 0.005515 0.519429
O O3 0.623305 0.966376 0.662470
O O4 0.250000 0.865751 0.860362
O O5 0.404201 0.750000 0.842151
O O6 0.453673 0.879371 0.757792
O O7 0.495747 0.866212 0.926083
O O8 0.619810 0.354321 0.790681
O O9 0.374704 0.344333 0.742665
O O10 0.469906 0.474844 0.776082
O O11 0.432235 0.376200 0.906758
O O12 0.750000 0.250000 0.704466
O O13 0.750000 0.902879 0.390188
O O14 0.624441 0.029008 0.369342
O O15 0.750000 0.750000 0.360501
O O16 0.750000 0.636415 0.973511
O O17 0.596353 0.750000 0.005996
#
# Coordination Sequence:
#
# PCOD9447131 Si02
#       8
#     4   8   8   4   4   4   8   8
#     4  10  22  38  59  85 111 141 181 230 282 332
#     4  10  22  39  57  79 110 150 191 227 265 318
#     4  10  20  33  54  81 112 147 181 221 273 328
#     4  10  20  34  53  81 115 147 179 221 273 328
#     4  10  20  38  61  81 109 143 181 228 282 334
#     4  10  18  32  55  81 109 141 177 223 277 334
#     4  10  21  39  58  80 110 146 182 225 282 333
#     4  10  20  33  52  81 113 145 183 226 270 315
#
# _framework density 17.564101000000001
#
# number of rings (size 3 to 8) (size 9 to 14) (size 15 to 20)
#    0.000    2.000    1.667    2.000    2.333    0.667 
#    0.000    1.667    0.000    0.000    0.000    0.000 
#    0.000    0.000    0.000    0.000    0.000    0.000 
#
# Total GULP energy -267924.620166 kJ/mol
# GULP energy per Si atom -5581.762920 kJ/mol
# Density = 1.752412 g / cm^3
# Si number density = 17.564101 Si / 1000 Ang^3
#
#
#
# Elastic Constant Matrix: (Units=GPa)
#
#
# Indices 1 2 3 4 5 6 
#
# 1 159.3691 29.5408 61.8031 0.0000 0.0000 0.0000
# 2 29.5408 31.1888 33.4922 0.0000 0.0000 0.0000
# 3 61.8031 33.4922 118.8967 0.0000 0.0000 0.0000
# 4 0.0000 0.0000 0.0000 10.7107 0.0000 0.0000
# 5 0.0000 0.0000 0.0000 0.0000 23.5962 0.0000
# 6 0.0000 0.0000 0.0000 0.0000 0.0000 -17.2756
#
#
#
# Elastic Compliance Matrix: (Units=1/GPa)
#
#
# Indices 1 2 3 4 5 6 
#
# 1 0.008300 -0.004629 -0.003011 0.000000 0.000000 0.000000
# 2 -0.004629 0.048549 -0.011270 0.000000 0.000000 0.000000
# 3 -0.003011 -0.011270 0.013150 0.000000 0.000000 0.000000
# 4 0.000000 0.000000 0.000000 0.093365 0.000000 0.000000
# 5 0.000000 0.000000 0.000000 0.000000 0.042380 0.000000
# 6 0.000000 0.000000 0.000000 0.000000 0.000000 -0.057885
#
#
# Mechanical properties :
#
#
# Convention : Reuss Voigt Hill
#
# Bulk Modulus (GPa) = 31.07410 62.12520 46.59965
# Shear Modulus (GPa) = 25.45772 15.71416 20.58594
#
# Velocity S-wave (km/s) = 3.81125 2.99436 3.42723
# Velocity P-wave (km/s) = 6.09079 6.88493 6.50000
#
# Compressibility (1/GPa) = 0.03218114
#
# Stress axis : x y z
#
# Youngs Moduli (GPa) = 120.47842 20.59777 76.04435
#
# Poissons Ratio (x) = 0.09534 0.22894
# Poissons Ratio (y) = 0.55766 0.85701
# Poissons Ratio (z) = 0.36272 0.23213
#
# Static dielectric constant tensor:
#      x y z
#    x 1.606530 0.000000 0.000000 
#    y 0.000000 1.605190 0.000000 
#    z 0.000000 0.000000 1.546160 
# 
# From -- ./inp_files/20635.got.cif
#   From: 2010.05.17/outbox.cif.g08.bks.cpg/sg59_11_cif.got.tgz:20635.got - 2010.06.03 14:40:33.
