data_PCOD9447576
_publ_section_title
;
Structure prediction by ZEFSAII (Michael W. Deem and Ramdas Pophale) SiO2 
 PCOD9447576
Probable space group: P M M N
;
_chemical_formula_sum "Si O2"
_cell_formula_units_Z 48
_cell_length_a 21.550586
_cell_length_b 7.657865
_cell_length_c 15.552289
_cell_angle_alpha 90.000000
_cell_angle_beta 90.000000
_cell_angle_gamma 90.000000
_cell_volume 2566.617244
_symmetry_space_group_name_H-M "P M M N"
_symmetry_group_IT_number 59
_space_group.IT_coordinate_system_code '2'
_symmetry_cell_setting 'orthorhombic'
loop_
_space_group_symop_operation_xyz
x,y,z
1/2-x,1/2-y,z
1/2+x,-y,-z
-x,1/2+y,-z
-x,-y,-z
1/2+x,1/2+y,-z
1/2-x,y,z
x,1/2-y,z
loop_
_atom_site_type_symbol
_atom_site_label
_atom_site_fract_x
_atom_site_fract_y
_atom_site_fract_z
Si Si1 0.021573 0.455366 0.771981
Si Si2 0.317355 0.964276 0.991142
Si Si3 0.446053 0.959542 0.069187
Si Si4 0.840460 0.049893 0.198513
Si Si5 0.817548 0.463915 0.389715
Si Si6 0.956015 0.042371 0.420369
O O1 0.030661 0.250000 0.788422
O O2 0.085175 0.547409 0.798750
O O3 0.015244 0.478054 0.669878
O O4 0.968081 0.518429 0.836290
O O5 0.250000 0.012239 0.027816
O O6 0.319958 0.750000 0.989088
O O7 0.379071 0.026711 0.039127
O O8 0.320401 0.026620 0.892130
O O9 0.440756 0.750000 0.071935
O O10 0.500000 0.000000 0.000000
O O11 0.819113 0.250000 0.198945
O O12 0.819935 0.975236 0.290028
O O13 0.750000 0.516553 0.426184
O O14 0.818353 0.250000 0.390315
O O15 0.884068 0.521087 0.428545
O O16 0.952216 0.250000 0.412669
O O17 0.000000 0.000000 0.500000
#
# Coordination Sequence:
#
# PCOD9447576 Si02
#       6
#     8   8   8   8   8   8
#     4  10  19  30  46  70  99 129 162 202 244 289
#     4   9  16  26  43  67  94 126 168 213 248 281
#     4  10  19  30  47  70  96 129 167 204 241 282
#     4   9  15  25  44  68  94 125 159 194 240 290
#     4   8  14  25  44  71  97 120 151 191 235 286
#     4  10  20  34  54  76  98 126 160 201 249 296
#
# _framework density 18.701657999999998
#
# number of rings (size 3 to 8) (size 9 to 14) (size 15 to 20)
#    0.000    2.667    1.667    2.500    0.000    2.667 
#    0.000    0.000    0.000   19.500    0.000    4.667 
#    0.000    0.000    0.000    0.000    0.000    0.000 
#
# Total GULP energy -267423.525565 kJ/mol
# GULP energy per Si atom -5571.323449 kJ/mol
# Density = 1.865909 g / cm^3
# Si number density = 18.701658 Si / 1000 Ang^3
#
#
#
# Elastic Constant Matrix: (Units=GPa)
#
#
# Indices 1 2 3 4 5 6 
#
# 1 186.8482 4.0264 85.6902 0.0000 0.0000 0.0000
# 2 4.0264 40.0037 0.9361 0.0000 0.0000 0.0000
# 3 85.6902 0.9361 92.2963 0.0000 0.0000 0.0000
# 4 0.0000 0.0000 0.0000 14.1574 0.0000 0.0000
# 5 0.0000 0.0000 0.0000 0.0000 14.6397 0.0000
# 6 0.0000 0.0000 0.0000 0.0000 0.0000 10.4517
#
#
#
# Elastic Compliance Matrix: (Units=1/GPa)
#
#
# Indices 1 2 3 4 5 6 
#
# 1 0.009342 -0.000738 -0.008666 0.000000 0.000000 0.000000
# 2 -0.000738 0.025062 0.000431 0.000000 0.000000 0.000000
# 3 -0.008666 0.000431 0.018876 0.000000 0.000000 0.000000
# 4 0.000000 0.000000 0.000000 0.070635 0.000000 0.000000
# 5 0.000000 0.000000 0.000000 0.000000 0.068308 0.000000
# 6 0.000000 0.000000 0.000000 0.000000 0.000000 0.095678
#
#
# Mechanical properties :
#
#
# Convention : Reuss Voigt Hill
#
# Bulk Modulus (GPa) = 28.30127 55.60596 41.95362
# Shear Modulus (GPa) = 15.74187 23.08278 19.41232
#
# Velocity S-wave (km/s) = 2.90442 3.51702 3.22530
# Velocity P-wave (km/s) = 5.13940 6.80370 6.02925
#
# Compressibility (1/GPa) = 0.03533410
#
# Stress axis : x y z
#
# Youngs Moduli (GPa) = 107.04211 39.90126 52.97733
#
# Poissons Ratio (x) = 0.02943 0.45910
# Poissons Ratio (y) = 0.07895 -0.02281
# Poissons Ratio (z) = 0.92762 -0.01718
#
# Static dielectric constant tensor:
#      x y z
#    x 1.644950 0.000000 0.000000 
#    y 0.000000 1.722090 0.000000 
#    z 0.000000 0.000000 1.684590 
# 
# From -- ./inp_files/20720.got.cif
#   From: 2010.05.17/outbox.cif.g08.bks.cpg/sg59_11_cif.got.tgz:20720.got - 2010.06.03 14:40:33.
