data_PCOD9447988
_publ_section_title
;
Structure prediction by ZEFSAII (Michael W. Deem and Ramdas Pophale) SiO2 
 PCOD9447988
Probable space group: P M M N
;
_chemical_formula_sum "Si O2"
_cell_formula_units_Z 40
_cell_length_a 15.019294
_cell_length_b 16.876365
_cell_length_c 8.560361
_cell_angle_alpha 90.000000
_cell_angle_beta 90.000000
_cell_angle_gamma 90.000000
_cell_volume 2169.804013
_symmetry_space_group_name_H-M "P M M N"
_symmetry_group_IT_number 59
_space_group.IT_coordinate_system_code '2'
_symmetry_cell_setting 'orthorhombic'
loop_
_space_group_symop_operation_xyz
x,y,z
1/2-x,1/2-y,z
1/2+x,-y,-z
-x,1/2+y,-z
-x,-y,-z
1/2+x,1/2+y,-z
1/2-x,y,z
x,1/2-y,z
loop_
_atom_site_type_symbol
_atom_site_label
_atom_site_fract_x
_atom_site_fract_y
_atom_site_fract_z
Si Si1 0.146424 0.053662 0.906980
Si Si2 0.643738 0.339348 0.571576
Si Si3 0.455112 0.956693 0.645101
Si Si4 0.353064 0.888188 0.078533
Si Si5 0.976617 0.659644 0.891373
O O1 0.250000 0.070857 0.874674
O O2 0.095250 0.018804 0.756681
O O3 0.093218 0.126304 0.982147
O O4 0.143366 0.980223 0.029706
O O5 0.750000 0.335672 0.568255
O O6 0.607859 0.250000 0.558013
O O7 0.612317 0.394241 0.431866
O O8 0.620438 0.374225 0.741969
O O9 0.520828 0.903079 0.749709
O O10 0.500000 0.000000 0.500000
O O11 0.250000 0.861525 0.057269
O O12 0.424933 0.845689 0.969008
O O13 0.958088 0.750000 0.846018
#
# Coordination Sequence:
#
# PCOD9447988 Si02
#       5
#     8   8   8   8   8
#     4  10  21  38  58  78 104 145 192 230 267 321
#     4  10  19  31  50  79 113 142 168 208 266 327
#     4  11  21  36  55  80 111 143 178 223 279 338
#     4   9  18  34  57  83 111 144 181 221 271 332
#     4  11  22  36  56  81 108 141 184 233 279 323
#
# _framework density 18.434843999999998
#
# number of rings (size 3 to 8) (size 9 to 14) (size 15 to 20)
#    0.000    1.800    0.000    6.600    0.000    2.400 
#    0.000    2.000    0.000    0.000    0.000    0.000 
#    0.000    0.000    0.000    0.000    0.000    0.000 
#
# Total GULP energy -223286.448501 kJ/mol
# GULP energy per Si atom -5582.161213 kJ/mol
# Density = 1.839289 g / cm^3
# Si number density = 18.434844 Si / 1000 Ang^3
#
#
#
# Elastic Constant Matrix: (Units=GPa)
#
#
# Indices 1 2 3 4 5 6 
#
# 1 72.5965 52.7894 38.6872 0.0000 0.0000 0.0000
# 2 52.7894 73.0117 46.8375 0.0000 0.0000 0.0000
# 3 38.6872 46.8375 106.6384 0.0000 0.0000 0.0000
# 4 0.0000 0.0000 0.0000 10.3967 0.0000 0.0000
# 5 0.0000 0.0000 0.0000 0.0000 31.1585 0.0000
# 6 0.0000 0.0000 0.0000 0.0000 0.0000 22.5524
#
#
#
# Elastic Compliance Matrix: (Units=1/GPa)
#
#
# Indices 1 2 3 4 5 6 
#
# 1 0.029304 -0.020004 -0.001845 0.000000 0.000000 0.000000
# 2 -0.020004 0.032725 -0.007116 0.000000 0.000000 0.000000
# 3 -0.001845 -0.007116 0.013172 0.000000 0.000000 0.000000
# 4 0.000000 0.000000 0.000000 0.096184 0.000000 0.000000
# 5 0.000000 0.000000 0.000000 0.000000 0.032094 0.000000
# 6 0.000000 0.000000 0.000000 0.000000 0.000000 0.044341
#
#
# Mechanical properties :
#
#
# Convention : Reuss Voigt Hill
#
# Bulk Modulus (GPa) = 57.90063 58.76386 58.33225
# Shear Modulus (GPa) = 16.05092 20.41701 18.23397
#
# Velocity S-wave (km/s) = 2.95394 3.33156 3.14841
# Velocity P-wave (km/s) = 6.56588 6.83701 6.70282
#
# Compressibility (1/GPa) = 0.01727097
#
# Stress axis : x y z
#
# Youngs Moduli (GPa) = 34.12480 30.55769 75.91623
#
# Poissons Ratio (x) = 0.61128 0.14007
# Poissons Ratio (y) = 0.68264 0.54023
# Poissons Ratio (z) = 0.06296 0.21745
#
# Static dielectric constant tensor:
#      x y z
#    x 1.642150 0.000000 0.000000 
#    y 0.000000 1.643980 0.000000 
#    z 0.000000 0.000000 1.634170 
# 
# From -- ./inp_files/8587.got.cif
#   From: 2010.05.17/outbox.cif.g08.bks.cpg/sg59_5_cif.got.tgz:8587.got - 2010.06.03 14:40:33.
