data_PCOD9447495
_publ_section_title
;
Structure prediction by ZEFSAII (Michael W. Deem and Ramdas Pophale) SiO2 
 PCOD9447495
Probable space group: P M M N
;
_chemical_formula_sum "Si O2"
_cell_formula_units_Z 64
_cell_length_a 13.626616
_cell_length_b 19.150279
_cell_length_c 16.547421
_cell_angle_alpha 90.000000
_cell_angle_beta 90.000000
_cell_angle_gamma 90.000000
_cell_volume 4318.107397
_symmetry_space_group_name_H-M "P M M N"
_symmetry_group_IT_number 59
_space_group.IT_coordinate_system_code '2'
_symmetry_cell_setting 'orthorhombic'
loop_
_space_group_symop_operation_xyz
x,y,z
1/2-x,1/2-y,z
1/2+x,-y,-z
-x,1/2+y,-z
-x,-y,-z
1/2+x,1/2+y,-z
1/2-x,y,z
x,1/2-y,z
loop_
_atom_site_type_symbol
_atom_site_label
_atom_site_fract_x
_atom_site_fract_y
_atom_site_fract_z
Si Si1 0.135866 0.972231 0.944679
Si Si2 0.994953 0.169160 0.304095
Si Si3 0.365538 0.828423 0.857208
Si Si4 0.865505 0.332663 0.462595
Si Si5 0.867581 0.540724 0.718807
Si Si6 0.131495 0.903244 0.373705
Si Si7 0.867987 0.331006 0.793080
Si Si8 0.554801 0.036071 0.877819
O O1 0.250000 0.987547 0.928743
O O2 0.116324 0.891778 0.918437
O O3 0.111588 0.979944 0.039139
O O4 0.058885 0.019117 0.895149
O O5 0.027615 0.250000 0.308486
O O6 0.929535 0.161942 0.223190
O O7 0.927201 0.154836 0.381923
O O8 0.082103 0.113906 0.299916
O O9 0.250000 0.831011 0.835734
O O10 0.385045 0.750000 0.889637
O O11 0.750000 0.348078 0.448495
O O12 0.871669 0.250000 0.482150
O O13 0.902898 0.376156 0.539679
O O14 0.750000 0.545140 0.720365
O O15 0.896784 0.481112 0.653555
O O16 0.905083 0.511470 0.804870
O O17 0.250000 0.901703 0.377856
O O18 0.105599 0.852475 0.298956
O O19 0.750000 0.342375 0.801901
O O20 0.888236 0.250000 0.808171
O O21 0.922929 0.384792 0.851277
#
# Coordination Sequence:
#
# PCOD9447495 Si02
#       8
#     8   8   8   8   8   8   8   8
#     4  10  19  31  49  70  92 121 154 188 230 277
#     4  10  19  30  44  65  90 121 158 189 222 267
#     4   9  17  30  47  68  94 119 146 188 237 277
#     4   9  16  27  45  68  93 118 144 181 232 284
#     4  10  19  32  47  64  91 123 155 192 228 269
#     4   8  15  27  44  67  93 118 145 183 234 280
#     4   9  16  27  46  71  96 119 148 189 234 278
#     4  10  19  32  48  70  93 120 152 188 230 277
#
# _framework density 14.821308
#
# number of rings (size 3 to 8) (size 9 to 14) (size 15 to 20)
#    0.000    2.625    1.250    2.625    0.000    4.250 
#    0.000    1.250    0.000    0.375    0.000    0.000 
#    0.000    4.000    0.000    0.000    0.000    0.000 
#
# Total GULP energy -356482.637375 kJ/mol
# GULP energy per Si atom -5570.041209 kJ/mol
# Density = 1.478757 g / cm^3
# Si number density = 14.821308 Si / 1000 Ang^3
#
#
#
# Elastic Constant Matrix: (Units=GPa)
#
#
# Indices 1 2 3 4 5 6 
#
# 1 68.6741 54.0972 35.2476 0.0000 0.0000 0.0000
# 2 54.0972 99.4975 45.1660 0.0000 0.0000 0.0000
# 3 35.2476 45.1660 72.4856 0.0000 0.0000 0.0000
# 4 0.0000 0.0000 0.0000 16.5705 0.0000 0.0000
# 5 0.0000 0.0000 0.0000 0.0000 17.1673 0.0000
# 6 0.0000 0.0000 0.0000 0.0000 0.0000 26.0394
#
#
#
# Elastic Compliance Matrix: (Units=1/GPa)
#
#
# Indices 1 2 3 4 5 6 
#
# 1 0.026981 -0.012151 -0.005549 0.000000 0.000000 0.000000
# 2 -0.012151 0.019487 -0.006234 0.000000 0.000000 0.000000
# 3 -0.005549 -0.006234 0.020378 0.000000 0.000000 0.000000
# 4 0.000000 0.000000 0.000000 0.060348 0.000000 0.000000
# 5 0.000000 0.000000 0.000000 0.000000 0.058250 0.000000
# 6 0.000000 0.000000 0.000000 0.000000 0.000000 0.038403
#
#
# Mechanical properties :
#
#
# Convention : Reuss Voigt Hill
#
# Bulk Modulus (GPa) = 52.68869 56.63097 54.65983
# Shear Modulus (GPa) = 17.98292 19.03187 18.50740
#
# Velocity S-wave (km/s) = 3.48705 3.58731 3.53753
# Velocity P-wave (km/s) = 7.19994 7.44651 7.32426
#
# Compressibility (1/GPa) = 0.01897941
#
# Stress axis : x y z
#
# Youngs Moduli (GPa) = 37.06258 51.31693 49.07195
#
# Poissons Ratio (x) = 0.62355 0.27229
# Poissons Ratio (y) = 0.45035 0.30589
# Poissons Ratio (z) = 0.20566 0.31989
#
# Static dielectric constant tensor:
#      x y z
#    x 1.468520 0.000000 0.000000 
#    y 0.000000 1.493850 0.000000 
#    z 0.000000 0.000000 1.487830 
# 
# From -- ./inp_files/23458.got.cif
#   From: 2010.05.17/outbox.cif.g08.bks.cpg/sg59_12_cif.got.tgz:23458.got - 2010.06.03 14:40:33.
