data_PCOD9447294
_publ_section_title
;
Structure prediction by ZEFSAII (Michael W. Deem and Ramdas Pophale) SiO2 
 PCOD9447294
Probable space group: P M M N
;
_chemical_formula_sum "Si O2"
_cell_formula_units_Z 56
_cell_length_a 18.822204
_cell_length_b 16.806888
_cell_length_c 10.327839
_cell_angle_alpha 90.000000
_cell_angle_beta 90.000000
_cell_angle_gamma 90.000000
_cell_volume 3267.136211
_symmetry_space_group_name_H-M "P M M N"
_symmetry_group_IT_number 59
_space_group.IT_coordinate_system_code '2'
_symmetry_cell_setting 'orthorhombic'
loop_
_space_group_symop_operation_xyz
x,y,z
1/2-x,1/2-y,z
1/2+x,-y,-z
-x,1/2+y,-z
-x,-y,-z
1/2+x,1/2+y,-z
1/2-x,y,z
x,1/2-y,z
loop_
_atom_site_type_symbol
_atom_site_label
_atom_site_fract_x
_atom_site_fract_y
_atom_site_fract_z
Si Si1 0.831765 0.250000 0.607620
Si Si2 0.834478 0.572404 0.215312
Si Si3 0.421569 0.077762 0.288053
Si Si4 0.580655 0.094357 0.600360
Si Si5 0.578651 0.844690 0.435607
Si Si6 0.589782 0.087143 0.291850
Si Si7 0.167892 0.750000 0.707065
Si Si8 0.165184 0.343566 0.057526
O O1 0.750000 0.250000 0.650559
O O2 0.873322 0.330139 0.645407
O O3 0.832210 0.250000 0.450279
O O4 0.750000 0.562230 0.226060
O O5 0.863981 0.624835 0.333547
O O6 0.872676 0.487308 0.225158
O O7 0.850594 0.616661 0.080910
O O8 0.404528 0.125228 0.420160
O O9 0.505902 0.088216 0.264596
O O10 0.376960 0.112014 0.170193
O O11 0.407331 0.985118 0.318235
O O12 0.497555 0.117452 0.602189
O O13 0.597589 0.077729 0.448427
O O14 0.572056 0.750000 0.434598
O O15 0.626700 0.170083 0.253947
O O16 0.250000 0.750000 0.749398
O O17 0.250000 0.350173 0.079206
O O18 0.147014 0.250000 0.055484
#
# Coordination Sequence:
#
# PCOD9447294 Si02
#       8
#     4   8   8   8   8   8   4   8
#     4   9  18  30  52  81 116 157 184 214 279 355
#     4  11  22  39  60  82 113 152 192 240 287 339
#     4  11  21  36  61  86 115 149 190 237 285 340
#     4  10  18  35  54  86 121 146 182 234 286 329
#     4  11  20  35  59  86 116 148 187 237 288 331
#     4  10  19  34  57  87 117 148 190 231 284 339
#     4   9  18  30  50  83 120 151 180 228 281 337
#     4  10  24  43  58  79 114 154 192 235 291 346
#
# _framework density 17.140393
#
# number of rings (size 3 to 8) (size 9 to 14) (size 15 to 20)
#    0.000    1.714    3.571    2.143    4.000    3.143 
#    0.000    0.000    0.000    0.857    0.000    2.000 
#    0.000    0.000    0.000    0.000    0.000    0.000 
#
# Total GULP energy -312678.814107 kJ/mol
# GULP energy per Si atom -5583.550252 kJ/mol
# Density = 1.710138 g / cm^3
# Si number density = 17.140393 Si / 1000 Ang^3
#
#
#
# Elastic Constant Matrix: (Units=GPa)
#
#
# Indices 1 2 3 4 5 6 
#
# 1 78.0125 61.1389 68.5583 0.0000 0.0000 0.0000
# 2 61.1389 170.1121 70.8191 0.0000 0.0000 0.0000
# 3 68.5583 70.8191 98.1943 0.0000 0.0000 0.0000
# 4 0.0000 0.0000 0.0000 13.8497 0.0000 0.0000
# 5 0.0000 0.0000 0.0000 0.0000 22.9337 0.0000
# 6 0.0000 0.0000 0.0000 0.0000 0.0000 28.4655
#
#
#
# Elastic Compliance Matrix: (Units=1/GPa)
#
#
# Indices 1 2 3 4 5 6 
#
# 1 0.034486 -0.003388 -0.021635 0.000000 0.000000 0.000000
# 2 -0.003388 0.008734 -0.003933 0.000000 0.000000 0.000000
# 3 -0.021635 -0.003933 0.028126 0.000000 0.000000 0.000000
# 4 0.000000 0.000000 0.000000 0.072204 0.000000 0.000000
# 5 0.000000 0.000000 0.000000 0.000000 0.043604 0.000000
# 6 0.000000 0.000000 0.000000 0.000000 0.000000 0.035130
#
#
# Mechanical properties :
#
#
# Convention : Reuss Voigt Hill
#
# Bulk Modulus (GPa) = 74.43853 83.03906 78.73879
# Shear Modulus (GPa) = 17.56400 22.76997 20.16699
#
# Velocity S-wave (km/s) = 3.20459 3.64873 3.43385
# Velocity P-wave (km/s) = 7.56409 8.14264 7.85869
#
# Compressibility (1/GPa) = 0.01343390
#
# Stress axis : x y z
#
# Youngs Moduli (GPa) = 28.99706 114.50029 35.55450
#
# Poissons Ratio (x) = 0.38791 0.76921
# Poissons Ratio (y) = 0.09824 0.13985
# Poissons Ratio (z) = 0.62734 0.45038
#
# Static dielectric constant tensor:
#      x y z
#    x 1.568100 0.000000 0.000000 
#    y 0.000000 1.576230 0.000000 
#    z 0.000000 0.000000 1.549040 
# 
# From -- ./inp_files/11475.got.cif
#   From: 2010.05.17/outbox.cif.g08.bks.cpg/sg59_6_cif.got.tgz:11475.got - 2010.06.03 14:40:33.
