data_PCOD9447439
_publ_section_title
;
Structure prediction by ZEFSAII (Michael W. Deem and Ramdas Pophale) SiO2 
 PCOD9447439
Probable space group: P M M N
;
_chemical_formula_sum "Si O2"
_cell_formula_units_Z 48
_cell_length_a 18.989428
_cell_length_b 8.537288
_cell_length_c 16.916599
_cell_angle_alpha 90.000000
_cell_angle_beta 90.000000
_cell_angle_gamma 90.000000
_cell_volume 2742.488847
_symmetry_space_group_name_H-M "P M M N"
_symmetry_group_IT_number 59
_space_group.IT_coordinate_system_code '2'
_symmetry_cell_setting 'orthorhombic'
loop_
_space_group_symop_operation_xyz
x,y,z
1/2-x,1/2-y,z
1/2+x,-y,-z
-x,1/2+y,-z
-x,-y,-z
1/2+x,1/2+y,-z
1/2-x,y,z
x,1/2-y,z
loop_
_atom_site_type_symbol
_atom_site_label
_atom_site_fract_x
_atom_site_fract_y
_atom_site_fract_z
Si Si1 0.894194 0.064201 0.315724
Si Si2 0.334270 0.064641 0.524691
Si Si3 0.170616 0.062955 0.841986
Si Si4 0.169466 0.058392 0.346723
Si Si5 0.041626 0.440144 0.242897
Si Si6 0.029184 0.937737 0.917621
O O1 0.887940 0.250000 0.303014
O O2 0.974832 0.018718 0.297516
O O3 0.871634 0.021450 0.403648
O O4 0.846923 0.981897 0.248773
O O5 0.250000 0.045346 0.532450
O O6 0.349432 0.250000 0.530837
O O7 0.352626 0.011851 0.435726
O O8 0.250000 0.009309 0.861658
O O9 0.168212 0.250000 0.849666
O O10 0.108059 0.992108 0.895038
O O11 0.250000 0.008577 0.332635
O O12 0.169894 0.250000 0.346942
O O13 0.113827 0.003624 0.281748
O O14 0.045328 0.250000 0.240785
O O15 0.020948 0.492315 0.154895
O O16 0.028708 0.750000 0.918509
O O17 0.000000 0.000000 0.000000
#
# Coordination Sequence:
#
# PCOD9447439 Si02
#       6
#     8   8   8   8   8   8
#     4  10  19  29  44  68  99 132 161 195 243 295
#     4   9  17  28  43  65  92 123 161 202 239 278
#     4  10  20  34  53  76 101 129 165 208 249 293
#     4   8  14  27  47  67  89 121 160 201 242 280
#     4   8  16  30  46  67  93 121 158 201 241 285
#     4  10  20  35  55  77 104 134 162 198 247 303
#
# _framework density 17.502351000000001
#
# number of rings (size 3 to 8) (size 9 to 14) (size 15 to 20)
#    0.000    2.833    0.000    4.000    0.000    4.333 
#    0.000    0.833    0.000    8.000    0.000    0.000 
#    0.000    0.000    0.000    0.000    0.000    0.000 
#
# Total GULP energy -267545.176441 kJ/mol
# GULP energy per Si atom -5573.857843 kJ/mol
# Density = 1.746251 g / cm^3
# Si number density = 17.502351 Si / 1000 Ang^3
#
#
#
# Elastic Constant Matrix: (Units=GPa)
#
#
# Indices 1 2 3 4 5 6 
#
# 1 106.9943 26.3444 90.7763 0.0000 0.0000 0.0000
# 2 26.3444 24.5767 26.7431 0.0000 0.0000 0.0000
# 3 90.7763 26.7431 132.8379 0.0000 0.0000 0.0000
# 4 0.0000 0.0000 0.0000 20.2944 0.0000 0.0000
# 5 0.0000 0.0000 0.0000 0.0000 21.4740 0.0000
# 6 0.0000 0.0000 0.0000 0.0000 0.0000 19.6531
#
#
#
# Elastic Compliance Matrix: (Units=1/GPa)
#
#
# Indices 1 2 3 4 5 6 
#
# 1 0.024057 -0.010114 -0.014403 0.000000 0.000000 0.000000
# 2 -0.010114 0.056355 -0.004434 0.000000 0.000000 0.000000
# 3 -0.014403 -0.004434 0.018263 0.000000 0.000000 0.000000
# 4 0.000000 0.000000 0.000000 0.049275 0.000000 0.000000
# 5 0.000000 0.000000 0.000000 0.000000 0.046568 0.000000
# 6 0.000000 0.000000 0.000000 0.000000 0.000000 0.050882
#
#
# Mechanical properties :
#
#
# Convention : Reuss Voigt Hill
#
# Bulk Modulus (GPa) = 24.52624 61.34852 42.93738
# Shear Modulus (GPa) = 15.77819 20.32065 18.04942
#
# Velocity S-wave (km/s) = 3.00574 3.41108 3.21480
# Velocity P-wave (km/s) = 5.10779 7.11629 6.19399
#
# Compressibility (1/GPa) = 0.04077265
#
# Stress axis : x y z
#
# Youngs Moduli (GPa) = 41.56876 17.74456 54.75501
#
# Poissons Ratio (x) = 0.17947 0.78864
# Poissons Ratio (y) = 0.42043 0.24278
# Poissons Ratio (z) = 0.59872 0.07868
#
# Static dielectric constant tensor:
#      x y z
#    x 1.596440 0.000000 0.000000 
#    y 0.000000 1.601820 0.000000 
#    z 0.000000 0.000000 1.578860 
# 
# From -- ./inp_files/25762.got.cif
#   From: 2010.05.17/outbox.cif.g08.bks.cpg/sg59_13_cif.got.tgz:25762.got - 2010.06.03 14:40:33.
