data_PCOD9447275
_publ_section_title
;
Structure prediction by ZEFSAII (Michael W. Deem and Ramdas Pophale) SiO2 
 PCOD9447275
Probable space group: P M M N
;
_chemical_formula_sum "Si O2"
_cell_formula_units_Z 64
_cell_length_a 24.466411
_cell_length_b 8.338532
_cell_length_c 15.919447
_cell_angle_alpha 90.000000
_cell_angle_beta 90.000000
_cell_angle_gamma 90.000000
_cell_volume 3247.789281
_symmetry_space_group_name_H-M "P M M N"
_symmetry_group_IT_number 59
_space_group.IT_coordinate_system_code '2'
_symmetry_cell_setting 'orthorhombic'
loop_
_space_group_symop_operation_xyz
x,y,z
1/2-x,1/2-y,z
1/2+x,-y,-z
-x,1/2+y,-z
-x,-y,-z
1/2+x,1/2+y,-z
1/2-x,y,z
x,1/2-y,z
loop_
_atom_site_type_symbol
_atom_site_label
_atom_site_fract_x
_atom_site_fract_y
_atom_site_fract_z
Si Si1 0.384502 0.558538 0.909929
Si Si2 0.384925 0.943042 0.407389
Si Si3 0.379216 0.058654 0.090823
Si Si4 0.187467 0.556364 0.250847
Si Si5 0.997668 0.945345 0.850438
Si Si6 0.500479 0.056541 0.345329
Si Si7 0.879341 0.055682 0.405667
Si Si8 0.687260 0.941756 0.245969
O O1 0.386226 0.750000 0.915705
O O2 0.446635 0.498438 0.894122
O O3 0.348294 0.511714 0.830125
O O4 0.362572 0.490916 0.997429
O O5 0.381784 0.750000 0.407073
O O6 0.348459 0.003384 0.329743
O O7 0.366126 0.997325 0.499613
O O8 0.447710 0.989922 0.392244
O O9 0.379503 0.250000 0.097172
O O10 0.441380 0.999352 0.107622
O O11 0.340864 0.992853 0.164118
O O12 0.250000 0.500028 0.255397
O O13 0.187907 0.750000 0.254607
O O14 0.998220 0.750000 0.852533
O O15 0.998200 0.992622 0.752519
O O16 0.498118 0.250000 0.348071
O O17 0.558397 0.006474 0.383992
O O18 0.877568 0.250000 0.402341
O O19 0.839752 0.991069 0.334019
O O20 0.750000 0.997413 0.241354
O O21 0.686409 0.750000 0.239072
#
# Coordination Sequence:
#
# PCOD9447275 Si02
#       8
#     8   8   8   8   8   8   8   8
#     4  11  22  40  64  89 118 152 190 234 287 350
#     4  10  21  36  58  90 119 151 196 243 290 343
#     4  11  22  38  60  88 119 151 189 236 289 345
#     4  10  22  40  58  79 112 153 198 245 288 335
#     4   9  18  34  58  87 119 152 187 231 284 342
#     4  10  18  34  58  86 121 156 189 233 288 350
#     4  10  21  38  61  88 120 156 195 237 289 349
#     4  11  25  43  61  85 117 152 196 247 292 340
#
# _framework density 19.705711999999998
#
# number of rings (size 3 to 8) (size 9 to 14) (size 15 to 20)
#    0.000    1.750    2.500    1.875    0.000    3.250 
#    0.000    3.125    0.000    0.000    0.000    0.000 
#    0.000    0.000    0.000    0.000    0.000    0.000 
#
# Total GULP energy -357611.450794 kJ/mol
# GULP energy per Si atom -5587.678919 kJ/mol
# Density = 1.966086 g / cm^3
# Si number density = 19.705712 Si / 1000 Ang^3
#
#
#
# Elastic Constant Matrix: (Units=GPa)
#
#
# Indices 1 2 3 4 5 6 
#
# 1 94.5944 7.9058 12.2143 0.0000 0.0000 0.0000
# 2 7.9058 10.5974 2.8078 0.0000 0.0000 0.0000
# 3 12.2143 2.8078 99.4361 0.0000 0.0000 0.0000
# 4 0.0000 0.0000 0.0000 20.5022 0.0000 0.0000
# 5 0.0000 0.0000 0.0000 0.0000 -0.3721 0.0000
# 6 0.0000 0.0000 0.0000 0.0000 0.0000 4.8076
#
#
#
# Elastic Compliance Matrix: (Units=1/GPa)
#
#
# Indices 1 2 3 4 5 6 
#
# 1 0.011408 -0.008200 -0.001170 0.000000 0.000000 0.000000
# 2 -0.008200 0.100969 -0.001844 0.000000 0.000000 0.000000
# 3 -0.001170 -0.001844 0.010252 0.000000 0.000000 0.000000
# 4 0.000000 0.000000 0.000000 0.048775 0.000000 0.000000
# 5 0.000000 0.000000 0.000000 0.000000 -2.687451 0.000000
# 6 0.000000 0.000000 0.000000 0.000000 0.000000 0.208002
#
#
# Mechanical properties :
#
#
# Convention : Reuss Voigt Hill
#
# Bulk Modulus (GPa) = 9.97992 27.83150 18.90571
# Shear Modulus (GPa) = -2.22004 17.10088 7.44042
#
# Velocity S-wave (km/s) = -1.06256 2.94906 1.94524
# Velocity P-wave (km/s) = 1.88947 5.07447 3.82886
#
# Compressibility (1/GPa) = 0.10020120
#
# Stress axis : x y z
#
# Youngs Moduli (GPa) = 87.65890 9.90405 97.53759
#
# Poissons Ratio (x) = 0.08122 0.11409
# Poissons Ratio (y) = 0.71885 0.17983
# Poissons Ratio (z) = 0.10254 0.01826
#
# Static dielectric constant tensor:
#      x y z
#    x 1.677020 0.000000 0.000000 
#    y 0.000000 1.677090 0.000000 
#    z 0.000000 0.000000 1.676440 
# 
# From -- ./inp_files/24756.got.cif
#   From: 2010.05.17/outbox.cif.g08.bks.cpg/sg59_13_cif.got.tgz:24756.got - 2010.06.03 14:40:33.
