data_PCOD9447541
_publ_section_title
;
Structure prediction by ZEFSAII (Michael W. Deem and Ramdas Pophale) SiO2 
 PCOD9447541
Probable space group: P M M N
;
_chemical_formula_sum "Si O2"
_cell_formula_units_Z 48
_cell_length_a 24.540354
_cell_length_b 7.992944
_cell_length_c 14.315998
_cell_angle_alpha 90.000000
_cell_angle_beta 90.000000
_cell_angle_gamma 90.000000
_cell_volume 2808.078359
_symmetry_space_group_name_H-M "P M M N"
_symmetry_group_IT_number 59
_space_group.IT_coordinate_system_code '2'
_symmetry_cell_setting 'orthorhombic'
loop_
_space_group_symop_operation_xyz
x,y,z
1/2-x,1/2-y,z
1/2+x,-y,-z
-x,1/2+y,-z
-x,-y,-z
1/2+x,1/2+y,-z
1/2-x,y,z
x,1/2-y,z
loop_
_atom_site_type_symbol
_atom_site_label
_atom_site_fract_x
_atom_site_fract_y
_atom_site_fract_z
Si Si1 0.920077 0.448990 0.959536
Si Si2 0.475251 0.952423 0.644364
Si Si3 0.811330 0.451993 0.648514
Si Si4 0.025243 0.948666 0.852806
Si Si5 0.811549 0.950087 0.862221
Si Si6 0.584373 0.452027 0.538787
O O1 0.928699 0.250000 0.958709
O O2 0.858739 0.485570 0.929558
O O3 0.963098 0.523648 0.885795
O O4 0.937508 0.514425 0.062107
O O5 0.472798 0.750000 0.646405
O O6 0.465595 0.017247 0.748980
O O7 0.433314 0.011510 0.564329
O O8 0.535196 0.000262 0.607929
O O9 0.750000 0.512922 0.627714
O O10 0.810606 0.250000 0.643162
O O11 0.824044 0.498338 0.755558
O O12 0.858476 0.514208 0.579730
O O13 0.034962 0.750000 0.847650
O O14 0.750000 0.010926 0.883460
O O15 0.811336 0.750000 0.866680
O O16 0.586749 0.250000 0.535564
#
# Coordination Sequence:
#
# PCOD9447541 Si02
#       6
#     8   8   8   8   8   8
#     4  10  19  30  46  67  90 116 147 183 220 259
#     4   9  17  29  44  62  87 116 143 173 210 254
#     4   9  17  29  45  65  88 113 141 175 215 257
#     4   9  18  31  46  65  90 119 148 179 218 262
#     4  10  20  32  46  65  89 117 147 179 218 263
#     4   9  17  28  43  64  88 113 142 175 211 252
#
# _framework density 17.093540000000001
#
# number of rings (size 3 to 8) (size 9 to 14) (size 15 to 20)
#    0.000    2.667    0.000    2.000    0.000    5.667 
#    0.000    0.000    0.000    1.000    0.000    4.667 
#    0.000    2.667    0.000    0.000    0.000    0.000 
#
# Total GULP energy -267560.825515 kJ/mol
# GULP energy per Si atom -5574.183865 kJ/mol
# Density = 1.705463 g / cm^3
# Si number density = 17.093540 Si / 1000 Ang^3
#
#
#
# Elastic Constant Matrix: (Units=GPa)
#
#
# Indices 1 2 3 4 5 6 
#
# 1 112.9355 -5.1115 76.6952 0.0000 0.0000 0.0000
# 2 -5.1115 7.2736 0.3822 0.0000 0.0000 0.0000
# 3 76.6952 0.3822 134.5746 0.0000 0.0000 0.0000
# 4 0.0000 0.0000 0.0000 11.8903 0.0000 0.0000
# 5 0.0000 0.0000 0.0000 0.0000 23.3379 0.0000
# 6 0.0000 0.0000 0.0000 0.0000 0.0000 20.3870
#
#
#
# Elastic Compliance Matrix: (Units=1/GPa)
#
#
# Indices 1 2 3 4 5 6 
#
# 1 0.015309 0.011219 -0.008757 0.000000 0.000000 0.000000
# 2 0.011219 0.145725 -0.006807 0.000000 0.000000 0.000000
# 3 -0.008757 -0.006807 0.012441 0.000000 0.000000 0.000000
# 4 0.000000 0.000000 0.000000 0.084102 0.000000 0.000000
# 5 0.000000 0.000000 0.000000 0.000000 0.042849 0.000000
# 6 0.000000 0.000000 0.000000 0.000000 0.000000 0.049051
#
#
# Mechanical properties :
#
#
# Convention : Reuss Voigt Hill
#
# Bulk Modulus (GPa) = 6.06855 44.30172 25.18513
# Shear Modulus (GPa) = 12.10372 23.31089 17.70731
#
# Velocity S-wave (km/s) = 2.66388 3.69687 3.22204
# Velocity P-wave (km/s) = 3.60826 6.64800 5.34862
#
# Compressibility (1/GPa) = 0.16478404
#
# Stress axis : x y z
#
# Youngs Moduli (GPa) = 65.32090 6.86223 80.38183
#
# Poissons Ratio (x) = -0.07698 0.70387
# Poissons Ratio (y) = -0.73281 0.54719
# Poissons Ratio (z) = 0.57199 0.04671
#
# Static dielectric constant tensor:
#      x y z
#    x 1.577080 0.000000 0.000000 
#    y 0.000000 1.610750 0.000000 
#    z 0.000000 0.000000 1.590920 
# 
# From -- ./inp_files/21259.got.cif
#   From: 2010.05.17/outbox.cif.g08.bks.cpg/sg59_11_cif.got.tgz:21259.got - 2010.06.03 14:40:33.
