data_PCOD9447629
_publ_section_title
;
Structure prediction by ZEFSAII (Michael W. Deem and Ramdas Pophale) SiO2 
 PCOD9447629
Probable space group: P M M N
;
_chemical_formula_sum "Si O2"
_cell_formula_units_Z 52
_cell_length_a 13.446286
_cell_length_b 18.464090
_cell_length_c 12.551620
_cell_angle_alpha 90.000000
_cell_angle_beta 90.000000
_cell_angle_gamma 90.000000
_cell_volume 3116.233811
_symmetry_space_group_name_H-M "P M M N"
_symmetry_group_IT_number 59
_space_group.IT_coordinate_system_code '2'
_symmetry_cell_setting 'orthorhombic'
loop_
_space_group_symop_operation_xyz
x,y,z
1/2-x,1/2-y,z
1/2+x,-y,-z
-x,1/2+y,-z
-x,-y,-z
1/2+x,1/2+y,-z
1/2-x,y,z
x,1/2-y,z
loop_
_atom_site_type_symbol
_atom_site_label
_atom_site_fract_x
_atom_site_fract_y
_atom_site_fract_z
Si Si1 0.367927 0.027425 0.794956
Si Si2 0.051832 0.400202 0.598277
Si Si3 0.630085 0.592004 0.979280
Si Si4 0.862675 0.750000 0.970530
Si Si5 0.476012 0.087662 0.243660
Si Si6 0.366003 0.995631 0.424212
Si Si7 0.572840 0.750000 0.731020
Si Si8 0.365843 0.250000 0.510191
O O1 0.250000 0.028182 0.779904
O O2 0.417906 0.088744 0.720906
O O3 0.388901 0.042231 0.919275
O O4 0.419273 0.953004 0.759500
O O5 0.115264 0.460451 0.533199
O O6 0.080422 0.321923 0.553990
O O7 0.938058 0.425720 0.579906
O O8 0.750000 0.594763 0.962256
O O9 0.593222 0.673726 0.005393
O O10 0.577938 0.572757 0.868941
O O11 0.750000 0.750000 0.010145
O O12 0.864078 0.750000 0.840899
O O13 0.484224 0.173430 0.263359
O O14 0.408389 0.050159 0.333958
O O15 0.250000 0.980341 0.409449
O O16 0.629321 0.750000 0.618653
O O17 0.250000 0.250000 0.542652
#
# Coordination Sequence:
#
# PCOD9447629 Si02
#       8
#     8   8   8   4   8   8   4   4
#     4  10  20  34  49  69 101 139 169 204 251 307
#     4  10  22  34  50  77 103 131 171 204 249 308
#     4   9  17  29  48  74 101 129 163 201 252 306
#     4   8  15  27  44  70  99 125 152 195 254 303
#     4  10  19  32  52  75 100 127 171 216 255 302
#     4  10  19  35  55  73 100 135 167 207 251 297
#     4  10  19  30  47  74 101 125 160 215 262 301
#     4  12  21  33  53  78 106 132 166 214 258 300
#
# _framework density 16.686807999999999
#
# number of rings (size 3 to 8) (size 9 to 14) (size 15 to 20)
#    0.000    2.154    1.538    2.538    0.000    1.846 
#    0.000    2.308    0.000    0.923    0.000    0.000 
#    0.000    4.923    0.000    0.000    0.000    0.000 
#
# Total GULP energy -289737.112144 kJ/mol
# GULP energy per Si atom -5571.867541 kJ/mol
# Density = 1.664883 g / cm^3
# Si number density = 16.686808 Si / 1000 Ang^3
#
#
#
# Elastic Constant Matrix: (Units=GPa)
#
#
# Indices 1 2 3 4 5 6 
#
# 1 67.5330 45.9248 13.1471 0.0000 0.0000 0.0000
# 2 45.9248 101.2900 18.9724 0.0000 0.0000 0.0000
# 3 13.1471 18.9724 66.0475 0.0000 0.0000 0.0000
# 4 0.0000 0.0000 0.0000 20.8036 0.0000 0.0000
# 5 0.0000 0.0000 0.0000 0.0000 20.5445 0.0000
# 6 0.0000 0.0000 0.0000 0.0000 0.0000 12.4443
#
#
#
# Elastic Compliance Matrix: (Units=1/GPa)
#
#
# Indices 1 2 3 4 5 6 
#
# 1 0.021561 -0.009482 -0.001568 0.000000 0.000000 0.000000
# 2 -0.009482 0.014604 -0.002308 0.000000 0.000000 0.000000
# 3 -0.001568 -0.002308 0.016116 0.000000 0.000000 0.000000
# 4 0.000000 0.000000 0.000000 0.048069 0.000000 0.000000
# 5 0.000000 0.000000 0.000000 0.000000 0.048675 0.000000
# 6 0.000000 0.000000 0.000000 0.000000 0.000000 0.080358
#
#
# Mechanical properties :
#
#
# Convention : Reuss Voigt Hill
#
# Bulk Modulus (GPa) = 39.11569 43.43989 41.27779
# Shear Modulus (GPa) = 18.89507 21.21355 20.05431
#
# Velocity S-wave (km/s) = 3.36867 3.56937 3.47047
# Velocity P-wave (km/s) = 6.21471 6.56324 6.39135
#
# Compressibility (1/GPa) = 0.02556519
#
# Stress axis : x y z
#
# Youngs Moduli (GPa) = 46.38024 68.47436 62.05162
#
# Poissons Ratio (x) = 0.64927 0.09730
# Poissons Ratio (y) = 0.43978 0.14319
# Poissons Ratio (z) = 0.07273 0.15801
#
# Static dielectric constant tensor:
#      x y z
#    x 1.539820 0.000000 0.000000 
#    y 0.000000 1.573110 0.000000 
#    z 0.000000 0.000000 1.579050 
# 
# From -- ./inp_files/17136.got.cif
#   From: 2010.05.17/outbox.cif.g08.bks.cpg/sg59_9_cif.got.tgz:17136.got - 2010.06.03 14:40:33.
