data_PCOD9447047
_publ_section_title
;
Structure prediction by ZEFSAII (Michael W. Deem and Ramdas Pophale) SiO2 
 PCOD9447047
Probable space group: P M M N
;
_chemical_formula_sum "Si O2"
_cell_formula_units_Z 48
_cell_length_a 8.694578
_cell_length_b 10.056917
_cell_length_c 30.410367
_cell_angle_alpha 90.000000
_cell_angle_beta 90.000000
_cell_angle_gamma 90.000000
_cell_volume 2659.102236
_symmetry_space_group_name_H-M "P M M N"
_symmetry_group_IT_number 59
_space_group.IT_coordinate_system_code '2'
_symmetry_cell_setting 'orthorhombic'
loop_
_space_group_symop_operation_xyz
x,y,z
1/2-x,1/2-y,z
1/2+x,-y,-z
-x,1/2+y,-z
-x,-y,-z
1/2+x,1/2+y,-z
1/2-x,y,z
x,1/2-y,z
loop_
_atom_site_type_symbol
_atom_site_label
_atom_site_fract_x
_atom_site_fract_y
_atom_site_fract_z
Si Si1 0.935908 0.250000 0.553081
Si Si2 0.564262 0.750000 0.544909
Si Si3 0.924442 0.089143 0.206722
Si Si4 0.065406 0.407005 0.961019
Si Si5 0.567217 0.905798 0.886308
Si Si6 0.437521 0.492843 0.393787
Si Si7 0.066504 0.090774 0.298411
O O1 0.750000 0.250000 0.550383
O O2 0.985851 0.375548 0.581465
O O3 0.998926 0.250000 0.503904
O O4 0.750000 0.750000 0.541927
O O5 0.515166 0.625262 0.574070
O O6 0.750000 0.043642 0.199289
O O7 0.922715 0.250000 0.209764
O O8 0.027261 0.060432 0.164215
O O9 0.987985 0.042349 0.253634
O O10 0.250000 0.406441 0.963863
O O11 0.015825 0.250000 0.962692
O O12 0.012975 0.486373 0.917449
O O13 0.000000 0.500000 0.000000
O O14 0.750000 0.910166 0.893501
O O15 0.518158 0.750000 0.894390
O O16 0.250000 0.489819 0.391631
O O17 0.489724 0.474828 0.343668
O O18 0.250000 0.070847 0.294223
O O19 0.042363 0.250000 0.302992
#
# Coordination Sequence:
#
# PCOD9447047 Si02
#       7
#     4   4   8   8   8   8   8
#     4  10  20  32  46  68  96 122 154 200 249 296
#     4  10  18  32  50  68  90 124 162 196 241 300
#     4   9  17  29  48  77 109 137 168 215 269 315
#     4  11  24  40  59  85 117 153 192 234 279 326
#     4  10  20  35  57  85 114 146 187 231 274 325
#     4   9  17  30  49  69  92 123 160 201 246 298
#     4   9  15  27  48  70  91 123 168 210 247 298
#
# _framework density 18.051205
#
# number of rings (size 3 to 8) (size 9 to 14) (size 15 to 20)
#    0.000    2.333    0.833    2.500    0.000    6.333 
#    0.000    1.667    1.833    0.000    0.000    0.000 
#    0.000    0.000    0.000    0.000    0.000    0.000 
#
# Total GULP energy -267564.806052 kJ/mol
# GULP energy per Si atom -5574.266793 kJ/mol
# Density = 1.801012 g / cm^3
# Si number density = 18.051205 Si / 1000 Ang^3
#
#
#
# Elastic Constant Matrix: (Units=GPa)
#
#
# Indices 1 2 3 4 5 6 
#
# 1 32.8552 31.1666 29.5947 0.0000 0.0000 0.0000
# 2 31.1666 124.5474 71.3134 0.0000 0.0000 0.0000
# 3 29.5947 71.3134 153.9773 0.0000 0.0000 0.0000
# 4 0.0000 0.0000 0.0000 -6.1088 0.0000 0.0000
# 5 0.0000 0.0000 0.0000 0.0000 35.2327 0.0000
# 6 0.0000 0.0000 0.0000 0.0000 0.0000 -38.6428
#
#
#
# Elastic Compliance Matrix: (Units=1/GPa)
#
#
# Indices 1 2 3 4 5 6 
#
# 1 0.041953 -0.008004 -0.004357 0.000000 0.000000 0.000000
# 2 -0.008004 0.012454 -0.004229 0.000000 0.000000 0.000000
# 3 -0.004357 -0.004229 0.009291 0.000000 0.000000 0.000000
# 4 0.000000 0.000000 0.000000 -0.163698 0.000000 0.000000
# 5 0.000000 0.000000 0.000000 0.000000 0.028383 0.000000
# 6 0.000000 0.000000 0.000000 0.000000 0.000000 -0.025878
#
#
# Mechanical properties :
#
#
# Convention : Reuss Voigt Hill
#
# Bulk Modulus (GPa) = 32.76776 63.94769 48.35773
# Shear Modulus (GPa) = -92.34740 10.04990 -41.14875
#
# Velocity S-wave (km/s) = -7.16028 2.36210 -4.77965
# Velocity P-wave (km/s) = 7.08290 6.55301 1.90072
#
# Compressibility (1/GPa) = 0.03051780
#
# Stress axis : x y z
#
# Youngs Moduli (GPa) = 23.83604 80.29762 107.63519
#
# Poissons Ratio (x) = 0.64269 0.46892
# Poissons Ratio (y) = 0.19078 0.45524
# Poissons Ratio (z) = 0.10384 0.33962
#
# Static dielectric constant tensor:
#      x y z
#    x 1.624930 0.000000 0.000000 
#    y 0.000000 1.593700 0.000000 
#    z 0.000000 0.000000 1.611090 
# 
# From -- ./inp_files/32970.got.cif
#   From: 2010.05.17/outbox.cif.g08.bks.cpg/sg59_17_cif.got.tgz:32970.got - 2010.06.03 14:40:33.
