data_PCOD9447653
_publ_section_title
;
Structure prediction by ZEFSAII (Michael W. Deem and Ramdas Pophale) SiO2 
 PCOD9447653
Probable space group: P M M N
;
_chemical_formula_sum "Si O2"
_cell_formula_units_Z 56
_cell_length_a 7.386793
_cell_length_b 14.604947
_cell_length_c 21.649452
_cell_angle_alpha 90.000000
_cell_angle_beta 90.000000
_cell_angle_gamma 90.000000
_cell_volume 2335.623423
_symmetry_space_group_name_H-M "P M M N"
_symmetry_group_IT_number 59
_space_group.IT_coordinate_system_code '2'
_symmetry_cell_setting 'orthorhombic'
loop_
_space_group_symop_operation_xyz
x,y,z
1/2-x,1/2-y,z
1/2+x,-y,-z
-x,1/2+y,-z
-x,-y,-z
1/2+x,1/2+y,-z
1/2-x,y,z
x,1/2-y,z
loop_
_atom_site_type_symbol
_atom_site_label
_atom_site_fract_x
_atom_site_fract_y
_atom_site_fract_z
Si Si1 0.537308 0.969828 0.161030
Si Si2 0.032373 0.854884 0.039767
Si Si3 0.970490 0.605712 0.551646
Si Si4 0.956399 0.895249 0.420759
Si Si5 0.967941 0.652346 0.687757
Si Si6 0.460284 0.059958 0.710621
Si Si7 0.471175 0.854303 0.901185
O O1 0.750000 0.981085 0.173877
O O2 0.523984 0.915107 0.097371
O O3 0.461483 0.919946 0.221634
O O4 0.462665 0.070944 0.147191
O O5 0.250000 0.855727 0.038545
O O6 0.973302 0.750000 0.048601
O O7 0.972731 0.882828 0.970843
O O8 0.750000 0.601101 0.548696
O O9 0.034125 0.642725 0.485169
O O10 0.014673 0.655747 0.614941
O O11 0.044089 0.503678 0.563363
O O12 0.750000 0.861491 0.416274
O O13 0.040067 0.895516 0.351993
O O14 0.750000 0.649391 0.693247
O O15 0.029622 0.750000 0.716329
O O16 0.032668 0.551693 0.707992
O O17 0.250000 0.087570 0.708643
O O18 0.250000 0.854731 0.900487
O O19 0.528060 0.750000 0.890221
#
# Coordination Sequence:
#
# PCOD9447653 Si02
#       7
#     8   8   8   8   8   8   8
#     4  10  19  30  48  73  98 125 157 193 231 274
#     4   9  18  33  52  71  91 119 156 197 240 282
#     4   8  13  22  38  56  73  99 135 174 214 251
#     4   8  13  23  38  55  77 102 132 173 214 254
#     4   9  17  28  41  59  84 113 148 189 228 267
#     4   9  18  29  41  62  90 119 150 180 217 271
#     4   8  15  29  48  70  96 125 157 192 231 277
#
# _framework density 23.976469000000002
#
# number of rings (size 3 to 8) (size 9 to 14) (size 15 to 20)
#    0.000    3.286    0.000    1.286    0.000    1.714 
#    0.000    1.429    0.000    2.143    0.000    4.000 
#    0.000    0.000    0.000    0.000    0.000    0.000 
#
# Total GULP energy -312076.354960 kJ/mol
# GULP energy per Si atom -5572.792053 kJ/mol
# Density = 2.392190 g / cm^3
# Si number density = 23.976469 Si / 1000 Ang^3
#
#
#
# Elastic Constant Matrix: (Units=GPa)
#
#
# Indices 1 2 3 4 5 6 
#
# 1 85.9846 -5.1281 7.1574 0.0000 0.0000 0.0000
# 2 -5.1281 26.6595 5.4101 0.0000 0.0000 0.0000
# 3 7.1574 5.4101 135.0066 0.0000 0.0000 0.0000
# 4 0.0000 0.0000 0.0000 -2.3356 0.0000 0.0000
# 5 0.0000 0.0000 0.0000 0.0000 4.4103 0.0000
# 6 0.0000 0.0000 0.0000 0.0000 0.0000 1.4091
#
#
#
# Elastic Compliance Matrix: (Units=1/GPa)
#
#
# Indices 1 2 3 4 5 6 
#
# 1 0.011835 0.002424 -0.000725 0.000000 0.000000 0.000000
# 2 0.002424 0.038314 -0.001664 0.000000 0.000000 0.000000
# 3 -0.000725 -0.001664 0.007512 0.000000 0.000000 0.000000
# 4 0.000000 0.000000 0.000000 -0.428163 0.000000 0.000000
# 5 0.000000 0.000000 0.000000 0.000000 0.226744 0.000000
# 6 0.000000 0.000000 0.000000 0.000000 0.000000 0.709669
#
#
# Mechanical properties :
#
#
# Convention : Reuss Voigt Hill
#
# Bulk Modulus (GPa) = 17.32168 29.16995 23.24581
# Shear Modulus (GPa) = 8.54578 16.71085 12.62832
#
# Velocity S-wave (km/s) = 1.88997 2.64288 2.29748
# Velocity P-wave (km/s) = 3.46450 4.63741 4.09319
#
# Compressibility (1/GPa) = 0.05773114
#
# Stress axis : x y z
#
# Youngs Moduli (GPa) = 84.49630 26.10022 133.11803
#
# Poissons Ratio (x) = -0.06325 0.09645
# Poissons Ratio (y) = -0.20478 0.22149
# Poissons Ratio (z) = 0.06122 0.04343
#
# Static dielectric constant tensor:
#      x y z
#    x 1.838130 0.000000 0.000000 
#    y 0.000000 1.913850 0.000000 
#    z 0.000000 0.000000 1.985450 
# 
# From -- ./inp_files/29119.got.cif
#   From: 2010.05.17/outbox.cif.g08.bks.cpg/sg59_15_cif.got.tgz:29119.got - 2010.06.03 14:40:33.
