data_PCOD9447497
_publ_section_title
;
Structure prediction by ZEFSAII (Michael W. Deem and Ramdas Pophale) SiO2 
 PCOD9447497
Probable space group: P M M N
;
_chemical_formula_sum "Si O2"
_cell_formula_units_Z 64
_cell_length_a 8.800906
_cell_length_b 32.356014
_cell_length_c 12.588343
_cell_angle_alpha 90.000000
_cell_angle_beta 90.000000
_cell_angle_gamma 90.000000
_cell_volume 3584.684722
_symmetry_space_group_name_H-M "P M M N"
_symmetry_group_IT_number 59
_space_group.IT_coordinate_system_code '2'
_symmetry_cell_setting 'orthorhombic'
loop_
_space_group_symop_operation_xyz
x,y,z
1/2-x,1/2-y,z
1/2+x,-y,-z
-x,1/2+y,-z
-x,-y,-z
1/2+x,1/2+y,-z
1/2-x,y,z
x,1/2-y,z
loop_
_atom_site_type_symbol
_atom_site_label
_atom_site_fract_x
_atom_site_fract_y
_atom_site_fract_z
Si Si1 0.931025 0.636486 0.870147
Si Si2 0.568004 0.573189 0.689844
Si Si3 0.921730 0.965074 0.066650
Si Si4 0.921629 0.515591 0.313985
Si Si5 0.428118 0.878897 0.090898
Si Si6 0.930809 0.139800 0.471693
Si Si7 0.567887 0.202161 0.291226
Si Si8 0.932152 0.609065 0.318782
O O1 0.750000 0.636105 0.880537
O O2 0.974026 0.594051 0.804871
O O3 0.984462 0.673663 0.794519
O O4 0.003066 0.642485 0.986382
O O5 0.750000 0.575546 0.681164
O O6 0.515295 0.526233 0.669074
O O7 0.491396 0.602801 0.602913
O O8 0.750000 0.954325 0.030215
O O9 0.909984 0.980193 0.187049
O O10 0.031937 0.926288 0.065273
O O11 0.000000 0.000000 0.000000
O O12 0.750000 0.510980 0.358392
O O13 0.983741 0.561322 0.343634
O O14 0.250000 0.871139 0.098649
O O15 0.504271 0.874090 0.206856
O O16 0.750000 0.135781 0.485934
O O17 0.962254 0.181517 0.405776
O O18 0.013606 0.136591 0.583820
O O19 0.750000 0.198981 0.273366
O O20 0.524135 0.250000 0.286225
O O21 0.750000 0.606791 0.310178
#
# Coordination Sequence:
#
# PCOD9447497 Si02
#       8
#     8   8   8   8   8   8   8   8
#     4  10  20  34  53  80 111 140 173 214 262 316
#     4  10  20  32  49  73 102 137 177 223 271 314
#     4  10  19  30  44  65  95 133 178 225 269 311
#     4   9  19  32  45  64  94 134 178 223 268 310
#     4  11  21  33  51  74 102 139 179 217 263 315
#     4  10  20  35  56  79 104 136 174 215 262 318
#     4   9  19  37  61  88 114 137 164 204 257 317
#     4  10  21  37  53  72 103 141 183 228 267 309
#
# _framework density 17.853732000000001
#
# number of rings (size 3 to 8) (size 9 to 14) (size 15 to 20)
#    0.000    2.125    0.000    4.500    0.000    7.750 
#    0.000    0.000    0.000    0.750    0.000    1.750 
#    0.000    0.000    0.000    0.000    0.000    0.000 
#
# Total GULP energy -356869.704652 kJ/mol
# GULP energy per Si atom -5576.089135 kJ/mol
# Density = 1.781310 g / cm^3
# Si number density = 17.853732 Si / 1000 Ang^3
#
#
#
# Elastic Constant Matrix: (Units=GPa)
#
#
# Indices 1 2 3 4 5 6 
#
# 1 68.7084 25.5653 42.2789 0.0000 0.0000 0.0000
# 2 25.5653 48.2059 35.5084 0.0000 0.0000 0.0000
# 3 42.2789 35.5084 108.1548 0.0000 0.0000 0.0000
# 4 0.0000 0.0000 0.0000 11.5552 0.0000 0.0000
# 5 0.0000 0.0000 0.0000 0.0000 31.4685 0.0000
# 6 0.0000 0.0000 0.0000 0.0000 0.0000 18.8610
#
#
#
# Elastic Compliance Matrix: (Units=1/GPa)
#
#
# Indices 1 2 3 4 5 6 
#
# 1 0.020642 -0.006599 -0.005902 0.000000 0.000000 0.000000
# 2 -0.006599 0.029471 -0.007096 0.000000 0.000000 0.000000
# 3 -0.005902 -0.007096 0.013883 0.000000 0.000000 0.000000
# 4 0.000000 0.000000 0.000000 0.086541 0.000000 0.000000
# 5 0.000000 0.000000 0.000000 0.000000 0.031778 0.000000
# 6 0.000000 0.000000 0.000000 0.000000 0.000000 0.053019
#
#
# Mechanical properties :
#
#
# Convention : Reuss Voigt Hill
#
# Bulk Modulus (GPa) = 40.32187 47.97492 44.14840
# Shear Modulus (GPa) = 17.68058 20.49137 19.08597
#
# Velocity S-wave (km/s) = 3.15032 3.39150 3.27313
# Velocity P-wave (km/s) = 5.98885 6.50121 6.25028
#
# Compressibility (1/GPa) = 0.02480044
#
# Stress axis : x y z
#
# Youngs Moduli (GPa) = 48.44546 33.93157 72.03044
#
# Poissons Ratio (x) = 0.22392 0.42516
# Poissons Ratio (y) = 0.31971 0.51112
# Poissons Ratio (z) = 0.28595 0.24078
#
# Static dielectric constant tensor:
#      x y z
#    x 1.631340 0.000000 0.000000 
#    y 0.000000 1.664500 0.000000 
#    z 0.000000 0.000000 1.641430 
# 
# From -- ./inp_files/15077.got.cif
#   From: 2010.05.17/outbox.cif.g08.bks.cpg/sg59_8_cif.got.tgz:15077.got - 2010.06.03 14:40:33.
