data_PCOD9447415
_publ_section_title
;
Structure prediction by ZEFSAII (Michael W. Deem and Ramdas Pophale) SiO2 
 PCOD9447415
Probable space group: P M M N
;
_chemical_formula_sum "Si O2"
_cell_formula_units_Z 64
_cell_length_a 20.468201
_cell_length_b 28.412764
_cell_length_c 6.714938
_cell_angle_alpha 90.000000
_cell_angle_beta 90.000000
_cell_angle_gamma 90.000000
_cell_volume 3905.127018
_symmetry_space_group_name_H-M "P M M N"
_symmetry_group_IT_number 59
_space_group.IT_coordinate_system_code '2'
_symmetry_cell_setting 'orthorhombic'
loop_
_space_group_symop_operation_xyz
x,y,z
1/2-x,1/2-y,z
1/2+x,-y,-z
-x,1/2+y,-z
-x,-y,-z
1/2+x,1/2+y,-z
1/2-x,y,z
x,1/2-y,z
loop_
_atom_site_type_symbol
_atom_site_label
_atom_site_fract_x
_atom_site_fract_y
_atom_site_fract_z
Si Si1 0.412795 0.662730 0.467797
Si Si2 0.677635 0.194274 0.185319
Si Si3 0.886057 0.463033 0.996923
Si Si4 0.015685 0.612465 0.818142
Si Si5 0.319428 0.913736 0.335706
Si Si6 0.674841 0.502442 0.382048
Si Si7 0.555142 0.523638 0.646948
Si Si8 0.450682 0.803990 0.063279
O O1 0.354062 0.683721 0.600158
O O2 0.463018 0.642261 0.626034
O O3 0.381129 0.619266 0.352373
O O4 0.444331 0.694965 0.300806
O O5 0.750000 0.172677 0.159325
O O6 0.684554 0.250000 0.168789
O O7 0.621210 0.182652 0.026110
O O8 0.827007 0.442247 0.867605
O O9 0.931461 0.489000 0.833905
O O10 0.925816 0.421043 0.101801
O O11 0.857150 0.496934 0.165409
O O12 0.964874 0.573586 0.740771
O O13 0.003702 0.653590 0.981849
O O14 0.250000 0.888336 0.341996
O O15 0.322331 0.950331 0.518253
O O16 0.750000 0.519760 0.379193
O O17 0.622210 0.528269 0.522039
O O18 0.500000 0.500000 0.500000
O O19 0.465653 0.750000 0.997233
#
# Coordination Sequence:
#
# PCOD9447415 Si02
#       8
#     8   8   8   8   8   8   8   8
#     4  11  19  32  47  66  93 122 174 219 275 306
#     4   9  19  33  45  61  85 119 169 223 271 316
#     4  11  19  34  51  74 102 137 175 219 264 312
#     4  11  21  34  53  77  99 131 177 224 263 317
#     4  10  19  29  43  68  96 131 176 218 261 313
#     4  10  21  35  50  74 111 143 177 218 265 319
#     4  11  22  34  57  82 109 139 182 223 264 319
#     4  10  22  36  50  66  94 132 174 224 279 320
#
# _framework density 16.388712000000002
#
# number of rings (size 3 to 8) (size 9 to 14) (size 15 to 20)
#    0.000    1.625    3.750    2.250    0.000    2.000 
#    0.000    1.250    0.000    0.000    0.000    0.000 
#    0.000    0.500    0.000    0.500    0.000    0.000 
#
# Total GULP energy -356472.279387 kJ/mol
# GULP energy per Si atom -5569.879365 kJ/mol
# Density = 1.635141 g / cm^3
# Si number density = 16.388712 Si / 1000 Ang^3
#
#
#
# Elastic Constant Matrix: (Units=GPa)
#
#
# Indices 1 2 3 4 5 6 
#
# 1 55.7798 22.4879 25.2297 0.0000 0.0000 0.0000
# 2 22.4879 51.5096 19.6675 0.0000 0.0000 0.0000
# 3 25.2297 19.6675 96.3017 0.0000 0.0000 0.0000
# 4 0.0000 0.0000 0.0000 22.2258 0.0000 0.0000
# 5 0.0000 0.0000 0.0000 0.0000 7.2345 0.0000
# 6 0.0000 0.0000 0.0000 0.0000 0.0000 19.4106
#
#
#
# Elastic Compliance Matrix: (Units=1/GPa)
#
#
# Indices 1 2 3 4 5 6 
#
# 1 0.023341 -0.008520 -0.004375 0.000000 0.000000 0.000000
# 2 -0.008520 0.024165 -0.002703 0.000000 0.000000 0.000000
# 3 -0.004375 -0.002703 0.012082 0.000000 0.000000 0.000000
# 4 0.000000 0.000000 0.000000 0.044993 0.000000 0.000000
# 5 0.000000 0.000000 0.000000 0.000000 0.138226 0.000000
# 6 0.000000 0.000000 0.000000 0.000000 0.000000 0.051518
#
#
# Mechanical properties :
#
#
# Convention : Reuss Voigt Hill
#
# Bulk Modulus (GPa) = 35.21997 37.59569 36.40783
# Shear Modulus (GPa) = 14.92597 18.85458 16.89028
#
# Velocity S-wave (km/s) = 3.02113 3.39553 3.21379
# Velocity P-wave (km/s) = 5.80575 6.19375 6.00289
#
# Compressibility (1/GPa) = 0.02839298
#
# Stress axis : x y z
#
# Youngs Moduli (GPa) = 42.84244 41.38133 82.76548
#
# Poissons Ratio (x) = 0.35256 0.36211
# Poissons Ratio (y) = 0.36501 0.22373
# Poissons Ratio (z) = 0.18744 0.11186
#
# Static dielectric constant tensor:
#      x y z
#    x 1.576720 0.000000 0.000000 
#    y 0.000000 1.583450 0.000000 
#    z 0.000000 0.000000 1.613000 
# 
# From -- ./inp_files/3552.got.cif
#   From: 2010.05.17/outbox.cif.g08.bks.cpg/sg59_2_cif.got.tgz:3552.got - 2010.06.03 14:40:33.
