data_PCOD9447980
_publ_section_title
;
Structure prediction by ZEFSAII (Michael W. Deem and Ramdas Pophale) SiO2 
 PCOD9447980
Probable space group: P M M N
;
_chemical_formula_sum "Si O2"
_cell_formula_units_Z 64
_cell_length_a 9.099626
_cell_length_b 13.994499
_cell_length_c 29.411783
_cell_angle_alpha 90.000000
_cell_angle_beta 90.000000
_cell_angle_gamma 90.000000
_cell_volume 3745.434887
_symmetry_space_group_name_H-M "P M M N"
_symmetry_group_IT_number 59
_space_group.IT_coordinate_system_code '2'
_symmetry_cell_setting 'orthorhombic'
loop_
_space_group_symop_operation_xyz
x,y,z
1/2-x,1/2-y,z
1/2+x,-y,-z
-x,1/2+y,-z
-x,-y,-z
1/2+x,1/2+y,-z
1/2-x,y,z
x,1/2-y,z
loop_
_atom_site_type_symbol
_atom_site_label
_atom_site_fract_x
_atom_site_fract_y
_atom_site_fract_z
Si Si1 0.582215 0.133378 0.015321
Si Si2 0.074424 0.360890 0.476293
Si Si3 0.424349 0.543043 0.162014
Si Si4 0.424926 0.863180 0.344172
Si Si5 0.081366 0.134454 0.923955
Si Si6 0.076055 0.139586 0.108440
Si Si7 0.575653 0.636571 0.248151
Si Si8 0.574977 0.534937 0.428751
O O1 0.750000 0.100896 0.010618
O O2 0.582787 0.250000 0.014499
O O3 0.513552 0.108320 0.063936
O O4 0.485383 0.103029 0.972296
O O5 0.250000 0.371184 0.468897
O O6 0.035077 0.250000 0.471016
O O7 0.044899 0.396377 0.527807
O O8 0.988216 0.432042 0.443205
O O9 0.250000 0.558328 0.166835
O O10 0.484386 0.598963 0.117960
O O11 0.451652 0.432181 0.149689
O O12 0.507009 0.578854 0.206522
O O13 0.250000 0.877871 0.342422
O O14 0.452194 0.750000 0.352277
O O15 0.497581 0.887189 0.295727
O O16 0.496683 0.923080 0.384596
O O17 0.250000 0.102666 0.918808
O O18 0.080798 0.250000 0.923661
O O19 0.250000 0.133993 0.097399
O O20 0.041183 0.250000 0.118609
O O21 0.750000 0.620635 0.251435
O O22 0.552050 0.750000 0.239707
O O23 0.750000 0.531070 0.422182
#
# Coordination Sequence:
#
# PCOD9447980 Si02
#       8
#     8   8   8   8   8   8   8   8
#     4   9  17  30  49  72  96 123 158 199 238 278
#     4   9  18  32  49  72 107 149 188 225 266 312
#     4  11  22  34  52  76  99 126 160 200 245 293
#     4  10  20  34  54  79 106 137 173 213 256 304
#     4  10  20  33  49  70  99 133 162 190 232 289
#     4   9  19  36  54  71  94 125 160 197 239 288
#     4  10  21  37  56  78 105 134 162 198 249 305
#     4  10  19  31  50  77 108 142 182 226 268 312
#
# _framework density 17.087468999999999
#
# number of rings (size 3 to 8) (size 9 to 14) (size 15 to 20)
#    0.000    2.250    0.000    3.000    0.000    8.000 
#    0.000    0.000    0.000    0.750    0.000    1.750 
#    0.000    0.000    0.000    0.000    0.000    0.000 
#
# Total GULP energy -357438.868857 kJ/mol
# GULP energy per Si atom -5584.982326 kJ/mol
# Density = 1.704858 g / cm^3
# Si number density = 17.087469 Si / 1000 Ang^3
#
#
#
# Elastic Constant Matrix: (Units=GPa)
#
#
# Indices 1 2 3 4 5 6 
#
# 1 89.0131 59.6326 78.4567 0.0000 0.0000 0.0000
# 2 59.6326 89.4734 68.1267 0.0000 0.0000 0.0000
# 3 78.4567 68.1267 142.9619 0.0000 0.0000 0.0000
# 4 0.0000 0.0000 0.0000 29.9856 0.0000 0.0000
# 5 0.0000 0.0000 0.0000 0.0000 35.0836 0.0000
# 6 0.0000 0.0000 0.0000 0.0000 0.0000 22.7100
#
#
#
# Elastic Compliance Matrix: (Units=1/GPa)
#
#
# Indices 1 2 3 4 5 6 
#
# 1 0.026827 -0.010468 -0.009734 0.000000 0.000000 0.000000
# 2 -0.010468 0.021626 -0.004561 0.000000 0.000000 0.000000
# 3 -0.009734 -0.004561 0.014510 0.000000 0.000000 0.000000
# 4 0.000000 0.000000 0.000000 0.033349 0.000000 0.000000
# 5 0.000000 0.000000 0.000000 0.000000 0.028503 0.000000
# 6 0.000000 0.000000 0.000000 0.000000 0.000000 0.044033
#
#
# Mechanical properties :
#
#
# Convention : Reuss Voigt Hill
#
# Bulk Modulus (GPa) = 74.41932 81.54227 77.98080
# Shear Modulus (GPa) = 22.43628 25.23801 23.83714
#
# Velocity S-wave (km/s) = 3.62750 3.84733 3.73903
# Velocity P-wave (km/s) = 7.82250 8.21949 8.02345
#
# Compressibility (1/GPa) = 0.01343737
#
# Stress axis : x y z
#
# Youngs Moduli (GPa) = 37.27633 46.24086 68.91700
#
# Poissons Ratio (x) = 0.48405 0.67084
# Poissons Ratio (y) = 0.39021 0.31432
# Poissons Ratio (z) = 0.36285 0.21090
#
# Static dielectric constant tensor:
#      x y z
#    x 1.570960 0.000000 0.000000 
#    y 0.000000 1.601390 0.000000 
#    z 0.000000 0.000000 1.533010 
# 
# From -- ./inp_files/31539.got.cif
#   From: 2010.05.17/outbox.cif.g08.bks.cpg/sg59_16_cif.got.tgz:31539.got - 2010.06.03 14:40:33.
