data_PCOD9447202
_publ_section_title
;
Structure prediction by ZEFSAII (Michael W. Deem and Ramdas Pophale) SiO2 
 PCOD9447202
Probable space group: P M M N
;
_chemical_formula_sum "Si O2"
_cell_formula_units_Z 48
_cell_length_a 29.586742
_cell_length_b 7.518661
_cell_length_c 10.499507
_cell_angle_alpha 90.000000
_cell_angle_beta 90.000000
_cell_angle_gamma 90.000000
_cell_volume 2335.643504
_symmetry_space_group_name_H-M "P M M N"
_symmetry_group_IT_number 59
_space_group.IT_coordinate_system_code '2'
_symmetry_cell_setting 'orthorhombic'
loop_
_space_group_symop_operation_xyz
x,y,z
1/2-x,1/2-y,z
1/2+x,-y,-z
-x,1/2+y,-z
-x,-y,-z
1/2+x,1/2+y,-z
1/2-x,y,z
x,1/2-y,z
loop_
_atom_site_type_symbol
_atom_site_label
_atom_site_fract_x
_atom_site_fract_y
_atom_site_fract_z
Si Si1 0.200036 0.033766 0.101195
Si Si2 0.954096 0.968198 0.768375
Si Si3 0.605766 0.535285 0.007951
Si Si4 0.299670 0.033639 0.400339
Si Si5 0.604217 0.957819 0.529035
Si Si6 0.556056 0.458320 0.268310
O O1 0.250000 0.973659 0.059334
O O2 0.200208 0.250000 0.095739
O O3 0.194701 0.988993 0.250640
O O4 0.156436 0.971838 0.023747
O O5 0.954627 0.750000 0.769990
O O6 0.926219 0.029692 0.644477
O O7 0.005809 0.030042 0.759421
O O8 0.928265 0.024694 0.896255
O O9 0.606721 0.750000 0.003007
O O10 0.587007 0.484053 0.144968
O O11 0.250000 0.969884 0.442326
O O12 0.297978 0.250000 0.408456
O O13 0.344653 0.969471 0.471306
O O14 0.609356 0.750000 0.560564
O O15 0.579169 0.969172 0.395149
O O16 0.550739 0.250000 0.292353
#
# Coordination Sequence:
#
# PCOD9447202 Si02
#       6
#     8   8   8   8   8   8
#     4   8  13  24  48  80 103 118 149 204 258 295
#     4   9  18  33  54  76  97 126 169 213 248 285
#     4  10  18  33  55  77  99 128 165 205 249 297
#     4   8  13  24  48  80 103 118 149 204 258 295
#     4  10  18  33  55  77  99 128 165 205 249 297
#     4  11  23  35  46  69 107 141 167 201 242 289
#
# _framework density 20.551082000000001
#
# number of rings (size 3 to 8) (size 9 to 14) (size 15 to 20)
#    0.000    2.667    1.667    2.500    0.000    0.000 
#    0.000    3.333    0.000    6.000    0.000    2.333 
#    0.000    0.000    0.000    0.000    0.000    0.000 
#
# Total GULP energy -267846.312221 kJ/mol
# GULP energy per Si atom -5580.131505 kJ/mol
# Density = 2.050431 g / cm^3
# Si number density = 20.551082 Si / 1000 Ang^3
#
#
#
# Elastic Constant Matrix: (Units=GPa)
#
#
# Indices 1 2 3 4 5 6 
#
# 1 103.5021 -0.8992 -6.7827 0.0000 0.0000 0.0000
# 2 -0.8992 46.3059 -15.8825 0.0000 0.0000 0.0000
# 3 -6.7827 -15.8825 45.5699 0.0000 0.0000 0.0000
# 4 0.0000 0.0000 0.0000 -80.1687 0.0000 0.0000
# 5 0.0000 0.0000 0.0000 0.0000 -10.3169 0.0000
# 6 0.0000 0.0000 0.0000 0.0000 0.0000 7.5209
#
#
#
# Elastic Compliance Matrix: (Units=1/GPa)
#
#
# Indices 1 2 3 4 5 6 
#
# 1 0.009782 0.000783 0.001729 0.000000 0.000000 0.000000
# 2 0.000783 0.024590 0.008687 0.000000 0.000000 0.000000
# 3 0.001729 0.008687 0.025229 0.000000 0.000000 0.000000
# 4 0.000000 0.000000 0.000000 -0.012474 0.000000 0.000000
# 5 0.000000 0.000000 0.000000 0.000000 -0.096929 0.000000
# 6 0.000000 0.000000 0.000000 0.000000 0.000000 0.132963
#
#
# Mechanical properties :
#
#
# Convention : Reuss Voigt Hill
#
# Bulk Modulus (GPa) = 12.19529 16.47210 14.33369
# Shear Modulus (GPa) = 56.75516 -1.99679 27.37919
#
# Velocity S-wave (km/s) = 5.26085 -0.98678 3.65396
# Velocity P-wave (km/s) = 6.54592 2.59505 4.97913
#
# Compressibility (1/GPa) = 0.08199889
#
# Stress axis : x y z
#
# Youngs Moduli (GPa) = 102.23136 40.66640 39.63642
#
# Poissons Ratio (x) = -0.03184 -0.06852
# Poissons Ratio (y) = -0.08004 -0.34432
# Poissons Ratio (z) = -0.17674 -0.35327
#
# Static dielectric constant tensor:
#      x y z
#    x 1.765930 0.000000 0.000000 
#    y 0.000000 1.736660 0.000000 
#    z 0.000000 0.000000 1.660880 
# 
# From -- ./inp_files/12954.got.cif
#   From: 2010.05.17/outbox.cif.g08.bks.cpg/sg59_7_cif.got.tgz:12954.got - 2010.06.03 14:40:33.
