data_PCOD9447958
_publ_section_title
;
Structure prediction by ZEFSAII (Michael W. Deem and Ramdas Pophale) SiO2 
 PCOD9447958
Probable space group: P M M N
;
_chemical_formula_sum "Si O2"
_cell_formula_units_Z 48
_cell_length_a 15.339379
_cell_length_b 13.358411
_cell_length_c 9.987725
_cell_angle_alpha 90.000000
_cell_angle_beta 90.000000
_cell_angle_gamma 90.000000
_cell_volume 2046.582025
_symmetry_space_group_name_H-M "P M M N"
_symmetry_group_IT_number 59
_space_group.IT_coordinate_system_code '2'
_symmetry_cell_setting 'orthorhombic'
loop_
_space_group_symop_operation_xyz
x,y,z
1/2-x,1/2-y,z
1/2+x,-y,-z
-x,1/2+y,-z
-x,-y,-z
1/2+x,1/2+y,-z
1/2-x,y,z
x,1/2-y,z
loop_
_atom_site_type_symbol
_atom_site_label
_atom_site_fract_x
_atom_site_fract_y
_atom_site_fract_z
Si Si1 0.092665 0.638149 0.819689
Si Si2 0.972679 0.357233 0.884721
Si Si3 0.148386 0.444586 0.467245
Si Si4 0.343789 0.470219 0.175944
Si Si5 0.962548 0.363283 0.484138
Si Si6 0.841968 0.580156 0.126267
O O1 0.134671 0.750000 0.821618
O O2 0.043558 0.630727 0.678517
O O3 0.149917 0.537782 0.835270
O O4 0.033082 0.634713 0.953053
O O5 0.934251 0.250000 0.849469
O O6 0.919655 0.449586 0.829796
O O7 0.070392 0.366108 0.833339
O O8 0.250000 0.438165 0.516537
O O9 0.151627 0.409382 0.312501
O O10 0.111998 0.559022 0.468901
O O11 0.061936 0.390734 0.526968
O O12 0.250000 0.524951 0.180571
O O13 0.343069 0.413625 0.035440
O O14 0.943226 0.250000 0.523783
O O15 0.750000 0.619775 0.175922
#
# Coordination Sequence:
#
# PCOD9447958 Si02
#       6
#     8   8   8   8   8   8
#     4   9  18  34  55  76  99 130 170 215 261 303
#     4  10  19  31  50  75 105 139 170 205 249 298
#     4  10  21  37  57  80 106 137 174 217 264 313
#     4   9  18  34  55  76  99 130 170 215 261 303
#     4  10  21  37  57  80 106 137 174 217 264 313
#     4  10  19  31  50  75 105 139 170 205 249 298
#
# _framework density 23.453738999999999
#
# number of rings (size 3 to 8) (size 9 to 14) (size 15 to 20)
#    0.000    2.333    0.000    4.000    0.000    3.000 
#    0.000    6.667    0.000    6.000    0.000    4.667 
#    0.000    0.000    0.000    0.000    0.000    0.000 
#
# Total GULP energy -267610.302155 kJ/mol
# GULP energy per Si atom -5575.214628 kJ/mol
# Density = 2.340036 g / cm^3
# Si number density = 23.453739 Si / 1000 Ang^3
#
#
#
# Elastic Constant Matrix: (Units=GPa)
#
#
# Indices 1 2 3 4 5 6 
#
# 1 123.0467 -22.5400 4.4333 0.0000 0.0000 0.0000
# 2 -22.5400 34.7367 -4.3211 0.0000 0.0000 0.0000
# 3 4.4333 -4.3211 120.0195 0.0000 0.0000 0.0000
# 4 0.0000 0.0000 0.0000 8.5122 0.0000 0.0000
# 5 0.0000 0.0000 0.0000 0.0000 4.0578 0.0000
# 6 0.0000 0.0000 0.0000 0.0000 0.0000 -10.8939
#
#
#
# Elastic Compliance Matrix: (Units=1/GPa)
#
#
# Indices 1 2 3 4 5 6 
#
# 1 0.009225 0.005970 -0.000126 0.000000 0.000000 0.000000
# 2 0.005970 0.032781 0.000960 0.000000 0.000000 0.000000
# 3 -0.000126 0.000960 0.008371 0.000000 0.000000 0.000000
# 4 0.000000 0.000000 0.000000 0.117478 0.000000 0.000000
# 5 0.000000 0.000000 0.000000 0.000000 0.246440 0.000000
# 6 0.000000 0.000000 0.000000 0.000000 0.000000 -0.091795
#
#
# Mechanical properties :
#
#
# Convention : Reuss Voigt Hill
#
# Bulk Modulus (GPa) = 15.62831 25.88304 20.75568
# Shear Modulus (GPa) = 15.14133 20.35060 17.74597
#
# Velocity S-wave (km/s) = 2.54359 2.94886 2.75369
# Velocity P-wave (km/s) = 3.91208 4.75963 4.35652
#
# Compressibility (1/GPa) = 0.06398644
#
# Stress axis : x y z
#
# Youngs Moduli (GPa) = 108.39867 30.50505 119.45750
#
# Poissons Ratio (x) = -0.18213 0.01503
# Poissons Ratio (y) = -0.64718 -0.11464
# Poissons Ratio (z) = 0.01364 -0.02928
#
# Static dielectric constant tensor:
#      x y z
#    x 1.887140 0.000000 0.000000 
#    y 0.000000 1.846570 0.000000 
#    z 0.000000 0.000000 1.960990 
# 
# From -- ./inp_files/16823.got.cif
#   From: 2010.05.17/outbox.cif.g08.bks.cpg/sg59_9_cif.got.tgz:16823.got - 2010.06.03 14:40:33.
