data_PCOD9447970
_publ_section_title
;
Structure prediction by ZEFSAII (Michael W. Deem and Ramdas Pophale) SiO2 
 PCOD9447970
Probable space group: P M M N
;
_chemical_formula_sum "Si O2"
_cell_formula_units_Z 64
_cell_length_a 14.482355
_cell_length_b 7.507452
_cell_length_c 27.162341
_cell_angle_alpha 90.000000
_cell_angle_beta 90.000000
_cell_angle_gamma 90.000000
_cell_volume 2953.241415
_symmetry_space_group_name_H-M "P M M N"
_symmetry_group_IT_number 59
_space_group.IT_coordinate_system_code '2'
_symmetry_cell_setting 'orthorhombic'
loop_
_space_group_symop_operation_xyz
x,y,z
1/2-x,1/2-y,z
1/2+x,-y,-z
-x,1/2+y,-z
-x,-y,-z
1/2+x,1/2+y,-z
1/2-x,y,z
x,1/2-y,z
loop_
_atom_site_type_symbol
_atom_site_label
_atom_site_fract_x
_atom_site_fract_y
_atom_site_fract_z
Si Si1 0.144964 0.533482 0.133061
Si Si2 0.355275 0.037403 0.490614
Si Si3 0.504386 0.549631 0.782093
Si Si4 0.502208 0.962577 0.057548
Si Si5 0.145771 0.460834 0.861057
Si Si6 0.149102 0.954686 0.603970
Si Si7 0.950522 0.531911 0.606672
Si Si8 0.146792 0.467830 0.296072
O O1 0.250000 0.476616 0.135119
O O2 0.141800 0.750000 0.137550
O O3 0.083911 0.454863 0.176456
O O4 0.093386 0.481109 0.082995
O O5 0.250000 0.009515 0.473231
O O6 0.368098 0.250000 0.496878
O O7 0.422626 0.971615 0.447939
O O8 0.362107 0.954924 0.544576
O O9 0.479998 0.750000 0.767329
O O10 0.414915 0.479386 0.811203
O O11 0.560361 0.466106 0.736541
O O12 0.506690 0.750000 0.062334
O O13 0.585258 0.032874 0.092630
O O14 0.500000 0.000000 0.000000
O O15 0.250000 0.533526 0.857739
O O16 0.153912 0.250000 0.869148
O O17 0.250000 0.036017 0.614640
O O18 0.152622 0.750000 0.620884
O O19 0.052416 0.032175 0.622032
O O20 0.953277 0.750000 0.604829
O O21 0.875550 0.485251 0.647626
O O22 0.250000 0.526752 0.281049
O O23 0.146813 0.250000 0.292304
#
# Coordination Sequence:
#
# PCOD9447970 Si02
#       8
#     8   8   8   8   8   8   8   8
#     4   9  18  33  51  69  94 131 168 197 231 284
#     4   9  16  26  43  65  85 110 148 188 223 267
#     4  10  19  31  50  77 102 121 152 203 254 291
#     4   9  18  31  47  71 101 131 163 199 240 284
#     4   9  19  37  57  73  96 135 175 204 235 284
#     4   9  17  28  42  61  86 116 149 185 226 271
#     4   9  16  27  43  63  88 119 153 185 223 278
#     4   9  17  29  46  70  99 125 149 187 241 293
#
# _framework density 21.671102000000001
#
# number of rings (size 3 to 8) (size 9 to 14) (size 15 to 20)
#    0.000    2.875    0.000    2.250    0.000    5.000 
#    0.000    0.625    0.000    5.250    0.000    3.500 
#    0.000    0.000    0.000    0.000    0.000    0.000 
#
# Total GULP energy -356737.029683 kJ/mol
# GULP energy per Si atom -5574.016089 kJ/mol
# Density = 2.162178 g / cm^3
# Si number density = 21.671102 Si / 1000 Ang^3
#
#
#
# Elastic Constant Matrix: (Units=GPa)
#
#
# Indices 1 2 3 4 5 6 
#
# 1 141.9817 8.3776 11.1465 0.0000 0.0000 0.0000
# 2 8.3776 53.1641 -8.6619 0.0000 0.0000 0.0000
# 3 11.1465 -8.6619 43.6852 0.0000 0.0000 0.0000
# 4 0.0000 0.0000 0.0000 5.6833 0.0000 0.0000
# 5 0.0000 0.0000 0.0000 0.0000 17.2045 0.0000
# 6 0.0000 0.0000 0.0000 0.0000 0.0000 9.5951
#
#
#
# Elastic Compliance Matrix: (Units=1/GPa)
#
#
# Indices 1 2 3 4 5 6 
#
# 1 0.007301 -0.001503 -0.002161 0.000000 0.000000 0.000000
# 2 -0.001503 0.019747 0.004299 0.000000 0.000000 0.000000
# 3 -0.002161 0.004299 0.024295 0.000000 0.000000 0.000000
# 4 0.000000 0.000000 0.000000 0.175955 0.000000 0.000000
# 5 0.000000 0.000000 0.000000 0.000000 0.058124 0.000000
# 6 0.000000 0.000000 0.000000 0.000000 0.000000 0.104220
#
#
# Mechanical properties :
#
#
# Convention : Reuss Voigt Hill
#
# Bulk Modulus (GPa) = 19.00650 28.95060 23.97855
# Shear Modulus (GPa) = 12.31801 21.69451 17.00626
#
# Velocity S-wave (km/s) = 2.38672 3.16742 2.80437
# Velocity P-wave (km/s) = 4.04780 5.17347 4.64486
#
# Compressibility (1/GPa) = 0.05261359
#
# Stress axis : x y z
#
# Youngs Moduli (GPa) = 136.95872 50.64098 41.16107
#
# Poissons Ratio (x) = 0.07610 0.08895
# Poissons Ratio (y) = 0.20580 -0.17694
# Poissons Ratio (z) = 0.29596 -0.21770
#
# Static dielectric constant tensor:
#      x y z
#    x 1.821190 0.000000 0.000000 
#    y 0.000000 1.826330 0.000000 
#    z 0.000000 0.000000 1.776940 
# 
# From -- ./inp_files/33311.got.cif
#   From: 2010.05.17/outbox.cif.g08.bks.cpg/sg59_17_cif.got.tgz:33311.got - 2010.06.03 14:40:33.
