data_PCOD9447349
_publ_section_title
;
Structure prediction by ZEFSAII (Michael W. Deem and Ramdas Pophale) SiO2 
 PCOD9447349
Probable space group: P M M N
;
_chemical_formula_sum "Si O2"
_cell_formula_units_Z 64
_cell_length_a 14.537509
_cell_length_b 8.207961
_cell_length_c 24.180258
_cell_angle_alpha 90.000000
_cell_angle_beta 90.000000
_cell_angle_gamma 90.000000
_cell_volume 2885.268346
_symmetry_space_group_name_H-M "P M M N"
_symmetry_group_IT_number 59
_space_group.IT_coordinate_system_code '2'
_symmetry_cell_setting 'orthorhombic'
loop_
_space_group_symop_operation_xyz
x,y,z
1/2-x,1/2-y,z
1/2+x,-y,-z
-x,1/2+y,-z
-x,-y,-z
1/2+x,1/2+y,-z
1/2-x,y,z
x,1/2-y,z
loop_
_atom_site_type_symbol
_atom_site_label
_atom_site_fract_x
_atom_site_fract_y
_atom_site_fract_z
Si Si1 0.347704 0.441680 0.727114
Si Si2 0.448971 0.056633 0.425420
Si Si3 0.142757 0.053412 0.959198
Si Si4 0.397873 0.568875 0.840706
Si Si5 0.141932 0.435813 0.076099
Si Si6 0.949929 0.055985 0.693435
Si Si7 0.391850 0.433124 0.193976
Si Si8 0.146468 0.556156 0.534763
O O1 0.250000 0.513119 0.706747
O O2 0.347467 0.250000 0.714707
O O3 0.349498 0.462437 0.793764
O O4 0.444709 0.507366 0.704216
O O5 0.449268 0.250000 0.435867
O O6 0.555422 0.994795 0.432381
O O7 0.417219 0.020135 0.363620
O O8 0.384042 0.976151 0.471419
O O9 0.250000 0.005131 0.952078
O O10 0.138667 0.250000 0.962326
O O11 0.096550 0.997522 0.902717
O O12 0.105909 0.989465 0.018605
O O13 0.357629 0.750000 0.841838
O O14 0.500263 0.579207 0.817809
O O15 0.250000 0.418844 0.064193
O O16 0.103613 0.250000 0.082268
O O17 0.138815 0.515966 0.136498
O O18 0.954176 0.250000 0.688172
O O19 0.887064 0.015712 0.746573
O O20 0.352661 0.250000 0.196950
O O21 0.250000 0.490259 0.545934
O O22 0.150776 0.750000 0.544243
#
# Coordination Sequence:
#
# PCOD9447349 Si02
#       8
#     8   8   8   8   8   8   8   8
#     4   9  18  32  48  66  91 127 171 213 251 299
#     4  10  20  35  57  85 116 149 184 221 261 308
#     4   9  17  29  45  64  86 115 152 192 236 292
#     4  10  19  28  41  65  94 121 150 191 247 305
#     4   8  15  30  51  69  84 110 152 199 245 294
#     4  10  20  34  52  74 102 137 173 209 253 301
#     4   9  18  33  50  68  92 121 157 203 249 294
#     4   9  19  37  60  86 117 151 184 220 263 306
#
# _framework density 22.181645
#
# number of rings (size 3 to 8) (size 9 to 14) (size 15 to 20)
#    0.000    2.750    0.000    2.250    0.000    4.750 
#    0.000    1.250    0.000    3.375    0.000    0.000 
#    0.000    0.000    0.000    0.000    0.000    0.000 
#
# Total GULP energy -356464.657735 kJ/mol
# GULP energy per Si atom -5569.760277 kJ/mol
# Density = 2.213116 g / cm^3
# Si number density = 22.181645 Si / 1000 Ang^3
#
#
#
# Elastic Constant Matrix: (Units=GPa)
#
#
# Indices 1 2 3 4 5 6 
#
# 1 45.6368 -1.5200 -16.4972 0.0000 0.0000 0.0000
# 2 -1.5200 12.0599 -9.2146 0.0000 0.0000 0.0000
# 3 -16.4972 -9.2146 99.5386 0.0000 0.0000 0.0000
# 4 0.0000 0.0000 0.0000 16.0595 0.0000 0.0000
# 5 0.0000 0.0000 0.0000 0.0000 143.7862 0.0000
# 6 0.0000 0.0000 0.0000 0.0000 0.0000 2.3805
#
#
#
# Elastic Compliance Matrix: (Units=1/GPa)
#
#
# Indices 1 2 3 4 5 6 
#
# 1 0.023768 0.006462 0.004537 0.000000 0.000000 0.000000
# 2 0.006462 0.090988 0.009494 0.000000 0.000000 0.000000
# 3 0.004537 0.009494 0.011677 0.000000 0.000000 0.000000
# 4 0.000000 0.000000 0.000000 0.062268 0.000000 0.000000
# 5 0.000000 0.000000 0.000000 0.000000 0.006955 0.000000
# 6 0.000000 0.000000 0.000000 0.000000 0.000000 0.420081
#
#
# Mechanical properties :
#
#
# Convention : Reuss Voigt Hill
#
# Bulk Modulus (GPa) = 5.97298 11.41910 8.69604
# Shear Modulus (GPa) = 7.92952 44.74303 26.33628
#
# Velocity S-wave (km/s) = 1.89277 4.49611 3.44946
# Velocity P-wave (km/s) = 2.73411 5.66679 4.44904
#
# Compressibility (1/GPa) = 0.16742048
#
# Stress axis : x y z
#
# Youngs Moduli (GPa) = 42.07406 10.99048 85.63652
#
# Poissons Ratio (x) = -0.07103 -0.38857
# Poissons Ratio (y) = -0.27190 -0.81304
# Poissons Ratio (z) = -0.19091 -0.10434
#
# Static dielectric constant tensor:
#      x y z
#    x 1.691000 0.000000 0.000000 
#    y 0.000000 1.795940 0.000000 
#    z 0.000000 0.000000 1.850770 
# 
# From -- ./inp_files/32298.got.cif
#   From: 2010.05.17/outbox.cif.g08.bks.cpg/sg59_17_cif.got.tgz:32298.got - 2010.06.03 14:40:33.
