data_PCOD9447696
_publ_section_title
;
Structure prediction by ZEFSAII (Michael W. Deem and Ramdas Pophale) SiO2 
 PCOD9447696
Probable space group: P M M N
;
_chemical_formula_sum "Si O2"
_cell_formula_units_Z 40
_cell_length_a 9.472819
_cell_length_b 10.332672
_cell_length_c 24.774797
_cell_angle_alpha 90.000000
_cell_angle_beta 90.000000
_cell_angle_gamma 90.000000
_cell_volume 2424.945527
_symmetry_space_group_name_H-M "P M M N"
_symmetry_group_IT_number 59
_space_group.IT_coordinate_system_code '2'
_symmetry_cell_setting 'orthorhombic'
loop_
_space_group_symop_operation_xyz
x,y,z
1/2-x,1/2-y,z
1/2+x,-y,-z
-x,1/2+y,-z
-x,-y,-z
1/2+x,1/2+y,-z
1/2-x,y,z
x,1/2-y,z
loop_
_atom_site_type_symbol
_atom_site_label
_atom_site_fract_x
_atom_site_fract_y
_atom_site_fract_z
Si Si1 0.415187 0.593349 0.232789
Si Si2 0.418363 0.250000 0.951390
Si Si3 0.579826 0.902706 0.460372
Si Si4 0.417986 0.750000 0.936324
Si Si5 0.910960 0.593131 0.336942
Si Si6 0.081599 0.488070 0.872614
O O1 0.250000 0.561888 0.231694
O O2 0.428885 0.750000 0.229043
O O3 0.486619 0.551234 0.289060
O O4 0.496777 0.533826 0.182165
O O5 0.250000 0.250000 0.961358
O O6 0.452850 0.125226 0.915136
O O7 0.499518 0.250000 0.007574
O O8 0.750000 0.912667 0.466393
O O9 0.543325 0.750000 0.468561
O O10 0.546393 0.939378 0.398096
O O11 0.500000 0.000000 0.500000
O O12 0.250000 0.750000 0.947606
O O13 0.450288 0.623398 0.901236
O O14 0.750000 0.548555 0.327336
O O15 0.907754 0.750000 0.335812
O O16 0.250000 0.480829 0.861523
#
# Coordination Sequence:
#
# PCOD9447696 Si02
#       6
#     8   4   8   4   8   8
#     4  10  19  30  49  78 103 125 163 213 255 292
#     4  10  20  34  54  76  98 130 167 200 243 296
#     4   9  18  32  51  77 107 139 175 214 258 306
#     4  10  22  36  52  74 102 132 163 202 245 292
#     4   8  15  29  49  72 100 134 169 208 253 299
#     4  10  20  35  53  74 100 132 166 200 245 298
#
# _framework density 16.495217
#
# number of rings (size 3 to 8) (size 9 to 14) (size 15 to 20)
#    0.000    2.600    1.000    2.400    0.000    3.600 
#    0.000    2.000    2.200    0.000    0.000    0.000 
#    0.000    0.000    0.000    0.000    0.000    0.000 
#
# Total GULP energy -223012.358117 kJ/mol
# GULP energy per Si atom -5575.308953 kJ/mol
# Density = 1.645767 g / cm^3
# Si number density = 16.495217 Si / 1000 Ang^3
#
#
#
# Elastic Constant Matrix: (Units=GPa)
#
#
# Indices 1 2 3 4 5 6 
#
# 1 76.3896 52.9944 105.7154 0.0000 0.0000 0.0000
# 2 52.9944 94.1384 75.1459 0.0000 0.0000 0.0000
# 3 105.7154 75.1459 191.6426 0.0000 0.0000 0.0000
# 4 0.0000 0.0000 0.0000 13.6537 0.0000 0.0000
# 5 0.0000 0.0000 0.0000 0.0000 38.6153 0.0000
# 6 0.0000 0.0000 0.0000 0.0000 0.0000 11.2305
#
#
#
# Elastic Compliance Matrix: (Units=1/GPa)
#
#
# Indices 1 2 3 4 5 6 
#
# 1 0.062444 -0.011144 -0.030076 0.000000 0.000000 0.000000
# 2 -0.011144 0.017451 -0.000695 0.000000 0.000000 0.000000
# 3 -0.030076 -0.000695 0.022082 0.000000 0.000000 0.000000
# 4 0.000000 0.000000 0.000000 0.073240 0.000000 0.000000
# 5 0.000000 0.000000 0.000000 0.000000 0.025896 0.000000
# 6 0.000000 0.000000 0.000000 0.000000 0.000000 0.089043
#
#
# Mechanical properties :
#
#
# Convention : Reuss Voigt Hill
#
# Bulk Modulus (GPa) = 55.11001 92.20912 73.65956
# Shear Modulus (GPa) = 13.15659 21.25423 17.20541
#
# Velocity S-wave (km/s) = 2.82725 3.59347 3.23314
# Velocity P-wave (km/s) = 6.64379 8.55800 7.66092
#
# Compressibility (1/GPa) = 0.01814552
#
# Stress axis : x y z
#
# Youngs Moduli (GPa) = 16.01424 57.30211 45.28644
#
# Poissons Ratio (x) = 0.63859 1.36205
# Poissons Ratio (y) = 0.17847 0.03150
# Poissons Ratio (z) = 0.48165 0.03985
#
# Static dielectric constant tensor:
#      x y z
#    x 1.549300 0.000000 0.000000 
#    y 0.000000 1.543250 0.000000 
#    z 0.000000 0.000000 1.533490 
# 
# From -- ./inp_files/28742.got.cif
#   From: 2010.05.17/outbox.cif.g08.bks.cpg/sg59_15_cif.got.tgz:28742.got - 2010.06.03 14:40:33.
