data_PCOD9447628
_publ_section_title
;
Structure prediction by ZEFSAII (Michael W. Deem and Ramdas Pophale) SiO2 
 PCOD9447628
Probable space group: P M M N
;
_chemical_formula_sum "Si O2"
_cell_formula_units_Z 40
_cell_length_a 28.104656
_cell_length_b 7.575261
_cell_length_c 8.744156
_cell_angle_alpha 90.000000
_cell_angle_beta 90.000000
_cell_angle_gamma 90.000000
_cell_volume 1861.631726
_symmetry_space_group_name_H-M "P M M N"
_symmetry_group_IT_number 59
_space_group.IT_coordinate_system_code '2'
_symmetry_cell_setting 'orthorhombic'
loop_
_space_group_symop_operation_xyz
x,y,z
1/2-x,1/2-y,z
1/2+x,-y,-z
-x,1/2+y,-z
-x,-y,-z
1/2+x,1/2+y,-z
1/2-x,y,z
x,1/2-y,z
loop_
_atom_site_type_symbol
_atom_site_label
_atom_site_fract_x
_atom_site_fract_y
_atom_site_fract_z
Si Si1 0.801174 0.034496 0.180773
Si Si2 0.801189 0.037787 0.819987
Si Si3 0.097167 0.952966 0.804521
Si Si4 0.001310 0.461733 0.321813
Si Si5 0.403986 0.042013 0.155419
O O1 0.750000 0.977924 0.246172
O O2 0.802122 0.250000 0.186626
O O3 0.851643 0.969792 0.245230
O O4 0.800852 0.987054 0.000281
O O5 0.750000 0.976478 0.754912
O O6 0.800969 0.250000 0.813120
O O7 0.852944 0.980955 0.761834
O O8 0.097057 0.750000 0.750387
O O9 0.047516 0.033885 0.750885
O O10 0.097657 0.953842 0.988824
O O11 0.001653 0.250000 0.298601
O O12 0.050356 0.526681 0.246919
O O13 0.000000 0.500000 0.500000
O O14 0.409777 0.250000 0.127312
#
# Coordination Sequence:
#
# PCOD9447628 Si02
#       5
#     8   8   8   8   8
#     4   7  10  19  39  66  91 113 141 182 228 269
#     4   8  14  26  45  69  96 126 158 190 229 281
#     4   9  17  31  50  71  95 125 161 198 237 285
#     4  10  22  36  49  67  93 128 168 205 244 290
#     4  10  19  30  47  74 101 124 157 200 244 288
#
# _framework density 21.486526000000001
#
# number of rings (size 3 to 8) (size 9 to 14) (size 15 to 20)
#    0.000    3.200    0.000    3.600    0.000    2.800 
#    0.000    0.000    0.000    1.200    0.000    2.800 
#    0.000    0.000    0.000    0.000    0.000    0.000 
#
# Total GULP energy -222706.050945 kJ/mol
# GULP energy per Si atom -5567.651274 kJ/mol
# Density = 2.143762 g / cm^3
# Si number density = 21.486526 Si / 1000 Ang^3
#
#
#
# Elastic Constant Matrix: (Units=GPa)
#
#
# Indices 1 2 3 4 5 6 
#
# 1 295.7463 5.8146 49.8678 0.0000 0.0000 0.0000
# 2 5.8146 52.0965 -11.3682 0.0000 0.0000 0.0000
# 3 49.8678 -11.3682 22.0286 0.0000 0.0000 0.0000
# 4 0.0000 0.0000 0.0000 11.2093 0.0000 0.0000
# 5 0.0000 0.0000 0.0000 0.0000 -10.2042 0.0000
# 6 0.0000 0.0000 0.0000 0.0000 0.0000 12.2268
#
#
#
# Elastic Compliance Matrix: (Units=1/GPa)
#
#
# Indices 1 2 3 4 5 6 
#
# 1 0.006199 -0.004230 -0.016215 0.000000 0.000000 0.000000
# 2 -0.004230 0.024518 0.022229 0.000000 0.000000 0.000000
# 3 -0.016215 0.022229 0.093575 0.000000 0.000000 0.000000
# 4 0.000000 0.000000 0.000000 0.089211 0.000000 0.000000
# 5 0.000000 0.000000 0.000000 0.000000 -0.097999 0.000000
# 6 0.000000 0.000000 0.000000 0.000000 0.000000 0.081787
#
#
# Mechanical properties :
#
#
# Convention : Reuss Voigt Hill
#
# Bulk Modulus (GPa) = 7.82109 50.94443 29.38276
# Shear Modulus (GPa) = 21.15554 24.35020 22.75287
#
# Velocity S-wave (km/s) = 3.14123 3.37007 3.25766
# Velocity P-wave (km/s) = 4.09931 6.23735 5.27773
#
# Compressibility (1/GPa) = 0.12785948
#
# Stress axis : x y z
#
# Youngs Moduli (GPa) = 161.32558 40.78619 10.68657
#
# Poissons Ratio (x) = 0.17254 0.17329
# Poissons Ratio (y) = 0.68246 -0.23756
# Poissons Ratio (z) = 2.61597 -0.90665
#
# Static dielectric constant tensor:
#      x y z
#    x 1.900910 0.000000 0.000000 
#    y 0.000000 1.820560 0.000000 
#    z 0.000000 0.000000 1.703510 
# 
# From -- ./inp_files/6044.got.cif
#   From: 2010.05.17/outbox.cif.g08.bks.cpg/sg59_4_cif.got.tgz:6044.got - 2010.06.03 14:40:33.
