data_PCOD9447176
_publ_section_title
;
Structure prediction by ZEFSAII (Michael W. Deem and Ramdas Pophale) SiO2 
 PCOD9447176
Probable space group: P M M N
;
_chemical_formula_sum "Si O2"
_cell_formula_units_Z 56
_cell_length_a 18.739060
_cell_length_b 19.834973
_cell_length_c 8.030673
_cell_angle_alpha 90.000000
_cell_angle_beta 90.000000
_cell_angle_gamma 90.000000
_cell_volume 2984.910802
_symmetry_space_group_name_H-M "P M M N"
_symmetry_group_IT_number 59
_space_group.IT_coordinate_system_code '2'
_symmetry_cell_setting 'orthorhombic'
loop_
_space_group_symop_operation_xyz
x,y,z
1/2-x,1/2-y,z
1/2+x,-y,-z
-x,1/2+y,-z
-x,-y,-z
1/2+x,1/2+y,-z
1/2-x,y,z
x,1/2-y,z
loop_
_atom_site_type_symbol
_atom_site_label
_atom_site_fract_x
_atom_site_fract_y
_atom_site_fract_z
Si Si1 0.017487 0.329041 0.133622
Si Si2 0.327970 0.361071 0.652275
Si Si3 0.172746 0.171707 0.037916
Si Si4 0.965206 0.612293 0.530666
Si Si5 0.085250 0.963877 0.358930
Si Si6 0.566856 0.051955 0.003384
Si Si7 0.830395 0.023212 0.313148
O O1 0.015046 0.250000 0.095374
O O2 0.998748 0.344281 0.325125
O O3 0.099359 0.355143 0.112187
O O4 0.967059 0.374104 0.020151
O O5 0.250000 0.340854 0.583247
O O6 0.333951 0.331890 0.837756
O O7 0.396813 0.348167 0.540291
O O8 0.328369 0.441978 0.673174
O O9 0.250000 0.140074 0.082084
O O10 0.175687 0.250000 0.087296
O O11 0.941834 0.540540 0.611763
O O12 0.019301 0.587408 0.388491
O O13 0.108934 0.956954 0.169182
O O14 0.140280 0.951481 0.508950
O O15 0.615563 0.039500 0.164351
O O16 0.500000 0.000000 0.000000
O O17 0.750000 0.047025 0.280587
#
# Coordination Sequence:
#
# PCOD9447176 Si02
#       7
#     8   8   8   8   8   8   8
#     4  11  22  34  52  84 116 145 192 245 288 340
#     4   9  18  31  49  76 111 145 189 237 272 325
#     4   9  18  32  47  67 105 155 196 228 268 329
#     4  10  18  33  50  77 109 146 183 231 280 335
#     4  10  19  34  57  80 108 144 190 228 278 343
#     4  12  20  36  64  86 112 159 191 232 293 350
#     4  10  21  36  55  87 118 142 185 243 291 341
#
# _framework density 18.761028
#
# number of rings (size 3 to 8) (size 9 to 14) (size 15 to 20)
#    0.000    1.857    2.857    3.429    0.000    1.714 
#    0.000    0.714    0.000    0.429    0.000    0.000 
#    0.000    0.000    0.000    0.000    0.000    0.000 
#
# Total GULP energy -312338.180562 kJ/mol
# GULP energy per Si atom -5577.467510 kJ/mol
# Density = 1.871833 g / cm^3
# Si number density = 18.761028 Si / 1000 Ang^3
#
#
#
# Elastic Constant Matrix: (Units=GPa)
#
#
# Indices 1 2 3 4 5 6 
#
# 1 78.4193 19.8485 36.2595 0.0000 0.0000 0.0000
# 2 19.8485 41.5130 12.7303 0.0000 0.0000 0.0000
# 3 36.2595 12.7303 97.3648 0.0000 0.0000 0.0000
# 4 0.0000 0.0000 0.0000 19.5255 0.0000 0.0000
# 5 0.0000 0.0000 0.0000 0.0000 23.0722 0.0000
# 6 0.0000 0.0000 0.0000 0.0000 0.0000 11.1463
#
#
#
# Elastic Compliance Matrix: (Units=1/GPa)
#
#
# Indices 1 2 3 4 5 6 
#
# 1 0.016895 -0.006405 -0.005454 0.000000 0.000000 0.000000
# 2 -0.006405 0.027524 -0.001213 0.000000 0.000000 0.000000
# 3 -0.005454 -0.001213 0.012461 0.000000 0.000000 0.000000
# 4 0.000000 0.000000 0.000000 0.051215 0.000000 0.000000
# 5 0.000000 0.000000 0.000000 0.000000 0.043342 0.000000
# 6 0.000000 0.000000 0.000000 0.000000 0.000000 0.089716
#
#
# Mechanical properties :
#
#
# Convention : Reuss Voigt Hill
#
# Bulk Modulus (GPa) = 32.53817 39.44153 35.98985
# Shear Modulus (GPa) = 18.01520 20.64603 19.33061
#
# Velocity S-wave (km/s) = 3.10215 3.32094 3.21340
# Velocity P-wave (km/s) = 5.49656 5.98110 5.74395
#
# Compressibility (1/GPa) = 0.03073313
#
# Stress axis : x y z
#
# Youngs Moduli (GPa) = 59.18820 36.33253 80.25322
#
# Poissons Ratio (x) = 0.23273 0.43774
# Poissons Ratio (y) = 0.37913 0.09737
# Poissons Ratio (z) = 0.32284 0.04408
#
# Static dielectric constant tensor:
#      x y z
#    x 1.702800 0.000000 0.000000 
#    y 0.000000 1.648270 0.000000 
#    z 0.000000 0.000000 1.676310 
# 
# From -- ./inp_files/10620.got.cif
#   From: 2010.05.17/outbox.cif.g08.bks.cpg/sg59_6_cif.got.tgz:10620.got - 2010.06.03 14:40:33.
