data_PCOD9447744
_publ_section_title
;
Structure prediction by ZEFSAII (Michael W. Deem and Ramdas Pophale) SiO2 
 PCOD9447744
Probable space group: P M M N
;
_chemical_formula_sum "Si O2"
_cell_formula_units_Z 64
_cell_length_a 14.675595
_cell_length_b 9.311332
_cell_length_c 21.606434
_cell_angle_alpha 90.000000
_cell_angle_beta 90.000000
_cell_angle_gamma 90.000000
_cell_volume 2952.504888
_symmetry_space_group_name_H-M "P M M N"
_symmetry_group_IT_number 59
_space_group.IT_coordinate_system_code '2'
_symmetry_cell_setting 'orthorhombic'
loop_
_space_group_symop_operation_xyz
x,y,z
1/2-x,1/2-y,z
1/2+x,-y,-z
-x,1/2+y,-z
-x,-y,-z
1/2+x,1/2+y,-z
1/2-x,y,z
x,1/2-y,z
loop_
_atom_site_type_symbol
_atom_site_label
_atom_site_fract_x
_atom_site_fract_y
_atom_site_fract_z
Si Si1 0.607927 0.412139 0.750503
Si Si2 0.361791 0.414293 0.506105
Si Si3 0.641305 0.411690 0.373736
Si Si4 0.888276 0.585832 0.868836
Si Si5 0.098651 0.424031 0.995198
Si Si6 0.109941 0.413752 0.751650
Si Si7 0.111276 0.582956 0.873074
Si Si8 0.358884 0.586610 0.385807
O O1 0.644169 0.250000 0.748603
O O2 0.642682 0.492942 0.810883
O O3 0.499214 0.405354 0.757644
O O4 0.624637 0.476664 0.682538
O O5 0.250000 0.412339 0.506495
O O6 0.607483 0.750000 0.490902
O O7 0.392146 0.503604 0.566005
O O8 0.391115 0.491711 0.442963
O O9 0.750000 0.398936 0.381805
O O10 0.603437 0.250000 0.368446
O O11 0.627737 0.503020 0.311797
O O12 0.862396 0.750000 0.858182
O O13 0.999704 0.581245 0.871134
O O14 0.857242 0.544500 0.937944
O O15 0.091010 0.250000 0.989435
O O16 0.140266 0.494357 0.933846
O O17 0.000000 0.500000 0.000000
O O18 0.144231 0.250000 0.750420
O O19 0.142850 0.504165 0.810734
O O20 0.138069 0.750000 0.875788
O O21 0.250000 0.597651 0.392693
O O22 0.396819 0.750000 0.387731
#
# Coordination Sequence:
#
# PCOD9447744 Si02
#       8
#     8   8   8   8   8   8   8   8
#     4   9  18  30  45  67  94 124 155 187 227 275
#     4   9  17  30  49  72  94 116 148 190 231 269
#     4  10  20  34  52  72  93 119 152 188 226 271
#     4   8  15  25  38  58  86 119 151 186 228 272
#     4   9  15  23  36  57  84 115 152 191 231 274
#     4  10  19  31  47  68  96 125 153 188 229 274
#     4   9  16  26  40  60  87 119 153 187 228 276
#     4   9  17  31  50  70  93 121 153 189 228 270
#
# _framework density 21.67651
#
# number of rings (size 3 to 8) (size 9 to 14) (size 15 to 20)
#    0.000    2.875    0.000    2.625    0.000    6.750 
#    0.000    0.625    0.000    0.000    0.000    0.875 
#    0.000    3.000    0.000    0.000    0.000    0.000 
#
# Total GULP energy -357217.015957 kJ/mol
# GULP energy per Si atom -5581.515874 kJ/mol
# Density = 2.162717 g / cm^3
# Si number density = 21.676510 Si / 1000 Ang^3
#
#
#
# Elastic Constant Matrix: (Units=GPa)
#
#
# Indices 1 2 3 4 5 6 
#
# 1 65.4963 7.1625 3.0882 0.0000 0.0000 0.0000
# 2 7.1625 169.2829 141.0461 0.0000 0.0000 0.0000
# 3 3.0882 141.0461 267.9149 0.0000 0.0000 0.0000
# 4 0.0000 0.0000 0.0000 37.0962 0.0000 0.0000
# 5 0.0000 0.0000 0.0000 0.0000 24.2864 0.0000
# 6 0.0000 0.0000 0.0000 0.0000 0.0000 -12.6825
#
#
#
# Elastic Compliance Matrix: (Units=1/GPa)
#
#
# Indices 1 2 3 4 5 6 
#
# 1 0.015352 -0.000894 0.000294 0.000000 0.000000 0.000000
# 2 -0.000894 0.010575 -0.005557 0.000000 0.000000 0.000000
# 3 0.000294 -0.005557 0.006655 0.000000 0.000000 0.000000
# 4 0.000000 0.000000 0.000000 0.026957 0.000000 0.000000
# 5 0.000000 0.000000 0.000000 0.000000 0.041175 0.000000
# 6 0.000000 0.000000 0.000000 0.000000 0.000000 -0.078849
#
#
# Mechanical properties :
#
#
# Convention : Reuss Voigt Hill
#
# Bulk Modulus (GPa) = 49.34198 89.47642 69.40920
# Shear Modulus (GPa) = 122.14053 33.16649 77.65351
#
# Velocity S-wave (km/s) = 7.51460 3.91585 5.99179
# Velocity P-wave (km/s) = 9.90478 7.86211 8.94197
#
# Compressibility (1/GPa) = 0.02026672
#
# Stress axis : x y z
#
# Youngs Moduli (GPa) = 65.13807 94.55961 150.26837
#
# Poissons Ratio (x) = 0.08458 -0.04417
# Poissons Ratio (y) = 0.05826 0.83507
# Poissons Ratio (z) = -0.01915 0.52548
#
# Static dielectric constant tensor:
#      x y z
#    x 1.863670 0.000000 0.000000 
#    y 0.000000 1.742740 0.000000 
#    z 0.000000 0.000000 1.773800 
# 
# From -- ./inp_files/30924.got.cif
#   From: 2010.05.17/outbox.cif.g08.bks.cpg/sg59_16_cif.got.tgz:30924.got - 2010.06.03 14:40:33.
