data_PCOD9447004
_publ_section_title
;
Structure prediction by ZEFSAII (Michael W. Deem and Ramdas Pophale) SiO2 
 PCOD9447004
Probable space group: P M M N
;
_chemical_formula_sum "Si O2"
_cell_formula_units_Z 64
_cell_length_a 20.193151
_cell_length_b 8.179876
_cell_length_c 20.416544
_cell_angle_alpha 90.000000
_cell_angle_beta 90.000000
_cell_angle_gamma 90.000000
_cell_volume 3372.353109
_symmetry_space_group_name_H-M "P M M N"
_symmetry_group_IT_number 59
_space_group.IT_coordinate_system_code '2'
_symmetry_cell_setting 'orthorhombic'
loop_
_space_group_symop_operation_xyz
x,y,z
1/2-x,1/2-y,z
1/2+x,-y,-z
-x,1/2+y,-z
-x,-y,-z
1/2+x,1/2+y,-z
1/2-x,y,z
x,1/2-y,z
loop_
_atom_site_type_symbol
_atom_site_label
_atom_site_fract_x
_atom_site_fract_y
_atom_site_fract_z
Si Si1 0.071667 0.063223 0.764259
Si Si2 0.325267 0.940816 0.164423
Si Si3 0.588832 0.056062 0.380537
Si Si4 0.825180 0.945158 0.494388
Si Si5 0.567662 0.563173 0.739465
Si Si6 0.059893 0.445768 0.409823
Si Si7 0.093095 0.055818 0.049249
Si Si8 0.448029 0.051440 0.906209
O O1 0.094699 0.250000 0.761341
O O2 0.084231 0.996201 0.837579
O O3 0.093582 0.977300 0.697171
O O4 0.991743 0.054120 0.760143
O O5 0.250000 0.993477 0.169878
O O6 0.330633 0.750000 0.181810
O O7 0.371651 0.041361 0.212703
O O8 0.351924 0.966262 0.091361
O O9 0.590024 0.250000 0.390652
O O10 0.516654 0.993171 0.407610
O O11 0.647871 0.977338 0.421545
O O12 0.750000 0.008314 0.504519
O O13 0.822410 0.750000 0.505641
O O14 0.884633 0.012393 0.540750
O O15 0.541986 0.750000 0.742522
O O16 0.585299 0.530746 0.664217
O O17 0.054826 0.250000 0.421656
O O18 0.103394 0.250000 0.052775
O O19 0.089563 0.006757 0.973113
O O20 0.022095 0.015944 0.082548
O O21 0.452629 0.250000 0.903587
#
# Coordination Sequence:
#
# PCOD9447004 Si02
#       8
#     8   8   8   8   8   8   8   8
#     4  10  18  31  53  78 107 136 165 206 260 315
#     4  11  23  36  48  66 100 144 182 215 254 305
#     4  10  20  34  53  78 108 139 176 221 264 311
#     4  10  20  35  55  77 103 137 176 217 267 326
#     4  10  19  32  51  77 104 131 171 215 258 307
#     4   8  17  33  53  78 106 135 171 217 264 316
#     4  10  19  31  50  75 101 131 169 211 255 304
#     4   9  18  31  50  77 106 131 160 207 262 309
#
# _framework density 18.977847000000001
#
# number of rings (size 3 to 8) (size 9 to 14) (size 15 to 20)
#    0.000    2.250    1.250    3.000    0.000    2.750 
#    0.000    4.375    0.000    0.750    0.000    1.750 
#    0.000    0.000    0.000    0.000    0.000    0.000 
#
# Total GULP energy -356793.838057 kJ/mol
# GULP energy per Si atom -5574.903720 kJ/mol
# Density = 1.893465 g / cm^3
# Si number density = 18.977847 Si / 1000 Ang^3
#
#
#
# Elastic Constant Matrix: (Units=GPa)
#
#
# Indices 1 2 3 4 5 6 
#
# 1 34.6350 2.2571 16.7048 0.0000 0.0000 0.0000
# 2 2.2571 15.2075 1.1875 0.0000 0.0000 0.0000
# 3 16.7048 1.1875 78.4457 0.0000 0.0000 0.0000
# 4 0.0000 0.0000 0.0000 20.2805 0.0000 0.0000
# 5 0.0000 0.0000 0.0000 0.0000 13.2320 0.0000
# 6 0.0000 0.0000 0.0000 0.0000 0.0000 15.9282
#
#
#
# Elastic Compliance Matrix: (Units=1/GPa)
#
#
# Indices 1 2 3 4 5 6 
#
# 1 0.032453 -0.004282 -0.006846 0.000000 0.000000 0.000000
# 2 -0.004282 0.066400 -0.000093 0.000000 0.000000 0.000000
# 3 -0.006846 -0.000093 0.014207 0.000000 0.000000 0.000000
# 4 0.000000 0.000000 0.000000 0.049309 0.000000 0.000000
# 5 0.000000 0.000000 0.000000 0.000000 0.075574 0.000000
# 6 0.000000 0.000000 0.000000 0.000000 0.000000 0.062782
#
#
# Mechanical properties :
#
#
# Convention : Reuss Voigt Hill
#
# Bulk Modulus (GPa) = 11.03545 18.73190 14.88368
# Shear Modulus (GPa) = 14.14933 17.09739 15.62336
#
# Velocity S-wave (km/s) = 2.73348 3.00478 2.87233
# Velocity P-wave (km/s) = 3.97367 4.68296 4.34282
#
# Compressibility (1/GPa) = 0.09061702
#
# Stress axis : x y z
#
# Youngs Moduli (GPa) = 30.81334 15.06030 70.38822
#
# Poissons Ratio (x) = 0.06449 0.48188
# Poissons Ratio (y) = 0.13195 0.00656
# Poissons Ratio (z) = 0.21095 0.00140
#
# Static dielectric constant tensor:
#      x y z
#    x 1.642490 0.000000 0.000000 
#    y 0.000000 1.667390 0.000000 
#    z 0.000000 0.000000 1.698940 
# 
# From -- ./inp_files/30896.got.cif
#   From: 2010.05.17/outbox.cif.g08.bks.cpg/sg59_16_cif.got.tgz:30896.got - 2010.06.03 14:40:33.
