data_PCOD9447194
_publ_section_title
;
Structure prediction by ZEFSAII (Michael W. Deem and Ramdas Pophale) SiO2 
 PCOD9447194
Probable space group: P M M N
;
_chemical_formula_sum "Si O2"
_cell_formula_units_Z 64
_cell_length_a 8.630527
_cell_length_b 20.400449
_cell_length_c 20.752054
_cell_angle_alpha 90.000000
_cell_angle_beta 90.000000
_cell_angle_gamma 90.000000
_cell_volume 3653.744128
_symmetry_space_group_name_H-M "P M M N"
_symmetry_group_IT_number 59
_space_group.IT_coordinate_system_code '2'
_symmetry_cell_setting 'orthorhombic'
loop_
_space_group_symop_operation_xyz
x,y,z
1/2-x,1/2-y,z
1/2+x,-y,-z
-x,1/2+y,-z
-x,-y,-z
1/2+x,1/2+y,-z
1/2-x,y,z
x,1/2-y,z
loop_
_atom_site_type_symbol
_atom_site_label
_atom_site_fract_x
_atom_site_fract_y
_atom_site_fract_z
Si Si1 0.936646 0.410244 0.952700
Si Si2 0.565272 0.558606 0.912541
Si Si3 0.437569 0.569198 0.272267
Si Si4 0.064469 0.929027 0.773794
Si Si5 0.560867 0.175469 0.832646
Si Si6 0.065170 0.092206 0.448948
Si Si7 0.562952 0.324821 0.333477
Si Si8 0.936517 0.442031 0.582322
O O1 0.750000 0.408864 0.958926
O O2 0.978418 0.481970 0.924058
O O3 0.985051 0.355954 0.901010
O O4 0.009894 0.404738 0.023134
O O5 0.750000 0.561527 0.906916
O O6 0.490324 0.582943 0.846635
O O7 0.250000 0.566133 0.270099
O O8 0.499108 0.499153 0.248739
O O9 0.488941 0.626652 0.224260
O O10 0.483269 0.580465 0.346463
O O11 0.250000 0.931509 0.772047
O O12 0.010691 0.872889 0.724116
O O13 0.750000 0.175672 0.831808
O O14 0.508218 0.250000 0.824821
O O15 0.250000 0.096398 0.446062
O O16 0.992884 0.144478 0.400649
O O17 0.009203 0.096489 0.522574
O O18 0.018932 0.018793 0.425464
O O19 0.750000 0.324851 0.333128
O O20 0.509776 0.250000 0.325393
O O21 0.750000 0.438397 0.577145
#
# Coordination Sequence:
#
# PCOD9447194 Si02
#       8
#     8   8   8   8   8   8   8   8
#     4   9  17  31  51  76 104 134 171 215 259 308
#     4  10  19  32  52  77 105 134 170 219 266 310
#     4  10  18  33  54  79 109 141 179 223 265 310
#     4  11  21  33  54  81 106 136 177 223 272 322
#     4   9  17  31  53  79 106 138 175 214 259 312
#     4  10  19  32  53  79 107 137 175 220 265 317
#     4  10  22  39  56  76 106 142 180 224 274 329
#     4   9  18  31  51  78 110 140 172 217 266 311
#
# _framework density 17.516279000000001
#
# number of rings (size 3 to 8) (size 9 to 14) (size 15 to 20)
#    0.000    2.250    2.500    1.125    0.000    2.250 
#    0.000    1.250    0.000    7.500    0.000    0.000 
#    0.000    0.000    0.000    0.000    0.000    0.000 
#
# Total GULP energy -357068.494082 kJ/mol
# GULP energy per Si atom -5579.195220 kJ/mol
# Density = 1.747641 g / cm^3
# Si number density = 17.516279 Si / 1000 Ang^3
#
#
#
# Elastic Constant Matrix: (Units=GPa)
#
#
# Indices 1 2 3 4 5 6 
#
# 1 8.7397 21.6815 26.4634 0.0000 0.0000 0.0000
# 2 21.6815 127.4609 90.6521 0.0000 0.0000 0.0000
# 3 26.4634 90.6521 173.9834 0.0000 0.0000 0.0000
# 4 0.0000 0.0000 0.0000 24.8111 0.0000 0.0000
# 5 0.0000 0.0000 0.0000 0.0000 26.7725 0.0000
# 6 0.0000 0.0000 0.0000 0.0000 0.0000 18.0660
#
#
#
# Elastic Compliance Matrix: (Units=1/GPa)
#
#
# Indices 1 2 3 4 5 6 
#
# 1 0.253937 -0.024983 -0.025607 0.000000 0.000000 0.000000
# 2 -0.024983 0.014922 -0.003975 0.000000 0.000000 0.000000
# 3 -0.025607 -0.003975 0.011714 0.000000 0.000000 0.000000
# 4 0.000000 0.000000 0.000000 0.040305 0.000000 0.000000
# 5 0.000000 0.000000 0.000000 0.000000 0.037352 0.000000
# 6 0.000000 0.000000 0.000000 0.000000 0.000000 0.055352
#
#
# Mechanical properties :
#
#
# Convention : Reuss Voigt Hill
#
# Bulk Modulus (GPa) = 5.83287 65.30865 35.57076
# Shear Modulus (GPa) = 8.62275 25.35573 16.98924
#
# Velocity S-wave (km/s) = 2.22112 3.80880 3.11772
# Velocity P-wave (km/s) = 3.14882 7.53048 5.77162
#
# Compressibility (1/GPa) = 0.17144204
#
# Stress axis : x y z
#
# Youngs Moduli (GPa) = 3.93798 67.01307 85.36911
#
# Poissons Ratio (x) = 1.67420 2.18608
# Poissons Ratio (y) = 0.09838 0.33936
# Poissons Ratio (z) = 0.10084 0.26639
#
# Static dielectric constant tensor:
#      x y z
#    x 1.592340 0.000000 0.000000 
#    y 0.000000 1.581280 0.000000 
#    z 0.000000 0.000000 1.593270 
# 
# From -- ./inp_files/29791.got.cif
#   From: 2010.05.17/outbox.cif.g08.bks.cpg/sg59_15_cif.got.tgz:29791.got - 2010.06.03 14:40:33.
