data_PCOD9447911
_publ_section_title
;
Structure prediction by ZEFSAII (Michael W. Deem and Ramdas Pophale) SiO2 
 PCOD9447911
Probable space group: P M M N
;
_chemical_formula_sum "Si O2"
_cell_formula_units_Z 64
_cell_length_a 8.544743
_cell_length_b 18.232704
_cell_length_c 23.437113
_cell_angle_alpha 90.000000
_cell_angle_beta 90.000000
_cell_angle_gamma 90.000000
_cell_volume 3651.356189
_symmetry_space_group_name_H-M "P M M N"
_symmetry_group_IT_number 59
_space_group.IT_coordinate_system_code '2'
_symmetry_cell_setting 'orthorhombic'
loop_
_space_group_symop_operation_xyz
x,y,z
1/2-x,1/2-y,z
1/2+x,-y,-z
-x,1/2+y,-z
-x,-y,-z
1/2+x,1/2+y,-z
1/2-x,y,z
x,1/2-y,z
loop_
_atom_site_type_symbol
_atom_site_label
_atom_site_fract_x
_atom_site_fract_y
_atom_site_fract_z
Si Si1 0.061598 0.066376 0.538773
Si Si2 0.560524 0.831160 0.203487
Si Si3 0.939685 0.666325 0.560255
Si Si4 0.062091 0.967078 0.637871
Si Si5 0.439277 0.332262 0.046641
Si Si6 0.939674 0.879797 0.078194
Si Si7 0.562837 0.036827 0.121991
Si Si8 0.435826 0.514980 0.242131
O O1 0.250000 0.066766 0.538984
O O2 0.012810 0.138555 0.503566
O O3 0.012044 0.039968 0.601616
O O4 0.000000 0.000000 0.500000
O O5 0.750000 0.835619 0.205047
O O6 0.514195 0.750000 0.223686
O O7 0.511715 0.840515 0.136918
O O8 0.495423 0.900953 0.237062
O O9 0.750000 0.665012 0.562958
O O10 0.991132 0.750000 0.570898
O O11 0.001300 0.605483 0.604895
O O12 0.250000 0.964148 0.638217
O O13 0.000148 0.976135 0.701464
O O14 0.250000 0.336823 0.046549
O O15 0.484380 0.250000 0.062826
O O16 0.504281 0.391779 0.089892
O O17 0.494543 0.348107 0.981827
O O18 0.750000 0.875092 0.077389
O O19 0.984317 0.964749 0.085685
O O20 0.750000 0.036688 0.125971
O O21 0.495281 0.025307 0.185032
O O22 0.250000 0.514721 0.242980
#
# Coordination Sequence:
#
# PCOD9447911 Si02
#       8
#     8   8   8   8   8   8   8   8
#     4   8  15  28  48  73 100 130 161 195 237 288
#     4   9  17  32  54  78 104 133 166 206 253 304
#     4   9  17  31  52  79 109 137 167 206 252 298
#     4  10  19  33  53  76 103 136 177 215 249 296
#     4  10  19  31  49  74 103 132 162 200 252 312
#     4   8  15  29  51  76  99 127 162 200 248 308
#     4  10  20  35  53  72  97 130 171 214 255 303
#     4  11  22  36  54  74 100 135 176 217 256 300
#
# _framework density 17.527735
#
# number of rings (size 3 to 8) (size 9 to 14) (size 15 to 20)
#    0.000    2.625    0.000    3.375    0.000    2.750 
#    0.000    3.750    0.000    9.000    0.000    0.000 
#    0.000    0.000    0.000    0.000    0.000    0.000 
#
# Total GULP energy -356593.652863 kJ/mol
# GULP energy per Si atom -5571.775826 kJ/mol
# Density = 1.748784 g / cm^3
# Si number density = 17.527735 Si / 1000 Ang^3
#
#
#
# Elastic Constant Matrix: (Units=GPa)
#
#
# Indices 1 2 3 4 5 6 
#
# 1 31.5226 31.6605 18.1015 0.0000 0.0000 0.0000
# 2 31.6605 122.2923 47.4476 0.0000 0.0000 0.0000
# 3 18.1015 47.4476 62.7383 0.0000 0.0000 0.0000
# 4 0.0000 0.0000 0.0000 17.7152 0.0000 0.0000
# 5 0.0000 0.0000 0.0000 0.0000 18.5364 0.0000
# 6 0.0000 0.0000 0.0000 0.0000 0.0000 24.3424
#
#
#
# Elastic Compliance Matrix: (Units=1/GPa)
#
#
# Indices 1 2 3 4 5 6 
#
# 1 0.044321 -0.009218 -0.005817 0.000000 0.000000 0.000000
# 2 -0.009218 0.013490 -0.007543 0.000000 0.000000 0.000000
# 3 -0.005817 -0.007543 0.023322 0.000000 0.000000 0.000000
# 4 0.000000 0.000000 0.000000 0.056449 0.000000 0.000000
# 5 0.000000 0.000000 0.000000 0.000000 0.053948 0.000000
# 6 0.000000 0.000000 0.000000 0.000000 0.000000 0.041081
#
#
# Mechanical properties :
#
#
# Convention : Reuss Voigt Hill
#
# Bulk Modulus (GPa) = 27.79381 45.66359 36.72870
# Shear Modulus (GPa) = 17.25582 20.07503 18.66542
#
# Velocity S-wave (km/s) = 3.14106 3.38794 3.26683
# Velocity P-wave (km/s) = 5.38948 6.43529 5.93546
#
# Compressibility (1/GPa) = 0.03597923
#
# Stress axis : x y z
#
# Youngs Moduli (GPa) = 22.56247 74.12922 42.87838
#
# Poissons Ratio (x) = 0.68330 0.24941
# Poissons Ratio (y) = 0.20797 0.32342
# Poissons Ratio (z) = 0.13124 0.55913
#
# Static dielectric constant tensor:
#      x y z
#    x 1.601110 0.000000 0.000000 
#    y 0.000000 1.597340 0.000000 
#    z 0.000000 0.000000 1.589730 
# 
# From -- ./inp_files/31729.got.cif
#   From: 2010.05.17/outbox.cif.g08.bks.cpg/sg59_16_cif.got.tgz:31729.got - 2010.06.03 14:40:33.
