data_PCOD9447952
_publ_section_title
;
Structure prediction by ZEFSAII (Michael W. Deem and Ramdas Pophale) SiO2 
 PCOD9447952
Probable space group: P M M N
;
_chemical_formula_sum "Si O2"
_cell_formula_units_Z 48
_cell_length_a 18.908916
_cell_length_b 9.034480
_cell_length_c 16.574531
_cell_angle_alpha 90.000000
_cell_angle_beta 90.000000
_cell_angle_gamma 90.000000
_cell_volume 2831.463983
_symmetry_space_group_name_H-M "P M M N"
_symmetry_group_IT_number 59
_space_group.IT_coordinate_system_code '2'
_symmetry_cell_setting 'orthorhombic'
loop_
_space_group_symop_operation_xyz
x,y,z
1/2-x,1/2-y,z
1/2+x,-y,-z
-x,1/2+y,-z
-x,-y,-z
1/2+x,1/2+y,-z
1/2-x,y,z
x,1/2-y,z
loop_
_atom_site_type_symbol
_atom_site_label
_atom_site_fract_x
_atom_site_fract_y
_atom_site_fract_z
Si Si1 0.168651 0.072192 0.843698
Si Si2 0.465381 0.427046 0.249044
Si Si3 0.033666 0.926988 0.921355
Si Si4 0.598771 0.926395 0.327311
Si Si5 0.834688 0.423810 0.483259
Si Si6 0.669090 0.927872 0.652864
O O1 0.250000 0.030654 0.859400
O O2 0.161915 0.250000 0.853842
O O3 0.148143 0.038847 0.750501
O O4 0.110791 0.991936 0.899099
O O5 0.474893 0.250000 0.259453
O O6 0.484649 0.461206 0.156637
O O7 0.522205 0.510786 0.304028
O O8 0.386771 0.465843 0.277749
O O9 0.037641 0.750000 0.930250
O O10 0.000000 0.000000 0.000000
O O11 0.596839 0.750000 0.336435
O O12 0.627662 0.000026 0.408043
O O13 0.750000 0.441230 0.473388
O O14 0.851136 0.250000 0.485439
O O15 0.853129 0.498674 0.568492
O O16 0.750000 0.972815 0.670680
O O17 0.668393 0.750000 0.642857
#
# Coordination Sequence:
#
# PCOD9447952 Si02
#       6
#     8   8   8   8   8   8
#     4   9  18  33  53  77 104 133 167 208 253 300
#     4   9  19  35  53  74  99 128 165 208 254 302
#     4  10  20  35  55  78 105 135 167 204 250 305
#     4  10  19  31  50  75 102 134 170 206 247 297
#     4  10  20  32  47  70 101 135 169 206 249 294
#     4   9  18  34  54  72  93 126 169 213 252 291
#
# _framework density 16.952359999999999
#
# number of rings (size 3 to 8) (size 9 to 14) (size 15 to 20)
#    0.000    2.500    0.000    2.000    0.000    4.667 
#    0.000    0.833    0.000    3.000    0.000    0.000 
#    0.000    0.000    0.000    0.000    0.000    0.000 
#
# Total GULP energy -267762.506867 kJ/mol
# GULP energy per Si atom -5578.385560 kJ/mol
# Density = 1.691378 g / cm^3
# Si number density = 16.952360 Si / 1000 Ang^3
#
#
#
# Elastic Constant Matrix: (Units=GPa)
#
#
# Indices 1 2 3 4 5 6 
#
# 1 127.9580 55.2566 92.4635 0.0000 0.0000 0.0000
# 2 55.2566 40.8232 51.6498 0.0000 0.0000 0.0000
# 3 92.4635 51.6498 108.8485 0.0000 0.0000 0.0000
# 4 0.0000 0.0000 0.0000 25.0590 0.0000 0.0000
# 5 0.0000 0.0000 0.0000 0.0000 24.7479 0.0000
# 6 0.0000 0.0000 0.0000 0.0000 0.0000 26.3879
#
#
#
# Elastic Compliance Matrix: (Units=1/GPa)
#
#
# Indices 1 2 3 4 5 6 
#
# 1 0.024112 -0.016821 -0.012501 0.000000 0.000000 0.000000
# 2 -0.016821 0.073029 -0.020364 0.000000 0.000000 0.000000
# 3 -0.012501 -0.020364 0.029469 0.000000 0.000000 0.000000
# 4 0.000000 0.000000 0.000000 0.039906 0.000000 0.000000
# 5 0.000000 0.000000 0.000000 0.000000 0.040407 0.000000
# 6 0.000000 0.000000 0.000000 0.000000 0.000000 0.037896
#
#
# Mechanical properties :
#
#
# Convention : Reuss Voigt Hill
#
# Bulk Modulus (GPa) = 36.71289 75.15217 55.93253
# Shear Modulus (GPa) = 14.15346 20.45629 17.30487
#
# Velocity S-wave (km/s) = 2.89259 3.47752 3.19845
# Velocity P-wave (km/s) = 5.73233 7.78150 6.83416
#
# Compressibility (1/GPa) = 0.02723839
#
# Stress axis : x y z
#
# Youngs Moduli (GPa) = 41.47293 13.69318 33.93414
#
# Poissons Ratio (x) = 0.23034 0.42420
# Poissons Ratio (y) = 0.69763 0.69103
# Poissons Ratio (z) = 0.51844 0.27885
#
# Static dielectric constant tensor:
#      x y z
#    x 1.569260 0.000000 0.000000 
#    y 0.000000 1.563880 0.000000 
#    z 0.000000 0.000000 1.541910 
# 
# From -- ./inp_files/20348.got.cif
#   From: 2010.05.17/outbox.cif.g08.bks.cpg/sg59_11_cif.got.tgz:20348.got - 2010.06.03 14:40:33.
