data_PCOD9447722
_publ_section_title
;
Structure prediction by ZEFSAII (Michael W. Deem and Ramdas Pophale) SiO2 
 PCOD9447722
Probable space group: P M M N
;
_chemical_formula_sum "Si O2"
_cell_formula_units_Z 48
_cell_length_a 27.216530
_cell_length_b 8.088222
_cell_length_c 12.289887
_cell_angle_alpha 90.000000
_cell_angle_beta 90.000000
_cell_angle_gamma 90.000000
_cell_volume 2705.413833
_symmetry_space_group_name_H-M "P M M N"
_symmetry_group_IT_number 59
_space_group.IT_coordinate_system_code '2'
_symmetry_cell_setting 'orthorhombic'
loop_
_space_group_symop_operation_xyz
x,y,z
1/2-x,1/2-y,z
1/2+x,-y,-z
-x,1/2+y,-z
-x,-y,-z
1/2+x,1/2+y,-z
1/2-x,y,z
x,1/2-y,z
loop_
_atom_site_type_symbol
_atom_site_label
_atom_site_fract_x
_atom_site_fract_y
_atom_site_fract_z
Si Si1 0.054622 0.552237 0.462286
Si Si2 0.040247 0.553682 0.859222
Si Si3 0.384786 0.945411 0.662416
Si Si4 0.805604 0.551591 0.169179
Si Si5 0.122724 0.443507 0.016574
Si Si6 0.566281 0.950373 0.785803
O O1 0.055509 0.750000 0.468519
O O2 0.095288 0.487243 0.548051
O O3 0.066334 0.500234 0.339577
O O4 0.000000 0.500000 0.500000
O O5 0.039732 0.750000 0.885184
O O6 0.070232 0.533748 0.747000
O O7 0.071884 0.460836 0.949520
O O8 0.985366 0.493207 0.838398
O O9 0.375695 0.750000 0.651050
O O10 0.337473 0.017700 0.722974
O O11 0.750000 0.488237 0.174534
O O12 0.803649 0.750000 0.157618
O O13 0.836036 0.484134 0.064461
O O14 0.134384 0.250000 0.029713
O O15 0.110417 0.511095 0.136369
O O16 0.565742 0.750000 0.789572
#
# Coordination Sequence:
#
# PCOD9447722 Si02
#       6
#     8   8   8   8   8   8
#     4  11  21  33  49  70 100 136 171 204 239 288
#     4   9  16  28  44  64  96 128 158 200 238 280
#     4   9  18  32  48  70  98 127 162 204 245 286
#     4   9  18  33  53  76  98 121 157 206 254 298
#     4   9  18  30  46  69  96 127 162 199 243 290
#     4  10  19  31  45  66  99 134 167 199 236 285
#
# _framework density 17.742201999999999
#
# number of rings (size 3 to 8) (size 9 to 14) (size 15 to 20)
#    0.000    2.500    1.667    1.000    0.000    3.000 
#    0.000    0.000    0.000    1.000    0.000    2.333 
#    0.000    0.000    0.000    0.000    0.000    0.000 
#
# Total GULP energy -267487.379927 kJ/mol
# GULP energy per Si atom -5572.653748 kJ/mol
# Density = 1.770182 g / cm^3
# Si number density = 17.742202 Si / 1000 Ang^3
#
#
#
# Elastic Constant Matrix: (Units=GPa)
#
#
# Indices 1 2 3 4 5 6 
#
# 1 125.3118 11.8202 72.8041 0.0000 0.0000 0.0000
# 2 11.8202 4.4774 1.9307 0.0000 0.0000 0.0000
# 3 72.8041 1.9307 111.9758 0.0000 0.0000 0.0000
# 4 0.0000 0.0000 0.0000 21.4121 0.0000 0.0000
# 5 0.0000 0.0000 0.0000 0.0000 9.7446 0.0000
# 6 0.0000 0.0000 0.0000 0.0000 0.0000 15.3924
#
#
#
# Elastic Compliance Matrix: (Units=1/GPa)
#
#
# Indices 1 2 3 4 5 6 
#
# 1 0.018918 -0.044973 -0.011524 0.000000 0.000000 0.000000
# 2 -0.044973 0.331928 0.023517 0.000000 0.000000 0.000000
# 3 -0.011524 0.023517 0.016018 0.000000 0.000000 0.000000
# 4 0.000000 0.000000 0.000000 0.046703 0.000000 0.000000
# 5 0.000000 0.000000 0.000000 0.000000 0.102621 0.000000
# 6 0.000000 0.000000 0.000000 0.000000 0.000000 0.064967
#
#
# Mechanical properties :
#
#
# Convention : Reuss Voigt Hill
#
# Bulk Modulus (GPa) = 3.32332 46.09721 24.71026
# Shear Modulus (GPa) = 6.68971 19.65714 13.17343
#
# Velocity S-wave (km/s) = 1.94389 3.33217 2.72782
# Velocity P-wave (km/s) = 2.62972 6.39082 4.88661
#
# Compressibility (1/GPa) = 0.30090419
#
# Stress axis : x y z
#
# Youngs Moduli (GPa) = 52.86064 3.01270 62.43001
#
# Poissons Ratio (x) = 0.13549 0.71947
# Poissons Ratio (y) = 2.37728 -1.46817
# Poissons Ratio (z) = 0.60919 -0.07085
#
# Static dielectric constant tensor:
#      x y z
#    x 1.605770 0.000000 0.000000 
#    y 0.000000 1.636580 0.000000 
#    z 0.000000 0.000000 1.638560 
# 
# From -- ./inp_files/14464.got.cif
#   From: 2010.05.17/outbox.cif.g08.bks.cpg/sg59_8_cif.got.tgz:14464.got - 2010.06.03 14:40:33.
