data_PCOD9447485
_publ_section_title
;
Structure prediction by ZEFSAII (Michael W. Deem and Ramdas Pophale) SiO2 
 PCOD9447485
Probable space group: P M M N
;
_chemical_formula_sum "Si O2"
_cell_formula_units_Z 56
_cell_length_a 19.114802
_cell_length_b 8.690634
_cell_length_c 21.476355
_cell_angle_alpha 90.000000
_cell_angle_beta 90.000000
_cell_angle_gamma 90.000000
_cell_volume 3567.646684
_symmetry_space_group_name_H-M "P M M N"
_symmetry_group_IT_number 59
_space_group.IT_coordinate_system_code '2'
_symmetry_cell_setting 'orthorhombic'
loop_
_space_group_symop_operation_xyz
x,y,z
1/2-x,1/2-y,z
1/2+x,-y,-z
-x,1/2+y,-z
-x,-y,-z
1/2+x,1/2+y,-z
1/2-x,y,z
x,1/2-y,z
loop_
_atom_site_type_symbol
_atom_site_label
_atom_site_fract_x
_atom_site_fract_y
_atom_site_fract_z
Si Si1 0.330295 0.564508 0.507916
Si Si2 0.462502 0.435195 0.938539
Si Si3 0.170108 0.063626 0.005720
Si Si4 0.962972 0.565893 0.438224
Si Si5 0.904678 0.434828 0.870715
Si Si6 0.100794 0.564658 0.375168
Si Si7 0.330962 0.065837 0.250960
O O1 0.250000 0.515589 0.516100
O O2 0.333133 0.750000 0.510429
O O3 0.384782 0.499234 0.558419
O O4 0.358281 0.519992 0.438829
O O5 0.464392 0.250000 0.940116
O O6 0.514027 0.482141 0.882663
O O7 0.500000 0.500000 0.000000
O O8 0.381907 0.480962 0.948990
O O9 0.250000 0.015183 0.996683
O O10 0.168710 0.250000 0.011170
O O11 0.139166 0.995556 0.069795
O O12 0.960562 0.750000 0.441902
O O13 0.000000 0.500000 0.500000
O O14 0.018624 0.524580 0.384437
O O15 0.900823 0.250000 0.869620
O O16 0.872813 0.500475 0.807802
O O17 0.105827 0.750000 0.370113
O O18 0.134878 0.489706 0.315175
O O19 0.250000 0.014287 0.248076
O O20 0.332049 0.250000 0.248326
#
# Coordination Sequence:
#
# PCOD9447485 Si02
#       7
#     8   8   8   8   8   8   8
#     4   9  17  29  46  69  95 120 146 179 220 263
#     4   8  15  27  42  61  83 109 141 173 208 251
#     4   9  16  27  44  65  89 113 137 172 215 254
#     4   9  17  29  45  65  89 117 148 182 221 264
#     4  10  19  30  44  61  85 117 148 177 209 251
#     4   9  18  32  47  63  87 119 151 182 215 254
#     4  11  23  34  44  62  87 115 148 183 217 255
#
# _framework density 15.696621
#
# number of rings (size 3 to 8) (size 9 to 14) (size 15 to 20)
#    0.000    2.714    0.000    3.000    0.000    7.429 
#    0.000    0.000    0.000    0.000    0.000    1.000 
#    0.000    5.714    0.000    0.000    0.000    0.000 
#
# Total GULP energy -311753.404429 kJ/mol
# GULP energy per Si atom -5567.025079 kJ/mol
# Density = 1.566089 g / cm^3
# Si number density = 15.696621 Si / 1000 Ang^3
#
#
#
# Elastic Constant Matrix: (Units=GPa)
#
#
# Indices 1 2 3 4 5 6 
#
# 1 99.3328 22.6226 19.2457 0.0000 0.0000 0.0000
# 2 22.6226 16.0719 13.7668 0.0000 0.0000 0.0000
# 3 19.2457 13.7668 39.3089 0.0000 0.0000 0.0000
# 4 0.0000 0.0000 0.0000 16.2998 0.0000 0.0000
# 5 0.0000 0.0000 0.0000 0.0000 27.4972 0.0000
# 6 0.0000 0.0000 0.0000 0.0000 0.0000 23.7657
#
#
#
# Elastic Compliance Matrix: (Units=1/GPa)
#
#
# Indices 1 2 3 4 5 6 
#
# 1 0.014817 -0.020918 0.000071 0.000000 0.000000 0.000000
# 2 -0.020918 0.118414 -0.031230 0.000000 0.000000 0.000000
# 3 0.000071 -0.031230 0.036342 0.000000 0.000000 0.000000
# 4 0.000000 0.000000 0.000000 0.061350 0.000000 0.000000
# 5 0.000000 0.000000 0.000000 0.000000 0.036367 0.000000
# 6 0.000000 0.000000 0.000000 0.000000 0.000000 0.042077
#
#
# Mechanical properties :
#
#
# Convention : Reuss Voigt Hill
#
# Bulk Modulus (GPa) = 15.28557 29.55375 22.41966
# Shear Modulus (GPa) = 11.48558 20.11778 15.80168
#
# Velocity S-wave (km/s) = 2.70797 3.58392 3.17628
# Velocity P-wave (km/s) = 4.42004 5.99958 5.26933
#
# Compressibility (1/GPa) = 0.06542117
#
# Stress axis : x y z
#
# Youngs Moduli (GPa) = 67.48888 8.44491 27.51633
#
# Poissons Ratio (x) = 0.17665 -0.00196
# Poissons Ratio (y) = 1.41170 0.85933
# Poissons Ratio (z) = -0.00481 0.26373
#
# Static dielectric constant tensor:
#      x y z
#    x 1.564980 0.000000 0.000000 
#    y 0.000000 1.529730 0.000000 
#    z 0.000000 0.000000 1.489400 
# 
# From -- ./inp_files/29296.got.cif
#   From: 2010.05.17/outbox.cif.g08.bks.cpg/sg59_15_cif.got.tgz:29296.got - 2010.06.03 14:40:33.
