data_PCOD9447124
_publ_section_title
;
Structure prediction by ZEFSAII (Michael W. Deem and Ramdas Pophale) SiO2 
 PCOD9447124
Probable space group: P M M N
;
_chemical_formula_sum "Si O2"
_cell_formula_units_Z 64
_cell_length_a 7.978602
_cell_length_b 15.229893
_cell_length_c 26.777694
_cell_angle_alpha 90.000000
_cell_angle_beta 90.000000
_cell_angle_gamma 90.000000
_cell_volume 3253.844753
_symmetry_space_group_name_H-M "P M M N"
_symmetry_group_IT_number 59
_space_group.IT_coordinate_system_code '2'
_symmetry_cell_setting 'orthorhombic'
loop_
_space_group_symop_operation_xyz
x,y,z
1/2-x,1/2-y,z
1/2+x,-y,-z
-x,1/2+y,-z
-x,-y,-z
1/2+x,1/2+y,-z
1/2-x,y,z
x,1/2-y,z
loop_
_atom_site_type_symbol
_atom_site_label
_atom_site_fract_x
_atom_site_fract_y
_atom_site_fract_z
Si Si1 0.450139 0.149535 0.367711
Si Si2 0.451620 0.898565 0.998003
Si Si3 0.944328 0.499602 0.294233
Si Si4 0.545427 0.153737 0.892854
Si Si5 0.548126 0.151014 0.112347
Si Si6 0.047670 0.500102 0.442424
Si Si7 0.450399 0.850550 0.367472
Si Si8 0.054077 0.995215 0.181606
O O1 0.250000 0.156642 0.373612
O O2 0.516206 0.250000 0.365475
O O3 0.513277 0.087308 0.413089
O O4 0.480268 0.088345 0.319253
O O5 0.250000 0.888188 0.997888
O O6 0.510835 0.861644 0.944947
O O7 0.513194 0.858003 0.050036
O O8 0.500000 0.000000 0.000000
O O9 0.750000 0.498874 0.306908
O O10 0.017884 0.588052 0.319197
O O11 0.968873 0.499767 0.235092
O O12 0.750000 0.147150 0.894483
O O13 0.500669 0.250000 0.874709
O O14 0.484507 0.079890 0.855165
O O15 0.750000 0.136774 0.112873
O O16 0.514825 0.250000 0.127895
O O17 0.465782 0.083319 0.149780
O O18 0.250000 0.500073 0.438661
O O19 0.987100 0.587589 0.413100
O O20 0.000000 0.500000 0.500000
O O21 0.250000 0.843684 0.372916
O O22 0.515976 0.750000 0.365309
O O23 0.250000 0.977441 0.190786
#
# Coordination Sequence:
#
# PCOD9447124 Si02
#       8
#     8   8   8   8   8   8   8   8
#     4   9  19  38  61  82 108 147 193 234 274 325
#     4  10  18  32  55  79 105 137 173 213 261 317
#     4  11  23  38  57  82 112 142 178 232 288 336
#     4   9  18  33  54  79 104 134 174 214 255 313
#     4  10  21  36  55  79 108 141 175 217 271 324
#     4   9  18  32  52  83 120 154 187 226 272 321
#     4   9  19  38  61  82 109 150 196 234 271 323
#     4  11  22  37  57  80 106 140 180 223 270 326
#
# _framework density 19.669039000000001
#
# number of rings (size 3 to 8) (size 9 to 14) (size 15 to 20)
#    0.000    2.250    1.250    2.625    0.000    5.750 
#    0.000    1.250    0.000    3.750    0.000    0.000 
#    0.000    0.000    0.000    0.000    0.000    0.000 
#
# Total GULP energy -356993.531794 kJ/mol
# GULP energy per Si atom -5578.023934 kJ/mol
# Density = 1.962427 g / cm^3
# Si number density = 19.669039 Si / 1000 Ang^3
#
#
#
# Elastic Constant Matrix: (Units=GPa)
#
#
# Indices 1 2 3 4 5 6 
#
# 1 15.3009 11.1186 0.6626 0.0000 0.0000 0.0000
# 2 11.1186 159.9323 67.9483 0.0000 0.0000 0.0000
# 3 0.6626 67.9483 141.1716 0.0000 0.0000 0.0000
# 4 0.0000 0.0000 0.0000 9.9540 0.0000 0.0000
# 5 0.0000 0.0000 0.0000 0.0000 18.0969 0.0000
# 6 0.0000 0.0000 0.0000 0.0000 0.0000 8.4471
#
#
#
# Elastic Compliance Matrix: (Units=1/GPa)
#
#
# Indices 1 2 3 4 5 6 
#
# 1 0.069536 -0.005903 0.002515 0.000000 0.000000 0.000000
# 2 -0.005903 0.008361 -0.003997 0.000000 0.000000 0.000000
# 3 0.002515 -0.003997 0.008995 0.000000 0.000000 0.000000
# 4 0.000000 0.000000 0.000000 0.100462 0.000000 0.000000
# 5 0.000000 0.000000 0.000000 0.000000 0.055258 0.000000
# 6 0.000000 0.000000 0.000000 0.000000 0.000000 0.118383
#
#
# Mechanical properties :
#
#
# Convention : Reuss Voigt Hill
#
# Bulk Modulus (GPa) = 13.86514 52.87376 33.36945
# Shear Modulus (GPa) = 12.50607 23.07796 17.79202
#
# Velocity S-wave (km/s) = 2.52429 3.42908 3.01087
# Velocity P-wave (km/s) = 3.94469 6.52826 5.39346
#
# Compressibility (1/GPa) = 0.07212332
#
# Stress axis : x y z
#
# Youngs Moduli (GPa) = 14.38105 119.60339 111.16801
#
# Poissons Ratio (x) = 0.70596 -0.27954
# Poissons Ratio (y) = 0.08488 0.44429
# Poissons Ratio (z) = -0.03616 0.47800
#
# Static dielectric constant tensor:
#      x y z
#    x 1.725450 0.000000 0.000000 
#    y 0.000000 1.748540 0.000000 
#    z 0.000000 0.000000 1.669240 
# 
# From -- ./inp_files/31685.got.cif
#   From: 2010.05.17/outbox.cif.g08.bks.cpg/sg59_16_cif.got.tgz:31685.got - 2010.06.03 14:40:33.
