data_PCOD9447781
_publ_section_title
;
Structure prediction by ZEFSAII (Michael W. Deem and Ramdas Pophale) SiO2 
 PCOD9447781
Probable space group: P M M N
;
_chemical_formula_sum "Si O2"
_cell_formula_units_Z 64
_cell_length_a 8.456980
_cell_length_b 18.141537
_cell_length_c 23.905125
_cell_angle_alpha 90.000000
_cell_angle_beta 90.000000
_cell_angle_gamma 90.000000
_cell_volume 3667.586803
_symmetry_space_group_name_H-M "P M M N"
_symmetry_group_IT_number 59
_space_group.IT_coordinate_system_code '2'
_symmetry_cell_setting 'orthorhombic'
loop_
_space_group_symop_operation_xyz
x,y,z
1/2-x,1/2-y,z
1/2+x,-y,-z
-x,1/2+y,-z
-x,-y,-z
1/2+x,1/2+y,-z
1/2-x,y,z
x,1/2-y,z
loop_
_atom_site_type_symbol
_atom_site_label
_atom_site_fract_x
_atom_site_fract_y
_atom_site_fract_z
Si Si1 0.561248 0.569152 0.463998
Si Si2 0.062724 0.976660 0.756583
Si Si3 0.062112 0.167515 0.185575
Si Si4 0.939500 0.393736 0.073355
Si Si5 0.562308 0.521451 0.632317
Si Si6 0.558118 0.547140 0.130639
Si Si7 0.057146 0.333517 0.436239
Si Si8 0.558378 0.834665 0.044061
O O1 0.500000 0.500000 0.500000
O O2 0.750000 0.568774 0.462932
O O3 0.500789 0.548555 0.402669
O O4 0.512434 0.640114 0.500754
O O5 0.250000 0.986974 0.750139
O O6 0.028800 0.895184 0.780648
O O7 0.983277 0.984392 0.696750
O O8 0.003265 0.030658 0.806293
O O9 0.250000 0.156408 0.192229
O O10 0.022286 0.250000 0.204153
O O11 0.017094 0.157784 0.120531
O O12 0.750000 0.386906 0.076610
O O13 0.983614 0.476574 0.092308
O O14 0.997210 0.373406 0.012018
O O15 0.750000 0.522325 0.625927
O O16 0.504540 0.599840 0.605148
O O17 0.750000 0.548522 0.133221
O O18 0.505054 0.619891 0.098534
O O19 0.250000 0.332334 0.433674
O O20 0.002910 0.250000 0.423848
O O21 0.750000 0.836242 0.042704
O O22 0.506774 0.750000 0.045067
#
# Coordination Sequence:
#
# PCOD9447781 Si02
#       8
#     8   8   8   8   8   8   8   8
#     4   9  16  28  48  71  96 127 161 197 234 275
#     4  10  20  34  51  69  92 124 164 206 241 278
#     4  10  20  33  48  67  94 127 160 194 235 286
#     4  10  19  31  48  69  95 124 153 189 233 287
#     4  10  19  31  49  72  98 129 164 200 238 285
#     4   8  17  33  49  67  91 121 156 194 238 283
#     4   8  15  28  47  72 100 127 155 190 232 276
#     4  10  19  31  49  71  93 117 149 193 243 294
#
# _framework density 17.450165999999999
#
# number of rings (size 3 to 8) (size 9 to 14) (size 15 to 20)
#    0.000    2.625    0.000    4.125    0.000    3.250 
#    0.000    4.375    0.000   13.875    0.000    3.500 
#    0.000    0.000    0.000    0.000    0.000    0.000 
#
# Total GULP energy -356619.169223 kJ/mol
# GULP energy per Si atom -5572.174519 kJ/mol
# Density = 1.741045 g / cm^3
# Si number density = 17.450166 Si / 1000 Ang^3
#
#
#
# Elastic Constant Matrix: (Units=GPa)
#
#
# Indices 1 2 3 4 5 6 
#
# 1 20.0941 9.4748 9.5716 0.0000 0.0000 0.0000
# 2 9.4748 54.1184 47.2992 0.0000 0.0000 0.0000
# 3 9.5716 47.2992 125.2754 0.0000 0.0000 0.0000
# 4 0.0000 0.0000 0.0000 8.5677 0.0000 0.0000
# 5 0.0000 0.0000 0.0000 0.0000 27.2252 0.0000
# 6 0.0000 0.0000 0.0000 0.0000 0.0000 14.2548
#
#
#
# Elastic Compliance Matrix: (Units=1/GPa)
#
#
# Indices 1 2 3 4 5 6 
#
# 1 0.054302 -0.008777 -0.000835 0.000000 0.000000 0.000000
# 2 -0.008777 0.028997 -0.010278 0.000000 0.000000 0.000000
# 3 -0.000835 -0.010278 0.011927 0.000000 0.000000 0.000000
# 4 0.000000 0.000000 0.000000 0.116717 0.000000 0.000000
# 5 0.000000 0.000000 0.000000 0.000000 0.036731 0.000000
# 6 0.000000 0.000000 0.000000 0.000000 0.000000 0.070152
#
#
# Mechanical properties :
#
#
# Convention : Reuss Voigt Hill
#
# Bulk Modulus (GPa) = 18.03538 36.90880 27.47209
# Shear Modulus (GPa) = 13.25950 18.88568 16.07259
#
# Velocity S-wave (km/s) = 2.75953 3.29335 3.03818
# Velocity P-wave (km/s) = 4.52892 5.97147 5.29951
#
# Compressibility (1/GPa) = 0.05544657
#
# Stress axis : x y z
#
# Youngs Moduli (GPa) = 18.41542 34.48602 83.84579
#
# Poissons Ratio (x) = 0.30269 0.07001
# Poissons Ratio (y) = 0.16164 0.86174
# Poissons Ratio (z) = 0.01538 0.35444
#
# Static dielectric constant tensor:
#      x y z
#    x 1.607080 0.000000 0.000000 
#    y 0.000000 1.602890 0.000000 
#    z 0.000000 0.000000 1.597260 
# 
# From -- ./inp_files/31708.got.cif
#   From: 2010.05.17/outbox.cif.g08.bks.cpg/sg59_16_cif.got.tgz:31708.got - 2010.06.03 14:40:33.
