data_PCOD9447922
_publ_section_title
;
Structure prediction by ZEFSAII (Michael W. Deem and Ramdas Pophale) SiO2 
 PCOD9447922
Probable space group: P M M N
;
_chemical_formula_sum "Si O2"
_cell_formula_units_Z 64
_cell_length_a 33.735420
_cell_length_b 8.064777
_cell_length_c 11.709788
_cell_angle_alpha 90.000000
_cell_angle_beta 90.000000
_cell_angle_gamma 90.000000
_cell_volume 3185.866088
_symmetry_space_group_name_H-M "P M M N"
_symmetry_group_IT_number 59
_space_group.IT_coordinate_system_code '2'
_symmetry_cell_setting 'orthorhombic'
loop_
_space_group_symop_operation_xyz
x,y,z
1/2-x,1/2-y,z
1/2+x,-y,-z
-x,1/2+y,-z
-x,-y,-z
1/2+x,1/2+y,-z
1/2-x,y,z
x,1/2-y,z
loop_
_atom_site_type_symbol
_atom_site_label
_atom_site_fract_x
_atom_site_fract_y
_atom_site_fract_z
Si Si1 0.872540 0.450017 0.444733
Si Si2 0.293888 0.549452 0.424648
Si Si3 0.295027 0.551535 0.964334
Si Si4 0.834950 0.945883 0.801769
Si Si5 0.136460 0.946652 0.808450
Si Si6 0.086633 0.050695 0.329514
Si Si7 0.481521 0.049008 0.170436
Si Si8 0.939626 0.945071 0.064788
O O1 0.874075 0.250000 0.443966
O O2 0.829368 0.502012 0.492238
O O3 0.876185 0.513237 0.315633
O O4 0.903745 0.505336 0.540512
O O5 0.250000 0.499528 0.461826
O O6 0.294935 0.750000 0.417181
O O7 0.304060 0.479293 0.300181
O O8 0.250000 0.485566 0.967551
O O9 0.292259 0.750000 0.950162
O O10 0.318205 0.521385 0.082504
O O11 0.323044 0.484845 0.862872
O O12 0.839347 0.750000 0.820743
O O13 0.876987 0.010512 0.751271
O O14 0.142432 0.750000 0.793385
O O15 0.100752 0.971868 0.896519
O O16 0.087414 0.250000 0.321432
O O17 0.044713 0.995395 0.278122
O O18 0.484603 0.250000 0.169368
O O19 0.525409 0.978825 0.155662
O O20 0.456996 0.997603 0.056926
O O21 0.932228 0.750000 0.055209
#
# Coordination Sequence:
#
# PCOD9447922 Si02
#       8
#     8   8   8   8   8   8   8   8
#     4   9  19  34  51  72  97 129 172 215 252 295
#     4   9  17  30  49  72  98 129 167 212 257 299
#     4  10  21  35  51  73 101 134 172 211 251 299
#     4  10  19  31  49  75 106 135 164 203 254 306
#     4  10  21  37  54  72 100 137 172 209 254 299
#     4   9  18  33  53  76 103 135 167 204 251 298
#     4   9  18  34  55  80 108 133 162 202 248 299
#     4  10  20  34  55  82 108 134 165 202 246 299
#
# _framework density 20.088729000000001
#
# number of rings (size 3 to 8) (size 9 to 14) (size 15 to 20)
#    0.000    2.500    0.000    1.875    0.000    6.000 
#    0.000    3.125    0.000    0.000    0.000    3.500 
#    0.000    0.000    0.000    0.000    0.000    0.000 
#
# Total GULP energy -357055.201604 kJ/mol
# GULP energy per Si atom -5578.987525 kJ/mol
# Density = 2.004301 g / cm^3
# Si number density = 20.088729 Si / 1000 Ang^3
#
#
#
# Elastic Constant Matrix: (Units=GPa)
#
#
# Indices 1 2 3 4 5 6 
#
# 1 43.1400 -0.9416 19.3242 0.0000 0.0000 0.0000
# 2 -0.9416 8.2114 2.9542 0.0000 0.0000 0.0000
# 3 19.3242 2.9542 66.6378 0.0000 0.0000 0.0000
# 4 0.0000 0.0000 0.0000 10.0913 0.0000 0.0000
# 5 0.0000 0.0000 0.0000 0.0000 8.5964 0.0000
# 6 0.0000 0.0000 0.0000 0.0000 0.0000 19.2828
#
#
#
# Elastic Compliance Matrix: (Units=1/GPa)
#
#
# Indices 1 2 3 4 5 6 
#
# 1 0.026928 0.005993 -0.008074 0.000000 0.000000 0.000000
# 2 0.005993 0.125090 -0.007283 0.000000 0.000000 0.000000
# 3 -0.008074 -0.007283 0.017671 0.000000 0.000000 0.000000
# 4 0.000000 0.000000 0.000000 0.099096 0.000000 0.000000
# 5 0.000000 0.000000 0.000000 0.000000 0.116328 0.000000
# 6 0.000000 0.000000 0.000000 0.000000 0.000000 0.051860
#
#
# Mechanical properties :
#
#
# Convention : Reuss Voigt Hill
#
# Bulk Modulus (GPa) = 6.62433 17.85140 12.23787
# Shear Modulus (GPa) = 9.88101 14.03759 11.95930
#
# Velocity S-wave (km/s) = 2.22022 2.64631 2.44257
# Velocity P-wave (km/s) = 3.14280 4.27117 3.74967
#
# Compressibility (1/GPa) = 0.15095870
#
# Stress axis : x y z
#
# Youngs Moduli (GPa) = 37.13603 7.99427 56.59027
#
# Poissons Ratio (x) = -0.04791 0.45694
# Poissons Ratio (y) = -0.22255 0.41216
# Poissons Ratio (z) = 0.29985 0.05822
#
# Static dielectric constant tensor:
#      x y z
#    x 1.716280 0.000000 0.000000 
#    y 0.000000 1.722100 0.000000 
#    z 0.000000 0.000000 1.707020 
# 
# From -- ./inp_files/19330.got.cif
#   From: 2010.05.17/outbox.cif.g08.bks.cpg/sg59_10_cif.got.tgz:19330.got - 2010.06.03 14:40:33.
