data_PCOD9447671
_publ_section_title
;
Structure prediction by ZEFSAII (Michael W. Deem and Ramdas Pophale) SiO2 
 PCOD9447671
Probable space group: P M M N
;
_chemical_formula_sum "Si O2"
_cell_formula_units_Z 48
_cell_length_a 8.856698
_cell_length_b 30.535826
_cell_length_c 10.325736
_cell_angle_alpha 90.000000
_cell_angle_beta 90.000000
_cell_angle_gamma 90.000000
_cell_volume 2792.560081
_symmetry_space_group_name_H-M "P M M N"
_symmetry_group_IT_number 59
_space_group.IT_coordinate_system_code '2'
_symmetry_cell_setting 'orthorhombic'
loop_
_space_group_symop_operation_xyz
x,y,z
1/2-x,1/2-y,z
1/2+x,-y,-z
-x,1/2+y,-z
-x,-y,-z
1/2+x,1/2+y,-z
1/2-x,y,z
x,1/2-y,z
loop_
_atom_site_type_symbol
_atom_site_label
_atom_site_fract_x
_atom_site_fract_y
_atom_site_fract_z
Si Si1 0.573792 0.201533 0.025289
Si Si2 0.569619 0.021189 0.628134
Si Si3 0.071459 0.389632 0.715889
Si Si4 0.072507 0.111483 0.026779
Si Si5 0.573477 0.298448 0.711096
Si Si6 0.429681 0.525306 0.877857
O O1 0.750000 0.195034 0.059668
O O2 0.526141 0.250000 0.070250
O O3 0.474467 0.160470 0.066539
O O4 0.567361 0.202288 0.868218
O O5 0.750000 0.018654 0.626294
O O6 0.517303 0.071400 0.646734
O O7 0.500000 0.000000 0.500000
O O8 0.503303 0.994812 0.750151
O O9 0.250000 0.394938 0.695973
O O10 0.018294 0.341415 0.671736
O O11 0.043482 0.393016 0.871616
O O12 0.250000 0.103758 0.047543
O O13 0.974768 0.075699 0.101378
O O14 0.750000 0.303229 0.675882
O O15 0.521047 0.250000 0.667220
O O16 0.250000 0.519391 0.875173
O O17 0.500000 0.500000 0.000000
#
# Coordination Sequence:
#
# PCOD9447671 Si02
#       6
#     8   8   8   8   8   8
#     4   8  14  25  41  64  98 137 174 214 264 318
#     4  12  25  41  59  79 108 144 182 227 275 327
#     4  10  19  31  49  74 106 140 178 220 267 320
#     4  10  19  30  48  75 106 139 178 222 268 317
#     4   8  14  25  42  66  98 135 174 215 263 316
#     4  12  23  37  57  81 108 141 182 224 269 319
#
# _framework density 17.18853
#
# number of rings (size 3 to 8) (size 9 to 14) (size 15 to 20)
#    0.000    2.000    1.667    5.000    0.000    2.000 
#    0.000    3.333    0.000    0.000    0.000    1.167 
#    0.000    9.333    0.000    0.000    0.000    0.000 
#
# Total GULP energy -267771.509638 kJ/mol
# GULP energy per Si atom -5578.573117 kJ/mol
# Density = 1.714941 g / cm^3
# Si number density = 17.188530 Si / 1000 Ang^3
#
#
#
# Elastic Constant Matrix: (Units=GPa)
#
#
# Indices 1 2 3 4 5 6 
#
# 1 126.0959 77.3949 46.9442 0.0000 0.0000 0.0000
# 2 77.3949 142.6266 44.2197 0.0000 0.0000 0.0000
# 3 46.9442 44.2197 66.6137 0.0000 0.0000 0.0000
# 4 0.0000 0.0000 0.0000 10.8281 0.0000 0.0000
# 5 0.0000 0.0000 0.0000 0.0000 18.5546 0.0000
# 6 0.0000 0.0000 0.0000 0.0000 0.0000 35.7039
#
#
#
# Elastic Compliance Matrix: (Units=1/GPa)
#
#
# Indices 1 2 3 4 5 6 
#
# 1 0.013487 -0.005505 -0.005851 0.000000 0.000000 0.000000
# 2 -0.005505 0.011075 -0.003472 0.000000 0.000000 0.000000
# 3 -0.005851 -0.003472 0.021440 0.000000 0.000000 0.000000
# 4 0.000000 0.000000 0.000000 0.092352 0.000000 0.000000
# 5 0.000000 0.000000 0.000000 0.000000 0.053895 0.000000
# 6 0.000000 0.000000 0.000000 0.000000 0.000000 0.028008
#
#
# Mechanical properties :
#
#
# Convention : Reuss Voigt Hill
#
# Bulk Modulus (GPa) = 61.17469 74.71709 67.94589
# Shear Modulus (GPa) = 19.58001 24.13583 21.85792
#
# Velocity S-wave (km/s) = 3.37876 3.75131 3.56990
# Velocity P-wave (km/s) = 7.13366 7.89472 7.52382
#
# Compressibility (1/GPa) = 0.01634663
#
# Stress axis : x y z
#
# Youngs Moduli (GPa) = 74.14362 90.29286 46.64166
#
# Poissons Ratio (x) = 0.49705 0.27288
# Poissons Ratio (y) = 0.40815 0.16196
# Poissons Ratio (z) = 0.43378 0.31354
#
# Static dielectric constant tensor:
#      x y z
#    x 1.571750 0.000000 0.000000 
#    y 0.000000 1.613090 0.000000 
#    z 0.000000 0.000000 1.512750 
# 
# From -- ./inp_files/6314.got.cif
#   From: 2010.05.17/outbox.cif.g08.bks.cpg/sg59_4_cif.got.tgz:6314.got - 2010.06.03 14:40:33.
