data_PCOD9447183
_publ_section_title
;
Structure prediction by ZEFSAII (Michael W. Deem and Ramdas Pophale) SiO2 
 PCOD9447183
Probable space group: P M M N
;
_chemical_formula_sum "Si O2"
_cell_formula_units_Z 64
_cell_length_a 15.375973
_cell_length_b 25.021018
_cell_length_c 9.256609
_cell_angle_alpha 90.000000
_cell_angle_beta 90.000000
_cell_angle_gamma 90.000000
_cell_volume 3561.225730
_symmetry_space_group_name_H-M "P M M N"
_symmetry_group_IT_number 59
_space_group.IT_coordinate_system_code '2'
_symmetry_cell_setting 'orthorhombic'
loop_
_space_group_symop_operation_xyz
x,y,z
1/2-x,1/2-y,z
1/2+x,-y,-z
-x,1/2+y,-z
-x,-y,-z
1/2+x,1/2+y,-z
1/2-x,y,z
x,1/2-y,z
loop_
_atom_site_type_symbol
_atom_site_label
_atom_site_fract_x
_atom_site_fract_y
_atom_site_fract_z
Si Si1 0.930808 0.540721 0.067563
Si Si2 0.649168 0.001964 0.548753
Si Si3 0.068745 0.385558 0.457715
Si Si4 0.152333 0.548836 0.772916
Si Si5 0.487954 0.123714 0.148208
Si Si6 0.943895 0.406470 0.703063
Si Si7 0.653007 0.811739 0.312907
Si Si8 0.021493 0.810943 0.122715
O O1 0.854222 0.503444 0.124217
O O2 0.976761 0.567196 0.206793
O O3 0.922858 0.586081 0.946230
O O4 0.000000 0.500000 0.000000
O O5 0.750000 0.988356 0.564057
O O6 0.636470 0.027712 0.389942
O O7 0.621728 0.046090 0.666566
O O8 0.594749 0.947626 0.560301
O O9 0.054009 0.361793 0.300170
O O10 0.135435 0.352471 0.556366
O O11 0.980712 0.385116 0.551771
O O12 0.250000 0.571421 0.780577
O O13 0.075455 0.589217 0.817793
O O14 0.511894 0.172106 0.043119
O O15 0.918402 0.355492 0.799325
O O16 0.750000 0.821473 0.252221
O O17 0.650072 0.750000 0.363602
O O18 0.573705 0.816674 0.199502
O O19 0.049715 0.750000 0.141216
#
# Coordination Sequence:
#
# PCOD9447183 Si02
#       8
#     8   8   8   8   8   8   8   8
#     4   9  17  31  47  71 101 141 176 202 249 312
#     4  11  20  30  50  81 111 142 180 220 266 320
#     4  11  19  32  53  80 110 143 178 219 262 318
#     4  10  19  32  51  75 105 142 180 215 259 316
#     4  10  20  34  52  77 106 137 176 223 269 312
#     4  10  18  33  53  73 105 142 175 222 266 317
#     4   9  19  37  58  79 105 140 182 223 267 318
#     4   9  20  38  59  79  99 137 186 223 268 330
#
# _framework density 17.971340999999999
#
# number of rings (size 3 to 8) (size 9 to 14) (size 15 to 20)
#    0.000    2.125    2.500    2.250    0.000    0.500 
#    0.000   11.875    0.000    3.000    0.000    1.750 
#    0.000    0.000    0.000    0.000    0.000    0.000 
#
# Total GULP energy -356598.782106 kJ/mol
# GULP energy per Si atom -5571.855970 kJ/mol
# Density = 1.793044 g / cm^3
# Si number density = 17.971341 Si / 1000 Ang^3
#
#
#
# Elastic Constant Matrix: (Units=GPa)
#
#
# Indices 1 2 3 4 5 6 
#
# 1 35.1222 8.2373 8.6552 0.0000 0.0000 0.0000
# 2 8.2373 81.2619 18.1528 0.0000 0.0000 0.0000
# 3 8.6552 18.1528 90.0667 0.0000 0.0000 0.0000
# 4 0.0000 0.0000 0.0000 24.3564 0.0000 0.0000
# 5 0.0000 0.0000 0.0000 0.0000 13.8594 0.0000
# 6 0.0000 0.0000 0.0000 0.0000 0.0000 18.7859
#
#
#
# Elastic Compliance Matrix: (Units=1/GPa)
#
#
# Indices 1 2 3 4 5 6 
#
# 1 0.029632 -0.002479 -0.002348 0.000000 0.000000 0.000000
# 2 -0.002479 0.013093 -0.002401 0.000000 0.000000 0.000000
# 3 -0.002348 -0.002401 0.011812 0.000000 0.000000 0.000000
# 4 0.000000 0.000000 0.000000 0.041057 0.000000 0.000000
# 5 0.000000 0.000000 0.000000 0.000000 0.072153 0.000000
# 6 0.000000 0.000000 0.000000 0.000000 0.000000 0.053231
#
#
# Mechanical properties :
#
#
# Convention : Reuss Voigt Hill
#
# Bulk Modulus (GPa) = 24.94868 30.72680 27.83774
# Shear Modulus (GPa) = 20.09680 22.82739 21.46209
#
# Velocity S-wave (km/s) = 3.34768 3.56787 3.45953
# Velocity P-wave (km/s) = 5.37171 5.84018 5.61084
#
# Compressibility (1/GPa) = 0.04008227
#
# Stress axis : x y z
#
# Youngs Moduli (GPa) = 33.74721 76.37380 84.65705
#
# Poissons Ratio (x) = 0.18935 0.19876
# Poissons Ratio (y) = 0.08367 0.20324
# Poissons Ratio (z) = 0.07923 0.18335
#
# Static dielectric constant tensor:
#      x y z
#    x 1.615780 0.000000 0.000000 
#    y 0.000000 1.721950 0.000000 
#    z 0.000000 0.000000 1.789980 
# 
# From -- ./inp_files/10820.got.cif
#   From: 2010.05.17/outbox.cif.g08.bks.cpg/sg59_6_cif.got.tgz:10820.got - 2010.06.03 14:40:33.
