data_PCOD9447080
_publ_section_title
;
Structure prediction by ZEFSAII (Michael W. Deem and Ramdas Pophale) SiO2 
 PCOD9447080
Probable space group: P M M N
;
_chemical_formula_sum "Si O2"
_cell_formula_units_Z 56
_cell_length_a 8.673832
_cell_length_b 15.603365
_cell_length_c 19.493656
_cell_angle_alpha 90.000000
_cell_angle_beta 90.000000
_cell_angle_gamma 90.000000
_cell_volume 2638.290246
_symmetry_space_group_name_H-M "P M M N"
_symmetry_group_IT_number 59
_space_group.IT_coordinate_system_code '2'
_symmetry_cell_setting 'orthorhombic'
loop_
_space_group_symop_operation_xyz
x,y,z
1/2-x,1/2-y,z
1/2+x,-y,-z
-x,1/2+y,-z
-x,-y,-z
1/2+x,1/2+y,-z
1/2-x,y,z
x,1/2-y,z
loop_
_atom_site_type_symbol
_atom_site_label
_atom_site_fract_x
_atom_site_fract_y
_atom_site_fract_z
Si Si1 0.431754 0.595417 0.138702
Si Si2 0.066644 0.402238 1.000000
Si Si3 0.062420 0.148665 0.573650
Si Si4 0.562420 0.648665 0.573650
Si Si5 0.925046 0.647822 0.279242
Si Si6 0.574954 0.852178 0.720758
Si Si7 0.568246 0.095417 0.138702
O O1 0.250000 0.593253 0.128663
O O2 0.507353 0.637662 0.071181
O O3 0.475190 0.633840 0.211975
O O4 0.500000 0.500000 0.141909
O O5 0.250000 0.405670 1.000000
O O6 0.000000 0.500000 0.000000
O O7 0.007353 0.362337 0.071181
O O8 0.250000 0.144363 0.575383
O O9 0.022274 0.250000 0.571684
O O10 0.010639 0.111611 0.500000
O O11 0.011357 0.113475 0.647740
O O12 0.750000 0.644363 0.575383
O O13 0.522274 0.750000 0.571684
O O14 0.511357 0.613475 0.647740
O O15 0.750000 0.614490 0.267508
O O16 0.912679 0.750000 0.288514
O O17 0.750000 0.885510 0.732492
O O18 0.587321 0.750000 0.711485
O O19 0.475190 0.866160 0.788025
O O20 0.750000 0.093253 0.128663
#
# Coordination Sequence:
#
# PCOD9447080 Si02
#       7
#     8   8   8   8   8   8   8
#     4  11  21  34  52  73  98 127 162 200 239 285
#     4  10  18  32  53  74  95 120 157 199 239 285
#     4   7  10  19  39  67  95 123 157 195 233 277
#     4   7  10  19  39  67  95 123 157 195 233 277
#     4   9  17  30  49  74 103 131 160 197 242 289
#     4   9  17  30  49  74 103 131 160 197 242 289
#     4  11  21  34  52  73  98 127 162 200 239 285
#
# _framework density 21.225867999999998
#
# number of rings (size 3 to 8) (size 9 to 14) (size 15 to 20)
#    0.000    2.857    0.000    8.143    0.000    0.571 
#    0.000    0.714    0.000    6.000    0.000    4.000 
#    0.000    0.000    0.000    0.000    0.000    0.000 
#
# Total GULP energy -311914.637411 kJ/mol
# GULP energy per Si atom -5569.904239 kJ/mol
# Density = 2.117756 g / cm^3
# Si number density = 21.225868 Si / 1000 Ang^3
#
#
#
# Elastic Constant Matrix: (Units=GPa)
#
#
# Indices 1 2 3 4 5 6 
#
# 1 119.2680 0.6399 71.0074 0.0000 0.0000 0.0000
# 2 0.6399 19.3929 14.9841 0.0000 0.0000 0.0000
# 3 71.0074 14.9841 247.0749 0.0000 0.0000 0.0000
# 4 0.0000 0.0000 0.0000 23.5564 0.0000 0.0000
# 5 0.0000 0.0000 0.0000 0.0000 -4.6081 0.0000
# 6 0.0000 0.0000 0.0000 0.0000 0.0000 10.5359
#
#
#
# Elastic Compliance Matrix: (Units=1/GPa)
#
#
# Indices 1 2 3 4 5 6 
#
# 1 0.010190 0.002021 -0.003051 0.000000 0.000000 0.000000
# 2 0.002021 0.054501 -0.003886 0.000000 0.000000 0.000000
# 3 -0.003051 -0.003886 0.005160 0.000000 0.000000 0.000000
# 4 0.000000 0.000000 0.000000 0.042451 0.000000 0.000000
# 5 0.000000 0.000000 0.000000 0.000000 -0.217011 0.000000
# 6 0.000000 0.000000 0.000000 0.000000 0.000000 0.094914
#
#
# Mechanical properties :
#
#
# Convention : Reuss Voigt Hill
#
# Bulk Modulus (GPa) = 16.66135 62.11097 39.38616
# Shear Modulus (GPa) = 249.45324 25.83714 137.64519
#
# Velocity S-wave (km/s) = 10.85257 3.49269 8.06155
# Velocity P-wave (km/s) = 12.84151 6.75209 10.25902
#
# Compressibility (1/GPa) = 0.06001915
#
# Stress axis : x y z
#
# Youngs Moduli (GPa) = 98.13376 18.34822 193.80155
#
# Poissons Ratio (x) = -0.03709 0.59132
# Poissons Ratio (y) = -0.19836 0.75315
# Poissons Ratio (z) = 0.29942 0.07130
#
# Static dielectric constant tensor:
#      x y z
#    x 1.718470 0.000000 0.000000 
#    y 0.000000 1.809970 0.000000 
#    z 0.000000 0.000000 1.902070 
# 
# From -- ./inp_files/26099.got.cif
#   From: 2010.05.17/outbox.cif.g08.bks.cpg/sg59_14_cif.got.tgz:26099.got - 2010.06.03 14:40:33.
