data_PCOD9447015
_publ_section_title
;
Structure prediction by ZEFSAII (Michael W. Deem and Ramdas Pophale) SiO2 
 PCOD9447015
Probable space group: P M M N
;
_chemical_formula_sum "Si O2"
_cell_formula_units_Z 56
_cell_length_a 7.483580
_cell_length_b 15.796392
_cell_length_c 22.187614
_cell_angle_alpha 90.000000
_cell_angle_beta 90.000000
_cell_angle_gamma 90.000000
_cell_volume 2622.876911
_symmetry_space_group_name_H-M "P M M N"
_symmetry_group_IT_number 59
_space_group.IT_coordinate_system_code '2'
_symmetry_cell_setting 'orthorhombic'
loop_
_space_group_symop_operation_xyz
x,y,z
1/2-x,1/2-y,z
1/2+x,-y,-z
-x,1/2+y,-z
-x,-y,-z
1/2+x,1/2+y,-z
1/2-x,y,z
x,1/2-y,z
loop_
_atom_site_type_symbol
_atom_site_label
_atom_site_fract_x
_atom_site_fract_y
_atom_site_fract_z
Si Si1 0.463532 0.900494 0.993872
Si Si2 0.034445 0.843964 0.862578
Si Si3 0.462368 0.990070 0.212646
Si Si4 0.965397 0.154552 0.421429
Si Si5 0.031490 0.843496 0.123876
Si Si6 0.531962 0.153308 0.558988
Si Si7 0.461320 0.512448 0.348053
O O1 0.250000 0.887524 0.992731
O O2 0.529696 0.857412 0.055118
O O3 0.532048 0.866745 0.929945
O O4 0.500000 0.000000 0.000000
O O5 0.250000 0.842548 0.865180
O O6 0.973273 0.750000 0.845322
O O7 0.986830 0.918070 0.816727
O O8 0.250000 0.975768 0.216297
O O9 0.535356 0.984445 0.280349
O O10 0.532648 0.918641 0.166939
O O11 0.750000 0.156212 0.422173
O O12 0.025709 0.250000 0.405627
O O13 0.024902 0.135665 0.490096
O O14 0.019002 0.080274 0.376790
O O15 0.250000 0.847014 0.122640
O O16 0.980993 0.750000 0.145162
O O17 0.750000 0.151367 0.558604
O O18 0.480564 0.250000 0.574121
O O19 0.466726 0.083293 0.605958
O O20 0.250000 0.529427 0.343641
#
# Coordination Sequence:
#
# PCOD9447015 Si02
#       7
#     8   8   8   8   8   8   8
#     4  10  18  31  54  78 101 127 160 206 255 297
#     4  10  21  36  54  75  99 132 173 211 249 295
#     4  10  21  35  50  74 104 134 168 206 249 297
#     4   9  18  33  53  75  99 131 169 205 246 298
#     4   9  17  31  52  75  99 128 162 201 246 296
#     4   8  15  30  52  77 103 129 161 205 252 297
#     4  10  20  32  50  76 104 132 165 206 251 295
#
# _framework density 21.350601000000001
#
# number of rings (size 3 to 8) (size 9 to 14) (size 15 to 20)
#    0.000    2.571    1.429    1.714    0.000    4.000 
#    0.000    5.714    0.000    3.857    0.000    2.000 
#    0.000    0.000    0.000    0.000    0.000    0.000 
#
# Total GULP energy -312709.957026 kJ/mol
# GULP energy per Si atom -5584.106375 kJ/mol
# Density = 2.130201 g / cm^3
# Si number density = 21.350601 Si / 1000 Ang^3
#
#
#
# Elastic Constant Matrix: (Units=GPa)
#
#
# Indices 1 2 3 4 5 6 
#
# 1 58.3387 -13.0022 -1.1530 0.0000 0.0000 0.0000
# 2 -13.0022 104.5799 43.8975 0.0000 0.0000 0.0000
# 3 -1.1530 43.8975 105.3296 0.0000 0.0000 0.0000
# 4 0.0000 0.0000 0.0000 -3.7344 0.0000 0.0000
# 5 0.0000 0.0000 0.0000 0.0000 11.4483 0.0000
# 6 0.0000 0.0000 0.0000 0.0000 0.0000 17.0847
#
#
#
# Elastic Compliance Matrix: (Units=1/GPa)
#
#
# Indices 1 2 3 4 5 6 
#
# 1 0.017696 0.002568 -0.000877 0.000000 0.000000 0.000000
# 2 0.002568 0.011962 -0.004957 0.000000 0.000000 0.000000
# 3 -0.000877 -0.004957 0.011550 0.000000 0.000000 0.000000
# 4 0.000000 0.000000 0.000000 -0.267783 0.000000 0.000000
# 5 0.000000 0.000000 0.000000 0.000000 0.087349 0.000000
# 6 0.000000 0.000000 0.000000 0.000000 0.000000 0.058532
#
#
# Mechanical properties :
#
#
# Convention : Reuss Voigt Hill
#
# Bulk Modulus (GPa) = 28.83721 36.41474 32.62598
# Shear Modulus (GPa) = -79.86914 20.86011 -29.50451
#
# Velocity S-wave (km/s) = -6.12287 3.12913 -3.72143
# Velocity P-wave (km/s) = 6.03741 5.49071 1.77516
#
# Compressibility (1/GPa) = 0.03467741
#
# Stress axis : x y z
#
# Youngs Moduli (GPa) = 56.50887 83.59684 86.57691
#
# Poissons Ratio (x) = -0.21469 0.07589
# Poissons Ratio (y) = -0.14512 0.42919
# Poissons Ratio (z) = 0.04953 0.41441
#
# Static dielectric constant tensor:
#      x y z
#    x 1.864350 0.000000 0.000000 
#    y 0.000000 1.740090 0.000000 
#    z 0.000000 0.000000 1.751690 
# 
# From -- ./inp_files/29026.got.cif
#   From: 2010.05.17/outbox.cif.g08.bks.cpg/sg59_15_cif.got.tgz:29026.got - 2010.06.03 14:40:33.
