data_PCOD9447353
_publ_section_title
;
Structure prediction by ZEFSAII (Michael W. Deem and Ramdas Pophale) SiO2 
 PCOD9447353
Probable space group: P M M N
;
_chemical_formula_sum "Si O2"
_cell_formula_units_Z 56
_cell_length_a 25.255047
_cell_length_b 8.933334
_cell_length_c 16.580642
_cell_angle_alpha 90.000000
_cell_angle_beta 90.000000
_cell_angle_gamma 90.000000
_cell_volume 3740.787990
_symmetry_space_group_name_H-M "P M M N"
_symmetry_group_IT_number 59
_space_group.IT_coordinate_system_code '2'
_symmetry_cell_setting 'orthorhombic'
loop_
_space_group_symop_operation_xyz
x,y,z
1/2-x,1/2-y,z
1/2+x,-y,-z
-x,1/2+y,-z
-x,-y,-z
1/2+x,1/2+y,-z
1/2-x,y,z
x,1/2-y,z
loop_
_atom_site_type_symbol
_atom_site_label
_atom_site_fract_x
_atom_site_fract_y
_atom_site_fract_z
Si Si1 0.602490 0.928900 0.614049
Si Si2 0.989799 0.428784 0.300868
Si Si3 0.490905 0.428937 0.872418
Si Si4 0.554396 0.070447 0.466549
Si Si5 0.809897 0.569570 0.905169
Si Si6 0.312147 0.926995 0.270286
Si Si7 0.581381 0.930133 0.978789
O O1 0.605052 0.750000 0.606806
O O2 0.548007 0.965206 0.662617
O O3 0.598232 0.002139 0.525466
O O4 0.650718 0.992662 0.665378
O O5 0.988685 0.250000 0.287921
O O6 0.981579 0.510676 0.216886
O O7 0.947437 0.465212 0.371340
O O8 0.495158 0.250000 0.871325
O O9 0.544443 0.497557 0.910210
O O10 0.444314 0.471843 0.935363
O O11 0.552776 0.250000 0.474624
O O12 0.500000 0.000000 0.500000
O O13 0.750000 0.527060 0.930113
O O14 0.810861 0.750000 0.896168
O O15 0.820791 0.496741 0.818234
O O16 0.857616 0.527453 0.964719
O O17 0.250000 0.947740 0.289330
O O18 0.323427 0.750000 0.268425
O O19 0.577404 0.750000 0.971362
#
# Coordination Sequence:
#
# PCOD9447353 Si02
#       7
#     8   8   8   8   8   8   8
#     4  10  19  30  45  64  87 116 146 177 214 254
#     4   9  18  30  43  62  88 115 141 172 212 255
#     4  10  19  28  42  63  86 115 146 176 213 258
#     4   9  17  29  44  63  87 113 142 174 210 253
#     4   9  17  30  47  63  82 112 146 179 216 256
#     4  10  20  31  43  63  90 116 144 178 213 252
#     4   9  18  31  43  60  87 113 142 179 217 259
#
# _framework density 14.970108
#
# number of rings (size 3 to 8) (size 9 to 14) (size 15 to 20)
#    0.000    2.571    0.000    3.429    0.000    8.857 
#    0.000    0.000    0.000    0.000    0.000    1.000 
#    0.000    3.429    0.000    0.000    0.000    0.000 
#
# Total GULP energy -312044.054872 kJ/mol
# GULP energy per Si atom -5572.215266 kJ/mol
# Density = 1.493604 g / cm^3
# Si number density = 14.970108 Si / 1000 Ang^3
#
#
#
# Elastic Constant Matrix: (Units=GPa)
#
#
# Indices 1 2 3 4 5 6 
#
# 1 81.7985 33.1115 55.0214 0.0000 0.0000 0.0000
# 2 33.1115 33.6898 40.0853 0.0000 0.0000 0.0000
# 3 55.0214 40.0853 111.7905 0.0000 0.0000 0.0000
# 4 0.0000 0.0000 0.0000 27.8572 0.0000 0.0000
# 5 0.0000 0.0000 0.0000 0.0000 25.7301 0.0000
# 6 0.0000 0.0000 0.0000 0.0000 0.0000 19.9974
#
#
#
# Elastic Compliance Matrix: (Units=1/GPa)
#
#
# Indices 1 2 3 4 5 6 
#
# 1 0.022004 -0.015244 -0.005364 0.000000 0.000000 0.000000
# 2 -0.015244 0.062331 -0.014848 0.000000 0.000000 0.000000
# 3 -0.005364 -0.014848 0.016909 0.000000 0.000000 0.000000
# 4 0.000000 0.000000 0.000000 0.035897 0.000000 0.000000
# 5 0.000000 0.000000 0.000000 0.000000 0.038865 0.000000
# 6 0.000000 0.000000 0.000000 0.000000 0.000000 0.050007
#
#
# Mechanical properties :
#
#
# Convention : Reuss Voigt Hill
#
# Bulk Modulus (GPa) = 32.96696 53.74615 43.35656
# Shear Modulus (GPa) = 16.28480 21.32097 18.80289
#
# Velocity S-wave (km/s) = 3.30179 3.77800 3.54789
# Velocity P-wave (km/s) = 6.05024 7.41696 6.76819
#
# Compressibility (1/GPa) = 0.03033340
#
# Stress axis : x y z
#
# Youngs Moduli (GPa) = 45.44680 16.04334 59.13937
#
# Poissons Ratio (x) = 0.24457 0.31721
# Poissons Ratio (y) = 0.69280 0.87807
# Poissons Ratio (z) = 0.24376 0.23820
#
# Static dielectric constant tensor:
#      x y z
#    x 1.505180 0.000000 0.000000 
#    y 0.000000 1.498080 0.000000 
#    z 0.000000 0.000000 1.493960 
# 
# From -- ./inp_files/28381.got.cif
#   From: 2010.05.17/outbox.cif.g08.bks.cpg/sg59_15_cif.got.tgz:28381.got - 2010.06.03 14:40:33.
