data_PCOD9447608
_publ_section_title
;
Structure prediction by ZEFSAII (Michael W. Deem and Ramdas Pophale) SiO2 
 PCOD9447608
Probable space group: P M M N
;
_chemical_formula_sum "Si O2"
_cell_formula_units_Z 48
_cell_length_a 8.951552
_cell_length_b 14.037373
_cell_length_c 24.224938
_cell_angle_alpha 90.000000
_cell_angle_beta 90.000000
_cell_angle_gamma 90.000000
_cell_volume 3044.015456
_symmetry_space_group_name_H-M "P M M N"
_symmetry_group_IT_number 59
_space_group.IT_coordinate_system_code '2'
_symmetry_cell_setting 'orthorhombic'
loop_
_space_group_symop_operation_xyz
x,y,z
1/2-x,1/2-y,z
1/2+x,-y,-z
-x,1/2+y,-z
-x,-y,-z
1/2+x,1/2+y,-z
1/2-x,y,z
x,1/2-y,z
loop_
_atom_site_type_symbol
_atom_site_label
_atom_site_fract_x
_atom_site_fract_y
_atom_site_fract_z
Si Si1 0.928376 0.361959 0.690322
Si Si2 0.928246 0.862162 0.191701
Si Si3 0.428806 0.141558 0.019944
Si Si4 0.070694 0.139901 0.472329
Si Si5 0.428260 0.035071 0.586669
Si Si6 0.071686 0.954909 0.085699
O O1 0.750000 0.372416 0.692560
O O2 0.962875 0.250000 0.680033
O O3 0.999174 0.386842 0.749478
O O4 0.996029 0.424071 0.641251
O O5 0.750000 0.872759 0.194476
O O6 0.961334 0.750000 0.181018
O O7 0.994900 0.923589 0.142120
O O8 0.250000 0.135589 0.009789
O O9 0.464757 0.250000 0.035310
O O10 0.512272 0.111249 0.964082
O O11 0.464621 0.062632 0.066136
O O12 0.250000 0.131535 0.465284
O O13 0.028447 0.250000 0.465619
O O14 0.036144 0.103539 0.534353
O O15 0.989574 0.068203 0.430786
O O16 0.250000 0.032907 0.593181
O O17 0.250000 0.945894 0.090517
#
# Coordination Sequence:
#
# PCOD9447608 Si02
#       6
#     8   8   8   8   8   8
#     4  10  20  33  50  72  97 125 158 196 237 283
#     4  10  20  33  49  69  95 126 156 189 234 285
#     4   9  18  32  48  67  94 127 158 188 228 278
#     4   9  18  32  49  70  98 131 164 197 235 281
#     4  10  19  31  49  73 100 128 159 197 240 285
#     4  10  19  30  47  71  96 122 155 195 234 274
#
# _framework density 15.768644
#
# number of rings (size 3 to 8) (size 9 to 14) (size 15 to 20)
#    0.000    2.333    0.000    3.000    0.000    6.667 
#    0.000    0.000    0.000    1.000    0.000    2.333 
#    0.000    0.000    0.000    0.000    0.000    0.000 
#
# Total GULP energy -267827.672316 kJ/mol
# GULP energy per Si atom -5579.743173 kJ/mol
# Density = 1.573275 g / cm^3
# Si number density = 15.768644 Si / 1000 Ang^3
#
#
#
# Elastic Constant Matrix: (Units=GPa)
#
#
# Indices 1 2 3 4 5 6 
#
# 1 53.7348 56.4121 66.3447 0.0000 0.0000 0.0000
# 2 56.4121 125.0613 86.9296 0.0000 0.0000 0.0000
# 3 66.3447 86.9296 146.7778 0.0000 0.0000 0.0000
# 4 0.0000 0.0000 0.0000 21.1814 0.0000 0.0000
# 5 0.0000 0.0000 0.0000 0.0000 32.1025 0.0000
# 6 0.0000 0.0000 0.0000 0.0000 0.0000 23.9011
#
#
#
# Elastic Compliance Matrix: (Units=1/GPa)
#
#
# Indices 1 2 3 4 5 6 
#
# 1 0.050599 -0.011773 -0.015898 0.000000 0.000000 0.000000
# 2 -0.011773 0.016330 -0.004350 0.000000 0.000000 0.000000
# 3 -0.015898 -0.004350 0.016576 0.000000 0.000000 0.000000
# 4 0.000000 0.000000 0.000000 0.047211 0.000000 0.000000
# 5 0.000000 0.000000 0.000000 0.000000 0.031150 0.000000
# 6 0.000000 0.000000 0.000000 0.000000 0.000000 0.041839
#
#
# Mechanical properties :
#
#
# Convention : Reuss Voigt Hill
#
# Bulk Modulus (GPa) = 51.38341 82.77185 67.07763
# Shear Modulus (GPa) = 18.23249 23.16284 20.69766
#
# Velocity S-wave (km/s) = 3.40406 3.83680 3.62689
# Velocity P-wave (km/s) = 6.93590 8.49903 7.75694
#
# Compressibility (1/GPa) = 0.01946154
#
# Stress axis : x y z
#
# Youngs Moduli (GPa) = 19.76337 61.23546 60.32907
#
# Poissons Ratio (x) = 0.72091 0.95914
# Poissons Ratio (y) = 0.23267 0.26245
# Poissons Ratio (z) = 0.31421 0.26639
#
# Static dielectric constant tensor:
#      x y z
#    x 1.523500 0.000000 0.000000 
#    y 0.000000 1.520040 0.000000 
#    z 0.000000 0.000000 1.492030 
# 
# From -- ./inp_files/28844.got.cif
#   From: 2010.05.17/outbox.cif.g08.bks.cpg/sg59_15_cif.got.tgz:28844.got - 2010.06.03 14:40:33.
