data_PCOD9447507
_publ_section_title
;
Structure prediction by ZEFSAII (Michael W. Deem and Ramdas Pophale) SiO2 
 PCOD9447507
Probable space group: P M M N
;
_chemical_formula_sum "Si O2"
_cell_formula_units_Z 56
_cell_length_a 7.501376
_cell_length_b 24.298467
_cell_length_c 16.083824
_cell_angle_alpha 90.000000
_cell_angle_beta 90.000000
_cell_angle_gamma 90.000000
_cell_volume 2931.629758
_symmetry_space_group_name_H-M "P M M N"
_symmetry_group_IT_number 59
_space_group.IT_coordinate_system_code '2'
_symmetry_cell_setting 'orthorhombic'
loop_
_space_group_symop_operation_xyz
x,y,z
1/2-x,1/2-y,z
1/2+x,-y,-z
-x,1/2+y,-z
-x,-y,-z
1/2+x,1/2+y,-z
1/2-x,y,z
x,1/2-y,z
loop_
_atom_site_type_symbol
_atom_site_label
_atom_site_fract_x
_atom_site_fract_y
_atom_site_fract_z
Si Si1 0.035992 0.186554 0.494319
Si Si2 0.468052 0.314254 0.676935
Si Si3 0.534465 0.187126 0.993469
Si Si4 0.964097 0.500732 0.098678
Si Si5 0.461231 0.812993 0.687902
Si Si6 0.468379 0.881776 0.845022
Si Si7 0.540194 0.884295 0.168150
O O1 0.250000 0.186973 0.496078
O O2 0.973020 0.250000 0.491617
O O3 0.977297 0.165499 0.584664
O O4 0.985141 0.162970 0.404857
O O5 0.250000 0.313784 0.678946
O O6 0.521236 0.250000 0.687504
O O7 0.533094 0.352985 0.751084
O O8 0.750000 0.187661 0.994088
O O9 0.472317 0.250000 0.994186
O O10 0.476972 0.154256 0.075333
O O11 0.477155 0.155496 0.910984
O O12 0.750000 0.501427 0.106696
O O13 0.028554 0.444265 0.140364
O O14 0.034637 0.556393 0.141263
O O15 0.000000 0.500000 0.000000
O O16 0.250000 0.808283 0.701563
O O17 0.533911 0.750000 0.691138
O O18 0.530083 0.852024 0.760945
O O19 0.250000 0.882648 0.844169
O O20 0.750000 0.892508 0.184643
#
# Coordination Sequence:
#
# PCOD9447507 Si02
#       7
#     8   8   8   8   8   8   8
#     4   8  14  26  44  64  87 115 143 174 219 272
#     4   8  14  26  44  65  90 118 144 175 221 273
#     4  10  19  30  45  65  91 123 151 178 222 275
#     4  10  19  32  49  66  86 118 158 193 226 263
#     4   9  16  27  45  67  88 113 147 185 223 264
#     4   9  17  30  46  63  88 120 152 184 220 268
#     4  10  19  30  47  69  90 116 153 192 226 262
#
# _framework density 19.102003
#
# number of rings (size 3 to 8) (size 9 to 14) (size 15 to 20)
#    0.000    2.857    1.429    1.714    0.000    2.571 
#    0.000    2.143    0.000    5.143    0.000    0.000 
#    0.000    0.000    0.000    0.000    0.000    0.000 
#
# Total GULP energy -312214.040977 kJ/mol
# GULP energy per Si atom -5575.250732 kJ/mol
# Density = 1.905853 g / cm^3
# Si number density = 19.102003 Si / 1000 Ang^3
#
#
#
# Elastic Constant Matrix: (Units=GPa)
#
#
# Indices 1 2 3 4 5 6 
#
# 1 49.6395 5.2159 -0.1305 0.0000 0.0000 0.0000
# 2 5.2159 147.3763 97.6978 0.0000 0.0000 0.0000
# 3 -0.1305 97.6978 206.0602 0.0000 0.0000 0.0000
# 4 0.0000 0.0000 0.0000 4.8916 0.0000 0.0000
# 5 0.0000 0.0000 0.0000 0.0000 21.3153 0.0000
# 6 0.0000 0.0000 0.0000 0.0000 0.0000 2.8286
#
#
#
# Elastic Compliance Matrix: (Units=1/GPa)
#
#
# Indices 1 2 3 4 5 6 
#
# 1 0.020258 -0.001058 0.000514 0.000000 0.000000 0.000000
# 2 -0.001058 0.009951 -0.004719 0.000000 0.000000 0.000000
# 3 0.000514 -0.004719 0.007090 0.000000 0.000000 0.000000
# 4 0.000000 0.000000 0.000000 0.204431 0.000000 0.000000
# 5 0.000000 0.000000 0.000000 0.000000 0.046915 0.000000
# 6 0.000000 0.000000 0.000000 0.000000 0.000000 0.353534
#
#
# Mechanical properties :
#
#
# Convention : Reuss Voigt Hill
#
# Bulk Modulus (GPa) = 37.34857 67.62693 52.48775
# Shear Modulus (GPa) = 7.55712 25.82662 16.69187
#
# Velocity S-wave (km/s) = 1.99118 3.68099 2.95927
# Velocity P-wave (km/s) = 4.98809 7.31753 6.26208
#
# Compressibility (1/GPa) = 0.02677479
#
# Stress axis : x y z
#
# Youngs Moduli (GPa) = 49.36380 100.49445 141.03465
#
# Poissons Ratio (x) = 0.10632 -0.07255
# Poissons Ratio (y) = 0.05223 0.66548
# Poissons Ratio (z) = -0.02539 0.47419
#
# Static dielectric constant tensor:
#      x y z
#    x 1.746370 0.000000 0.000000 
#    y 0.000000 1.650740 0.000000 
#    z 0.000000 0.000000 1.666580 
# 
# From -- ./inp_files/16013.got.cif
#   From: 2010.05.17/outbox.cif.g08.bks.cpg/sg59_9_cif.got.tgz:16013.got - 2010.06.03 14:40:33.
