data_PCOD9447699
_publ_section_title
;
Structure prediction by ZEFSAII (Michael W. Deem and Ramdas Pophale) SiO2 
 PCOD9447699
Probable space group: P M M N
;
_chemical_formula_sum "Si O2"
_cell_formula_units_Z 64
_cell_length_a 8.556578
_cell_length_b 20.452238
_cell_length_c 20.764795
_cell_angle_alpha 90.000000
_cell_angle_beta 90.000000
_cell_angle_gamma 90.000000
_cell_volume 3633.863414
_symmetry_space_group_name_H-M "P M M N"
_symmetry_group_IT_number 59
_space_group.IT_coordinate_system_code '2'
_symmetry_cell_setting 'orthorhombic'
loop_
_space_group_symop_operation_xyz
x,y,z
1/2-x,1/2-y,z
1/2+x,-y,-z
-x,1/2+y,-z
-x,-y,-z
1/2+x,1/2+y,-z
1/2-x,y,z
x,1/2-y,z
loop_
_atom_site_type_symbol
_atom_site_label
_atom_site_fract_x
_atom_site_fract_y
_atom_site_fract_z
Si Si1 0.436861 0.574939 0.727274
Si Si2 0.059249 0.324125 0.668226
Si Si3 0.436289 0.592187 0.948359
Si Si4 0.561148 0.585702 0.447089
Si Si5 0.936738 0.556752 0.589168
Si Si6 0.561623 0.558019 0.082416
Si Si7 0.059321 0.069668 0.772692
Si Si8 0.563172 0.675243 0.832683
O O1 0.250000 0.575035 0.730621
O O2 0.489891 0.584911 0.653947
O O3 0.491222 0.502317 0.749260
O O4 0.499727 0.629019 0.776101
O O5 0.250000 0.323234 0.670085
O O6 0.004798 0.250000 0.676395
O O7 0.014933 0.355431 0.599606
O O8 0.007235 0.373892 0.724044
O O9 0.250000 0.596989 0.943885
O O10 0.481499 0.518697 0.925379
O O11 0.511017 0.644105 0.900416
O O12 0.489621 0.596252 0.022321
O O13 0.750000 0.579395 0.444469
O O14 0.491262 0.518293 0.419767
O O15 0.516466 0.591461 0.522016
O O16 0.750000 0.558910 0.594487
O O17 0.750000 0.561901 0.078025
O O18 0.512166 0.580366 0.153362
O O19 0.250000 0.069057 0.771595
O O20 0.750000 0.675039 0.829685
O O21 0.507451 0.750000 0.826493
#
# Coordination Sequence:
#
# PCOD9447699 Si02
#       8
#     8   8   8   8   8   8   8   8
#     4  11  20  35  57  80 108 142 181 228 275 327
#     4   9  16  28  50  78 105 137 178 222 269 321
#     4  10  19  33  54  80 107 141 179 217 264 320
#     4   9  17  31  50  74 106 140 180 226 271 326
#     4  10  19  30  49  79 108 137 178 228 280 324
#     4   9  17  31  51  78 110 139 172 220 268 310
#     4   9  16  29  50  77 107 138 176 223 269 315
#     4  11  24  40  57  80 111 144 180 227 280 334
#
# _framework density 17.612107999999999
#
# number of rings (size 3 to 8) (size 9 to 14) (size 15 to 20)
#    0.000    2.250    2.500    1.500    0.000    2.000 
#    0.000    1.250    0.000    4.875    0.000    0.000 
#    0.000    0.000    0.000    0.000    0.000    0.000 
#
# Total GULP energy -357021.032625 kJ/mol
# GULP energy per Si atom -5578.453635 kJ/mol
# Density = 1.757202 g / cm^3
# Si number density = 17.612108 Si / 1000 Ang^3
#
#
#
# Elastic Constant Matrix: (Units=GPa)
#
#
# Indices 1 2 3 4 5 6 
#
# 1 20.4070 25.7501 29.7227 0.0000 0.0000 0.0000
# 2 25.7501 130.5426 93.5314 0.0000 0.0000 0.0000
# 3 29.7227 93.5314 173.2692 0.0000 0.0000 0.0000
# 4 0.0000 0.0000 0.0000 23.5686 0.0000 0.0000
# 5 0.0000 0.0000 0.0000 0.0000 25.6576 0.0000
# 6 0.0000 0.0000 0.0000 0.0000 0.0000 17.9937
#
#
#
# Elastic Compliance Matrix: (Units=1/GPa)
#
#
# Indices 1 2 3 4 5 6 
#
# 1 0.070763 -0.008579 -0.007508 0.000000 0.000000 0.000000
# 2 -0.008579 0.013532 -0.005833 0.000000 0.000000 0.000000
# 3 -0.007508 -0.005833 0.010208 0.000000 0.000000 0.000000
# 4 0.000000 0.000000 0.000000 0.042429 0.000000 0.000000
# 5 0.000000 0.000000 0.000000 0.000000 0.038975 0.000000
# 6 0.000000 0.000000 0.000000 0.000000 0.000000 0.055575
#
#
# Mechanical properties :
#
#
# Convention : Reuss Voigt Hill
#
# Bulk Modulus (GPa) = 19.73810 69.13635 44.43722
# Shear Modulus (GPa) = 17.11103 25.12496 21.11800
#
# Velocity S-wave (km/s) = 3.12035 3.78110 3.46650
# Velocity P-wave (km/s) = 4.92073 7.64215 6.42713
#
# Compressibility (1/GPa) = 0.05066344
#
# Stress axis : x y z
#
# Youngs Moduli (GPa) = 14.13161 73.90052 97.96432
#
# Poissons Ratio (x) = 0.63401 0.73549
# Poissons Ratio (y) = 0.12124 0.57140
# Poissons Ratio (z) = 0.10610 0.43105
#
# Static dielectric constant tensor:
#      x y z
#    x 1.598960 0.000000 0.000000 
#    y 0.000000 1.579770 0.000000 
#    z 0.000000 0.000000 1.605990 
# 
# From -- ./inp_files/29423.got.cif
#   From: 2010.05.17/outbox.cif.g08.bks.cpg/sg59_15_cif.got.tgz:29423.got - 2010.06.03 14:40:33.
