data_PCOD9447586
_publ_section_title
;
Structure prediction by ZEFSAII (Michael W. Deem and Ramdas Pophale) SiO2 
 PCOD9447586
Probable space group: P M M N
;
_chemical_formula_sum "Si O2"
_cell_formula_units_Z 64
_cell_length_a 8.691456
_cell_length_b 29.361880
_cell_length_c 16.049810
_cell_angle_alpha 90.000000
_cell_angle_beta 90.000000
_cell_angle_gamma 90.000000
_cell_volume 4095.871196
_symmetry_space_group_name_H-M "P M M N"
_symmetry_group_IT_number 59
_space_group.IT_coordinate_system_code '2'
_symmetry_cell_setting 'orthorhombic'
loop_
_space_group_symop_operation_xyz
x,y,z
1/2-x,1/2-y,z
1/2+x,-y,-z
-x,1/2+y,-z
-x,-y,-z
1/2+x,1/2+y,-z
1/2-x,y,z
x,1/2-y,z
loop_
_atom_site_type_symbol
_atom_site_label
_atom_site_fract_x
_atom_site_fract_y
_atom_site_fract_z
Si Si1 0.437166 0.199541 0.597207
Si Si2 0.435394 0.104681 0.662564
Si Si3 0.933169 0.393899 0.336620
Si Si4 0.065272 0.948705 0.997852
Si Si5 0.565159 0.449452 0.818292
Si Si6 0.935068 0.550838 0.505938
Si Si7 0.565349 0.943858 0.823976
Si Si8 0.064704 0.197937 0.401878
O O1 0.250000 0.199883 0.599782
O O2 0.490321 0.250000 0.622474
O O3 0.490035 0.156702 0.650947
O O4 0.476580 0.192378 0.499804
O O5 0.250000 0.104877 0.666570
O O6 0.497772 0.079399 0.743248
O O7 0.478048 0.077662 0.578377
O O8 0.750000 0.397212 0.336751
O O9 0.999966 0.422965 0.413934
O O10 0.999292 0.414727 0.251582
O O11 0.985642 0.341865 0.350364
O O12 0.250000 0.949764 0.991610
O O13 0.995609 0.927679 0.914160
O O14 0.023241 0.930499 0.089773
O O15 0.000000 0.000000 0.000000
O O16 0.750000 0.449060 0.812816
O O17 0.517693 0.502819 0.812853
O O18 0.750000 0.549826 0.511816
O O19 0.000000 0.500000 0.500000
O O20 0.750000 0.942482 0.823673
O O21 0.250000 0.192967 0.396133
O O22 0.025973 0.250000 0.378051
#
# Coordination Sequence:
#
# PCOD9447586 Si02
#       8
#     8   8   8   8   8   8   8   8
#     4   8  14  28  49  69  89 117 156 202 247 282
#     4  10  19  30  47  69  92 123 163 200 233 282
#     4  12  23  33  48  72 101 133 165 203 249 298
#     4   9  17  31  49  70  96 126 161 201 246 292
#     4   9  19  32  47  69  98 129 157 194 242 290
#     4  11  22  35  47  65  96 133 173 206 240 287
#     4  10  20  34  51  70  95 129 168 207 244 290
#     4   9  17  33  55  72  92 126 165 207 252 294
#
# _framework density 15.625491999999999
#
# number of rings (size 3 to 8) (size 9 to 14) (size 15 to 20)
#    0.000    2.250    1.250    4.500    0.000    6.250 
#    0.000    0.000    0.000    0.375    0.000    0.875 
#    0.000    3.000    0.000    0.000    0.000    0.000 
#
# Total GULP energy -356861.325437 kJ/mol
# GULP energy per Si atom -5575.958210 kJ/mol
# Density = 1.558993 g / cm^3
# Si number density = 15.625492 Si / 1000 Ang^3
#
#
#
# Elastic Constant Matrix: (Units=GPa)
#
#
# Indices 1 2 3 4 5 6 
#
# 1 46.5435 35.7850 45.2715 0.0000 0.0000 0.0000
# 2 35.7850 107.0983 65.8931 0.0000 0.0000 0.0000
# 3 45.2715 65.8931 136.5879 0.0000 0.0000 0.0000
# 4 0.0000 0.0000 0.0000 6.3734 0.0000 0.0000
# 5 0.0000 0.0000 0.0000 0.0000 27.3065 0.0000
# 6 0.0000 0.0000 0.0000 0.0000 0.0000 20.9286
#
#
#
# Elastic Compliance Matrix: (Units=1/GPa)
#
#
# Indices 1 2 3 4 5 6 
#
# 1 0.034535 -0.006395 -0.008361 0.000000 0.000000 0.000000
# 2 -0.006395 0.014463 -0.004858 0.000000 0.000000 0.000000
# 3 -0.008361 -0.004858 0.012436 0.000000 0.000000 0.000000
# 4 0.000000 0.000000 0.000000 0.156903 0.000000 0.000000
# 5 0.000000 0.000000 0.000000 0.000000 0.036621 0.000000
# 6 0.000000 0.000000 0.000000 0.000000 0.000000 0.047781
#
#
# Mechanical properties :
#
#
# Convention : Reuss Voigt Hill
#
# Bulk Modulus (GPa) = 45.03302 64.90323 54.96812
# Shear Modulus (GPa) = 14.31153 20.47370 17.39261
#
# Velocity S-wave (km/s) = 3.02968 3.62370 3.33992
# Velocity P-wave (km/s) = 6.41260 7.68994 7.08014
#
# Compressibility (1/GPa) = 0.02220593
#
# Stress axis : x y z
#
# Youngs Moduli (GPa) = 28.95627 69.14401 80.41140
#
# Poissons Ratio (x) = 0.44216 0.67235
# Poissons Ratio (y) = 0.18517 0.39060
# Poissons Ratio (z) = 0.24212 0.33587
#
# Static dielectric constant tensor:
#      x y z
#    x 1.519570 0.000000 0.000000 
#    y 0.000000 1.512180 0.000000 
#    z 0.000000 0.000000 1.516620 
# 
# From -- ./inp_files/21827.got.cif
#   From: 2010.05.17/outbox.cif.g08.bks.cpg/sg59_11_cif.got.tgz:21827.got - 2010.06.03 14:40:33.
