data_PCOD9447560
_publ_section_title
;
Structure prediction by ZEFSAII (Michael W. Deem and Ramdas Pophale) SiO2 
 PCOD9447560
Probable space group: P M M N
;
_chemical_formula_sum "Si O2"
_cell_formula_units_Z 48
_cell_length_a 8.068189
_cell_length_b 14.334485
_cell_length_c 24.567116
_cell_angle_alpha 90.000000
_cell_angle_beta 90.000000
_cell_angle_gamma 90.000000
_cell_volume 2841.268877
_symmetry_space_group_name_H-M "P M M N"
_symmetry_group_IT_number 59
_space_group.IT_coordinate_system_code '2'
_symmetry_cell_setting 'orthorhombic'
loop_
_space_group_symop_operation_xyz
x,y,z
1/2-x,1/2-y,z
1/2+x,-y,-z
-x,1/2+y,-z
-x,-y,-z
1/2+x,1/2+y,-z
1/2-x,y,z
x,1/2-y,z
loop_
_atom_site_type_symbol
_atom_site_label
_atom_site_fract_x
_atom_site_fract_y
_atom_site_fract_z
Si Si1 0.050147 0.144251 0.477334
Si Si2 0.550210 0.643698 0.187606
Si Si3 0.547749 0.642511 0.310596
Si Si4 0.550739 0.355185 0.021699
Si Si5 0.447338 0.969143 0.083417
Si Si6 0.050008 0.467010 0.584544
O O1 0.250000 0.146973 0.479440
O O2 0.989729 0.250000 0.470623
O O3 0.992082 0.098562 0.534423
O O4 0.000602 0.071841 0.430436
O O5 0.750000 0.645395 0.188411
O O6 0.493605 0.750000 0.175282
O O7 0.494107 0.619842 0.249008
O O8 0.496371 0.573032 0.141131
O O9 0.750000 0.640449 0.310679
O O10 0.500845 0.750000 0.322328
O O11 0.489920 0.574054 0.358169
O O12 0.750000 0.350758 0.018077
O O13 0.487724 0.250000 0.028543
O O14 0.507939 0.427165 0.069506
O O15 0.488075 0.402168 0.965463
O O16 0.250000 0.969711 0.079809
O O17 0.250000 0.463175 0.584885
#
# Coordination Sequence:
#
# PCOD9447560 Si02
#       6
#     8   8   8   8   8   8
#     4   9  17  28  42  62  89 118 143 171 215 265
#     4   9  17  29  46  67  90 117 148 181 218 261
#     4   8  14  26  45  67  88 112 145 182 216 253
#     4   9  18  32  48  66  90 120 151 181 214 255
#     4  10  19  30  46  69  95 119 144 178 220 264
#     4   9  16  27  45  66  86 111 145 182 215 251
#
# _framework density 16.89386
#
# number of rings (size 3 to 8) (size 9 to 14) (size 15 to 20)
#    0.000    3.000    0.000    2.500    0.000    4.333 
#    0.000    0.833    0.000    3.500    0.000    2.333 
#    0.000    0.000    0.000    0.000    0.000    0.000 
#
# Total GULP energy -267476.637894 kJ/mol
# GULP energy per Si atom -5572.429956 kJ/mol
# Density = 1.685541 g / cm^3
# Si number density = 16.893860 Si / 1000 Ang^3
#
#
#
# Elastic Constant Matrix: (Units=GPa)
#
#
# Indices 1 2 3 4 5 6 
#
# 1 8.9314 11.5835 5.6313 0.0000 0.0000 0.0000
# 2 11.5835 165.7370 90.7297 0.0000 0.0000 0.0000
# 3 5.6313 90.7297 113.3393 0.0000 0.0000 0.0000
# 4 0.0000 0.0000 0.0000 26.7355 0.0000 0.0000
# 5 0.0000 0.0000 0.0000 0.0000 15.9956 0.0000
# 6 0.0000 0.0000 0.0000 0.0000 0.0000 18.4018
#
#
#
# Elastic Compliance Matrix: (Units=1/GPa)
#
#
# Indices 1 2 3 4 5 6 
#
# 1 0.123246 -0.009366 0.001374 0.000000 0.000000 0.000000
# 2 -0.009366 0.011452 -0.008702 0.000000 0.000000 0.000000
# 3 0.001374 -0.008702 0.015721 0.000000 0.000000 0.000000
# 4 0.000000 0.000000 0.000000 0.037403 0.000000 0.000000
# 5 0.000000 0.000000 0.000000 0.000000 0.062517 0.000000
# 6 0.000000 0.000000 0.000000 0.000000 0.000000 0.054342
#
#
# Mechanical properties :
#
#
# Convention : Reuss Voigt Hill
#
# Bulk Modulus (GPa) = 8.54478 55.98853 32.26665
# Shear Modulus (GPa) = 13.25978 24.23080 18.74529
#
# Velocity S-wave (km/s) = 2.80462 3.79132 3.33467
# Velocity P-wave (km/s) = 3.94421 7.23732 5.82819
#
# Compressibility (1/GPa) = 0.11703048
#
# Stress axis : x y z
#
# Youngs Moduli (GPa) = 8.11388 87.32005 63.60903
#
# Poissons Ratio (x) = 0.81784 -0.08740
# Poissons Ratio (y) = 0.07599 0.55354
# Poissons Ratio (z) = -0.01115 0.75988
#
# Static dielectric constant tensor:
#      x y z
#    x 1.603150 0.000000 0.000000 
#    y 0.000000 1.563480 0.000000 
#    z 0.000000 0.000000 1.568360 
# 
# From -- ./inp_files/28839.got.cif
#   From: 2010.05.17/outbox.cif.g08.bks.cpg/sg59_15_cif.got.tgz:28839.got - 2010.06.03 14:40:33.
