data_PCOD9447410
_publ_section_title
;
Structure prediction by ZEFSAII (Michael W. Deem and Ramdas Pophale) SiO2 
 PCOD9447410
Probable space group: P M M N
;
_chemical_formula_sum "Si O2"
_cell_formula_units_Z 48
_cell_length_a 23.200891
_cell_length_b 8.095014
_cell_length_c 9.623534
_cell_angle_alpha 90.000000
_cell_angle_beta 90.000000
_cell_angle_gamma 90.000000
_cell_volume 1807.410716
_symmetry_space_group_name_H-M "P M M N"
_symmetry_group_IT_number 59
_space_group.IT_coordinate_system_code '2'
_symmetry_cell_setting 'orthorhombic'
loop_
_space_group_symop_operation_xyz
x,y,z
1/2-x,1/2-y,z
1/2+x,-y,-z
-x,1/2+y,-z
-x,-y,-z
1/2+x,1/2+y,-z
1/2-x,y,z
x,1/2-y,z
loop_
_atom_site_type_symbol
_atom_site_label
_atom_site_fract_x
_atom_site_fract_y
_atom_site_fract_z
Si Si1 0.066734 0.945864 0.990596
Si Si2 0.817859 0.933458 0.205949
Si Si3 0.315462 0.553826 0.493641
Si Si4 0.544068 0.554529 0.307976
Si Si5 0.925061 0.552182 0.617122
Si Si6 0.315802 0.560967 0.089521
O O1 0.067984 0.750000 0.010006
O O2 0.118040 0.016346 0.090590
O O3 0.077842 0.987223 0.826127
O O4 0.000000 0.000000 0.000000
O O5 0.750000 0.918304 0.234475
O O6 0.836890 0.750000 0.157774
O O7 0.836868 0.972100 0.363091
O O8 0.816208 0.062049 0.079644
O O9 0.250000 0.504540 0.462432
O O10 0.316717 0.750000 0.512926
O O11 0.358814 0.502419 0.372193
O O12 0.551199 0.750000 0.312490
O O13 0.475881 0.518343 0.289223
O O14 0.558149 0.485458 0.461169
O O15 0.928442 0.750000 0.619874
O O16 0.250000 0.493891 0.124743
O O17 0.316807 0.750000 0.142798
#
# Coordination Sequence:
#
# PCOD9447410 Si02
#       6
#     8   8   8   8   8   8
#     4  11  23  38  58  83 113 148 186 230 278 330
#     4   9  16  25  40  66 100 136 173 217 270 324
#     4  10  19  29  43  67 102 142 180 218 264 320
#     4  10  21  37  56  79 109 143 181 224 271 328
#     4  10  20  34  55  81 108 141 180 225 275 325
#     4   9  18  33  53  77 105 138 176 219 270 327
#
# _framework density 26.557327999999998
#
# number of rings (size 3 to 8) (size 9 to 14) (size 15 to 20)
#    0.000    2.167    0.000    3.500    0.000    9.000 
#    0.000    0.000    0.000    1.000    0.000    2.333 
#    0.000    0.000    0.000    0.000    0.000    0.000 
#
# Total GULP energy -267722.097475 kJ/mol
# GULP energy per Si atom -5577.543697 kJ/mol
# Density = 2.649688 g / cm^3
# Si number density = 26.557328 Si / 1000 Ang^3
#
#
#
# Elastic Constant Matrix: (Units=GPa)
#
#
# Indices 1 2 3 4 5 6 
#
# 1 129.2519 -12.4853 -7.8537 0.0000 0.0000 0.0000
# 2 -12.4853 58.9184 2.7632 0.0000 0.0000 0.0000
# 3 -7.8537 2.7632 78.3044 0.0000 0.0000 0.0000
# 4 0.0000 0.0000 0.0000 23.8180 0.0000 0.0000
# 5 0.0000 0.0000 0.0000 0.0000 32.3773 0.0000
# 6 0.0000 0.0000 0.0000 0.0000 0.0000 37.0416
#
#
#
# Elastic Compliance Matrix: (Units=1/GPa)
#
#
# Indices 1 2 3 4 5 6 
#
# 1 0.007941 0.001648 0.000738 0.000000 0.000000 0.000000
# 2 0.001648 0.017343 -0.000447 0.000000 0.000000 0.000000
# 3 0.000738 -0.000447 0.012860 0.000000 0.000000 0.000000
# 4 0.000000 0.000000 0.000000 0.041985 0.000000 0.000000
# 5 0.000000 0.000000 0.000000 0.000000 0.030886 0.000000
# 6 0.000000 0.000000 0.000000 0.000000 0.000000 0.026997
#
#
# Mechanical properties :
#
#
# Convention : Reuss Voigt Hill
#
# Bulk Modulus (GPa) = 23.79615 25.70258 24.74937
# Shear Modulus (GPa) = 33.75179 37.58406 35.66793
#
# Velocity S-wave (km/s) = 3.56884 3.76600 3.66875
# Velocity P-wave (km/s) = 5.09528 5.34879 5.22357
#
# Compressibility (1/GPa) = 0.04202361
#
# Stress axis : x y z
#
# Youngs Moduli (GPa) = 125.93046 57.66070 77.75757
#
# Poissons Ratio (x) = -0.09503 -0.05741
# Poissons Ratio (y) = -0.20755 0.03473
# Poissons Ratio (z) = -0.09297 0.02576
#
# Static dielectric constant tensor:
#      x y z
#    x 2.472670 0.000000 0.000000 
#    y 0.000000 1.971090 0.000000 
#    z 0.000000 0.000000 2.131960 
# 
# From -- ./inp_files/18599.got.cif
#   From: 2010.05.17/outbox.cif.g08.bks.cpg/sg59_10_cif.got.tgz:18599.got - 2010.06.03 14:40:33.
