data_PCOD9447869
_publ_section_title
;
Structure prediction by ZEFSAII (Michael W. Deem and Ramdas Pophale) SiO2 
 PCOD9447869
Probable space group: P M M N
;
_chemical_formula_sum "Si O2"
_cell_formula_units_Z 48
_cell_length_a 14.111461
_cell_length_b 8.929410
_cell_length_c 24.342128
_cell_angle_alpha 90.000000
_cell_angle_beta 90.000000
_cell_angle_gamma 90.000000
_cell_volume 3067.279033
_symmetry_space_group_name_H-M "P M M N"
_symmetry_group_IT_number 59
_space_group.IT_coordinate_system_code '2'
_symmetry_cell_setting 'orthorhombic'
loop_
_space_group_symop_operation_xyz
x,y,z
1/2-x,1/2-y,z
1/2+x,-y,-z
-x,1/2+y,-z
-x,-y,-z
1/2+x,1/2+y,-z
1/2-x,y,z
x,1/2-y,z
loop_
_atom_site_type_symbol
_atom_site_label
_atom_site_fract_x
_atom_site_fract_y
_atom_site_fract_z
Si Si1 0.034096 0.071126 0.585808
Si Si2 0.361010 0.929017 0.688366
Si Si3 0.359448 0.430051 0.472800
Si Si4 0.641577 0.930474 0.973672
Si Si5 0.139003 0.070055 0.805406
Si Si6 0.467846 0.069602 0.915318
O O1 0.030849 0.250000 0.591021
O O2 0.102674 0.033778 0.534079
O O3 0.075963 0.999244 0.640555
O O4 0.931386 0.008031 0.569127
O O5 0.250000 0.969044 0.679065
O O6 0.368834 0.750000 0.687824
O O7 0.387091 0.992115 0.748296
O O8 0.250000 0.474185 0.466457
O O9 0.366132 0.250000 0.466490
O O10 0.750000 0.978896 0.966851
O O11 0.638345 0.750000 0.969873
O O12 0.568965 0.999889 0.930194
O O13 0.602151 0.971443 0.034249
O O14 0.250000 0.037435 0.816729
O O15 0.130736 0.250000 0.799233
O O16 0.076142 0.022575 0.857279
O O17 0.475106 0.250000 0.915087
#
# Coordination Sequence:
#
# PCOD9447869 Si02
#       6
#     8   8   8   8   8   8
#     4  10  19  31  49  72  97 125 157 191 228 273
#     4  10  20  32  47  69  96 124 154 190 232 277
#     4   9  18  32  49  70  97 127 157 190 229 272
#     4   9  17  29  45  66  93 123 152 183 223 271
#     4   9  17  30  48  68  91 120 152 187 229 275
#     4   9  17  29  46  68  92 119 152 188 225 267
#
# _framework density 15.649048000000001
#
# number of rings (size 3 to 8) (size 9 to 14) (size 15 to 20)
#    0.000    2.667    0.000    2.000    0.000    5.667 
#    0.000    0.000    0.000    4.000    0.000    4.667 
#    0.000    0.000    0.000    0.000    0.000    0.000 
#
# Total GULP energy -267654.045197 kJ/mol
# GULP energy per Si atom -5576.125942 kJ/mol
# Density = 1.561343 g / cm^3
# Si number density = 15.649048 Si / 1000 Ang^3
#
#
#
# Elastic Constant Matrix: (Units=GPa)
#
#
# Indices 1 2 3 4 5 6 
#
# 1 144.1979 45.3122 93.7427 0.0000 0.0000 0.0000
# 2 45.3122 26.4759 47.3216 0.0000 0.0000 0.0000
# 3 93.7427 47.3216 142.8234 0.0000 0.0000 0.0000
# 4 0.0000 0.0000 0.0000 25.8868 0.0000 0.0000
# 5 0.0000 0.0000 0.0000 0.0000 26.1078 0.0000
# 6 0.0000 0.0000 0.0000 0.0000 0.0000 25.8830
#
#
#
# Elastic Compliance Matrix: (Units=1/GPa)
#
#
# Indices 1 2 3 4 5 6 
#
# 1 0.015660 -0.020673 -0.003429 0.000000 0.000000 0.000000
# 2 -0.020673 0.119909 -0.026161 0.000000 0.000000 0.000000
# 3 -0.003429 -0.026161 0.017920 0.000000 0.000000 0.000000
# 4 0.000000 0.000000 0.000000 0.038630 0.000000 0.000000
# 5 0.000000 0.000000 0.000000 0.000000 0.038303 0.000000
# 6 0.000000 0.000000 0.000000 0.000000 0.000000 0.038635
#
#
# Mechanical properties :
#
#
# Convention : Reuss Voigt Hill
#
# Bulk Modulus (GPa) = 18.88071 76.25003 47.56537
# Shear Modulus (GPa) = 12.91197 24.05023 18.48110
#
# Velocity S-wave (km/s) = 2.87556 3.92452 3.44026
# Velocity P-wave (km/s) = 4.80796 8.32866 6.80011
#
# Compressibility (1/GPa) = 0.05296411
#
# Stress axis : x y z
#
# Youngs Moduli (GPa) = 63.85544 8.33967 55.80246
#
# Poissons Ratio (x) = 0.17240 0.19136
# Poissons Ratio (y) = 1.32006 1.45984
# Poissons Ratio (z) = 0.21898 0.21817
#
# Static dielectric constant tensor:
#      x y z
#    x 1.506250 0.000000 0.000000 
#    y 0.000000 1.522090 0.000000 
#    z 0.000000 0.000000 1.498920 
# 
# From -- ./inp_files/28826.got.cif
#   From: 2010.05.17/outbox.cif.g08.bks.cpg/sg59_15_cif.got.tgz:28826.got - 2010.06.03 14:40:33.
