data_PCOD9447453
_publ_section_title
;
Structure prediction by ZEFSAII (Michael W. Deem and Ramdas Pophale) SiO2 
 PCOD9447453
Probable space group: P M M N
;
_chemical_formula_sum "Si O2"
_cell_formula_units_Z 64
_cell_length_a 14.104406
_cell_length_b 9.156606
_cell_length_c 31.004316
_cell_angle_alpha 90.000000
_cell_angle_beta 90.000000
_cell_angle_gamma 90.000000
_cell_volume 4004.160552
_symmetry_space_group_name_H-M "P M M N"
_symmetry_group_IT_number 59
_space_group.IT_coordinate_system_code '2'
_symmetry_cell_setting 'orthorhombic'
loop_
_space_group_symop_operation_xyz
x,y,z
1/2-x,1/2-y,z
1/2+x,-y,-z
-x,1/2+y,-z
-x,-y,-z
1/2+x,1/2+y,-z
1/2-x,y,z
x,1/2-y,z
loop_
_atom_site_type_symbol
_atom_site_label
_atom_site_fract_x
_atom_site_fract_y
_atom_site_fract_z
Si Si1 0.521734 0.580928 0.544441
Si Si2 0.860531 0.074204 0.618410
Si Si3 0.858358 0.075589 0.986691
Si Si4 0.640906 0.085193 0.386255
Si Si5 0.958651 0.924053 0.066505
Si Si6 0.525764 0.577391 0.317187
Si Si7 0.359343 0.924816 0.856280
Si Si8 0.858817 0.074623 0.244746
O O1 0.500000 0.500000 0.500000
O O2 0.548383 0.750000 0.537147
O O3 0.598020 0.502354 0.575569
O O4 0.425181 0.578067 0.572196
O O5 0.750000 0.039169 0.624817
O O6 0.869523 0.250000 0.613396
O O7 0.927200 0.032138 0.659240
O O8 0.750000 0.040553 0.975646
O O9 0.864472 0.250000 0.995172
O O10 0.934439 0.041994 0.949359
O O11 0.891557 0.991435 0.029405
O O12 0.750000 0.065045 0.397040
O O13 0.629410 0.250000 0.367443
O O14 0.604369 0.967518 0.352463
O O15 0.947628 0.750000 0.067927
O O16 0.929445 0.993833 0.111682
O O17 0.522619 0.750000 0.310101
O O18 0.561292 0.497709 0.274253
O O19 0.250000 0.961251 0.867694
O O20 0.369684 0.750000 0.860916
O O21 0.372225 0.960547 0.805803
O O22 0.750000 0.030672 0.256888
O O23 0.862833 0.250000 0.249070
#
# Coordination Sequence:
#
# PCOD9447453 Si02
#       8
#     8   8   8   8   8   8   8   8
#     4  10  20  33  49  71  97 124 157 194 230 271
#     4   9  19  36  54  70  93 127 162 196 237 281
#     4   9  18  32  47  63  89 126 160 188 228 284
#     4   9  18  32  48  65  89 123 154 177 213 270
#     4  10  19  29  45  70  94 117 153 200 239 270
#     4  10  19  30  48  74  97 116 146 191 234 269
#     4   9  18  32  48  66  92 127 159 184 222 281
#     4   9  18  32  49  69  95 128 158 181 219 282
#
# _framework density 15.983375000000001
#
# number of rings (size 3 to 8) (size 9 to 14) (size 15 to 20)
#    0.000    2.625    0.000    2.625    0.000    6.750 
#    0.000    2.500    0.000    0.750    0.000    5.250 
#    0.000    0.000    0.000    0.000    0.000    0.000 
#
# Total GULP energy -356695.968107 kJ/mol
# GULP energy per Si atom -5573.374502 kJ/mol
# Density = 1.594700 g / cm^3
# Si number density = 15.983375 Si / 1000 Ang^3
#
#
#
# Elastic Constant Matrix: (Units=GPa)
#
#
# Indices 1 2 3 4 5 6 
#
# 1 123.5322 45.2920 62.6237 0.0000 0.0000 0.0000
# 2 45.2920 42.5582 45.9618 0.0000 0.0000 0.0000
# 3 62.6237 45.9618 98.5368 0.0000 0.0000 0.0000
# 4 0.0000 0.0000 0.0000 33.3266 0.0000 0.0000
# 5 0.0000 0.0000 0.0000 0.0000 13.5733 0.0000
# 6 0.0000 0.0000 0.0000 0.0000 0.0000 23.2400
#
#
#
# Elastic Compliance Matrix: (Units=1/GPa)
#
#
# Indices 1 2 3 4 5 6 
#
# 1 0.013989 -0.010652 -0.003922 0.000000 0.000000 0.000000
# 2 -0.010652 0.055460 -0.019099 0.000000 0.000000 0.000000
# 3 -0.003922 -0.019099 0.021550 0.000000 0.000000 0.000000
# 4 0.000000 0.000000 0.000000 0.030006 0.000000 0.000000
# 5 0.000000 0.000000 0.000000 0.000000 0.073674 0.000000
# 6 0.000000 0.000000 0.000000 0.000000 0.000000 0.043029
#
#
# Mechanical properties :
#
#
# Convention : Reuss Voigt Hill
#
# Bulk Modulus (GPa) = 42.27888 63.59805 52.93846
# Shear Modulus (GPa) = 15.97763 21.41130 18.69446
#
# Velocity S-wave (km/s) = 3.16514 3.66402 3.42368
# Velocity P-wave (km/s) = 6.31401 7.60109 6.98725
#
# Compressibility (1/GPa) = 0.02365247
#
# Stress axis : x y z
#
# Youngs Moduli (GPa) = 71.48711 18.03101 46.40415
#
# Poissons Ratio (x) = 0.19206 0.18199
# Poissons Ratio (y) = 0.76145 0.88629
# Poissons Ratio (z) = 0.28036 0.34438
#
# Static dielectric constant tensor:
#      x y z
#    x 1.529990 0.000000 0.000000 
#    y 0.000000 1.554310 0.000000 
#    z 0.000000 0.000000 1.521830 
# 
# From -- ./inp_files/33342.got.cif
#   From: 2010.05.17/outbox.cif.g08.bks.cpg/sg59_17_cif.got.tgz:33342.got - 2010.06.03 14:40:33.
