data_PCOD9447930
_publ_section_title
;
Structure prediction by ZEFSAII (Michael W. Deem and Ramdas Pophale) SiO2 
 PCOD9447930
Probable space group: P M M N
;
_chemical_formula_sum "Si O2"
_cell_formula_units_Z 64
_cell_length_a 7.801927
_cell_length_b 20.299628
_cell_length_c 19.296487
_cell_angle_alpha 90.000000
_cell_angle_beta 90.000000
_cell_angle_gamma 90.000000
_cell_volume 3056.104589
_symmetry_space_group_name_H-M "P M M N"
_symmetry_group_IT_number 59
_space_group.IT_coordinate_system_code '2'
_symmetry_cell_setting 'orthorhombic'
loop_
_space_group_symop_operation_xyz
x,y,z
1/2-x,1/2-y,z
1/2+x,-y,-z
-x,1/2+y,-z
-x,-y,-z
1/2+x,1/2+y,-z
1/2-x,y,z
x,1/2-y,z
loop_
_atom_site_type_symbol
_atom_site_label
_atom_site_fract_x
_atom_site_fract_y
_atom_site_fract_z
Si Si1 0.457808 0.481633 0.710304
Si Si2 0.540207 0.929084 0.923930
Si Si3 0.547506 0.434025 0.863216
Si Si4 0.452760 0.180922 0.176509
Si Si5 0.043312 0.630568 0.681644
Si Si6 0.042548 0.824359 0.530399
Si Si7 0.451770 0.174444 0.959670
Si Si8 0.950204 0.946533 0.441205
O O1 0.250000 0.478822 0.712767
O O2 0.518722 0.450831 0.782497
O O3 0.511824 0.557712 0.703459
O O4 0.522031 0.452221 0.636795
O O5 0.750000 0.933240 0.927255
O O6 0.482690 0.885678 0.857933
O O7 0.479615 0.003880 0.910074
O O8 0.480610 0.881062 0.986171
O O9 0.750000 0.430268 0.874927
O O10 0.471915 0.364205 0.887247
O O11 0.250000 0.181317 0.162736
O O12 0.523867 0.250000 0.147985
O O13 0.482705 0.177797 0.257850
O O14 0.250000 0.631766 0.680089
O O15 0.982403 0.650480 0.605647
O O16 0.250000 0.824686 0.531946
O O17 0.984451 0.750000 0.518553
O O18 0.985503 0.875549 0.472969
O O19 0.250000 0.180131 0.975483
O O20 0.520067 0.250000 0.961644
O O21 0.750000 0.957843 0.432375
O O22 0.000000 0.000000 0.500000
#
# Coordination Sequence:
#
# PCOD9447930 Si02
#       8
#     8   8   8   8   8   8   8   8
#     4  10  21  38  59  84 113 151 196 235 278 341
#     4   9  18  34  56  84 114 148 188 228 280 337
#     4  11  22  37  60  88 118 148 185 241 292 334
#     4  10  19  31  49  77 115 153 190 230 272 328
#     4  10  19  34  54  77 112 153 190 228 275 337
#     4  10  21  38  58  83 118 155 191 235 291 349
#     4  10  21  39  62  84 111 152 195 233 281 344
#     4  11  22  38  61  86 115 150 194 241 286 339
#
# _framework density 20.941692
#
# number of rings (size 3 to 8) (size 9 to 14) (size 15 to 20)
#    0.000    1.875    2.500    1.875    0.000    4.250 
#    0.000    1.875    0.000    2.250    0.000    0.000 
#    0.000    0.000    0.000    0.000    0.000    0.000 
#
# Total GULP energy -357050.499201 kJ/mol
# GULP energy per Si atom -5578.914050 kJ/mol
# Density = 2.089403 g / cm^3
# Si number density = 20.941692 Si / 1000 Ang^3
#
#
#
# Elastic Constant Matrix: (Units=GPa)
#
#
# Indices 1 2 3 4 5 6 
#
# 1 26.3499 3.5772 3.2394 0.0000 0.0000 0.0000
# 2 3.5772 132.1533 74.2810 0.0000 0.0000 0.0000
# 3 3.2394 74.2810 109.8957 0.0000 0.0000 0.0000
# 4 0.0000 0.0000 0.0000 49.1657 0.0000 0.0000
# 5 0.0000 0.0000 0.0000 0.0000 13.9950 0.0000
# 6 0.0000 0.0000 0.0000 0.0000 0.0000 16.8423
#
#
#
# Elastic Compliance Matrix: (Units=1/GPa)
#
#
# Indices 1 2 3 4 5 6 
#
# 1 0.038123 -0.000646 -0.000687 0.000000 0.000000 0.000000
# 2 -0.000646 0.012214 -0.008237 0.000000 0.000000 0.000000
# 3 -0.000687 -0.008237 0.014687 0.000000 0.000000 0.000000
# 4 0.000000 0.000000 0.000000 0.020339 0.000000 0.000000
# 5 0.000000 0.000000 0.000000 0.000000 0.071454 0.000000
# 6 0.000000 0.000000 0.000000 0.000000 0.000000 0.059374
#
#
# Mechanical properties :
#
#
# Convention : Reuss Voigt Hill
#
# Bulk Modulus (GPa) = 21.79369 47.84379 34.81874
# Shear Modulus (GPa) = 19.94999 28.48737 24.21868
#
# Velocity S-wave (km/s) = 3.08984 3.69225 3.40440
# Velocity P-wave (km/s) = 4.81237 6.40880 5.66708
#
# Compressibility (1/GPa) = 0.04588485
#
# Stress axis : x y z
#
# Youngs Moduli (GPa) = 26.23092 81.87182 68.08625
#
# Poissons Ratio (x) = 0.05285 0.04680
# Poissons Ratio (y) = 0.01693 0.56081
# Poissons Ratio (z) = 0.01803 0.67436
#
# Static dielectric constant tensor:
#      x y z
#    x 1.782620 0.000000 0.000000 
#    y 0.000000 1.752800 0.000000 
#    z 0.000000 0.000000 1.783760 
# 
# From -- ./inp_files/26208.got.cif
#   From: 2010.05.17/outbox.cif.g08.bks.cpg/sg59_14_cif.got.tgz:26208.got - 2010.06.03 14:40:33.
