data_PCOD9447676
_publ_section_title
;
Structure prediction by ZEFSAII (Michael W. Deem and Ramdas Pophale) SiO2 
 PCOD9447676
Probable space group: P M M N
;
_chemical_formula_sum "Si O2"
_cell_formula_units_Z 56
_cell_length_a 7.682415
_cell_length_b 23.198511
_cell_length_c 14.921189
_cell_angle_alpha 90.000000
_cell_angle_beta 90.000000
_cell_angle_gamma 90.000000
_cell_volume 2659.263090
_symmetry_space_group_name_H-M "P M M N"
_symmetry_group_IT_number 59
_space_group.IT_coordinate_system_code '2'
_symmetry_cell_setting 'orthorhombic'
loop_
_space_group_symop_operation_xyz
x,y,z
1/2-x,1/2-y,z
1/2+x,-y,-z
-x,1/2+y,-z
-x,-y,-z
1/2+x,1/2+y,-z
1/2-x,y,z
x,1/2-y,z
loop_
_atom_site_type_symbol
_atom_site_label
_atom_site_fract_x
_atom_site_fract_y
_atom_site_fract_z
Si Si1 0.036054 0.250000 0.847865
Si Si2 0.542836 0.638153 0.466208
Si Si3 0.042720 0.899639 0.653676
Si Si4 0.456242 0.029488 0.638684
Si Si5 0.958124 0.904325 0.854510
Si Si6 0.540718 0.464260 0.841351
Si Si7 0.545304 0.857554 0.036465
Si Si8 0.463775 0.250000 0.641034
O O1 0.250000 0.250000 0.845281
O O2 0.974953 0.193626 0.901816
O O3 0.981025 0.250000 0.744452
O O4 0.750000 0.636620 0.450700
O O5 0.513357 0.640440 0.572168
O O6 0.470392 0.577495 0.428197
O O7 0.476543 0.692879 0.411245
O O8 0.250000 0.903075 0.652655
O O9 0.991585 0.882632 0.754179
O O10 0.969943 0.964578 0.635439
O O11 0.250000 0.024465 0.621503
O O12 0.482281 0.050701 0.740540
O O13 0.750000 0.907686 0.865461
O O14 0.023208 0.970549 0.859873
O O15 0.028235 0.866698 0.936713
O O16 0.750000 0.464069 0.843808
O O17 0.473799 0.417808 0.911484
O O18 0.750000 0.844563 0.026604
O O19 0.250000 0.250000 0.639904
#
# Coordination Sequence:
#
# PCOD9447676 Si02
#       8
#     4   8   8   8   8   8   8   4
#     4   9  18  34  56  79 100 126 167 213 252 295
#     4  10  19  33  53  74  99 132 169 210 253 299
#     4  10  20  33  51  76 104 134 168 208 256 307
#     4   9  18  32  51  75 103 136 171 208 253 303
#     4   9  19  34  51  74 104 137 172 210 253 301
#     4  10  19  30  48  76 108 138 167 205 255 308
#     4  10  19  33  54  76 100 133 172 213 254 298
#     4   9  18  32  52  77 100 126 163 205 250 299
#
# _framework density 21.058467
#
# number of rings (size 3 to 8) (size 9 to 14) (size 15 to 20)
#    0.000    2.429    0.000    2.571    0.000    4.571 
#    0.000    1.429    0.000    3.429    0.000    0.000 
#    0.000    0.000    0.000    0.000    0.000    0.000 
#
# Total GULP energy -312646.720494 kJ/mol
# GULP energy per Si atom -5582.977152 kJ/mol
# Density = 2.101054 g / cm^3
# Si number density = 21.058467 Si / 1000 Ang^3
#
#
#
# Elastic Constant Matrix: (Units=GPa)
#
#
# Indices 1 2 3 4 5 6 
#
# 1 27.3894 2.4164 -11.6721 0.0000 0.0000 0.0000
# 2 2.4164 60.6478 87.9191 0.0000 0.0000 0.0000
# 3 -11.6721 87.9191 190.1106 0.0000 0.0000 0.0000
# 4 0.0000 0.0000 0.0000 32.2790 0.0000 0.0000
# 5 0.0000 0.0000 0.0000 0.0000 16.0294 0.0000
# 6 0.0000 0.0000 0.0000 0.0000 0.0000 5.4955
#
#
#
# Elastic Compliance Matrix: (Units=1/GPa)
#
#
# Indices 1 2 3 4 5 6 
#
# 1 0.042341 -0.016553 0.010255 0.000000 0.000000 0.000000
# 2 -0.016553 0.056500 -0.027145 0.000000 0.000000 0.000000
# 3 0.010255 -0.027145 0.018443 0.000000 0.000000 0.000000
# 4 0.000000 0.000000 0.000000 0.030980 0.000000 0.000000
# 5 0.000000 0.000000 0.000000 0.000000 0.062385 0.000000
# 6 0.000000 0.000000 0.000000 0.000000 0.000000 0.181968
#
#
# Mechanical properties :
#
#
# Convention : Reuss Voigt Hill
#
# Bulk Modulus (GPa) = 19.84237 48.38606 34.11422
# Shear Modulus (GPa) = 10.49751 24.05974 17.27863
#
# Velocity S-wave (km/s) = 2.23512 3.38379 2.86756
# Velocity P-wave (km/s) = 4.01298 6.18818 5.21524
#
# Compressibility (1/GPa) = 0.05039719
#
# Stress axis : x y z
#
# Youngs Moduli (GPa) = 23.61785 17.69919 54.21999
#
# Poissons Ratio (x) = 0.29297 -0.55600
# Poissons Ratio (y) = 0.39094 1.47182
# Poissons Ratio (z) = -0.24219 0.48045
#
# Static dielectric constant tensor:
#      x y z
#    x 1.771480 0.000000 0.000000 
#    y 0.000000 1.749210 0.000000 
#    z 0.000000 0.000000 1.712180 
# 
# From -- ./inp_files/21229.got.cif
#   From: 2010.05.17/outbox.cif.g08.bks.cpg/sg59_11_cif.got.tgz:21229.got - 2010.06.03 14:40:33.
