data_PCOD9447262
_publ_section_title
;
Structure prediction by ZEFSAII (Michael W. Deem and Ramdas Pophale) SiO2 
 PCOD9447262
Probable space group: P M M N
;
_chemical_formula_sum "Si O2"
_cell_formula_units_Z 64
_cell_length_a 8.055462
_cell_length_b 25.816551
_cell_length_c 14.938244
_cell_angle_alpha 90.000000
_cell_angle_beta 90.000000
_cell_angle_gamma 90.000000
_cell_volume 3106.620643
_symmetry_space_group_name_H-M "P M M N"
_symmetry_group_IT_number 59
_space_group.IT_coordinate_system_code '2'
_symmetry_cell_setting 'orthorhombic'
loop_
_space_group_symop_operation_xyz
x,y,z
1/2-x,1/2-y,z
1/2+x,-y,-z
-x,1/2+y,-z
-x,-y,-z
1/2+x,1/2+y,-z
1/2-x,y,z
x,1/2-y,z
loop_
_atom_site_type_symbol
_atom_site_label
_atom_site_fract_x
_atom_site_fract_y
_atom_site_fract_z
Si Si1 0.440848 0.334024 0.508949
Si Si2 0.547614 0.809391 0.289708
Si Si3 0.055145 0.942800 0.969123
Si Si4 0.446489 0.694189 0.683355
Si Si5 0.062253 0.943908 0.471169
Si Si6 0.947549 0.521628 0.290594
Si Si7 0.447436 0.105401 0.853788
Si Si8 0.953440 0.411062 0.226691
O O1 0.250000 0.316896 0.506293
O O2 0.508671 0.321122 0.608257
O O3 0.530936 0.310768 0.423394
O O4 0.453227 0.395938 0.498319
O O5 0.750000 0.814373 0.292636
O O6 0.506747 0.750000 0.267720
O O7 0.490369 0.849733 0.213611
O O8 0.250000 0.947365 0.955258
O O9 0.986127 0.923037 0.873975
O O10 0.021412 0.901988 0.048338
O O11 0.000000 0.000000 0.000000
O O12 0.250000 0.694744 0.701956
O O13 0.516784 0.750000 0.712114
O O14 0.514354 0.642785 0.731622
O O15 0.250000 0.935327 0.501990
O O16 0.048023 0.947252 0.364311
O O17 0.000000 0.000000 0.500000
O O18 0.750000 0.525405 0.312333
O O19 0.971659 0.550728 0.197159
O O20 0.996560 0.461797 0.284815
O O21 0.250000 0.112946 0.863853
O O22 0.750000 0.409809 0.226631
#
# Coordination Sequence:
#
# PCOD9447262 Si02
#       8
#     8   8   8   8   8   8   8   8
#     4  11  21  37  59  84 113 150 197 241 288 340
#     4   9  18  34  57  82 112 152 193 229 277 343
#     4  11  21  36  58  85 113 146 189 235 290 345
#     4  10  21  38  59  83 111 149 195 240 286 340
#     4  12  24  36  52  80 117 155 194 236 290 343
#     4  10  18  34  56  79 111 150 186 226 283 346
#     4  10  19  35  57  83 114 149 187 230 283 341
#     4   9  19  36  57  79 110 148 184 227 285 349
#
# _framework density 20.601163
#
# number of rings (size 3 to 8) (size 9 to 14) (size 15 to 20)
#    0.000    1.750    2.500    3.000    0.000    2.250 
#    0.000    1.875    0.000    2.625    0.000    0.000 
#    0.000    0.000    0.000    0.000    0.000    0.000 
#
# Total GULP energy -357338.721733 kJ/mol
# GULP energy per Si atom -5583.417527 kJ/mol
# Density = 2.055427 g / cm^3
# Si number density = 20.601163 Si / 1000 Ang^3
#
#
#
# Elastic Constant Matrix: (Units=GPa)
#
#
# Indices 1 2 3 4 5 6 
#
# 1 15.9720 5.2628 -0.0990 0.0000 0.0000 0.0000
# 2 5.2628 151.8348 42.5659 0.0000 0.0000 0.0000
# 3 -0.0990 42.5659 82.1650 0.0000 0.0000 0.0000
# 4 0.0000 0.0000 0.0000 16.8524 0.0000 0.0000
# 5 0.0000 0.0000 0.0000 0.0000 25.6028 0.0000
# 6 0.0000 0.0000 0.0000 0.0000 0.0000 9.8425
#
#
#
# Elastic Compliance Matrix: (Units=1/GPa)
#
#
# Indices 1 2 3 4 5 6 
#
# 1 0.063475 -0.002599 0.001423 0.000000 0.000000 0.000000
# 2 -0.002599 0.007812 -0.004050 0.000000 0.000000 0.000000
# 3 0.001423 -0.004050 0.014270 0.000000 0.000000 0.000000
# 4 0.000000 0.000000 0.000000 0.059339 0.000000 0.000000
# 5 0.000000 0.000000 0.000000 0.000000 0.039058 0.000000
# 6 0.000000 0.000000 0.000000 0.000000 0.000000 0.101600
#
#
# Mechanical properties :
#
#
# Convention : Reuss Voigt Hill
#
# Bulk Modulus (GPa) = 13.31478 38.38125 25.84801
# Shear Modulus (GPa) = 15.57434 23.94234 19.75834
#
# Velocity S-wave (km/s) = 2.75252 3.41278 3.10028
# Velocity P-wave (km/s) = 4.07172 5.84812 5.03882
#
# Compressibility (1/GPa) = 0.07510454
#
# Stress axis : x y z
#
# Youngs Moduli (GPa) = 15.75432 128.01530 70.07490
#
# Poissons Ratio (x) = 0.33272 -0.09971
# Poissons Ratio (y) = 0.04095 0.28380
# Poissons Ratio (z) = -0.02242 0.51845
#
# Static dielectric constant tensor:
#      x y z
#    x 1.751310 0.000000 0.000000 
#    y 0.000000 1.751360 0.000000 
#    z 0.000000 0.000000 1.771540 
# 
# From -- ./inp_files/21588.got.cif
#   From: 2010.05.17/outbox.cif.g08.bks.cpg/sg59_11_cif.got.tgz:21588.got - 2010.06.03 14:40:33.
