data_PCOD9447979
_publ_section_title
;
Structure prediction by ZEFSAII (Michael W. Deem and Ramdas Pophale) SiO2 
 PCOD9447979
Probable space group: P M M N
;
_chemical_formula_sum "Si O2"
_cell_formula_units_Z 56
_cell_length_a 20.485030
_cell_length_b 7.722783
_cell_length_c 15.952525
_cell_angle_alpha 90.000000
_cell_angle_beta 90.000000
_cell_angle_gamma 90.000000
_cell_volume 2523.712450
_symmetry_space_group_name_H-M "P M M N"
_symmetry_group_IT_number 59
_space_group.IT_coordinate_system_code '2'
_symmetry_cell_setting 'orthorhombic'
loop_
_space_group_symop_operation_xyz
x,y,z
1/2-x,1/2-y,z
1/2+x,-y,-z
-x,1/2+y,-z
-x,-y,-z
1/2+x,1/2+y,-z
1/2-x,y,z
x,1/2-y,z
loop_
_atom_site_type_symbol
_atom_site_label
_atom_site_fract_x
_atom_site_fract_y
_atom_site_fract_z
Si Si1 0.321932 0.038452 0.182822
Si Si2 0.044161 0.543378 0.420571
Si Si3 0.460370 0.451791 0.237395
Si Si4 0.176902 0.460612 0.988523
Si Si5 0.822617 0.454682 0.510104
Si Si6 0.825479 0.540993 0.318113
Si Si7 0.408848 0.454365 0.838028
O O1 0.250000 0.979727 0.212311
O O2 0.320554 0.250000 0.186576
O O3 0.386884 0.976211 0.229354
O O4 0.329865 0.986680 0.085220
O O5 0.046937 0.750000 0.413967
O O6 0.017287 0.476208 0.332866
O O7 0.117144 0.472238 0.437401
O O8 0.000000 0.500000 0.500000
O O9 0.456900 0.250000 0.217951
O O10 0.514294 0.526027 0.175076
O O11 0.250000 0.508464 0.959371
O O12 0.174632 0.250000 0.990780
O O13 0.122686 0.524295 0.923478
O O14 0.750000 0.529094 0.524211
O O15 0.819283 0.250000 0.527648
O O16 0.838949 0.474260 0.411522
O O17 0.750000 0.499438 0.298208
O O18 0.831173 0.750000 0.322930
O O19 0.872026 0.474753 0.244435
O O20 0.394322 0.250000 0.838386
#
# Coordination Sequence:
#
# PCOD9447979 Si02
#       7
#     8   8   8   8   8   8   8
#     4   8  16  33  55  78 105 138 179 225 266 305
#     4  11  23  39  58  78 104 138 175 216 262 315
#     4  11  23  36  52  77 107 139 175 216 264 315
#     4   8  14  28  53  81 106 137 179 222 260 301
#     4   9  19  35  53  73  97 127 164 207 258 312
#     4   9  17  29  47  73 103 133 167 208 251 298
#     4  10  19  31  50  77 108 139 174 216 261 310
#
# _framework density 22.189533999999998
#
# number of rings (size 3 to 8) (size 9 to 14) (size 15 to 20)
#    0.000    2.571    0.000    3.000    0.000    6.857 
#    0.000    0.000    0.000    3.429    0.000    4.000 
#    0.000    0.000    0.000    0.000    0.000    0.000 
#
# Total GULP energy -312633.736964 kJ/mol
# GULP energy per Si atom -5582.745303 kJ/mol
# Density = 2.213903 g / cm^3
# Si number density = 22.189534 Si / 1000 Ang^3
#
#
#
# Elastic Constant Matrix: (Units=GPa)
#
#
# Indices 1 2 3 4 5 6 
#
# 1 84.1414 -9.1514 30.5870 0.0000 0.0000 0.0000
# 2 -9.1514 28.0924 -10.6700 0.0000 0.0000 0.0000
# 3 30.5870 -10.6700 44.7227 0.0000 0.0000 0.0000
# 4 0.0000 0.0000 0.0000 3.9672 0.0000 0.0000
# 5 0.0000 0.0000 0.0000 0.0000 39.9557 0.0000
# 6 0.0000 0.0000 0.0000 0.0000 0.0000 17.4195
#
#
#
# Elastic Compliance Matrix: (Units=1/GPa)
#
#
# Indices 1 2 3 4 5 6 
#
# 1 0.015851 0.001150 -0.010566 0.000000 0.000000 0.000000
# 2 0.001150 0.039227 0.008572 0.000000 0.000000 0.000000
# 3 -0.010566 0.008572 0.031632 0.000000 0.000000 0.000000
# 4 0.000000 0.000000 0.000000 0.252070 0.000000 0.000000
# 5 0.000000 0.000000 0.000000 0.000000 0.025028 0.000000
# 6 0.000000 0.000000 0.000000 0.000000 0.000000 0.057407
#
#
# Mechanical properties :
#
#
# Convention : Reuss Voigt Hill
#
# Bulk Modulus (GPa) = 11.76160 19.83195 15.79678
# Shear Modulus (GPa) = 11.08050 22.01453 16.54751
#
# Velocity S-wave (km/s) = 2.23705 3.15320 2.73378
# Velocity P-wave (km/s) = 3.46187 4.71315 4.13512
#
# Compressibility (1/GPa) = 0.08502243
#
# Stress axis : x y z
#
# Youngs Moduli (GPa) = 63.08771 25.49234 31.61374
#
# Poissons Ratio (x) = -0.02933 0.33404
# Poissons Ratio (y) = -0.07257 -0.27100
# Poissons Ratio (z) = 0.66661 -0.21852
#
# Static dielectric constant tensor:
#      x y z
#    x 1.845860 0.000000 0.000000 
#    y 0.000000 1.830200 0.000000 
#    z 0.000000 0.000000 1.782400 
# 
# From -- ./inp_files/24267.got.cif
#   From: 2010.05.17/outbox.cif.g08.bks.cpg/sg59_13_cif.got.tgz:24267.got - 2010.06.03 14:40:33.
