data_PCOD9447724
_publ_section_title
;
Structure prediction by ZEFSAII (Michael W. Deem and Ramdas Pophale) SiO2 
 PCOD9447724
Probable space group: P M M N
;
_chemical_formula_sum "Si O2"
_cell_formula_units_Z 64
_cell_length_a 7.575837
_cell_length_b 29.797880
_cell_length_c 16.141326
_cell_angle_alpha 90.000000
_cell_angle_beta 90.000000
_cell_angle_gamma 90.000000
_cell_volume 3643.805589
_symmetry_space_group_name_H-M "P M M N"
_symmetry_group_IT_number 59
_space_group.IT_coordinate_system_code '2'
_symmetry_cell_setting 'orthorhombic'
loop_
_space_group_symop_operation_xyz
x,y,z
1/2-x,1/2-y,z
1/2+x,-y,-z
-x,1/2+y,-z
-x,-y,-z
1/2+x,1/2+y,-z
1/2-x,y,z
x,1/2-y,z
loop_
_atom_site_type_symbol
_atom_site_label
_atom_site_fract_x
_atom_site_fract_y
_atom_site_fract_z
Si Si1 0.539754 0.799371 0.605051
Si Si2 0.533425 0.947171 0.824907
Si Si3 0.463499 0.700045 0.410472
Si Si4 0.960233 0.947210 0.497506
Si Si5 0.456387 0.608793 0.335242
Si Si6 0.456459 0.549751 0.187153
Si Si7 0.533704 0.605504 0.662030
Si Si8 0.540715 0.553138 0.005221
O O1 0.750000 0.797943 0.619019
O O2 0.467259 0.750000 0.626439
O O3 0.511912 0.806239 0.506841
O O4 0.472208 0.843340 0.651435
O O5 0.750000 0.947999 0.826537
O O6 0.477853 0.917686 0.747127
O O7 0.471826 0.998784 0.813270
O O8 0.477064 0.929617 0.915701
O O9 0.250000 0.699871 0.406754
O O10 0.524012 0.750000 0.385247
O O11 0.531687 0.657509 0.359083
O O12 0.750000 0.941556 0.493797
O O13 0.022848 0.923012 0.581625
O O14 0.033686 0.922786 0.416184
O O15 0.000000 0.000000 0.500000
O O16 0.250000 0.616708 0.316407
O O17 0.534238 0.582138 0.257028
O O18 0.250000 0.544351 0.207706
O O19 0.468314 0.568479 0.093693
O O20 0.750000 0.605350 0.661567
O O21 0.750000 0.559336 0.009188
O O22 0.500000 0.500000 0.000000
#
# Coordination Sequence:
#
# PCOD9447724 Si02
#       8
#     8   8   8   8   8   8   8   8
#     4   9  16  27  44  64  84 108 143 184 219 255
#     4   8  14  25  41  59  81 109 140 171 211 258
#     4   9  17  29  45  64  87 114 145 185 229 267
#     4  11  21  31  43  61  88 123 154 181 215 257
#     4  10  19  31  46  64  88 119 153 185 222 268
#     4   9  17  29  44  61  84 115 146 182 223 261
#     4   9  16  27  42  61  85 114 144 173 212 259
#     4   9  16  27  44  64  84 110 143 181 221 262
#
# _framework density 17.564056000000001
#
# number of rings (size 3 to 8) (size 9 to 14) (size 15 to 20)
#    0.000    2.750    1.250    2.250    0.000    2.500 
#    0.000    0.000    0.000    6.000    0.000    0.875 
#    0.000    1.000    0.000    0.000    0.000    0.000 
#
# Total GULP energy -356659.146450 kJ/mol
# GULP energy per Si atom -5572.799163 kJ/mol
# Density = 1.752408 g / cm^3
# Si number density = 17.564056 Si / 1000 Ang^3
#
#
#
# Elastic Constant Matrix: (Units=GPa)
#
#
# Indices 1 2 3 4 5 6 
#
# 1 37.1180 -0.3242 -8.2708 0.0000 0.0000 0.0000
# 2 -0.3242 136.2052 80.1351 0.0000 0.0000 0.0000
# 3 -8.2708 80.1351 142.2479 0.0000 0.0000 0.0000
# 4 0.0000 0.0000 0.0000 10.2254 0.0000 0.0000
# 5 0.0000 0.0000 0.0000 0.0000 8.4961 0.0000
# 6 0.0000 0.0000 0.0000 0.0000 0.0000 6.3181
#
#
#
# Elastic Compliance Matrix: (Units=1/GPa)
#
#
# Indices 1 2 3 4 5 6 
#
# 1 0.027449 -0.001307 0.002332 0.000000 0.000000 0.000000
# 2 -0.001307 0.011044 -0.006298 0.000000 0.000000 0.000000
# 3 0.002332 -0.006298 0.010713 0.000000 0.000000 0.000000
# 4 0.000000 0.000000 0.000000 0.097795 0.000000 0.000000
# 5 0.000000 0.000000 0.000000 0.000000 0.117701 0.000000
# 6 0.000000 0.000000 0.000000 0.000000 0.000000 0.158276
#
#
# Mechanical properties :
#
#
# Convention : Reuss Voigt Hill
#
# Bulk Modulus (GPa) = 25.86503 50.96126 38.41314
# Shear Modulus (GPa) = 11.20045 21.27666 16.23855
#
# Velocity S-wave (km/s) = 2.52800 3.48426 3.04391
# Velocity P-wave (km/s) = 4.82484 6.72787 5.85420
#
# Compressibility (1/GPa) = 0.03866224
#
# Stress axis : x y z
#
# Youngs Moduli (GPa) = 36.43073 90.54825 93.34222
#
# Poissons Ratio (x) = 0.11832 -0.21769
# Poissons Ratio (y) = 0.04761 0.58782
# Poissons Ratio (z) = -0.08496 0.57023
#
# Static dielectric constant tensor:
#      x y z
#    x 1.664600 0.000000 0.000000 
#    y 0.000000 1.610050 0.000000 
#    z 0.000000 0.000000 1.602460 
# 
# From -- ./inp_files/21838.got.cif
#   From: 2010.05.17/outbox.cif.g08.bks.cpg/sg59_11_cif.got.tgz:21838.got - 2010.06.03 14:40:33.
