data_PCOD9447613
_publ_section_title
;
Structure prediction by ZEFSAII (Michael W. Deem and Ramdas Pophale) SiO2 
 PCOD9447613
Probable space group: P M M N
;
_chemical_formula_sum "Si O2"
_cell_formula_units_Z 48
_cell_length_a 7.450725
_cell_length_b 31.110854
_cell_length_c 9.876962
_cell_angle_alpha 90.000000
_cell_angle_beta 90.000000
_cell_angle_gamma 90.000000
_cell_volume 2289.464163
_symmetry_space_group_name_H-M "P M M N"
_symmetry_group_IT_number 59
_space_group.IT_coordinate_system_code '2'
_symmetry_cell_setting 'orthorhombic'
loop_
_space_group_symop_operation_xyz
x,y,z
1/2-x,1/2-y,z
1/2+x,-y,-z
-x,1/2+y,-z
-x,-y,-z
1/2+x,1/2+y,-z
1/2-x,y,z
x,1/2-y,z
loop_
_atom_site_type_symbol
_atom_site_label
_atom_site_fract_x
_atom_site_fract_y
_atom_site_fract_z
Si Si1 0.031420 0.701168 0.669331
Si Si2 0.530871 0.200837 0.639079
Si Si3 0.033891 0.547302 0.654966
Si Si4 0.538529 0.949724 0.345106
Si Si5 0.529899 0.122031 0.146390
Si Si6 0.042811 0.628965 0.158249
O O1 0.250000 0.701142 0.669666
O O2 0.975049 0.750000 0.701164
O O3 0.975397 0.690866 0.515207
O O4 0.974185 0.665036 0.774460
O O5 0.750000 0.199357 0.638127
O O6 0.479979 0.250000 0.669811
O O7 0.464000 0.166518 0.747727
O O8 0.250000 0.545671 0.662067
O O9 0.967293 0.498374 0.672207
O O10 0.970449 0.580679 0.767434
O O11 0.989631 0.562014 0.502530
O O12 0.750000 0.950543 0.318811
O O13 0.460302 0.914649 0.244658
O O14 0.750000 0.120769 0.147257
O O15 0.466986 0.122478 0.991557
O O16 0.250000 0.641449 0.136176
#
# Coordination Sequence:
#
# PCOD9447613 Si02
#       6
#     8   8   8   8   8   8
#     4   8  13  22  38  62  92 122 151 188 232 272
#     4   8  14  25  43  68  95 123 157 195 232 272
#     4   9  18  34  53  70  91 122 161 202 239 279
#     4  10  20  33  50  71  93 121 160 202 240 280
#     4   9  17  28  44  68  96 126 157 188 230 283
#     4  10  19  30  47  71  99 129 156 187 233 286
#
# _framework density 20.965605
#
# number of rings (size 3 to 8) (size 9 to 14) (size 15 to 20)
#    0.000    3.000    0.000    2.500    0.000    4.667 
#    0.000    4.167    0.000    0.500    0.000    0.000 
#    0.000    1.333    0.000    0.000    0.000    0.000 
#
# Total GULP energy -267924.211711 kJ/mol
# GULP energy per Si atom -5581.754411 kJ/mol
# Density = 2.091789 g / cm^3
# Si number density = 20.965605 Si / 1000 Ang^3
#
#
#
# Elastic Constant Matrix: (Units=GPa)
#
#
# Indices 1 2 3 4 5 6 
#
# 1 61.3086 -5.0781 -5.2967 0.0000 0.0000 0.0000
# 2 -5.0781 131.3055 126.6024 0.0000 0.0000 0.0000
# 3 -5.2967 126.6024 188.2215 0.0000 0.0000 0.0000
# 4 0.0000 0.0000 0.0000 -6.4439 0.0000 0.0000
# 5 0.0000 0.0000 0.0000 0.0000 -0.3294 0.0000
# 6 0.0000 0.0000 0.0000 0.0000 0.0000 -1.2900
#
#
#
# Elastic Compliance Matrix: (Units=1/GPa)
#
#
# Indices 1 2 3 4 5 6 
#
# 1 0.016364 0.000537 0.000099 0.000000 0.000000 0.000000
# 2 0.000537 0.021686 -0.014572 0.000000 0.000000 0.000000
# 3 0.000099 -0.014572 0.015117 0.000000 0.000000 0.000000
# 4 0.000000 0.000000 0.000000 -0.155187 0.000000 0.000000
# 5 0.000000 0.000000 0.000000 0.000000 -3.035760 0.000000
# 6 0.000000 0.000000 0.000000 0.000000 0.000000 -0.775204
#
#
# Mechanical properties :
#
#
# Convention : Reuss Voigt Hill
#
# Bulk Modulus (GPa) = 39.53075 68.14343 53.83709
# Shear Modulus (GPa) = -1.28976 16.02788 7.36906
#
# Velocity S-wave (km/s) = -0.78519 2.76793 1.87682
# Velocity P-wave (km/s) = 4.25135 6.54128 5.51644
#
# Compressibility (1/GPa) = 0.02529676
#
# Stress axis : x y z
#
# Youngs Moduli (GPa) = 61.10981 46.11208 66.15113
#
# Poissons Ratio (x) = -0.02478 -0.00655
# Poissons Ratio (y) = -0.03284 0.96393
# Poissons Ratio (z) = -0.00605 0.67193
#
# Static dielectric constant tensor:
#      x y z
#    x 1.818790 0.000000 0.000000 
#    y 0.000000 1.734070 0.000000 
#    z 0.000000 0.000000 1.711540 
# 
# From -- ./inp_files/7869.got.cif
#   From: 2010.05.17/outbox.cif.g08.bks.cpg/sg59_4_cif.got.tgz:7869.got - 2010.06.03 14:40:33.
