data_PCOD9447399
_publ_section_title
;
Structure prediction by ZEFSAII (Michael W. Deem and Ramdas Pophale) SiO2 
 PCOD9447399
Probable space group: P M M N
;
_chemical_formula_sum "Si O2"
_cell_formula_units_Z 64
_cell_length_a 24.011942
_cell_length_b 7.499134
_cell_length_c 19.975501
_cell_angle_alpha 90.000000
_cell_angle_beta 90.000000
_cell_angle_gamma 90.000000
_cell_volume 3596.963908
_symmetry_space_group_name_H-M "P M M N"
_symmetry_group_IT_number 59
_space_group.IT_coordinate_system_code '2'
_symmetry_cell_setting 'orthorhombic'
loop_
_space_group_symop_operation_xyz
x,y,z
1/2-x,1/2-y,z
1/2+x,-y,-z
-x,1/2+y,-z
-x,-y,-z
1/2+x,1/2+y,-z
1/2-x,y,z
x,1/2-y,z
loop_
_atom_site_type_symbol
_atom_site_label
_atom_site_fract_x
_atom_site_fract_y
_atom_site_fract_z
Si Si1 0.579581 0.039037 0.471959
Si Si2 0.913737 0.536622 0.023336
Si Si3 0.868655 0.532689 0.252133
Si Si4 0.813232 0.531860 0.112283
Si Si5 0.022124 0.963113 0.104118
Si Si6 0.501806 0.531286 0.250677
Si Si7 0.187029 0.464856 0.609427
Si Si8 0.971419 0.455131 0.607132
O O1 0.567662 0.250000 0.472210
O O2 0.564706 0.967672 0.545971
O O3 0.641935 0.011406 0.446924
O O4 0.535138 0.958230 0.419938
O O5 0.913879 0.750000 0.030819
O O6 0.856252 0.472366 0.055093
O O7 0.966214 0.467577 0.067075
O O8 0.927273 0.499255 0.946158
O O9 0.868372 0.750000 0.252599
O O10 0.837651 0.477476 0.184402
O O11 0.837381 0.472459 0.319174
O O12 0.933188 0.478228 0.251416
O O13 0.750000 0.472279 0.103247
O O14 0.812653 0.750000 0.112223
O O15 0.016166 0.750000 0.107967
O O16 0.024544 0.026994 0.180320
O O17 0.501275 0.750000 0.252851
O O18 0.472554 0.466523 0.318582
O O19 0.250000 0.528829 0.598276
O O20 0.188937 0.250000 0.612644
O O21 0.953412 0.250000 0.614082
#
# Coordination Sequence:
#
# PCOD9447399 Si02
#       8
#     8   8   8   8   8   8   8   8
#     4  10  19  29  43  65  90 117 144 178 222 259
#     4   9  16  26  39  59  85 110 135 169 211 250
#     4   9  14  23  40  63  87 110 143 180 205 234
#     4   9  15  23  38  61  86 111 143 179 208 239
#     4   9  16  26  42  61  81 108 140 172 210 249
#     4   9  14  24  44  64  83 110 141 175 210 246
#     4  10  19  30  46  65  86 118 155 184 211 248
#     4   9  17  30  47  64  86 114 146 180 216 260
#
# _framework density 17.792783
#
# number of rings (size 3 to 8) (size 9 to 14) (size 15 to 20)
#    0.000    2.750    2.500    0.750    0.000    2.250 
#    0.000    0.625    0.000    1.125    0.000    0.875 
#    0.000    5.000    0.000    0.000    0.000    0.000 
#
# Total GULP energy -356886.328196 kJ/mol
# GULP energy per Si atom -5576.348878 kJ/mol
# Density = 1.775229 g / cm^3
# Si number density = 17.792783 Si / 1000 Ang^3
#
#
#
# Elastic Constant Matrix: (Units=GPa)
#
#
# Indices 1 2 3 4 5 6 
#
# 1 103.4187 -1.5143 84.8240 0.0000 0.0000 0.0000
# 2 -1.5143 48.7025 2.2244 0.0000 0.0000 0.0000
# 3 84.8240 2.2244 176.7497 0.0000 0.0000 0.0000
# 4 0.0000 0.0000 0.0000 8.4159 0.0000 0.0000
# 5 0.0000 0.0000 0.0000 0.0000 21.8657 0.0000
# 6 0.0000 0.0000 0.0000 0.0000 0.0000 9.6087
#
#
#
# Elastic Compliance Matrix: (Units=1/GPa)
#
#
# Indices 1 2 3 4 5 6 
#
# 1 0.015981 0.000848 -0.007680 0.000000 0.000000 0.000000
# 2 0.000848 0.020590 -0.000666 0.000000 0.000000 0.000000
# 3 -0.007680 -0.000666 0.009352 0.000000 0.000000 0.000000
# 4 0.000000 0.000000 0.000000 0.118823 0.000000 0.000000
# 5 0.000000 0.000000 0.000000 0.000000 0.045734 0.000000
# 6 0.000000 0.000000 0.000000 0.000000 0.000000 0.104072
#
#
# Mechanical properties :
#
#
# Convention : Reuss Voigt Hill
#
# Bulk Modulus (GPa) = 32.33554 55.54880 43.94217
# Shear Modulus (GPa) = 14.71204 24.20050 19.45627
#
# Velocity S-wave (km/s) = 2.87863 3.69200 3.31039
# Velocity P-wave (km/s) = 5.40939 7.03293 6.27390
#
# Compressibility (1/GPa) = 0.03092573
#
# Stress axis : x y z
#
# Youngs Moduli (GPa) = 62.57387 48.56827 106.93026
#
# Poissons Ratio (x) = -0.04117 0.82124
# Poissons Ratio (y) = -0.05304 0.07121
# Poissons Ratio (z) = 0.48058 0.03234
#
# Static dielectric constant tensor:
#      x y z
#    x 1.580420 0.000000 0.000000 
#    y 0.000000 1.696390 0.000000 
#    z 0.000000 0.000000 1.628830 
# 
# From -- ./inp_files/31053.got.cif
#   From: 2010.05.17/outbox.cif.g08.bks.cpg/sg59_16_cif.got.tgz:31053.got - 2010.06.03 14:40:33.
