data_PCOD9447510
_publ_section_title
;
Structure prediction by ZEFSAII (Michael W. Deem and Ramdas Pophale) SiO2 
 PCOD9447510
Probable space group: P M M N
;
_chemical_formula_sum "Si O2"
_cell_formula_units_Z 56
_cell_length_a 8.712233
_cell_length_b 25.199209
_cell_length_c 16.814967
_cell_angle_alpha 90.000000
_cell_angle_beta 90.000000
_cell_angle_gamma 90.000000
_cell_volume 3691.581064
_symmetry_space_group_name_H-M "P M M N"
_symmetry_group_IT_number 59
_space_group.IT_coordinate_system_code '2'
_symmetry_cell_setting 'orthorhombic'
loop_
_space_group_symop_operation_xyz
x,y,z
1/2-x,1/2-y,z
1/2+x,-y,-z
-x,1/2+y,-z
-x,-y,-z
1/2+x,1/2+y,-z
1/2-x,y,z
x,1/2-y,z
loop_
_atom_site_type_symbol
_atom_site_label
_atom_site_fract_x
_atom_site_fract_y
_atom_site_fract_z
Si Si1 0.566729 0.689203 0.912984
Si Si2 0.064353 0.013580 0.876490
Si Si3 0.563699 0.510496 0.304406
Si Si4 0.433557 0.585082 0.985934
Si Si5 0.067043 0.811566 0.739207
Si Si6 0.565966 0.555023 0.464788
Si Si7 0.564992 0.399158 0.386096
O O1 0.750000 0.687808 0.918485
O O2 0.515518 0.750000 0.930748
O O3 0.497168 0.643216 0.967404
O O4 0.515729 0.677475 0.822414
O O5 0.250000 0.016864 0.877799
O O6 0.022533 0.956672 0.915662
O O7 0.009897 0.018142 0.785553
O O8 0.997819 0.058730 0.933819
O O9 0.750000 0.510336 0.301345
O O10 0.519485 0.553438 0.371855
O O11 0.518699 0.452789 0.338793
O O12 0.250000 0.586870 0.989004
O O13 0.250000 0.819741 0.751868
O O14 0.042180 0.750000 0.719105
O O15 0.018078 0.849817 0.668115
O O16 0.500000 0.500000 0.500000
O O17 0.750000 0.553869 0.468585
O O18 0.503261 0.598753 0.525421
O O19 0.750000 0.399806 0.392670
#
# Coordination Sequence:
#
# PCOD9447510 Si02
#       7
#     8   8   8   8   8   8   8
#     4  10  20  32  46  65  89 117 149 184 220 259
#     4   9  17  30  46  63  87 118 147 179 220 265
#     4   8  14  25  41  59  81 111 142 171 207 251
#     4  10  19  30  45  66  90 116 146 179 220 268
#     4   9  17  29  45  64  86 114 147 179 212 253
#     4   9  16  26  40  60  84 110 142 175 208 247
#     4   9  16  27  42  61  87 116 143 173 212 255
#
# _framework density 15.169651999999999
#
# number of rings (size 3 to 8) (size 9 to 14) (size 15 to 20)
#    0.000    2.857    0.000    3.000    0.000    4.286 
#    0.000    3.571    0.000    0.000    0.000    1.000 
#    0.000    5.714    0.000    0.000    0.000    0.000 
#
# Total GULP energy -311853.639999 kJ/mol
# GULP energy per Si atom -5568.815000 kJ/mol
# Density = 1.513513 g / cm^3
# Si number density = 15.169652 Si / 1000 Ang^3
#
#
#
# Elastic Constant Matrix: (Units=GPa)
#
#
# Indices 1 2 3 4 5 6 
#
# 1 20.0676 25.8576 28.6623 0.0000 0.0000 0.0000
# 2 25.8576 76.2879 56.3687 0.0000 0.0000 0.0000
# 3 28.6623 56.3687 134.4515 0.0000 0.0000 0.0000
# 4 0.0000 0.0000 0.0000 26.7185 0.0000 0.0000
# 5 0.0000 0.0000 0.0000 0.0000 24.1101 0.0000
# 6 0.0000 0.0000 0.0000 0.0000 0.0000 19.0240
#
#
#
# Elastic Compliance Matrix: (Units=1/GPa)
#
#
# Indices 1 2 3 4 5 6 
#
# 1 0.096907 -0.025473 -0.009979 0.000000 0.000000 0.000000
# 2 -0.025473 0.025687 -0.005339 0.000000 0.000000 0.000000
# 3 -0.009979 -0.005339 0.011803 0.000000 0.000000 0.000000
# 4 0.000000 0.000000 0.000000 0.037427 0.000000 0.000000
# 5 0.000000 0.000000 0.000000 0.000000 0.041476 0.000000
# 6 0.000000 0.000000 0.000000 0.000000 0.000000 0.052565
#
#
# Mechanical properties :
#
#
# Convention : Reuss Voigt Hill
#
# Bulk Modulus (GPa) = 18.93388 50.28714 34.61051
# Shear Modulus (GPa) = 13.69665 21.96509 17.83087
#
# Velocity S-wave (km/s) = 3.00809 3.80934 3.43217
# Velocity P-wave (km/s) = 4.95714 7.25051 6.21060
#
# Compressibility (1/GPa) = 0.05281539
#
# Stress axis : x y z
#
# Youngs Moduli (GPa) = 10.31921 38.92987 84.72172
#
# Poissons Ratio (x) = 0.99165 0.84544
# Poissons Ratio (y) = 0.26286 0.45234
# Poissons Ratio (z) = 0.10298 0.20785
#
# Static dielectric constant tensor:
#      x y z
#    x 1.515610 0.000000 0.000000 
#    y 0.000000 1.500660 0.000000 
#    z 0.000000 0.000000 1.514180 
# 
# From -- ./inp_files/26412.got.cif
#   From: 2010.05.17/outbox.cif.g08.bks.cpg/sg59_14_cif.got.tgz:26412.got - 2010.06.03 14:40:33.
