data_PCOD9447474
_publ_section_title
;
Structure prediction by ZEFSAII (Michael W. Deem and Ramdas Pophale) SiO2 
 PCOD9447474
Probable space group: P M M N
;
_chemical_formula_sum "Si O2"
_cell_formula_units_Z 64
_cell_length_a 19.773129
_cell_length_b 9.161177
_cell_length_c 20.590484
_cell_angle_alpha 90.000000
_cell_angle_beta 90.000000
_cell_angle_gamma 90.000000
_cell_volume 3729.865996
_symmetry_space_group_name_H-M "P M M N"
_symmetry_group_IT_number 59
_space_group.IT_coordinate_system_code '2'
_symmetry_cell_setting 'orthorhombic'
loop_
_space_group_symop_operation_xyz
x,y,z
1/2-x,1/2-y,z
1/2+x,-y,-z
-x,1/2+y,-z
-x,-y,-z
1/2+x,1/2+y,-z
1/2-x,y,z
x,1/2-y,z
loop_
_atom_site_type_symbol
_atom_site_label
_atom_site_fract_x
_atom_site_fract_y
_atom_site_fract_z
Si Si1 0.433464 0.418273 0.240229
Si Si2 0.045204 0.425338 0.096552
Si Si3 0.093310 0.581889 0.731256
Si Si4 0.090074 0.076919 0.955022
Si Si5 0.429808 0.074881 0.600006
Si Si6 0.670798 0.926224 0.516968
Si Si7 0.914737 0.074748 0.626482
Si Si8 0.828869 0.417352 0.143858
O O1 0.409748 0.250000 0.247062
O O2 0.423201 0.469177 0.165834
O O3 0.514687 0.417302 0.249027
O O4 0.407919 0.515619 0.299888
O O5 0.034248 0.250000 0.100573
O O6 0.974204 0.502714 0.080606
O O7 0.088299 0.456044 0.031783
O O8 0.114236 0.750000 0.719834
O O9 0.100006 0.490749 0.666053
O O10 0.134199 0.522774 0.792426
O O11 0.085227 0.250000 0.947482
O O12 0.153807 0.011239 0.918666
O O13 0.429121 0.250000 0.602764
O O14 0.381623 0.030358 0.540435
O O15 0.509670 0.031194 0.599591
O O16 0.750000 0.962486 0.504521
O O17 0.666885 0.750000 0.523696
O O18 0.641692 0.002791 0.581086
O O19 0.910896 0.250000 0.625230
O O20 0.750000 0.413822 0.156131
O O21 0.853210 0.250000 0.134048
#
# Coordination Sequence:
#
# PCOD9447474 Si02
#       8
#     8   8   8   8   8   8   8   8
#     4   9  16  30  52  73  99 131 164 203 248 301
#     4   9  17  31  50  73 101 131 163 204 253 301
#     4   9  17  30  48  71  97 129 168 205 242 292
#     4  10  19  29  47  74 101 128 164 211 254 294
#     4   9  19  34  52  76 105 134 166 210 257 303
#     4  10  21  37  55  74 100 136 174 208 251 311
#     4  10  20  33  52  79 107 132 165 212 261 305
#     4  10  20  34  49  65  96 141 179 208 244 299
#
# _framework density 17.158792999999999
#
# number of rings (size 3 to 8) (size 9 to 14) (size 15 to 20)
#    0.000    2.500    1.250    1.125    0.000    3.500 
#    0.000    0.000    0.000    0.750    0.000    1.750 
#    0.000    0.000    0.000    0.000    0.000    0.000 
#
# Total GULP energy -356593.566396 kJ/mol
# GULP energy per Si atom -5571.774475 kJ/mol
# Density = 1.711974 g / cm^3
# Si number density = 17.158793 Si / 1000 Ang^3
#
#
#
# Elastic Constant Matrix: (Units=GPa)
#
#
# Indices 1 2 3 4 5 6 
#
# 1 35.0835 13.2671 26.3352 0.0000 0.0000 0.0000
# 2 13.2671 16.3230 27.6868 0.0000 0.0000 0.0000
# 3 26.3352 27.6868 113.6916 0.0000 0.0000 0.0000
# 4 0.0000 0.0000 0.0000 29.3161 0.0000 0.0000
# 5 0.0000 0.0000 0.0000 0.0000 13.9450 0.0000
# 6 0.0000 0.0000 0.0000 0.0000 0.0000 18.7550
#
#
#
# Elastic Compliance Matrix: (Units=1/GPa)
#
#
# Indices 1 2 3 4 5 6 
#
# 1 0.041528 -0.029709 -0.002385 0.000000 0.000000 0.000000
# 2 -0.029709 0.125632 -0.023713 0.000000 0.000000 0.000000
# 3 -0.002385 -0.023713 0.015123 0.000000 0.000000 0.000000
# 4 0.000000 0.000000 0.000000 0.034111 0.000000 0.000000
# 5 0.000000 0.000000 0.000000 0.000000 0.071710 0.000000
# 6 0.000000 0.000000 0.000000 0.000000 0.000000 0.053319
#
#
# Mechanical properties :
#
#
# Convention : Reuss Voigt Hill
#
# Bulk Modulus (GPa) = 14.15025 33.29735 23.72380
# Shear Modulus (GPa) = 10.49116 18.92381 14.70748
#
# Velocity S-wave (km/s) = 2.47537 3.32454 2.93087
# Velocity P-wave (km/s) = 4.05394 5.84674 5.03084
#
# Compressibility (1/GPa) = 0.07067011
#
# Stress axis : x y z
#
# Youngs Moduli (GPa) = 24.08014 7.95978 66.12548
#
# Poissons Ratio (x) = 0.23647 0.15768
# Poissons Ratio (y) = 0.71539 1.56802
# Poissons Ratio (z) = 0.05742 0.18875
#
# Static dielectric constant tensor:
#      x y z
#    x 1.578710 0.000000 0.000000 
#    y 0.000000 1.582360 0.000000 
#    z 0.000000 0.000000 1.595130 
# 
# From -- ./inp_files/29781.got.cif
#   From: 2010.05.17/outbox.cif.g08.bks.cpg/sg59_15_cif.got.tgz:29781.got - 2010.06.03 14:40:33.
