data_PCOD9447160
_publ_section_title
;
Structure prediction by ZEFSAII (Michael W. Deem and Ramdas Pophale) SiO2 
 PCOD9447160
Probable space group: P M M N
;
_chemical_formula_sum "Si O2"
_cell_formula_units_Z 56
_cell_length_a 7.647832
_cell_length_b 21.790399
_cell_length_c 14.898520
_cell_angle_alpha 90.000000
_cell_angle_beta 90.000000
_cell_angle_gamma 90.000000
_cell_volume 2482.828089
_symmetry_space_group_name_H-M "P M M N"
_symmetry_group_IT_number 59
_space_group.IT_coordinate_system_code '2'
_symmetry_cell_setting 'orthorhombic'
loop_
_space_group_symop_operation_xyz
x,y,z
1/2-x,1/2-y,z
1/2+x,-y,-z
-x,1/2+y,-z
-x,-y,-z
1/2+x,1/2+y,-z
1/2-x,y,z
x,1/2-y,z
loop_
_atom_site_type_symbol
_atom_site_label
_atom_site_fract_x
_atom_site_fract_y
_atom_site_fract_z
Si Si1 0.045788 0.935668 0.612789
Si Si2 0.450885 0.457350 0.734925
Si Si3 0.963048 0.820625 0.931909
Si Si4 0.946493 0.750000 0.426424
Si Si5 0.039112 0.373574 0.886355
Si Si6 0.544578 0.250000 0.777482
Si Si7 0.545697 0.114047 0.568837
Si Si8 0.538179 0.679849 0.727967
O O1 0.250000 0.951734 0.600798
O O2 0.971837 0.926417 0.513033
O O3 0.033613 0.870161 0.660738
O O4 0.967178 0.986011 0.680239
O O5 0.250000 0.474508 0.755008
O O6 0.529726 0.429742 0.825940
O O7 0.453754 0.402588 0.661777
O O8 0.750000 0.821033 0.932583
O O9 0.015517 0.750000 0.951005
O O10 0.016439 0.835313 0.830428
O O11 0.023881 0.864598 0.011787
O O12 0.750000 0.750000 0.461496
O O13 0.949490 0.750000 0.317937
O O14 0.030079 0.814288 0.454024
O O15 0.250000 0.379295 0.888627
O O16 0.998717 0.310312 0.834619
O O17 0.750000 0.250000 0.756001
O O18 0.750000 0.100440 0.581363
O O19 0.750000 0.677718 0.724533
O O20 0.485767 0.750000 0.708634
#
# Coordination Sequence:
#
# PCOD9447160 Si02
#       8
#     8   8   8   4   8   4   8   8
#     4  10  23  40  56  78 112 150 186 228 283 335
#     4  10  21  37  57  82 111 149 192 224 263 337
#     4   8  14  28  53  82 109 138 182 233 278 326
#     4  12  24  38  56  81 112 145 184 229 276 332
#     4  10  18  32  57  82 109 148 188 223 271 331
#     4  12  22  32  50  81 120 147 178 227 276 326
#     4  11  23  38  57  81 113 147 182 230 285 328
#     4   9  19  36  58  83 107 138 189 243 281 326
#
# _framework density 22.554924
#
# number of rings (size 3 to 8) (size 9 to 14) (size 15 to 20)
#    0.000    2.000    2.143    3.000    1.000    2.000 
#    0.000    1.429    0.000    0.000    0.000    0.000 
#    0.000    0.000    0.000    0.000    0.000    0.000 
#
# Total GULP energy -312827.855879 kJ/mol
# GULP energy per Si atom -5586.211712 kJ/mol
# Density = 2.250359 g / cm^3
# Si number density = 22.554924 Si / 1000 Ang^3
#
#
#
# Elastic Constant Matrix: (Units=GPa)
#
#
# Indices 1 2 3 4 5 6 
#
# 1 57.3093 -3.7795 -3.3626 0.0000 0.0000 0.0000
# 2 -3.7795 60.5918 4.0040 0.0000 0.0000 0.0000
# 3 -3.3626 4.0040 57.9610 0.0000 0.0000 0.0000
# 4 0.0000 0.0000 0.0000 6.5274 0.0000 0.0000
# 5 0.0000 0.0000 0.0000 0.0000 6.5841 0.0000
# 6 0.0000 0.0000 0.0000 0.0000 0.0000 10.0008
#
#
#
# Elastic Compliance Matrix: (Units=1/GPa)
#
#
# Indices 1 2 3 4 5 6 
#
# 1 0.017573 0.001033 0.000948 0.000000 0.000000 0.000000
# 2 0.001033 0.016640 -0.001090 0.000000 0.000000 0.000000
# 3 0.000948 -0.001090 0.017383 0.000000 0.000000 0.000000
# 4 0.000000 0.000000 0.000000 0.153199 0.000000 0.000000
# 5 0.000000 0.000000 0.000000 0.000000 0.151880 0.000000
# 6 0.000000 0.000000 0.000000 0.000000 0.000000 0.099992
#
#
# Mechanical properties :
#
#
# Convention : Reuss Voigt Hill
#
# Bulk Modulus (GPa) = 18.73339 18.84287 18.78813
# Shear Modulus (GPa) = 10.57802 16.55582 13.56692
#
# Velocity S-wave (km/s) = 2.16797 2.71222 2.45522
# Velocity P-wave (km/s) = 3.81975 4.26387 4.04790
#
# Compressibility (1/GPa) = 0.05338062
#
# Stress axis : x y z
#
# Youngs Moduli (GPa) = 56.90561 60.09492 57.52658
#
# Poissons Ratio (x) = -0.06211 -0.05454
# Poissons Ratio (y) = -0.05881 0.06268
# Poissons Ratio (z) = -0.05395 0.06548
#
# Static dielectric constant tensor:
#      x y z
#    x 1.838030 0.000000 0.000000 
#    y 0.000000 1.835060 0.000000 
#    z 0.000000 0.000000 1.844460 
# 
# From -- ./inp_files/21232.got.cif
#   From: 2010.05.17/outbox.cif.g08.bks.cpg/sg59_11_cif.got.tgz:21232.got - 2010.06.03 14:40:33.
