data_PCOD9447990
_publ_section_title
;
Structure prediction by ZEFSAII (Michael W. Deem and Ramdas Pophale) SiO2 
 PCOD9447990
Probable space group: P M M N
;
_chemical_formula_sum "Si O2"
_cell_formula_units_Z 64
_cell_length_a 30.439532
_cell_length_b 12.782980
_cell_length_c 9.171847
_cell_angle_alpha 90.000000
_cell_angle_beta 90.000000
_cell_angle_gamma 90.000000
_cell_volume 3568.838389
_symmetry_space_group_name_H-M "P M M N"
_symmetry_group_IT_number 59
_space_group.IT_coordinate_system_code '2'
_symmetry_cell_setting 'orthorhombic'
loop_
_space_group_symop_operation_xyz
x,y,z
1/2-x,1/2-y,z
1/2+x,-y,-z
-x,1/2+y,-z
-x,-y,-z
1/2+x,1/2+y,-z
1/2-x,y,z
x,1/2-y,z
loop_
_atom_site_type_symbol
_atom_site_label
_atom_site_fract_x
_atom_site_fract_y
_atom_site_fract_z
Si Si1 0.478728 0.039336 0.849720
Si Si2 0.702453 0.137272 0.092217
Si Si3 0.142869 0.958159 0.125586
Si Si4 0.381676 0.127344 0.887218
Si Si5 0.802559 0.375989 0.614280
Si Si6 0.934358 0.127484 0.353226
Si Si7 0.938047 0.127328 0.694629
Si Si8 0.842774 0.472444 0.324821
O O1 0.433527 0.100513 0.880610
O O2 0.514398 0.107231 0.763117
O O3 0.465950 0.941378 0.747110
O O4 0.500000 0.000000 0.000000
O O5 0.750000 0.127560 0.016231
O O6 0.701925 0.250000 0.165674
O O7 0.696611 0.052332 0.215180
O O8 0.660554 0.126979 0.989467
O O9 0.180056 0.942235 0.247920
O O10 0.097610 0.932967 0.207258
O O11 0.137736 0.061315 0.024998
O O12 0.374264 0.250000 0.903106
O O13 0.361209 0.082914 0.734799
O O14 0.750000 0.378086 0.603076
O O15 0.815188 0.250000 0.620570
O O16 0.825178 0.437739 0.481002
O O17 0.944115 0.250000 0.342677
O O18 0.936843 0.095613 0.524186
O O19 0.884915 0.102958 0.300860
O O20 0.926941 0.250000 0.699672
#
# Coordination Sequence:
#
# PCOD9447990 Si02
#       8
#     8   8   8   8   8   8   8   8
#     4  11  22  39  57  87 113 148 199 250 294 347
#     4  10  19  31  50  81 118 152 186 228 282 346
#     4  11  21  36  57  84 117 154 194 236 292 352
#     4  10  23  43  61  79 113 157 207 254 290 337
#     4  11  21  35  61  96 129 155 182 232 301 365
#     4  10  21  36  57  84 119 155 186 229 292 361
#     4  11  21  36  57  82 118 155 187 232 295 361
#     4  10  20  35  58  84 117 152 195 234 288 352
#
# _framework density 17.933005999999999
#
# number of rings (size 3 to 8) (size 9 to 14) (size 15 to 20)
#    0.000    1.500    2.500    3.750    0.000    3.000 
#    0.000    0.625    0.000   14.250    0.000    0.000 
#    0.000    0.000    0.000    0.000    0.000    0.000 
#
# Total GULP energy -356412.404629 kJ/mol
# GULP energy per Si atom -5568.943822 kJ/mol
# Density = 1.789219 g / cm^3
# Si number density = 17.933006 Si / 1000 Ang^3
#
#
#
# Elastic Constant Matrix: (Units=GPa)
#
#
# Indices 1 2 3 4 5 6 
#
# 1 80.9748 32.3554 30.1664 0.0000 0.0000 0.0000
# 2 32.3554 98.1602 38.8031 0.0000 0.0000 0.0000
# 3 30.1664 38.8031 97.0064 0.0000 0.0000 0.0000
# 4 0.0000 0.0000 0.0000 22.0315 0.0000 0.0000
# 5 0.0000 0.0000 0.0000 0.0000 36.8460 0.0000
# 6 0.0000 0.0000 0.0000 0.0000 0.0000 18.9746
#
#
#
# Elastic Compliance Matrix: (Units=1/GPa)
#
#
# Indices 1 2 3 4 5 6 
#
# 1 0.015012 -0.003686 -0.003194 0.000000 0.000000 0.000000
# 2 -0.003686 0.013006 -0.004056 0.000000 0.000000 0.000000
# 3 -0.003194 -0.004056 0.012924 0.000000 0.000000 0.000000
# 4 0.000000 0.000000 0.000000 0.045390 0.000000 0.000000
# 5 0.000000 0.000000 0.000000 0.000000 0.027140 0.000000
# 6 0.000000 0.000000 0.000000 0.000000 0.000000 0.052702
#
#
# Mechanical properties :
#
#
# Convention : Reuss Voigt Hill
#
# Bulk Modulus (GPa) = 52.43749 53.19903 52.81826
# Shear Modulus (GPa) = 25.71981 27.22484 26.47233
#
# Velocity S-wave (km/s) = 3.79121 3.90056 3.84628
# Velocity P-wave (km/s) = 6.96194 7.07218 7.01728
#
# Compressibility (1/GPa) = 0.01907032
#
# Stress axis : x y z
#
# Youngs Moduli (GPa) = 66.61280 76.88923 77.37312
#
# Poissons Ratio (x) = 0.28339 0.24714
# Poissons Ratio (y) = 0.24551 0.31384
# Poissons Ratio (z) = 0.21277 0.31188
#
# Static dielectric constant tensor:
#      x y z
#    x 1.638100 0.000000 0.000000 
#    y 0.000000 1.598800 0.000000 
#    z 0.000000 0.000000 1.675810 
# 
# From -- ./inp_files/13214.got.cif
#   From: 2010.05.17/outbox.cif.g08.bks.cpg/sg59_7_cif.got.tgz:13214.got - 2010.06.03 14:40:33.
