data_PCOD9447605
_publ_section_title
;
Structure prediction by ZEFSAII (Michael W. Deem and Ramdas Pophale) SiO2 
 PCOD9447605
Probable space group: P M M N
;
_chemical_formula_sum "Si O2"
_cell_formula_units_Z 64
_cell_length_a 15.557330
_cell_length_b 8.713103
_cell_length_c 23.954885
_cell_angle_alpha 90.000000
_cell_angle_beta 90.000000
_cell_angle_gamma 90.000000
_cell_volume 3247.147392
_symmetry_space_group_name_H-M "P M M N"
_symmetry_group_IT_number 59
_space_group.IT_coordinate_system_code '2'
_symmetry_cell_setting 'orthorhombic'
loop_
_space_group_symop_operation_xyz
x,y,z
1/2-x,1/2-y,z
1/2+x,-y,-z
-x,1/2+y,-z
-x,-y,-z
1/2+x,1/2+y,-z
1/2-x,y,z
x,1/2-y,z
loop_
_atom_site_type_symbol
_atom_site_label
_atom_site_fract_x
_atom_site_fract_y
_atom_site_fract_z
Si Si1 0.403454 0.424055 0.865331
Si Si2 0.150355 0.428784 0.981854
Si Si3 0.344441 0.432105 0.203739
Si Si4 0.150675 0.568191 0.538030
Si Si5 0.348112 0.433355 0.414756
Si Si6 0.021713 0.066376 0.629120
Si Si7 0.023375 0.435626 0.754643
Si Si8 0.599935 0.422266 0.906758
O O1 0.368280 0.250000 0.859346
O O2 0.357933 0.495033 0.919221
O O3 0.412904 0.493968 0.803658
O O4 0.502262 0.416201 0.885495
O O5 0.250000 0.430752 0.997807
O O6 0.121527 0.250000 0.979923
O O7 0.101829 0.516590 0.030545
O O8 0.250000 0.484025 0.223630
O O9 0.350379 0.250000 0.211569
O O10 0.426398 0.509307 0.232749
O O11 0.352086 0.471479 0.137901
O O12 0.250000 0.542789 0.555884
O O13 0.138970 0.750000 0.528468
O O14 0.139029 0.481165 0.479378
O O15 0.083312 0.509774 0.583426
O O16 0.250000 0.478074 0.399378
O O17 0.355309 0.250000 0.409174
O O18 0.423731 0.513429 0.380658
O O19 0.026693 0.250000 0.623693
O O20 0.048065 0.021900 0.691997
O O21 0.023163 0.250000 0.758958
O O22 0.635692 0.250000 0.904447
#
# Coordination Sequence:
#
# PCOD9447605 Si02
#       8
#     8   8   8   8   8   8   8   8
#     4   8  16  33  51  67  91 124 163 202 243 293
#     4  10  19  30  47  71  96 120 151 198 252 302
#     4  10  20  33  50  73 101 132 167 210 259 310
#     4  10  21  38  60  85 114 148 187 231 277 324
#     4  10  21  37  58  85 118 153 187 224 268 323
#     4  11  22  36  57  84 115 149 185 229 277 326
#     4   9  20  37  54  73  99 135 178 217 253 303
#     4  10  19  31  49  70  95 127 160 198 245 304
#
# _framework density 19.709606000000001
#
# number of rings (size 3 to 8) (size 9 to 14) (size 15 to 20)
#    0.000    2.250    0.000    3.750    0.000    5.750 
#    0.000    5.625    0.000    2.250    0.000    0.000 
#    0.000    0.000    0.000    0.000    0.000    0.000 
#
# Total GULP energy -357013.779851 kJ/mol
# GULP energy per Si atom -5578.340310 kJ/mol
# Density = 1.966475 g / cm^3
# Si number density = 19.709606 Si / 1000 Ang^3
#
#
#
# Elastic Constant Matrix: (Units=GPa)
#
#
# Indices 1 2 3 4 5 6 
#
# 1 20.1629 1.4847 2.1832 0.0000 0.0000 0.0000
# 2 1.4847 22.0350 0.4202 0.0000 0.0000 0.0000
# 3 2.1832 0.4202 63.1746 0.0000 0.0000 0.0000
# 4 0.0000 0.0000 0.0000 22.1205 0.0000 0.0000
# 5 0.0000 0.0000 0.0000 0.0000 10.4027 0.0000
# 6 0.0000 0.0000 0.0000 0.0000 0.0000 17.2227
#
#
#
# Elastic Compliance Matrix: (Units=1/GPa)
#
#
# Indices 1 2 3 4 5 6 
#
# 1 0.050027 -0.003338 -0.001707 0.000000 0.000000 0.000000
# 2 -0.003338 0.045611 -0.000188 0.000000 0.000000 0.000000
# 3 -0.001707 -0.000188 0.015889 0.000000 0.000000 0.000000
# 4 0.000000 0.000000 0.000000 0.045207 0.000000 0.000000
# 5 0.000000 0.000000 0.000000 0.000000 0.096129 0.000000
# 6 0.000000 0.000000 0.000000 0.000000 0.000000 0.058063
#
#
# Mechanical properties :
#
#
# Convention : Reuss Voigt Hill
#
# Bulk Modulus (GPa) = 9.89503 12.61655 11.25579
# Shear Modulus (GPa) = 14.08139 16.70146 15.39142
#
# Velocity S-wave (km/s) = 2.67581 2.91413 2.79751
# Velocity P-wave (km/s) = 3.81810 4.21165 4.01969
#
# Compressibility (1/GPa) = 0.10106088
#
# Stress axis : x y z
#
# Youngs Moduli (GPa) = 19.98938 21.92462 62.93512
#
# Poissons Ratio (x) = 0.07319 0.10741
# Poissons Ratio (y) = 0.06673 0.01183
# Poissons Ratio (z) = 0.03412 0.00412
#
# Static dielectric constant tensor:
#      x y z
#    x 1.696550 0.000000 0.000000 
#    y 0.000000 1.681700 0.000000 
#    z 0.000000 0.000000 1.722160 
# 
# From -- ./inp_files/32196.got.cif
#   From: 2010.05.17/outbox.cif.g08.bks.cpg/sg59_17_cif.got.tgz:32196.got - 2010.06.03 14:40:33.
