data_PCOD9447806
_publ_section_title
;
Structure prediction by ZEFSAII (Michael W. Deem and Ramdas Pophale) SiO2 
 PCOD9447806
Probable space group: P M M N
;
_chemical_formula_sum "Si O2"
_cell_formula_units_Z 64
_cell_length_a 22.225615
_cell_length_b 9.016570
_cell_length_c 19.541359
_cell_angle_alpha 90.000000
_cell_angle_beta 90.000000
_cell_angle_gamma 90.000000
_cell_volume 3916.065157
_symmetry_space_group_name_H-M "P M M N"
_symmetry_group_IT_number 59
_space_group.IT_coordinate_system_code '2'
_symmetry_cell_setting 'orthorhombic'
loop_
_space_group_symop_operation_xyz
x,y,z
1/2-x,1/2-y,z
1/2+x,-y,-z
-x,1/2+y,-z
-x,-y,-z
1/2+x,1/2+y,-z
1/2-x,y,z
x,1/2-y,z
loop_
_atom_site_type_symbol
_atom_site_label
_atom_site_fract_x
_atom_site_fract_y
_atom_site_fract_z
Si Si1 0.996686 0.573739 0.315743
Si Si2 0.320744 0.583984 0.209705
Si Si3 0.556438 0.573423 0.038868
Si Si4 0.382075 0.423327 0.096661
Si Si5 0.056359 0.428759 0.540863
Si Si6 0.622479 0.575118 0.665273
Si Si7 0.986803 0.074339 0.168251
Si Si8 0.817216 0.570711 0.524532
O O1 0.998616 0.750000 0.305097
O O2 0.061124 0.515245 0.341856
O O3 0.951710 0.541201 0.378388
O O4 0.983711 0.495343 0.243492
O O5 0.250000 0.585901 0.220821
O O6 0.345134 0.750000 0.221433
O O7 0.335921 0.529700 0.133933
O O8 0.350015 0.470267 0.262456
O O9 0.547133 0.750000 0.044434
O O10 0.557879 0.501467 0.113553
O O11 0.500000 0.500000 0.000000
O O12 0.609385 0.548753 0.984017
O O13 0.366776 0.250000 0.105982
O O14 0.446123 0.447655 0.135995
O O15 0.052763 0.250000 0.530571
O O16 0.122313 0.479551 0.514949
O O17 0.000000 0.500000 0.500000
O O18 0.609110 0.750000 0.662796
O O19 0.668425 0.539680 0.604185
O O20 0.976722 0.250000 0.171244
O O21 0.750000 0.515605 0.505920
O O22 0.815680 0.750000 0.516908
#
# Coordination Sequence:
#
# PCOD9447806 Si02
#       8
#     8   8   8   8   8   8   8   8
#     4  11  21  31  48  73 102 135 166 206 260 309
#     4  11  23  34  45  66  98 135 173 211 250 294
#     4   9  17  29  46  69  96 124 157 195 238 288
#     4   9  18  31  47  67  92 126 165 201 242 291
#     4  10  20  34  52  75 103 133 169 212 259 310
#     4  11  20  32  51  71  96 132 173 212 249 301
#     4  10  19  31  48  71  97 126 162 200 245 299
#     4   9  18  33  53  75  98 130 172 214 255 303
#
# _framework density 16.342936000000002
#
# number of rings (size 3 to 8) (size 9 to 14) (size 15 to 20)
#    0.000    2.000    2.500    3.000    0.000    4.500 
#    0.000    0.000    0.000    1.125    0.000    0.875 
#    0.000    5.000    0.000    0.000    0.000    0.000 
#
# Total GULP energy -356702.070582 kJ/mol
# GULP energy per Si atom -5573.469853 kJ/mol
# Density = 1.630574 g / cm^3
# Si number density = 16.342936 Si / 1000 Ang^3
#
#
#
# Elastic Constant Matrix: (Units=GPa)
#
#
# Indices 1 2 3 4 5 6 
#
# 1 69.8654 16.7918 38.5772 0.0000 0.0000 0.0000
# 2 16.7918 34.9692 36.2732 0.0000 0.0000 0.0000
# 3 38.5772 36.2732 95.1015 0.0000 0.0000 0.0000
# 4 0.0000 0.0000 0.0000 21.0750 0.0000 0.0000
# 5 0.0000 0.0000 0.0000 0.0000 16.5129 0.0000
# 6 0.0000 0.0000 0.0000 0.0000 0.0000 16.1095
#
#
#
# Elastic Compliance Matrix: (Units=1/GPa)
#
#
# Indices 1 2 3 4 5 6 
#
# 1 0.018514 -0.001820 -0.006816 0.000000 0.000000 0.000000
# 2 -0.001820 0.047496 -0.017377 0.000000 0.000000 0.000000
# 3 -0.006816 -0.017377 0.019908 0.000000 0.000000 0.000000
# 4 0.000000 0.000000 0.000000 0.047450 0.000000 0.000000
# 5 0.000000 0.000000 0.000000 0.000000 0.060559 0.000000
# 6 0.000000 0.000000 0.000000 0.000000 0.000000 0.062075
#
#
# Mechanical properties :
#
#
# Convention : Reuss Voigt Hill
#
# Bulk Modulus (GPa) = 29.50623 42.58006 36.04315
# Shear Modulus (GPa) = 15.65800 17.95908 16.80854
#
# Velocity S-wave (km/s) = 3.09866 3.31855 3.21049
# Velocity P-wave (km/s) = 5.55841 6.38704 5.98708
#
# Compressibility (1/GPa) = 0.03389115
#
# Stress axis : x y z
#
# Youngs Moduli (GPa) = 54.01254 21.05436 50.23137
#
# Poissons Ratio (x) = 0.03833 0.34237
# Poissons Ratio (y) = 0.09832 0.87289
# Poissons Ratio (z) = 0.36814 0.36587
#
# Static dielectric constant tensor:
#      x y z
#    x 1.555570 0.000000 0.000000 
#    y 0.000000 1.562610 0.000000 
#    z 0.000000 0.000000 1.567710 
# 
# From -- ./inp_files/28451.got.cif
#   From: 2010.05.17/outbox.cif.g08.bks.cpg/sg59_15_cif.got.tgz:28451.got - 2010.06.03 14:40:33.
