data_PCOD9447573
_publ_section_title
;
Structure prediction by ZEFSAII (Michael W. Deem and Ramdas Pophale) SiO2 
 PCOD9447573
Probable space group: P M M N
;
_chemical_formula_sum "Si O2"
_cell_formula_units_Z 64
_cell_length_a 19.469378
_cell_length_b 9.090060
_cell_length_c 21.085104
_cell_angle_alpha 90.000000
_cell_angle_beta 90.000000
_cell_angle_gamma 90.000000
_cell_volume 3731.595618
_symmetry_space_group_name_H-M "P M M N"
_symmetry_group_IT_number 59
_space_group.IT_coordinate_system_code '2'
_symmetry_cell_setting 'orthorhombic'
loop_
_space_group_symop_operation_xyz
x,y,z
1/2-x,1/2-y,z
1/2+x,-y,-z
-x,1/2+y,-z
-x,-y,-z
1/2+x,1/2+y,-z
1/2-x,y,z
x,1/2-y,z
loop_
_atom_site_type_symbol
_atom_site_label
_atom_site_fract_x
_atom_site_fract_y
_atom_site_fract_z
Si Si1 0.830614 0.581416 0.943514
Si Si2 0.108572 0.419854 0.310067
Si Si3 0.565232 0.075074 0.033712
Si Si4 0.561485 0.074035 0.427939
Si Si5 0.942361 0.418481 0.289528
Si Si6 0.377705 0.579062 0.181603
Si Si7 0.586880 0.076008 0.564520
Si Si8 0.956748 0.580543 0.164081
O O1 0.750000 0.581671 0.956274
O O2 0.856475 0.750000 0.945820
O O3 0.843885 0.514776 0.874034
O O4 0.870073 0.483074 0.994381
O O5 0.129605 0.250000 0.306856
O O6 0.136740 0.511780 0.250784
O O7 0.123561 0.489523 0.378745
O O8 0.025089 0.423913 0.301877
O O9 0.559560 0.250000 0.030078
O O10 0.566336 0.019954 0.105917
O O11 0.500000 0.000000 0.000000
O O12 0.543037 0.250000 0.429308
O O13 0.590765 0.045886 0.357809
O O14 0.606251 0.046862 0.490972
O O15 0.492702 0.976607 0.432919
O O16 0.925996 0.250000 0.272366
O O17 0.927742 0.524515 0.231144
O O18 0.357601 0.750000 0.178308
O O19 0.460176 0.571295 0.169873
O O20 0.591291 0.250000 0.576561
O O21 0.938924 0.750000 0.151830
#
# Coordination Sequence:
#
# PCOD9447573 Si02
#       8
#     8   8   8   8   8   8   8   8
#     4  11  24  40  57  77 103 133 163 200 250 305
#     4   9  16  25  37  54  80 112 149 193 236 280
#     4  12  23  36  56  78 101 130 165 208 251 299
#     4   8  14  22  31  45  71 107 145 185 231 280
#     4   8  14  24  36  53  79 113 150 189 235 284
#     4  10  19  31  49  70  93 123 159 201 242 287
#     4   9  14  20  31  48  71 103 146 190 229 276
#     4  10  19  30  46  70  95 121 157 202 247 292
#
# _framework density 17.150841
#
# number of rings (size 3 to 8) (size 9 to 14) (size 15 to 20)
#    0.000    2.375    1.250    3.750    0.000    5.500 
#    0.000    0.000    0.000    0.000    0.000    0.000 
#    0.000    0.000    0.000    1.125    0.000   22.250 
#
# Total GULP energy -356664.363016 kJ/mol
# GULP energy per Si atom -5572.880672 kJ/mol
# Density = 1.711180 g / cm^3
# Si number density = 17.150841 Si / 1000 Ang^3
#
#
#
# Elastic Constant Matrix: (Units=GPa)
#
#
# Indices 1 2 3 4 5 6 
#
# 1 15.0026 19.4040 17.9377 0.0000 0.0000 0.0000
# 2 19.4040 129.7681 69.0784 0.0000 0.0000 0.0000
# 3 17.9377 69.0784 131.2946 0.0000 0.0000 0.0000
# 4 0.0000 0.0000 0.0000 35.3291 0.0000 0.0000
# 5 0.0000 0.0000 0.0000 0.0000 4.5054 0.0000
# 6 0.0000 0.0000 0.0000 0.0000 0.0000 10.7789
#
#
#
# Elastic Compliance Matrix: (Units=1/GPa)
#
#
# Indices 1 2 3 4 5 6 
#
# 1 0.087042 -0.009286 -0.007006 0.000000 0.000000 0.000000
# 2 -0.009286 0.011695 -0.004884 0.000000 0.000000 0.000000
# 3 -0.007006 -0.004884 0.011143 0.000000 0.000000 0.000000
# 4 0.000000 0.000000 0.000000 0.028305 0.000000 0.000000
# 5 0.000000 0.000000 0.000000 0.000000 0.221957 0.000000
# 6 0.000000 0.000000 0.000000 0.000000 0.000000 0.092774
#
#
# Mechanical properties :
#
#
# Convention : Reuss Voigt Hill
#
# Bulk Modulus (GPa) = 14.80873 54.32283 34.56578
# Shear Modulus (GPa) = 9.65663 21.43233 15.54448
#
# Velocity S-wave (km/s) = 2.37542 3.53886 3.01381
# Velocity P-wave (km/s) = 4.02202 6.95991 5.68406
#
# Compressibility (1/GPa) = 0.06752773
#
# Stress axis : x y z
#
# Youngs Moduli (GPa) = 11.48866 85.51021 89.73870
#
# Poissons Ratio (x) = 0.79401 0.62875
# Poissons Ratio (y) = 0.10668 0.43831
# Poissons Ratio (z) = 0.08049 0.41765
#
# Static dielectric constant tensor:
#      x y z
#    x 1.556670 0.000000 0.000000 
#    y 0.000000 1.580740 0.000000 
#    z 0.000000 0.000000 1.617390 
# 
# From -- ./inp_files/30917.got.cif
#   From: 2010.05.17/outbox.cif.g08.bks.cpg/sg59_16_cif.got.tgz:30917.got - 2010.06.03 14:40:33.
