data_PCOD9447459
_publ_section_title
;
Structure prediction by ZEFSAII (Michael W. Deem and Ramdas Pophale) SiO2 
 PCOD9447459
Probable space group: P M M N
;
_chemical_formula_sum "Si O2"
_cell_formula_units_Z 48
_cell_length_a 9.133717
_cell_length_b 21.803113
_cell_length_c 15.541960
_cell_angle_alpha 90.000000
_cell_angle_beta 90.000000
_cell_angle_gamma 90.000000
_cell_volume 3095.079750
_symmetry_space_group_name_H-M "P M M N"
_symmetry_group_IT_number 59
_space_group.IT_coordinate_system_code '2'
_symmetry_cell_setting 'orthorhombic'
loop_
_space_group_symop_operation_xyz
x,y,z
1/2-x,1/2-y,z
1/2+x,-y,-z
-x,1/2+y,-z
-x,-y,-z
1/2+x,1/2+y,-z
1/2-x,y,z
x,1/2-y,z
loop_
_atom_site_type_symbol
_atom_site_label
_atom_site_fract_x
_atom_site_fract_y
_atom_site_fract_z
Si Si1 0.075295 0.901161 0.648040
Si Si2 0.924986 0.565785 0.483234
Si Si3 0.924060 0.910256 0.948371
Si Si4 0.425566 0.678082 0.813449
Si Si5 0.076026 0.041650 0.705078
Si Si6 0.923678 0.451498 0.882495
O O1 0.250000 0.898712 0.632387
O O2 0.036092 0.853137 0.722176
O O3 0.990964 0.892364 0.558320
O O4 0.043409 0.969839 0.684010
O O5 0.750000 0.560432 0.492227
O O6 0.955884 0.578829 0.382827
O O7 0.000000 0.500000 0.500000
O O8 0.750000 0.902864 0.955770
O O9 0.993576 0.858382 0.888742
O O10 0.952733 0.976570 0.903934
O O11 0.997374 0.913876 0.042086
O O12 0.250000 0.670524 0.824072
O O13 0.459514 0.750000 0.813934
O O14 0.250000 0.045358 0.722268
O O15 0.987338 0.061471 0.788447
O O16 0.750000 0.441881 0.885777
#
# Coordination Sequence:
#
# PCOD9447459 Si02
#       6
#     8   8   8   8   8   8
#     4   9  17  29  44  64  92 124 156 192 231 275
#     4   9  17  27  41  63  91 123 153 184 226 273
#     4  10  20  32  46  67  94 124 157 197 240 285
#     4  10  20  34  51  69  93 127 164 200 237 279
#     4   9  16  27  43  65  93 123 152 188 231 279
#     4  10  19  29  46  69  93 124 157 191 238 292
#
# _framework density 15.508486
#
# number of rings (size 3 to 8) (size 9 to 14) (size 15 to 20)
#    0.000    2.500    1.667    2.500    0.000    5.667 
#    0.000    0.000    0.000    0.000    0.000    1.167 
#    0.000    4.000    0.000    0.000    0.000    0.000 
#
# Total GULP energy -267485.691984 kJ/mol
# GULP energy per Si atom -5572.618583 kJ/mol
# Density = 1.547319 g / cm^3
# Si number density = 15.508486 Si / 1000 Ang^3
#
#
#
# Elastic Constant Matrix: (Units=GPa)
#
#
# Indices 1 2 3 4 5 6 
#
# 1 49.2089 35.4563 76.6595 0.0000 0.0000 0.0000
# 2 35.4563 59.9316 54.9718 0.0000 0.0000 0.0000
# 3 76.6595 54.9718 174.2915 0.0000 0.0000 0.0000
# 4 0.0000 0.0000 0.0000 14.2242 0.0000 0.0000
# 5 0.0000 0.0000 0.0000 0.0000 35.5069 0.0000
# 6 0.0000 0.0000 0.0000 0.0000 0.0000 15.4680
#
#
#
# Elastic Compliance Matrix: (Units=1/GPa)
#
#
# Indices 1 2 3 4 5 6 
#
# 1 0.079966 -0.021173 -0.028494 0.000000 0.000000 0.000000
# 2 -0.021173 0.029084 0.000140 0.000000 0.000000 0.000000
# 3 -0.028494 0.000140 0.018226 0.000000 0.000000 0.000000
# 4 0.000000 0.000000 0.000000 0.070303 0.000000 0.000000
# 5 0.000000 0.000000 0.000000 0.000000 0.028164 0.000000
# 6 0.000000 0.000000 0.000000 0.000000 0.000000 0.064650
#
#
# Mechanical properties :
#
#
# Convention : Reuss Voigt Hill
#
# Bulk Modulus (GPa) = 35.43431 68.62301 52.02866
# Shear Modulus (GPa) = 12.53595 20.79612 16.66603
#
# Velocity S-wave (km/s) = 2.84620 3.66587 3.28173
# Velocity P-wave (km/s) = 5.80509 7.89068 6.92683
#
# Compressibility (1/GPa) = 0.02822124
#
# Stress axis : x y z
#
# Youngs Moduli (GPa) = 12.50536 34.38327 54.86661
#
# Poissons Ratio (x) = 0.72800 1.56335
# Poissons Ratio (y) = 0.26478 -0.00766
# Poissons Ratio (z) = 0.35632 -0.00480
#
# Static dielectric constant tensor:
#      x y z
#    x 1.516530 0.000000 0.000000 
#    y 0.000000 1.489360 0.000000 
#    z 0.000000 0.000000 1.532880 
# 
# From -- ./inp_files/20688.got.cif
#   From: 2010.05.17/outbox.cif.g08.bks.cpg/sg59_11_cif.got.tgz:20688.got - 2010.06.03 14:40:33.
