data_PCOD9447627
_publ_section_title
;
Structure prediction by ZEFSAII (Michael W. Deem and Ramdas Pophale) SiO2 
 PCOD9447627
Probable space group: P M M N
;
_chemical_formula_sum "Si O2"
_cell_formula_units_Z 48
_cell_length_a 8.588728
_cell_length_b 27.045563
_cell_length_c 12.200523
_cell_angle_alpha 90.000000
_cell_angle_beta 90.000000
_cell_angle_gamma 90.000000
_cell_volume 2834.022694
_symmetry_space_group_name_H-M "P M M N"
_symmetry_group_IT_number 59
_space_group.IT_coordinate_system_code '2'
_symmetry_cell_setting 'orthorhombic'
loop_
_space_group_symop_operation_xyz
x,y,z
1/2-x,1/2-y,z
1/2+x,-y,-z
-x,1/2+y,-z
-x,-y,-z
1/2+x,1/2+y,-z
1/2-x,y,z
x,1/2-y,z
loop_
_atom_site_type_symbol
_atom_site_label
_atom_site_fract_x
_atom_site_fract_y
_atom_site_fract_z
Si Si1 0.937879 0.693543 0.824790
Si Si2 0.567965 0.888089 0.654736
Si Si3 0.433764 0.876013 0.008195
Si Si4 0.440179 0.567860 0.211379
Si Si5 0.935329 0.052794 0.540752
Si Si6 0.932503 0.539994 0.859950
O O1 0.750000 0.692834 0.820737
O O2 0.991781 0.750000 0.818675
O O3 0.991780 0.659352 0.722932
O O4 0.986734 0.666806 0.937324
O O5 0.750000 0.880316 0.628243
O O6 0.480209 0.905429 0.546920
O O7 0.560360 0.933005 0.742075
O O8 0.250000 0.866675 0.009915
O O9 0.468562 0.926469 0.941337
O O10 0.489440 0.887562 0.131739
O O11 0.250000 0.567856 0.211631
O O12 0.492512 0.566838 0.337220
O O13 0.487044 0.515789 0.156439
O O14 0.750000 0.047777 0.546300
O O15 0.000000 0.000000 0.500000
O O16 0.750000 0.540775 0.893742
#
# Coordination Sequence:
#
# PCOD9447627 Si02
#       6
#     8   8   8   8   8   8
#     4   9  19  37  58  74  94 126 158 198 257 309
#     4   9  17  31  50  73  98 125 163 205 244 286
#     4  10  19  30  47  73  99 124 160 204 244 286
#     4   9  18  31  45  64  99 139 165 191 237 286
#     4  11  20  32  48  68  99 138 173 201 235 284
#     4   9  16  30  47  64  97 137 165 194 233 286
#
# _framework density 16.937055999999998
#
# number of rings (size 3 to 8) (size 9 to 14) (size 15 to 20)
#    0.000    2.500    1.667    2.500    0.000    3.000 
#    0.000    4.167    0.000    1.000    0.000    4.667 
#    0.000    0.000    0.000    0.000    0.000    0.000 
#
# Total GULP energy -267529.524727 kJ/mol
# GULP energy per Si atom -5573.531765 kJ/mol
# Density = 1.689851 g / cm^3
# Si number density = 16.937056 Si / 1000 Ang^3
#
#
#
# Elastic Constant Matrix: (Units=GPa)
#
#
# Indices 1 2 3 4 5 6 
#
# 1 11.4205 10.2601 9.2332 0.0000 0.0000 0.0000
# 2 10.2601 108.8667 49.3366 0.0000 0.0000 0.0000
# 3 9.2332 49.3366 93.0255 0.0000 0.0000 0.0000
# 4 0.0000 0.0000 0.0000 9.9440 0.0000 0.0000
# 5 0.0000 0.0000 0.0000 0.0000 20.5918 0.0000
# 6 0.0000 0.0000 0.0000 0.0000 0.0000 19.2665
#
#
#
# Elastic Compliance Matrix: (Units=1/GPa)
#
#
# Indices 1 2 3 4 5 6 
#
# 1 0.098461 -0.006385 -0.006386 0.000000 0.000000 0.000000
# 2 -0.006385 0.012506 -0.005999 0.000000 0.000000 0.000000
# 3 -0.006386 -0.005999 0.014565 0.000000 0.000000 0.000000
# 4 0.000000 0.000000 0.000000 0.100564 0.000000 0.000000
# 5 0.000000 0.000000 0.000000 0.000000 0.048563 0.000000
# 6 0.000000 0.000000 0.000000 0.000000 0.000000 0.051904
#
#
# Mechanical properties :
#
#
# Convention : Reuss Voigt Hill
#
# Bulk Modulus (GPa) = 11.36471 38.99694 25.18083
# Shear Modulus (GPa) = 12.70861 19.59263 16.15062
#
# Velocity S-wave (km/s) = 2.74221 3.40485 3.09134
# Velocity P-wave (km/s) = 4.09278 6.20741 5.25751
#
# Compressibility (1/GPa) = 0.08799170
#
# Stress axis : x y z
#
# Youngs Moduli (GPa) = 10.15626 79.96235 68.65732
#
# Poissons Ratio (x) = 0.51059 0.43846
# Poissons Ratio (y) = 0.06485 0.41186
# Poissons Ratio (z) = 0.06486 0.47968
#
# Static dielectric constant tensor:
#      x y z
#    x 1.579090 0.000000 0.000000 
#    y 0.000000 1.566020 0.000000 
#    z 0.000000 0.000000 1.596520 
# 
# From -- ./inp_files/14478.got.cif
#   From: 2010.05.17/outbox.cif.g08.bks.cpg/sg59_8_cif.got.tgz:14478.got - 2010.06.03 14:40:33.
