data_PCOD9447974
_publ_section_title
;
Structure prediction by ZEFSAII (Michael W. Deem and Ramdas Pophale) SiO2 
 PCOD9447974
Probable space group: P M M N
;
_chemical_formula_sum "Si O2"
_cell_formula_units_Z 64
_cell_length_a 16.345882
_cell_length_b 8.689929
_cell_length_c 23.732805
_cell_angle_alpha 90.000000
_cell_angle_beta 90.000000
_cell_angle_gamma 90.000000
_cell_volume 3371.115702
_symmetry_space_group_name_H-M "P M M N"
_symmetry_group_IT_number 59
_space_group.IT_coordinate_system_code '2'
_symmetry_cell_setting 'orthorhombic'
loop_
_space_group_symop_operation_xyz
x,y,z
1/2-x,1/2-y,z
1/2+x,-y,-z
-x,1/2+y,-z
-x,-y,-z
1/2+x,1/2+y,-z
1/2-x,y,z
x,1/2-y,z
loop_
_atom_site_type_symbol
_atom_site_label
_atom_site_fract_x
_atom_site_fract_y
_atom_site_fract_z
Si Si1 0.841196 0.563098 0.921521
Si Si2 0.340399 0.436304 0.305064
Si Si3 0.657333 0.935538 0.053833
Si Si4 0.012863 0.934604 0.869122
Si Si5 0.656192 0.573533 0.462268
Si Si6 0.091715 0.064666 0.422534
Si Si7 0.578873 0.431596 0.361829
Si Si8 0.005933 0.432349 0.746867
O O1 0.750000 0.510769 0.902759
O O2 0.840150 0.750000 0.918006
O O3 0.922084 0.510360 0.888671
O O4 0.850622 0.523907 0.987641
O O5 0.250000 0.477715 0.284255
O O6 0.348533 0.250000 0.302520
O O7 0.349778 0.482114 0.370919
O O8 0.416083 0.507246 0.271662
O O9 0.750000 0.980637 0.071714
O O10 0.652431 0.750000 0.057782
O O11 0.584253 0.006957 0.089692
O O12 0.012131 0.750000 0.870041
O O13 0.028296 0.993505 0.806277
O O14 0.750000 0.578465 0.481019
O O15 0.628593 0.750000 0.452106
O O16 0.608387 0.501674 0.515387
O O17 0.649121 0.484925 0.403709
O O18 0.100641 0.250000 0.427805
O O19 0.002003 0.031872 0.398984
O O20 0.580537 0.250000 0.351407
O O21 0.567285 0.516494 0.302867
O O22 0.004702 0.250000 0.751392
#
# Coordination Sequence:
#
# PCOD9447974 Si02
#       8
#     8   8   8   8   8   8   8   8
#     4   8  16  32  55  84 117 151 183 214 256 316
#     4   9  17  32  54  78 106 140 176 215 261 313
#     4   9  18  35  58  83 113 148 183 220 267 321
#     4  11  21  34  56  84 112 144 185 230 273 317
#     4  10  19  31  50  77 106 133 162 200 253 316
#     4   8  15  29  51  77 102 131 166 203 249 310
#     4  10  20  36  55  73  97 131 173 216 259 307
#     4  11  23  38  54  73 102 139 182 226 266 314
#
# _framework density 18.984812999999999
#
# number of rings (size 3 to 8) (size 9 to 14) (size 15 to 20)
#    0.000    2.500    0.000    4.500    0.000    2.750 
#    0.000    5.000    0.000    9.375    0.000    0.000 
#    0.000    0.000    0.000    0.000    0.000    0.000 
#
# Total GULP energy -356866.132834 kJ/mol
# GULP energy per Si atom -5576.033326 kJ/mol
# Density = 1.894160 g / cm^3
# Si number density = 18.984813 Si / 1000 Ang^3
#
#
#
# Elastic Constant Matrix: (Units=GPa)
#
#
# Indices 1 2 3 4 5 6 
#
# 1 46.9742 23.1543 21.6997 0.0000 0.0000 0.0000
# 2 23.1543 33.7706 21.7223 0.0000 0.0000 0.0000
# 3 21.6997 21.7223 75.9202 0.0000 0.0000 0.0000
# 4 0.0000 0.0000 0.0000 22.2488 0.0000 0.0000
# 5 0.0000 0.0000 0.0000 0.0000 9.8155 0.0000
# 6 0.0000 0.0000 0.0000 0.0000 0.0000 24.2755
#
#
#
# Elastic Compliance Matrix: (Units=1/GPa)
#
#
# Indices 1 2 3 4 5 6 
#
# 1 0.032948 -0.020262 -0.003620 0.000000 0.000000 0.000000
# 2 -0.020262 0.048751 -0.008157 0.000000 0.000000 0.000000
# 3 -0.003620 -0.008157 0.016540 0.000000 0.000000 0.000000
# 4 0.000000 0.000000 0.000000 0.044946 0.000000 0.000000
# 5 0.000000 0.000000 0.000000 0.000000 0.101879 0.000000
# 6 0.000000 0.000000 0.000000 0.000000 0.000000 0.041194
#
#
# Mechanical properties :
#
#
# Convention : Reuss Voigt Hill
#
# Bulk Modulus (GPa) = 29.27316 32.20194 30.73755
# Shear Modulus (GPa) = 13.82272 17.27387 15.54830
#
# Velocity S-wave (km/s) = 2.70125 3.01969 2.86490
# Velocity P-wave (km/s) = 5.01814 5.39971 5.21241
#
# Compressibility (1/GPa) = 0.03416099
#
# Stress axis : x y z
#
# Youngs Moduli (GPa) = 30.35112 20.51252 60.45816
#
# Poissons Ratio (x) = 0.41562 0.21885
# Poissons Ratio (y) = 0.61496 0.49318
# Poissons Ratio (z) = 0.10987 0.16733
#
# Static dielectric constant tensor:
#      x y z
#    x 1.699270 0.000000 0.000000 
#    y 0.000000 1.657450 0.000000 
#    z 0.000000 0.000000 1.654440 
# 
# From -- ./inp_files/31401.got.cif
#   From: 2010.05.17/outbox.cif.g08.bks.cpg/sg59_16_cif.got.tgz:31401.got - 2010.06.03 14:40:33.
