data_PCOD9447144
_publ_section_title
;
Structure prediction by ZEFSAII (Michael W. Deem and Ramdas Pophale) SiO2 
 PCOD9447144
Probable space group: P M M N
;
_chemical_formula_sum "Si O2"
_cell_formula_units_Z 48
_cell_length_a 19.602072
_cell_length_b 7.500809
_cell_length_c 14.002006
_cell_angle_alpha 90.000000
_cell_angle_beta 90.000000
_cell_angle_gamma 90.000000
_cell_volume 2058.734518
_symmetry_space_group_name_H-M "P M M N"
_symmetry_group_IT_number 59
_space_group.IT_coordinate_system_code '2'
_symmetry_cell_setting 'orthorhombic'
loop_
_space_group_symop_operation_xyz
x,y,z
1/2-x,1/2-y,z
1/2+x,-y,-z
-x,1/2+y,-z
-x,-y,-z
1/2+x,1/2+y,-z
1/2-x,y,z
x,1/2-y,z
loop_
_atom_site_type_symbol
_atom_site_label
_atom_site_fract_x
_atom_site_fract_y
_atom_site_fract_z
Si Si1 0.171518 0.966574 0.204831
Si Si2 0.826583 0.540623 0.414447
Si Si3 0.092950 0.965314 0.393248
Si Si4 0.828974 0.034040 0.010638
Si Si5 0.043562 0.030195 0.691575
Si Si6 0.466097 0.448333 0.900024
O O1 0.250000 0.019235 0.219471
O O2 0.169614 0.750000 0.203593
O O3 0.127300 0.025367 0.293926
O O4 0.151914 0.022412 0.097757
O O5 0.750000 0.464674 0.414364
O O6 0.820380 0.750000 0.393142
O O7 0.862898 0.526326 0.517349
O O8 0.881965 0.466750 0.340091
O O9 0.094514 0.750000 0.395270
O O10 0.014208 0.021736 0.384732
O O11 0.750000 0.984654 0.027869
O O12 0.832907 0.250000 0.015072
O O13 0.885000 0.957039 0.081231
O O14 0.044996 0.250000 0.693054
O O15 0.022976 0.964106 0.797107
O O16 0.492381 0.250000 0.885452
O O17 0.500000 0.500000 0.000000
#
# Coordination Sequence:
#
# PCOD9447144 Si02
#       6
#     8   8   8   8   8   8
#     4   8  14  26  47  74 103 137 173 210 261 323
#     4  10  21  37  55  77 108 142 174 212 262 318
#     4  10  18  32  56  80 102 132 177 226 264 309
#     4   9  18  34  55  79 110 147 185 226 274 327
#     4   9  20  37  56  77 103 142 184 217 259 323
#     4  11  22  37  58  82 109 143 186 231 275 326
#
# _framework density 23.315294000000002
#
# number of rings (size 3 to 8) (size 9 to 14) (size 15 to 20)
#    0.000    2.500    0.000    3.500    0.000    4.667 
#    0.000    7.500    0.000    1.000    0.000    0.000 
#    0.000    0.000    0.000    0.000    0.000    0.000 
#
# Total GULP energy -268046.608887 kJ/mol
# GULP energy per Si atom -5584.304352 kJ/mol
# Density = 2.326223 g / cm^3
# Si number density = 23.315294 Si / 1000 Ang^3
#
#
#
# Elastic Constant Matrix: (Units=GPa)
#
#
# Indices 1 2 3 4 5 6 
#
# 1 127.3693 0.9415 49.7276 0.0000 0.0000 0.0000
# 2 0.9415 57.5270 -4.9997 0.0000 0.0000 0.0000
# 3 49.7276 -4.9997 94.1527 0.0000 0.0000 0.0000
# 4 0.0000 0.0000 0.0000 2.4939 0.0000 0.0000
# 5 0.0000 0.0000 0.0000 0.0000 39.6719 0.0000
# 6 0.0000 0.0000 0.0000 0.0000 0.0000 13.8029
#
#
#
# Elastic Compliance Matrix: (Units=1/GPa)
#
#
# Indices 1 2 3 4 5 6 
#
# 1 0.009913 -0.000620 -0.005268 0.000000 0.000000 0.000000
# 2 -0.000620 0.017503 0.001257 0.000000 0.000000 0.000000
# 3 -0.005268 0.001257 0.013470 0.000000 0.000000 0.000000
# 4 0.000000 0.000000 0.000000 0.400976 0.000000 0.000000
# 5 0.000000 0.000000 0.000000 0.000000 0.025207 0.000000
# 6 0.000000 0.000000 0.000000 0.000000 0.000000 0.072448
#
#
# Mechanical properties :
#
#
# Convention : Reuss Voigt Hill
#
# Bulk Modulus (GPa) = 31.62313 41.15418 36.38866
# Shear Modulus (GPa) = 8.93942 26.75240 17.84591
#
# Velocity S-wave (km/s) = 1.96022 3.39103 2.76962
# Velocity P-wave (km/s) = 4.32620 5.74644 5.08614
#
# Compressibility (1/GPa) = 0.03162242
#
# Stress axis : x y z
#
# Youngs Moduli (GPa) = 100.88116 57.13457 74.23722
#
# Poissons Ratio (x) = 0.03543 0.39111
# Poissons Ratio (y) = 0.06256 -0.09331
# Poissons Ratio (z) = 0.53148 -0.07182
#
# Static dielectric constant tensor:
#      x y z
#    x 1.876300 0.000000 0.000000 
#    y 0.000000 1.912210 0.000000 
#    z 0.000000 0.000000 1.857750 
# 
# From -- ./inp_files/23667.got.cif
#   From: 2010.05.17/outbox.cif.g08.bks.cpg/sg59_12_cif.got.tgz:23667.got - 2010.06.03 14:40:33.
