data_PCOD9447346
_publ_section_title
;
Structure prediction by ZEFSAII (Michael W. Deem and Ramdas Pophale) SiO2 
 PCOD9447346
Probable space group: P M M N
;
_chemical_formula_sum "Si O2"
_cell_formula_units_Z 64
_cell_length_a 7.752261
_cell_length_b 14.576007
_cell_length_c 32.835236
_cell_angle_alpha 90.000000
_cell_angle_beta 90.000000
_cell_angle_gamma 90.000000
_cell_volume 3710.283510
_symmetry_space_group_name_H-M "P M M N"
_symmetry_group_IT_number 59
_space_group.IT_coordinate_system_code '2'
_symmetry_cell_setting 'orthorhombic'
loop_
_space_group_symop_operation_xyz
x,y,z
1/2-x,1/2-y,z
1/2+x,-y,-z
-x,1/2+y,-z
-x,-y,-z
1/2+x,1/2+y,-z
1/2-x,y,z
x,1/2-y,z
loop_
_atom_site_type_symbol
_atom_site_label
_atom_site_fract_x
_atom_site_fract_y
_atom_site_fract_z
Si Si1 0.458243 0.644084 0.974450
Si Si2 0.458861 0.355514 0.360307
Si Si3 0.958183 0.468723 0.103849
Si Si4 0.044565 0.352816 0.934990
Si Si5 0.949304 0.861518 0.728479
Si Si6 0.955167 0.041767 0.441921
Si Si7 0.457514 0.145548 0.183209
Si Si8 0.453473 0.147114 0.521929
O O1 0.250000 0.641840 0.974460
O O2 0.514067 0.750000 0.970917
O O3 0.520761 0.589191 0.935211
O O4 0.516996 0.611505 0.018910
O O5 0.250000 0.353044 0.358095
O O6 0.515985 0.250000 0.367904
O O7 0.524663 0.386229 0.315593
O O8 0.508747 0.421130 0.397083
O O9 0.750000 0.469917 0.101616
O O10 0.021927 0.572242 0.096712
O O11 0.003600 0.420346 0.145854
O O12 0.250000 0.345836 0.929311
O O13 0.970707 0.250000 0.932178
O O14 0.750000 0.893301 0.728254
O O15 0.946817 0.750000 0.728673
O O16 0.025624 0.886680 0.772476
O O17 0.750000 0.040025 0.448474
O O18 0.028151 0.112333 0.475426
O O19 0.023254 0.939016 0.451727
O O20 0.250000 0.150750 0.187108
O O21 0.519545 0.250000 0.175060
O O22 0.250000 0.153285 0.531041
O O23 0.526557 0.250000 0.527170
#
# Coordination Sequence:
#
# PCOD9447346 Si02
#       8
#     8   8   8   8   8   8   8   8
#     4   9  17  28  41  58  81 107 133 163 201 243
#     4   9  16  27  44  63  85 115 143 164 197 250
#     4  10  19  29  42  61  85 111 135 163 204 247
#     4   9  18  31  44  58  78 106 141 176 203 230
#     4   7  12  25  43  61  82 109 138 164 193 237
#     4  10  19  28  41  64  88 108 139 184 219 240
#     4   9  17  29  45  65  87 109 135 166 197 237
#     4   9  18  32  45  56  79 118 153 175 205 252
#
# _framework density 17.249357
#
# number of rings (size 3 to 8) (size 9 to 14) (size 15 to 20)
#    0.000    3.000    0.000    3.000    0.000    4.250 
#    0.000    1.875    0.000    2.250    0.000    0.875 
#    0.000    7.000    0.000    0.000    0.000    0.000 
#
# Total GULP energy -356474.748301 kJ/mol
# GULP energy per Si atom -5569.917942 kJ/mol
# Density = 1.721010 g / cm^3
# Si number density = 17.249357 Si / 1000 Ang^3
#
#
#
# Elastic Constant Matrix: (Units=GPa)
#
#
# Indices 1 2 3 4 5 6 
#
# 1 23.0809 4.5226 -4.4262 0.0000 0.0000 0.0000
# 2 4.5226 100.7751 78.5209 0.0000 0.0000 0.0000
# 3 -4.4262 78.5209 148.1424 0.0000 0.0000 0.0000
# 4 0.0000 0.0000 0.0000 25.2193 0.0000 0.0000
# 5 0.0000 0.0000 0.0000 0.0000 17.6071 0.0000
# 6 0.0000 0.0000 0.0000 0.0000 0.0000 11.5678
#
#
#
# Elastic Compliance Matrix: (Units=1/GPa)
#
#
# Indices 1 2 3 4 5 6 
#
# 1 0.045144 -0.005242 0.004127 0.000000 0.000000 0.000000
# 2 -0.005242 0.017513 -0.009439 0.000000 0.000000 0.000000
# 3 0.004127 -0.009439 0.011877 0.000000 0.000000 0.000000
# 4 0.000000 0.000000 0.000000 0.039652 0.000000 0.000000
# 5 0.000000 0.000000 0.000000 0.000000 0.056795 0.000000
# 6 0.000000 0.000000 0.000000 0.000000 0.000000 0.086447
#
#
# Mechanical properties :
#
#
# Convention : Reuss Voigt Hill
#
# Bulk Modulus (GPa) = 18.71730 47.69259 33.20494
# Shear Modulus (GPa) = 16.87223 23.77091 20.32157
#
# Velocity S-wave (km/s) = 3.13091 3.71627 3.43608
# Velocity P-wave (km/s) = 4.89333 6.79140 5.91895
#
# Compressibility (1/GPa) = 0.05342652
#
# Stress axis : x y z
#
# Youngs Moduli (GPa) = 22.15116 57.10032 84.19867
#
# Poissons Ratio (x) = 0.29930 -0.34750
# Poissons Ratio (y) = 0.11611 0.79477
# Poissons Ratio (z) = -0.09142 0.53898
#
# Static dielectric constant tensor:
#      x y z
#    x 1.640240 0.000000 0.000000 
#    y 0.000000 1.606750 0.000000 
#    z 0.000000 0.000000 1.596460 
# 
# From -- ./inp_files/33221.got.cif
#   From: 2010.05.17/outbox.cif.g08.bks.cpg/sg59_17_cif.got.tgz:33221.got - 2010.06.03 14:40:33.
