data_PCOD9447282
_publ_section_title
;
Structure prediction by ZEFSAII (Michael W. Deem and Ramdas Pophale) SiO2 
 PCOD9447282
Probable space group: P M M N
;
_chemical_formula_sum "Si O2"
_cell_formula_units_Z 56
_cell_length_a 15.457817
_cell_length_b 8.459903
_cell_length_c 22.520147
_cell_angle_alpha 90.000000
_cell_angle_beta 90.000000
_cell_angle_gamma 90.000000
_cell_volume 2944.996385
_symmetry_space_group_name_H-M "P M M N"
_symmetry_group_IT_number 59
_space_group.IT_coordinate_system_code '2'
_symmetry_cell_setting 'orthorhombic'
loop_
_space_group_symop_operation_xyz
x,y,z
1/2-x,1/2-y,z
1/2+x,-y,-z
-x,1/2+y,-z
-x,-y,-z
1/2+x,1/2+y,-z
1/2-x,y,z
x,1/2-y,z
loop_
_atom_site_type_symbol
_atom_site_label
_atom_site_fract_x
_atom_site_fract_y
_atom_site_fract_z
Si Si1 0.564888 0.442885 0.336109
Si Si2 0.750000 0.058360 0.387990
Si Si3 0.902593 0.439862 0.992196
Si Si4 0.344773 0.061459 0.883495
Si Si5 0.653709 0.440697 0.860454
Si Si6 0.988909 0.438406 0.205598
Si Si7 0.750000 0.559210 0.523208
Si Si8 0.057096 0.058594 0.444364
O O1 0.565409 0.250000 0.335614
O O2 0.661323 0.492434 0.355762
O O3 0.539809 0.497899 0.270361
O O4 0.493875 0.491834 0.384991
O O5 0.750000 0.250000 0.390137
O O6 0.750000 0.994833 0.454890
O O7 0.900602 0.250000 0.993742
O O8 0.851951 0.504922 0.048759
O O9 0.867756 0.492005 0.928009
O O10 0.000000 0.500000 0.000000
O O11 0.250000 0.017871 0.859828
O O12 0.354192 0.250000 0.882559
O O13 0.419540 0.988065 0.843841
O O14 0.750000 0.493597 0.844517
O O15 0.651777 0.250000 0.860887
O O16 0.581157 0.499582 0.815862
O O17 0.992173 0.250000 0.207987
O O18 0.750000 0.750000 0.525734
O O19 0.842323 0.505928 0.550964
O O20 0.057188 0.250000 0.445779
O O21 0.000000 0.000000 0.500000
#
# Coordination Sequence:
#
# PCOD9447282 Si02
#       8
#     8   4   8   8   8   8   4   8
#     4   9  20  36  56  83 113 149 191 233 282 337
#     4  10  18  34  60  84 112 148 187 230 277 342
#     4  11  21  36  61  89 117 150 189 237 294 349
#     4  11  24  40  58  84 118 154 192 238 291 347
#     4  10  22  41  63  84 113 152 191 236 293 349
#     4  11  23  39  60  85 113 151 197 242 287 342
#     4  10  20  32  54  88 118 144 181 232 287 336
#     4  10  19  35  56  82 114 147 184 231 283 334
#
# _framework density 19.015304
#
# number of rings (size 3 to 8) (size 9 to 14) (size 15 to 20)
#    0.000    1.714    2.857    1.714    1.000    2.571 
#    1.286    2.857    0.000    0.000    0.000    0.000 
#    0.000    0.000    0.000    0.000    0.000    0.000 
#
# Total GULP energy -312736.335100 kJ/mol
# GULP energy per Si atom -5584.577412 kJ/mol
# Density = 1.897202 g / cm^3
# Si number density = 19.015304 Si / 1000 Ang^3
#
#
#
# Elastic Constant Matrix: (Units=GPa)
#
#
# Indices 1 2 3 4 5 6 
#
# 1 203.3858 25.0787 85.5429 0.0000 0.0000 0.0000
# 2 25.0787 8.6861 11.0059 0.0000 0.0000 0.0000
# 3 85.5429 11.0059 129.5453 0.0000 0.0000 0.0000
# 4 0.0000 0.0000 0.0000 24.1554 0.0000 0.0000
# 5 0.0000 0.0000 0.0000 0.0000 -4.0935 0.0000
# 6 0.0000 0.0000 0.0000 0.0000 0.0000 10.7047
#
#
#
# Elastic Compliance Matrix: (Units=1/GPa)
#
#
# Indices 1 2 3 4 5 6 
#
# 1 0.009437 -0.021684 -0.004389 0.000000 0.000000 0.000000
# 2 -0.021684 0.178844 -0.000875 0.000000 0.000000 0.000000
# 3 -0.004389 -0.000875 0.010692 0.000000 0.000000 0.000000
# 4 0.000000 0.000000 0.000000 0.041399 0.000000 0.000000
# 5 0.000000 0.000000 0.000000 0.000000 -0.244289 0.000000
# 6 0.000000 0.000000 0.000000 0.000000 0.000000 0.093417
#
#
# Mechanical properties :
#
#
# Convention : Reuss Voigt Hill
#
# Bulk Modulus (GPa) = 6.89301 64.98583 35.93942
# Shear Modulus (GPa) = 26.07496 20.81928 23.44712
#
# Velocity S-wave (km/s) = 3.70707 3.31247 3.51531
# Velocity P-wave (km/s) = 4.68573 6.99140 5.95129
#
# Compressibility (1/GPa) = 0.14507455
#
# Stress axis : x y z
#
# Youngs Moduli (GPa) = 105.97077 5.59148 93.52898
#
# Poissons Ratio (x) = 0.12125 0.41050
# Poissons Ratio (y) = 2.29791 0.08187
# Poissons Ratio (z) = 0.46511 0.00489
#
# Static dielectric constant tensor:
#      x y z
#    x 1.669690 0.000000 0.000000 
#    y 0.000000 1.652970 0.000000 
#    z 0.000000 0.000000 1.636640 
# 
# From -- ./inp_files/30467.got.cif
#   From: 2010.05.17/outbox.cif.g08.bks.cpg/sg59_16_cif.got.tgz:30467.got - 2010.06.03 14:40:33.
