data_PCOD9447348
_publ_section_title
;
Structure prediction by ZEFSAII (Michael W. Deem and Ramdas Pophale) SiO2 
 PCOD9447348
Probable space group: P M M N
;
_chemical_formula_sum "Si O2"
_cell_formula_units_Z 56
_cell_length_a 7.598224
_cell_length_b 27.896105
_cell_length_c 14.968435
_cell_angle_alpha 90.000000
_cell_angle_beta 90.000000
_cell_angle_gamma 90.000000
_cell_volume 3172.722273
_symmetry_space_group_name_H-M "P M M N"
_symmetry_group_IT_number 59
_space_group.IT_coordinate_system_code '2'
_symmetry_cell_setting 'orthorhombic'
loop_
_space_group_symop_operation_xyz
x,y,z
1/2-x,1/2-y,z
1/2+x,-y,-z
-x,1/2+y,-z
-x,-y,-z
1/2+x,1/2+y,-z
1/2-x,y,z
x,1/2-y,z
loop_
_atom_site_type_symbol
_atom_site_label
_atom_site_fract_x
_atom_site_fract_y
_atom_site_fract_z
Si Si1 0.462762 0.567119 0.563094
Si Si2 0.538144 0.043356 0.117423
Si Si3 0.536536 0.380676 0.268234
Si Si4 0.457504 0.803636 0.870554
Si Si5 0.041402 0.037395 0.627298
Si Si6 0.966313 0.938843 0.175921
Si Si7 0.049063 0.122982 0.978033
O O1 0.250000 0.566163 0.565780
O O2 0.523755 0.608062 0.631628
O O3 0.528133 0.515422 0.600344
O O4 0.513876 0.570027 0.459738
O O5 0.750000 0.044247 0.105869
O O6 0.498503 0.072497 0.208129
O O7 0.458124 0.074770 0.038434
O O8 0.480473 0.988876 0.129069
O O9 0.750000 0.376821 0.270828
O O10 0.468571 0.335551 0.211338
O O11 0.250000 0.799302 0.853174
O O12 0.530895 0.750000 0.878355
O O13 0.471170 0.835319 0.960439
O O14 0.250000 0.030952 0.640168
O O15 0.974919 0.057759 0.721275
O O16 0.750000 0.937794 0.174171
O O17 0.028333 0.894084 0.116496
O O18 0.250000 0.137082 0.963380
#
# Coordination Sequence:
#
# PCOD9447348 Si02
#       7
#     8   8   8   8   8   8   8
#     4   9  15  25  40  59  82 111 143 176 210 240
#     4   9  15  27  43  58  82 119 153 176 201 243
#     4   8  13  24  44  63  81 108 141 173 208 251
#     4   9  18  33  51  67  82 107 143 177 214 267
#     4   9  16  26  40  57  82 117 149 175 200 237
#     4   9  16  27  42  59  84 121 155 176 202 248
#     4  10  19  28  41  64  89 112 141 179 220 255
#
# _framework density 17.650458
#
# number of rings (size 3 to 8) (size 9 to 14) (size 15 to 20)
#    0.000    3.000    1.429    1.714    0.000    0.286 
#    0.000    5.714    0.000    0.000    0.000    1.000 
#    0.000    3.429    0.000    0.000    0.000    0.000 
#
# Total GULP energy -311923.302744 kJ/mol
# GULP energy per Si atom -5570.058978 kJ/mol
# Density = 1.761028 g / cm^3
# Si number density = 17.650458 Si / 1000 Ang^3
#
#
#
# Elastic Constant Matrix: (Units=GPa)
#
#
# Indices 1 2 3 4 5 6 
#
# 1 30.8755 -0.0112 -8.2744 0.0000 0.0000 0.0000
# 2 -0.0112 98.0603 52.5589 0.0000 0.0000 0.0000
# 3 -8.2744 52.5589 103.6164 0.0000 0.0000 0.0000
# 4 0.0000 0.0000 0.0000 9.3071 0.0000 0.0000
# 5 0.0000 0.0000 0.0000 0.0000 13.9002 0.0000
# 6 0.0000 0.0000 0.0000 0.0000 0.0000 8.3866
#
#
#
# Elastic Compliance Matrix: (Units=1/GPa)
#
#
# Indices 1 2 3 4 5 6 
#
# 1 0.033367 -0.001956 0.003657 0.000000 0.000000 0.000000
# 2 -0.001956 0.014120 -0.007319 0.000000 0.000000 0.000000
# 3 0.003657 -0.007319 0.013655 0.000000 0.000000 0.000000
# 4 0.000000 0.000000 0.000000 0.107445 0.000000 0.000000
# 5 0.000000 0.000000 0.000000 0.000000 0.071941 0.000000
# 6 0.000000 0.000000 0.000000 0.000000 0.000000 0.119237
#
#
# Mechanical properties :
#
#
# Convention : Reuss Voigt Hill
#
# Bulk Modulus (GPa) = 20.03721 35.67761 27.85741
# Shear Modulus (GPa) = 12.89862 18.87071 15.88467
#
# Velocity S-wave (km/s) = 2.70623 3.27331 3.00318
# Velocity P-wave (km/s) = 4.59802 5.87736 5.27661
#
# Compressibility (1/GPa) = 0.04990715
#
# Stress axis : x y z
#
# Youngs Moduli (GPa) = 29.96931 70.82014 73.23132
#
# Poissons Ratio (x) = 0.13854 -0.26780
# Poissons Ratio (y) = 0.05863 0.53595
# Poissons Ratio (z) = -0.10959 0.51831
#
# Static dielectric constant tensor:
#      x y z
#    x 1.667640 0.000000 0.000000 
#    y 0.000000 1.590460 0.000000 
#    z 0.000000 0.000000 1.640830 
# 
# From -- ./inp_files/21750.got.cif
#   From: 2010.05.17/outbox.cif.g08.bks.cpg/sg59_11_cif.got.tgz:21750.got - 2010.06.03 14:40:33.
