data_PCOD9447201
_publ_section_title
;
Structure prediction by ZEFSAII (Michael W. Deem and Ramdas Pophale) SiO2 
 PCOD9447201
Probable space group: P M M N
;
_chemical_formula_sum "Si O2"
_cell_formula_units_Z 64
_cell_length_a 8.238439
_cell_length_b 18.608133
_cell_length_c 22.352176
_cell_angle_alpha 90.000000
_cell_angle_beta 90.000000
_cell_angle_gamma 90.000000
_cell_volume 3426.632584
_symmetry_space_group_name_H-M "P M M N"
_symmetry_group_IT_number 59
_space_group.IT_coordinate_system_code '2'
_symmetry_cell_setting 'orthorhombic'
loop_
_space_group_symop_operation_xyz
x,y,z
1/2-x,1/2-y,z
1/2+x,-y,-z
-x,1/2+y,-z
-x,-y,-z
1/2+x,1/2+y,-z
1/2-x,y,z
x,1/2-y,z
loop_
_atom_site_type_symbol
_atom_site_label
_atom_site_fract_x
_atom_site_fract_y
_atom_site_fract_z
Si Si1 0.553781 0.914397 0.377177
Si Si2 0.442275 0.973689 0.064118
Si Si3 0.551315 0.167537 0.271462
Si Si4 0.442429 0.951090 0.818145
Si Si5 0.948030 0.170256 0.874009
Si Si6 0.056207 0.906885 0.246237
Si Si7 0.445877 0.920310 0.611285
Si Si8 0.446247 0.332165 0.504102
O O1 0.750000 0.914609 0.376882
O O2 0.495825 0.887212 0.312791
O O3 0.498944 0.866685 0.433156
O O4 0.497890 0.997105 0.385115
O O5 0.250000 0.967353 0.061656
O O6 0.507062 0.895157 0.084390
O O7 0.484374 0.027790 0.118084
O O8 0.500000 0.000000 0.000000
O O9 0.750000 0.167395 0.271643
O O10 0.497846 0.250000 0.271142
O O11 0.498476 0.121263 0.214050
O O12 0.498740 0.125614 0.331280
O O13 0.250000 0.945855 0.825817
O O14 0.479309 0.017008 0.773109
O O15 0.750000 0.170811 0.876768
O O16 0.005307 0.250000 0.889568
O O17 0.990980 0.148962 0.805843
O O18 0.250000 0.915062 0.243739
O O19 0.250000 0.921695 0.612792
O O20 0.499098 0.881271 0.550882
O O21 0.250000 0.331378 0.504668
O O22 0.503181 0.250000 0.497129
#
# Coordination Sequence:
#
# PCOD9447201 Si02
#       8
#     8   8   8   8   8   8   8   8
#     4  10  20  35  53  73 100 136 175 213 261 320
#     4  10  20  35  57  83 109 143 182 219 257 302
#     4   9  17  30  51  78 103 131 172 218 261 307
#     4  10  18  33  55  77 107 141 171 210 257 310
#     4   8  16  32  53  78 107 137 173 216 256 297
#     4  10  19  31  52  80 106 133 169 215 261 308
#     4  10  19  34  55  75  96 131 178 223 259 307
#     4  10  22  37  50  70 103 137 169 215 274 327
#
# _framework density 18.677229000000001
#
# number of rings (size 3 to 8) (size 9 to 14) (size 15 to 20)
#    0.000    2.375    1.250    2.625    0.000    2.250 
#    0.000    0.625    0.000   19.125    0.000    0.000 
#    0.000    0.000    0.000    0.000    0.000    0.000 
#
# Total GULP energy -357111.505504 kJ/mol
# GULP energy per Si atom -5579.867274 kJ/mol
# Density = 1.863472 g / cm^3
# Si number density = 18.677229 Si / 1000 Ang^3
#
#
#
# Elastic Constant Matrix: (Units=GPa)
#
#
# Indices 1 2 3 4 5 6 
#
# 1 10.1580 15.1083 12.1101 0.0000 0.0000 0.0000
# 2 15.1083 81.7769 54.1920 0.0000 0.0000 0.0000
# 3 12.1101 54.1920 149.0597 0.0000 0.0000 0.0000
# 4 0.0000 0.0000 0.0000 16.8395 0.0000 0.0000
# 5 0.0000 0.0000 0.0000 0.0000 30.9970 0.0000
# 6 0.0000 0.0000 0.0000 0.0000 0.0000 13.6321
#
#
#
# Elastic Compliance Matrix: (Units=1/GPa)
#
#
# Indices 1 2 3 4 5 6 
#
# 1 0.136466 -0.023535 -0.002530 0.000000 0.000000 0.000000
# 2 -0.023535 0.020168 -0.005420 0.000000 0.000000 0.000000
# 3 -0.002530 -0.005420 0.008885 0.000000 0.000000 0.000000
# 4 0.000000 0.000000 0.000000 0.059384 0.000000 0.000000
# 5 0.000000 0.000000 0.000000 0.000000 0.032261 0.000000
# 6 0.000000 0.000000 0.000000 0.000000 0.000000 0.073356
#
#
# Mechanical properties :
#
#
# Convention : Reuss Voigt Hill
#
# Bulk Modulus (GPa) = 9.75162 44.86838 27.31000
# Shear Modulus (GPa) = 11.69114 22.93268 17.31191
#
# Velocity S-wave (km/s) = 2.50463 3.50786 3.04780
# Velocity P-wave (km/s) = 3.68737 6.36254 5.19993
#
# Compressibility (1/GPa) = 0.10254702
#
# Stress axis : x y z
#
# Youngs Moduli (GPa) = 7.32786 49.58228 112.55008
#
# Poissons Ratio (x) = 1.16692 0.28480
# Poissons Ratio (y) = 0.17246 0.61006
# Poissons Ratio (z) = 0.01854 0.26875
#
# Static dielectric constant tensor:
#      x y z
#    x 1.669350 0.000000 0.000000 
#    y 0.000000 1.651070 0.000000 
#    z 0.000000 0.000000 1.631600 
# 
# From -- ./inp_files/29490.got.cif
#   From: 2010.05.17/outbox.cif.g08.bks.cpg/sg59_15_cif.got.tgz:29490.got - 2010.06.03 14:40:33.
