data_PCOD9447901
_publ_section_title
;
Structure prediction by ZEFSAII (Michael W. Deem and Ramdas Pophale) SiO2 
 PCOD9447901
Probable space group: P M M N
;
_chemical_formula_sum "Si O2"
_cell_formula_units_Z 64
_cell_length_a 8.991201
_cell_length_b 14.162826
_cell_length_c 31.320744
_cell_angle_alpha 90.000000
_cell_angle_beta 90.000000
_cell_angle_gamma 90.000000
_cell_volume 3988.409077
_symmetry_space_group_name_H-M "P M M N"
_symmetry_group_IT_number 59
_space_group.IT_coordinate_system_code '2'
_symmetry_cell_setting 'orthorhombic'
loop_
_space_group_symop_operation_xyz
x,y,z
1/2-x,1/2-y,z
1/2+x,-y,-z
-x,1/2+y,-z
-x,-y,-z
1/2+x,1/2+y,-z
1/2-x,y,z
x,1/2-y,z
loop_
_atom_site_type_symbol
_atom_site_label
_atom_site_fract_x
_atom_site_fract_y
_atom_site_fract_z
Si Si1 0.070204 0.360464 0.623975
Si Si2 0.429118 0.525249 0.933338
Si Si3 0.922572 0.987305 0.683929
Si Si4 0.570417 0.140784 0.245533
Si Si5 0.430917 0.643053 0.852995
Si Si6 0.571131 0.141783 0.981847
Si Si7 0.419169 0.360714 0.399496
Si Si8 0.424733 0.491728 0.545806
O O1 0.250000 0.367836 0.626310
O O2 0.029920 0.250000 0.625340
O O3 0.023403 0.409624 0.578962
O O4 0.000868 0.421661 0.662537
O O5 0.250000 0.516251 0.932361
O O6 0.480821 0.568865 0.888497
O O7 0.499940 0.426228 0.946651
O O8 0.466437 0.597817 0.971781
O O9 0.750000 0.008235 0.693024
O O10 0.928507 0.908508 0.646650
O O11 0.000809 0.938099 0.724074
O O12 0.750000 0.136449 0.248372
O O13 0.527818 0.250000 0.256580
O O14 0.526856 0.124641 0.196040
O O15 0.250000 0.642865 0.853883
O O16 0.477571 0.750000 0.864232
O O17 0.750000 0.138770 0.978120
O O18 0.522519 0.250000 0.978722
O O19 0.250000 0.377893 0.415679
O O20 0.443303 0.250000 0.396868
O O21 0.536048 0.412384 0.429393
O O22 0.500000 0.500000 0.500000
O O23 0.250000 0.479225 0.539914
#
# Coordination Sequence:
#
# PCOD9447901 Si02
#       8
#     8   8   8   8   8   8   8   8
#     4   9  19  36  55  72  92 123 162 200 235 270
#     4   9  16  27  45  66  87 115 153 194 230 268
#     4  10  19  31  49  73  99 123 149 186 230 276
#     4   9  17  29  47  71  97 125 155 187 227 277
#     4   8  14  26  45  68  92 119 153 190 226 268
#     4   9  17  28  42  62  89 120 151 185 231 281
#     4   9  18  32  48  66  91 123 153 181 218 263
#     4  10  20  33  49  71  97 124 155 189 227 270
#
# _framework density 16.046499000000001
#
# number of rings (size 3 to 8) (size 9 to 14) (size 15 to 20)
#    0.000    2.875    0.000    2.250    0.000    4.500 
#    0.000    1.875    0.000    2.625    0.000    1.750 
#    0.000    0.000    0.000    0.000    0.000    0.000 
#
# Total GULP energy -356492.210846 kJ/mol
# GULP energy per Si atom -5570.190794 kJ/mol
# Density = 1.600998 g / cm^3
# Si number density = 16.046499 Si / 1000 Ang^3
#
#
#
# Elastic Constant Matrix: (Units=GPa)
#
#
# Indices 1 2 3 4 5 6 
#
# 1 23.7385 35.8333 32.3657 0.0000 0.0000 0.0000
# 2 35.8333 135.5878 67.9071 0.0000 0.0000 0.0000
# 3 32.3657 67.9071 94.0404 0.0000 0.0000 0.0000
# 4 0.0000 0.0000 0.0000 15.8517 0.0000 0.0000
# 5 0.0000 0.0000 0.0000 0.0000 22.9101 0.0000
# 6 0.0000 0.0000 0.0000 0.0000 0.0000 22.5925
#
#
#
# Elastic Compliance Matrix: (Units=1/GPa)
#
#
# Indices 1 2 3 4 5 6 
#
# 1 0.092550 -0.013325 -0.022230 0.000000 0.000000 0.000000
# 2 -0.013325 0.013472 -0.005142 0.000000 0.000000 0.000000
# 3 -0.022230 -0.005142 0.021998 0.000000 0.000000 0.000000
# 4 0.000000 0.000000 0.000000 0.063085 0.000000 0.000000
# 5 0.000000 0.000000 0.000000 0.000000 0.043649 0.000000
# 6 0.000000 0.000000 0.000000 0.000000 0.000000 0.044262
#
#
# Mechanical properties :
#
#
# Convention : Reuss Voigt Hill
#
# Bulk Modulus (GPa) = 21.44812 58.39764 39.92288
# Shear Modulus (GPa) = 13.29951 20.08824 16.69387
#
# Velocity S-wave (km/s) = 2.88203 3.54203 3.22893
# Velocity P-wave (km/s) = 4.94672 7.29381 6.23176
#
# Compressibility (1/GPa) = 0.04662414
#
# Stress axis : x y z
#
# Youngs Moduli (GPa) = 10.80499 74.22574 45.45871
#
# Poissons Ratio (x) = 0.98909 1.01056
# Poissons Ratio (y) = 0.14398 0.23376
# Poissons Ratio (z) = 0.24020 0.38169
#
# Static dielectric constant tensor:
#      x y z
#    x 1.558080 0.000000 0.000000 
#    y 0.000000 1.522060 0.000000 
#    z 0.000000 0.000000 1.532180 
# 
# From -- ./inp_files/33198.got.cif
#   From: 2010.05.17/outbox.cif.g08.bks.cpg/sg59_17_cif.got.tgz:33198.got - 2010.06.03 14:40:33.
