data_PCOD9447121
_publ_section_title
;
Structure prediction by ZEFSAII (Michael W. Deem and Ramdas Pophale) SiO2 
 PCOD9447121
Probable space group: P M M N
;
_chemical_formula_sum "Si O2"
_cell_formula_units_Z 64
_cell_length_a 7.884937
_cell_length_b 15.231269
_cell_length_c 26.743635
_cell_angle_alpha 90.000000
_cell_angle_beta 90.000000
_cell_angle_gamma 90.000000
_cell_volume 3211.846285
_symmetry_space_group_name_H-M "P M M N"
_symmetry_group_IT_number 59
_space_group.IT_coordinate_system_code '2'
_symmetry_cell_setting 'orthorhombic'
loop_
_space_group_symop_operation_xyz
x,y,z
1/2-x,1/2-y,z
1/2+x,-y,-z
-x,1/2+y,-z
-x,-y,-z
1/2+x,1/2+y,-z
1/2-x,y,z
x,1/2-y,z
loop_
_atom_site_type_symbol
_atom_site_label
_atom_site_fract_x
_atom_site_fract_y
_atom_site_fract_z
Si Si1 0.547213 0.505312 0.442232
Si Si2 0.947723 0.994970 0.181946
Si Si3 0.952435 0.149403 0.635303
Si Si4 0.545211 0.848435 0.887960
Si Si5 0.548997 0.350221 0.370390
Si Si6 0.453760 0.398187 0.001679
Si Si7 0.042941 0.153552 0.892310
Si Si8 0.051701 0.006980 0.295059
O O1 0.500000 0.500000 0.500000
O O2 0.750000 0.505882 0.437387
O O3 0.483451 0.594189 0.415416
O O4 0.481356 0.419015 0.412163
O O5 0.750000 0.976213 0.190740
O O6 0.966284 0.082533 0.149527
O O7 0.020071 0.919591 0.145701
O O8 0.030459 0.002090 0.235902
O O9 0.750000 0.156545 0.642179
O O10 0.019240 0.250000 0.635631
O O11 0.018220 0.081486 0.677977
O O12 0.750000 0.860539 0.887723
O O13 0.507558 0.750000 0.872099
O O14 0.485332 0.861435 0.945268
O O15 0.750000 0.342608 0.379220
O O16 0.480466 0.250000 0.370109
O O17 0.525891 0.405014 0.319117
O O18 0.250000 0.386627 0.001832
O O19 0.500000 0.500000 0.000000
O O20 0.516714 0.358477 0.949449
O O21 0.250000 0.146487 0.894067
O O22 0.998560 0.250000 0.874368
O O23 0.250000 0.011193 0.307398
#
# Coordination Sequence:
#
# PCOD9447121 Si02
#       8
#     8   8   8   8   8   8   8   8
#     4  10  20  34  54  84 120 154 188 227 270 318
#     4  11  22  36  55  79 106 138 174 218 268 318
#     4   9  19  37  59  81 108 146 188 228 275 326
#     4  10  21  36  55  78 104 137 175 215 262 316
#     4   9  19  37  59  81 107 143 186 228 270 316
#     4  10  18  32  55  78 103 135 170 210 258 313
#     4   9  18  33  53  77 104 135 171 209 255 314
#     4  10  21  37  57  80 107 139 176 224 275 325
#
# _framework density 19.926234000000001
#
# number of rings (size 3 to 8) (size 9 to 14) (size 15 to 20)
#    0.000    2.250    1.250    1.500    0.000    4.750 
#    0.000    1.250    0.000    3.750    0.000    0.000 
#    0.000    0.000    0.000    0.000    0.000    0.000 
#
# Total GULP energy -357003.599581 kJ/mol
# GULP energy per Si atom -5578.181243 kJ/mol
# Density = 1.988088 g / cm^3
# Si number density = 19.926234 Si / 1000 Ang^3
#
#
#
# Elastic Constant Matrix: (Units=GPa)
#
#
# Indices 1 2 3 4 5 6 
#
# 1 19.5179 4.9765 -4.7958 0.0000 0.0000 0.0000
# 2 4.9765 158.2197 61.0921 0.0000 0.0000 0.0000
# 3 -4.7958 61.0921 131.9504 0.0000 0.0000 0.0000
# 4 0.0000 0.0000 0.0000 34.8992 0.0000 0.0000
# 5 0.0000 0.0000 0.0000 0.0000 8.2523 0.0000
# 6 0.0000 0.0000 0.0000 0.0000 0.0000 19.7972
#
#
#
# Elastic Compliance Matrix: (Units=1/GPa)
#
#
# Indices 1 2 3 4 5 6 
#
# 1 0.052785 -0.002924 0.003272 0.000000 0.000000 0.000000
# 2 -0.002924 0.007858 -0.003745 0.000000 0.000000 0.000000
# 3 0.003272 -0.003745 0.009431 0.000000 0.000000 0.000000
# 4 0.000000 0.000000 0.000000 0.028654 0.000000 0.000000
# 5 0.000000 0.000000 0.000000 0.000000 0.121179 0.000000
# 6 0.000000 0.000000 0.000000 0.000000 0.000000 0.050512
#
#
# Mechanical properties :
#
#
# Convention : Reuss Voigt Hill
#
# Bulk Modulus (GPa) = 15.80235 48.02595 31.91415
# Shear Modulus (GPa) = 16.76138 29.15074 22.95606
#
# Velocity S-wave (km/s) = 2.90344 3.82898 3.39787
# Velocity P-wave (km/s) = 4.38037 6.61077 5.60758
#
# Compressibility (1/GPa) = 0.06328174
#
# Stress axis : x y z
#
# Youngs Moduli (GPa) = 18.94495 127.25679 106.03082
#
# Poissons Ratio (x) = 0.37206 -0.34694
# Poissons Ratio (y) = 0.05539 0.39703
# Poissons Ratio (z) = -0.06199 0.47652
#
# Static dielectric constant tensor:
#      x y z
#    x 1.764490 0.000000 0.000000 
#    y 0.000000 1.720610 0.000000 
#    z 0.000000 0.000000 1.682740 
# 
# From -- ./inp_files/31645.got.cif
#   From: 2010.05.17/outbox.cif.g08.bks.cpg/sg59_16_cif.got.tgz:31645.got - 2010.06.03 14:40:33.
