data_PCOD9447134
_publ_section_title
;
Structure prediction by ZEFSAII (Michael W. Deem and Ramdas Pophale) SiO2 
 PCOD9447134
Probable space group: P M M N
;
_chemical_formula_sum "Si O2"
_cell_formula_units_Z 48
_cell_length_a 15.616376
_cell_length_b 7.738407
_cell_length_c 19.698040
_cell_angle_alpha 90.000000
_cell_angle_beta 90.000000
_cell_angle_gamma 90.000000
_cell_volume 2380.426847
_symmetry_space_group_name_H-M "P M M N"
_symmetry_group_IT_number 59
_space_group.IT_coordinate_system_code '2'
_symmetry_cell_setting 'orthorhombic'
loop_
_space_group_symop_operation_xyz
x,y,z
1/2-x,1/2-y,z
1/2+x,-y,-z
-x,1/2+y,-z
-x,-y,-z
1/2+x,1/2+y,-z
1/2-x,y,z
x,1/2-y,z
loop_
_atom_site_type_symbol
_atom_site_label
_atom_site_fract_x
_atom_site_fract_y
_atom_site_fract_z
Si Si1 0.846444 0.542656 0.175824
Si Si2 0.847617 0.961831 0.824882
Si Si3 0.404513 0.457894 0.675936
Si Si4 0.750000 0.961972 0.575224
Si Si5 0.099954 0.043102 0.326138
Si Si6 0.750000 0.961747 0.419555
Si Si7 0.499114 0.045483 0.078824
O O1 0.750000 0.478059 0.163349
O O2 0.841492 0.750000 0.181366
O O3 0.881213 0.476930 0.248452
O O4 0.913995 0.504962 0.117154
O O5 0.750000 0.014631 0.839079
O O6 0.848333 0.750000 0.824770
O O7 0.875186 0.019527 0.749351
O O8 0.917319 0.024637 0.879335
O O9 0.398487 0.250000 0.677885
O O10 0.501665 0.502882 0.658696
O O11 0.334012 0.518140 0.621966
O O12 0.750000 0.750000 0.574302
O O13 0.666660 0.019332 0.617406
O O14 0.750000 0.019021 0.497389
O O15 0.109101 0.250000 0.323859
O O16 0.750000 0.750000 0.419783
O O17 0.492597 0.250000 0.083445
O O18 0.500000 0.000000 0.000000
#
# Coordination Sequence:
#
# PCOD9447134 Si02
#       7
#     8   8   8   4   8   4   8
#     4  10  20  36  58  81 106 145 191 229 269 326
#     4   9  17  32  55  79 103 136 179 222 266 318
#     4  10  19  33  55  80 109 144 184 227 272 327
#     4   9  18  32  55  81 110 145 184 226 268 324
#     4  10  18  32  55  82 106 136 183 230 269 321
#     4   9  18  34  53  79 112 149 184 220 272 330
#     4  11  23  38  57  83 114 145 178 228 282 331
#
# _framework density 20.164449999999999
#
# number of rings (size 3 to 8) (size 9 to 14) (size 15 to 20)
#    0.000    2.167    3.333    0.500    0.000    1.667 
#    0.000    2.500    0.000    4.500    0.000    0.000 
#    0.000    0.000    0.000    0.000    0.000    0.000 
#
# Total GULP energy -268040.760647 kJ/mol
# GULP energy per Si atom -5584.182513 kJ/mol
# Density = 2.011856 g / cm^3
# Si number density = 20.164450 Si / 1000 Ang^3
#
#
#
# Elastic Constant Matrix: (Units=GPa)
#
#
# Indices 1 2 3 4 5 6 
#
# 1 233.5665 1.9298 132.1848 0.0000 0.0000 0.0000
# 2 1.9298 27.9284 6.0875 0.0000 0.0000 0.0000
# 3 132.1848 6.0875 203.8080 0.0000 0.0000 0.0000
# 4 0.0000 0.0000 0.0000 8.7043 0.0000 0.0000
# 5 0.0000 0.0000 0.0000 0.0000 34.3106 0.0000
# 6 0.0000 0.0000 0.0000 0.0000 0.0000 28.9353
#
#
#
# Elastic Compliance Matrix: (Units=1/GPa)
#
#
# Indices 1 2 3 4 5 6 
#
# 1 0.006771 0.000493 -0.004406 0.000000 0.000000 0.000000
# 2 0.000493 0.036076 -0.001397 0.000000 0.000000 0.000000
# 3 -0.004406 -0.001397 0.007806 0.000000 0.000000 0.000000
# 4 0.000000 0.000000 0.000000 0.114886 0.000000 0.000000
# 5 0.000000 0.000000 0.000000 0.000000 0.029146 0.000000
# 6 0.000000 0.000000 0.000000 0.000000 0.000000 0.034560
#
#
# Mechanical properties :
#
#
# Convention : Reuss Voigt Hill
#
# Bulk Modulus (GPa) = 24.98002 82.85635 53.91818
# Shear Modulus (GPa) = 19.74643 36.06341 27.90492
#
# Velocity S-wave (km/s) = 3.13272 4.23361 3.72407
# Velocity P-wave (km/s) = 5.04978 8.06706 6.72970
#
# Compressibility (1/GPa) = 0.04003199
#
# Stress axis : x y z
#
# Youngs Moduli (GPa) = 147.68796 27.71906 128.10530
#
# Poissons Ratio (x) = -0.01365 0.56446
# Poissons Ratio (y) = -0.07274 0.17896
# Poissons Ratio (z) = 0.65075 0.03872
#
# Static dielectric constant tensor:
#      x y z
#    x 1.695380 0.000000 0.000000 
#    y 0.000000 1.770290 0.000000 
#    z 0.000000 0.000000 1.633280 
# 
# From -- ./inp_files/27478.got.cif
#   From: 2010.05.17/outbox.cif.g08.bks.cpg/sg59_14_cif.got.tgz:27478.got - 2010.06.03 14:40:33.
