data_PCOD9447679
_publ_section_title
;
Structure prediction by ZEFSAII (Michael W. Deem and Ramdas Pophale) SiO2 
 PCOD9447679
Probable space group: P M M N
;
_chemical_formula_sum "Si O2"
_cell_formula_units_Z 64
_cell_length_a 8.692569
_cell_length_b 24.630759
_cell_length_c 16.828825
_cell_angle_alpha 90.000000
_cell_angle_beta 90.000000
_cell_angle_gamma 90.000000
_cell_volume 3603.128376
_symmetry_space_group_name_H-M "P M M N"
_symmetry_group_IT_number 59
_space_group.IT_coordinate_system_code '2'
_symmetry_cell_setting 'orthorhombic'
loop_
_space_group_symop_operation_xyz
x,y,z
1/2-x,1/2-y,z
1/2+x,-y,-z
-x,1/2+y,-z
-x,-y,-z
1/2+x,1/2+y,-z
1/2-x,y,z
x,1/2-y,z
loop_
_atom_site_type_symbol
_atom_site_label
_atom_site_fract_x
_atom_site_fract_y
_atom_site_fract_z
Si Si1 0.925751 0.815766 0.100359
Si Si2 0.934981 0.915724 0.536697
Si Si3 0.565282 0.622900 0.783410
Si Si4 0.066429 0.524294 0.691637
Si Si5 0.436425 0.310603 0.372908
Si Si6 0.933849 0.313626 0.067980
Si Si7 0.564687 0.312106 0.730013
Si Si8 0.065440 0.582572 0.363098
O O1 0.750000 0.835012 0.098553
O O2 0.924208 0.750000 0.099766
O O3 0.005963 0.830040 0.183180
O O4 0.013086 0.831320 0.019921
O O5 0.250000 0.078522 0.462473
O O6 0.003761 0.951104 0.608270
O O7 0.000593 0.928678 0.450758
O O8 0.977935 0.853732 0.559586
O O9 0.750000 0.618758 0.782725
O O10 0.494759 0.564867 0.759564
O O11 0.518067 0.663652 0.711648
O O12 0.508200 0.648844 0.864966
O O13 0.250000 0.523768 0.690986
O O14 0.000140 0.463684 0.694861
O O15 0.250000 0.308308 0.372181
O O16 0.496525 0.250000 0.383870
O O17 0.750000 0.315945 0.073432
O O18 0.980524 0.250000 0.079473
O O19 0.750000 0.310877 0.731772
O O20 0.511207 0.250000 0.714180
O O21 0.517559 0.357539 0.666563
O O22 0.250000 0.579505 0.364536
#
# Coordination Sequence:
#
# PCOD9447679 Si02
#       8
#     8   8   8   8   8   8   8   8
#     4   9  17  30  50  76 105 137 173 212 252 296
#     4  10  20  34  52  75 102 133 172 216 259 302
#     4  10  19  32  51  75 104 137 175 216 257 302
#     4  11  22  37  55  74 100 133 172 216 261 307
#     4   8  15  28  46  69  99 134 167 202 248 299
#     4  10  19  30  48  77 111 144 177 211 250 299
#     4   9  19  36  56  78 106 137 166 203 255 310
#     4  11  22  36  55  77 101 131 169 211 256 308
#
# _framework density 17.762343000000001
#
# number of rings (size 3 to 8) (size 9 to 14) (size 15 to 20)
#    0.000    2.250    0.000    4.500    0.000    4.250 
#    0.000    0.000    0.000    7.875    0.000    0.000 
#    0.000    0.000    0.000    0.000    0.000    0.000 
#
# Total GULP energy -357042.665933 kJ/mol
# GULP energy per Si atom -5578.791655 kJ/mol
# Density = 1.772192 g / cm^3
# Si number density = 17.762343 Si / 1000 Ang^3
#
#
#
# Elastic Constant Matrix: (Units=GPa)
#
#
# Indices 1 2 3 4 5 6 
#
# 1 63.1172 23.8043 17.2517 0.0000 0.0000 0.0000
# 2 23.8043 81.2113 13.3969 0.0000 0.0000 0.0000
# 3 17.2517 13.3969 53.8195 0.0000 0.0000 0.0000
# 4 0.0000 0.0000 0.0000 16.9146 0.0000 0.0000
# 5 0.0000 0.0000 0.0000 0.0000 24.3075 0.0000
# 6 0.0000 0.0000 0.0000 0.0000 0.0000 20.6569
#
#
#
# Elastic Compliance Matrix: (Units=1/GPa)
#
#
# Indices 1 2 3 4 5 6 
#
# 1 0.018976 -0.004754 -0.004899 0.000000 0.000000 0.000000
# 2 -0.004754 0.014032 -0.001969 0.000000 0.000000 0.000000
# 3 -0.004899 -0.001969 0.020641 0.000000 0.000000 0.000000
# 4 0.000000 0.000000 0.000000 0.059120 0.000000 0.000000
# 5 0.000000 0.000000 0.000000 0.000000 0.041140 0.000000
# 6 0.000000 0.000000 0.000000 0.000000 0.000000 0.048410
#
#
# Mechanical properties :
#
#
# Convention : Reuss Voigt Hill
#
# Bulk Modulus (GPa) = 32.89000 34.11710 33.50355
# Shear Modulus (GPa) = 21.21366 21.95549 21.58458
#
# Velocity S-wave (km/s) = 3.45962 3.51959 3.48974
# Velocity P-wave (km/s) = 5.87499 5.98046 5.92796
#
# Compressibility (1/GPa) = 0.03040438
#
# Stress axis : x y z
#
# Youngs Moduli (GPa) = 52.69950 71.26671 48.44688
#
# Poissons Ratio (x) = 0.33879 0.23735
# Poissons Ratio (y) = 0.25053 0.09539
# Poissons Ratio (z) = 0.25819 0.14032
#
# Static dielectric constant tensor:
#      x y z
#    x 1.595630 0.000000 0.000000 
#    y 0.000000 1.629710 0.000000 
#    z 0.000000 0.000000 1.581440 
# 
# From -- ./inp_files/26334.got.cif
#   From: 2010.05.17/outbox.cif.g08.bks.cpg/sg59_14_cif.got.tgz:26334.got - 2010.06.03 14:40:33.
