data_PCOD9447936
_publ_section_title
;
Structure prediction by ZEFSAII (Michael W. Deem and Ramdas Pophale) SiO2 
 PCOD9447936
Probable space group: P M M N
;
_chemical_formula_sum "Si O2"
_cell_formula_units_Z 64
_cell_length_a 31.168626
_cell_length_b 8.755126
_cell_length_c 14.736196
_cell_angle_alpha 90.000000
_cell_angle_beta 90.000000
_cell_angle_gamma 90.000000
_cell_volume 4021.290498
_symmetry_space_group_name_H-M "P M M N"
_symmetry_group_IT_number 59
_space_group.IT_coordinate_system_code '2'
_symmetry_cell_setting 'orthorhombic'
loop_
_space_group_symop_operation_xyz
x,y,z
1/2-x,1/2-y,z
1/2+x,-y,-z
-x,1/2+y,-z
-x,-y,-z
1/2+x,1/2+y,-z
1/2-x,y,z
x,1/2-y,z
loop_
_atom_site_type_symbol
_atom_site_label
_atom_site_fract_x
_atom_site_fract_y
_atom_site_fract_z
Si Si1 0.538870 0.932758 0.561259
Si Si2 0.617998 0.073885 0.065444
Si Si3 0.612459 0.566070 0.423357
Si Si4 0.934256 0.425328 0.251135
Si Si5 0.024777 0.929591 0.241334
Si Si6 0.700663 0.566226 0.143984
Si Si7 0.042312 0.431375 0.049806
Si Si8 0.702191 0.564592 0.354958
O O1 0.533445 0.750000 0.564903
O O2 0.583990 0.966871 0.511528
O O3 0.500000 0.000000 0.500000
O O4 0.538065 0.001112 0.661844
O O5 0.619485 0.250000 0.035821
O O6 0.596836 0.068846 0.165363
O O7 0.665347 0.006648 0.079008
O O8 0.585268 0.982363 0.002066
O O9 0.610135 0.750000 0.408276
O O10 0.589711 0.480933 0.340430
O O11 0.662465 0.520598 0.418586
O O12 0.949613 0.250000 0.261374
O O13 0.974136 0.535454 0.234402
O O14 0.033009 0.750000 0.239471
O O15 0.044379 0.008843 0.152796
O O16 0.750000 0.527082 0.121672
O O17 0.696525 0.750000 0.140899
O O18 0.693579 0.519992 0.249836
O O19 0.037661 0.250000 0.048841
O O20 0.000000 0.500000 0.000000
O O21 0.750000 0.510238 0.380078
O O22 0.703647 0.750000 0.354888
#
# Coordination Sequence:
#
# PCOD9447936 Si02
#       8
#     8   8   8   8   8   8   8   8
#     4  11  22  34  50  75 104 136 176 216 255 306
#     4  11  22  34  50  76 107 142 177 211 257 312
#     4  10  19  31  50  73 100 136 176 211 254 303
#     4  11  21  31  48  72 104 138 173 214 253 299
#     4  12  24  38  54  72 100 138 176 218 262 306
#     4   9  17  30  50  75 104 139 177 216 258 305
#     4  12  24  38  56  77 103 135 173 217 260 313
#     4   8  14  26  46  72 100 130 167 209 250 296
#
# _framework density 15.915290000000001
#
# number of rings (size 3 to 8) (size 9 to 14) (size 15 to 20)
#    0.000    1.500    3.750    4.125    0.000    1.750 
#    0.000    0.000    0.000    0.375    0.000    0.875 
#    0.000    5.000    0.000    0.000    0.000    0.000 
#
# Total GULP energy -357144.584338 kJ/mol
# GULP energy per Si atom -5580.384130 kJ/mol
# Density = 1.587907 g / cm^3
# Si number density = 15.915290 Si / 1000 Ang^3
#
#
#
# Elastic Constant Matrix: (Units=GPa)
#
#
# Indices 1 2 3 4 5 6 
#
# 1 118.9229 44.7421 50.8990 0.0000 0.0000 0.0000
# 2 44.7421 87.5713 50.5014 0.0000 0.0000 0.0000
# 3 50.8990 50.5014 98.1446 0.0000 0.0000 0.0000
# 4 0.0000 0.0000 0.0000 22.1999 0.0000 0.0000
# 5 0.0000 0.0000 0.0000 0.0000 21.1617 0.0000
# 6 0.0000 0.0000 0.0000 0.0000 0.0000 20.8656
#
#
#
# Elastic Compliance Matrix: (Units=1/GPa)
#
#
# Indices 1 2 3 4 5 6 
#
# 1 0.011502 -0.003465 -0.004182 0.000000 0.000000 0.000000
# 2 -0.003465 0.017281 -0.007095 0.000000 0.000000 0.000000
# 3 -0.004182 -0.007095 0.016009 0.000000 0.000000 0.000000
# 4 0.000000 0.000000 0.000000 0.045045 0.000000 0.000000
# 5 0.000000 0.000000 0.000000 0.000000 0.047255 0.000000
# 6 0.000000 0.000000 0.000000 0.000000 0.000000 0.047926
#
#
# Mechanical properties :
#
#
# Convention : Reuss Voigt Hill
#
# Bulk Modulus (GPa) = 65.32723 66.32485 65.82604
# Shear Modulus (GPa) = 22.76792 23.41185 23.08989
#
# Velocity S-wave (km/s) = 3.78639 3.83956 3.81307
# Velocity P-wave (km/s) = 7.76219 7.83712 7.79975
#
# Compressibility (1/GPa) = 0.01530755
#
# Stress axis : x y z
#
# Youngs Moduli (GPa) = 86.93776 57.86572 62.46444
#
# Poissons Ratio (x) = 0.20050 0.26125
# Poissons Ratio (y) = 0.30123 0.44321
# Poissons Ratio (z) = 0.36361 0.41058
#
# Static dielectric constant tensor:
#      x y z
#    x 1.544440 0.000000 0.000000 
#    y 0.000000 1.546180 0.000000 
#    z 0.000000 0.000000 1.525690 
# 
# From -- ./inp_files/21967.got.cif
#   From: 2010.05.17/outbox.cif.g08.bks.cpg/sg59_11_cif.got.tgz:21967.got - 2010.06.03 14:40:33.
