data_PCOD9447321
_publ_section_title
;
Structure prediction by ZEFSAII (Michael W. Deem and Ramdas Pophale) SiO2 
 PCOD9447321
Probable space group: P M M N
;
_chemical_formula_sum "Si O2"
_cell_formula_units_Z 40
_cell_length_a 8.552711
_cell_length_b 16.354128
_cell_length_c 14.115491
_cell_angle_alpha 90.000000
_cell_angle_beta 90.000000
_cell_angle_gamma 90.000000
_cell_volume 1974.363798
_symmetry_space_group_name_H-M "P M M N"
_symmetry_group_IT_number 59
_space_group.IT_coordinate_system_code '2'
_symmetry_cell_setting 'orthorhombic'
loop_
_space_group_symop_operation_xyz
x,y,z
1/2-x,1/2-y,z
1/2+x,-y,-z
-x,1/2+y,-z
-x,-y,-z
1/2+x,1/2+y,-z
1/2-x,y,z
x,1/2-y,z
loop_
_atom_site_type_symbol
_atom_site_label
_atom_site_fract_x
_atom_site_fract_y
_atom_site_fract_z
Si Si1 0.564441 0.070780 0.739546
Si Si2 0.439309 0.250000 0.253688
Si Si3 0.933847 0.655707 0.431600
Si Si4 0.435900 0.750000 0.959115
Si Si5 0.059707 0.090681 0.372964
Si Si6 0.564644 0.582190 0.050006
O O1 0.750000 0.065347 0.756244
O O2 0.524811 0.141825 0.665382
O O3 0.480711 0.079312 0.839521
O O4 0.510500 0.989730 0.682984
O O5 0.250000 0.250000 0.245255
O O6 0.511237 0.250000 0.149934
O O7 0.485482 0.330300 0.312095
O O8 0.750000 0.637567 0.415181
O O9 0.943230 0.750000 0.462533
O O10 0.995229 0.601380 0.519012
O O11 0.250000 0.750000 0.966596
O O12 0.498662 0.666444 0.006392
O O13 0.250000 0.089978 0.377851
O O14 0.750000 0.582701 0.038055
O O15 0.500000 0.500000 0.000000
#
# Coordination Sequence:
#
# PCOD9447321 Si02
#       6
#     8   4   8   4   8   8
#     4  11  23  38  60  91 128 166 210 263 322 382
#     4  10  18  36  65  92 119 160 213 266 324 384
#     4  10  20  37  60  87 122 165 215 261 309 375
#     4  12  26  44  67  98 133 172 221 276 332 394
#     4   9  18  35  61  90 120 162 211 260 314 379
#     4  12  26  47  71  98 132 173 221 275 335 397
#
# _framework density 20.259692000000001
#
# number of rings (size 3 to 8) (size 9 to 14) (size 15 to 20)
#    0.000    1.400    1.000    5.100    1.400    2.000 
#    0.000    3.000    0.000    0.000    0.000    0.000 
#    0.000    0.000    0.000    0.000    0.000    0.000 
#
# Total GULP energy -223625.302583 kJ/mol
# GULP energy per Si atom -5590.632565 kJ/mol
# Density = 2.021358 g / cm^3
# Si number density = 20.259692 Si / 1000 Ang^3
#
#
#
# Elastic Constant Matrix: (Units=GPa)
#
#
# Indices 1 2 3 4 5 6 
#
# 1 85.7735 35.3652 35.4963 0.0000 0.0000 0.0000
# 2 35.3652 105.3153 48.0164 0.0000 0.0000 0.0000
# 3 35.4963 48.0164 153.4130 0.0000 0.0000 0.0000
# 4 0.0000 0.0000 0.0000 33.4114 0.0000 0.0000
# 5 0.0000 0.0000 0.0000 0.0000 32.4169 0.0000
# 6 0.0000 0.0000 0.0000 0.0000 0.0000 28.0109
#
#
#
# Elastic Compliance Matrix: (Units=1/GPa)
#
#
# Indices 1 2 3 4 5 6 
#
# 1 0.014076 -0.003781 -0.002073 0.000000 0.000000 0.000000
# 2 -0.003781 0.012092 -0.002910 0.000000 0.000000 0.000000
# 3 -0.002073 -0.002910 0.007909 0.000000 0.000000 0.000000
# 4 0.000000 0.000000 0.000000 0.029930 0.000000 0.000000
# 5 0.000000 0.000000 0.000000 0.000000 0.030848 0.000000
# 6 0.000000 0.000000 0.000000 0.000000 0.000000 0.035700
#
#
# Mechanical properties :
#
#
# Convention : Reuss Voigt Hill
#
# Bulk Modulus (GPa) = 60.43190 64.69529 62.56360
# Shear Modulus (GPa) = 32.55229 33.80943 33.18086
#
# Velocity S-wave (km/s) = 4.01278 4.08953 4.05134
# Velocity P-wave (km/s) = 7.16682 7.36894 7.26858
#
# Compressibility (1/GPa) = 0.01654755
#
# Stress axis : x y z
#
# Youngs Moduli (GPa) = 71.04435 82.70142 126.44251
#
# Poissons Ratio (x) = 0.31273 0.26215
# Poissons Ratio (y) = 0.26865 0.36790
# Poissons Ratio (z) = 0.14729 0.24063
#
# Static dielectric constant tensor:
#      x y z
#    x 1.717760 0.000000 0.000000 
#    y 0.000000 1.740090 0.000000 
#    z 0.000000 0.000000 1.683670 
# 
# From -- ./inp_files/19943.got.cif
#   From: 2010.05.17/outbox.cif.g08.bks.cpg/sg59_10_cif.got.tgz:19943.got - 2010.06.03 14:40:33.
