data_PCOD9447858
_publ_section_title
;
Structure prediction by ZEFSAII (Michael W. Deem and Ramdas Pophale) SiO2 
 PCOD9447858
Probable space group: P M M N
;
_chemical_formula_sum "Si O2"
_cell_formula_units_Z 40
_cell_length_a 8.901900
_cell_length_b 13.729083
_cell_length_c 15.518478
_cell_angle_alpha 90.000000
_cell_angle_beta 90.000000
_cell_angle_gamma 90.000000
_cell_volume 1896.589609
_symmetry_space_group_name_H-M "P M M N"
_symmetry_group_IT_number 59
_space_group.IT_coordinate_system_code '2'
_symmetry_cell_setting 'orthorhombic'
loop_
_space_group_symop_operation_xyz
x,y,z
1/2-x,1/2-y,z
1/2+x,-y,-z
-x,1/2+y,-z
-x,-y,-z
1/2+x,1/2+y,-z
1/2-x,y,z
x,1/2-y,z
loop_
_atom_site_type_symbol
_atom_site_label
_atom_site_fract_x
_atom_site_fract_y
_atom_site_fract_z
Si Si1 0.427675 0.558508 0.872490
Si Si2 0.429396 0.638892 0.062963
Si Si3 0.571521 0.147684 0.667253
Si Si4 0.570076 0.926065 0.699170
Si Si5 0.926557 0.398643 0.472991
O O1 0.250000 0.555872 0.857028
O O2 0.489116 0.448556 0.887258
O O3 0.510178 0.606571 0.791424
O O4 0.454463 0.615974 0.961684
O O5 0.250000 0.630795 0.079297
O O6 0.474953 0.750000 0.082380
O O7 0.750000 0.145902 0.687367
O O8 0.509578 0.250000 0.704082
O O9 0.557003 0.154780 0.563831
O O10 0.515868 0.040116 0.692077
O O11 0.750000 0.924661 0.695362
O O12 0.506217 0.870176 0.615890
O O13 0.750000 0.406943 0.455525
O O14 0.000000 0.500000 0.500000
#
# Coordination Sequence:
#
# PCOD9447858 Si02
#       5
#     8   8   8   8   8
#     4  10  20  34  54  80 106 132 169 216 261 306
#     4   9  19  37  58  77 101 136 173 208 255 318
#     4   8  15  28  46  68  92 122 163 205 244 291
#     4  10  19  31  49  71  98 132 166 203 250 305
#     4   9  16  28  47  67  90 123 160 199 242 289
#
# _framework density 21.090488000000001
#
# number of rings (size 3 to 8) (size 9 to 14) (size 15 to 20)
#    0.000    2.800    0.000    3.000    0.000    2.000 
#    0.000    3.000    0.000   27.000    0.000    0.000 
#    0.000    0.000    0.000    0.000    0.000    0.000 
#
# Total GULP energy -222898.910223 kJ/mol
# GULP energy per Si atom -5572.472756 kJ/mol
# Density = 2.104249 g / cm^3
# Si number density = 21.090488 Si / 1000 Ang^3
#
#
#
# Elastic Constant Matrix: (Units=GPa)
#
#
# Indices 1 2 3 4 5 6 
#
# 1 50.5015 6.0734 47.3161 0.0000 0.0000 0.0000
# 2 6.0734 57.1413 -12.4730 0.0000 0.0000 0.0000
# 3 47.3161 -12.4730 124.7353 0.0000 0.0000 0.0000
# 4 0.0000 0.0000 0.0000 12.7696 0.0000 0.0000
# 5 0.0000 0.0000 0.0000 0.0000 31.6832 0.0000
# 6 0.0000 0.0000 0.0000 0.0000 0.0000 6.6065
#
#
#
# Elastic Compliance Matrix: (Units=1/GPa)
#
#
# Indices 1 2 3 4 5 6 
#
# 1 0.032825 -0.006345 -0.013086 0.000000 0.000000 0.000000
# 2 -0.006345 0.019118 0.004319 0.000000 0.000000 0.000000
# 3 -0.013086 0.004319 0.013413 0.000000 0.000000 0.000000
# 4 0.000000 0.000000 0.000000 0.078311 0.000000 0.000000
# 5 0.000000 0.000000 0.000000 0.000000 0.031562 0.000000
# 6 0.000000 0.000000 0.000000 0.000000 0.000000 0.151366
#
#
# Mechanical properties :
#
#
# Convention : Reuss Voigt Hill
#
# Bulk Modulus (GPa) = 28.46577 34.91236 31.68907
# Shear Modulus (GPa) = 13.56739 22.97597 18.27168
#
# Velocity S-wave (km/s) = 2.53908 3.30419 2.94657
# Velocity P-wave (km/s) = 4.70342 5.58090 5.16084
#
# Compressibility (1/GPa) = 0.03512991
#
# Stress axis : x y z
#
# Youngs Moduli (GPa) = 30.46428 52.30779 74.55536
#
# Poissons Ratio (x) = 0.33191 0.97565
# Poissons Ratio (y) = 0.19331 -0.32198
# Poissons Ratio (z) = 0.39866 -0.22590
#
# Static dielectric constant tensor:
#      x y z
#    x 1.707970 0.000000 0.000000 
#    y 0.000000 1.800840 0.000000 
#    z 0.000000 0.000000 1.798540 
# 
# From -- ./inp_files/19871.got.cif
#   From: 2010.05.17/outbox.cif.g08.bks.cpg/sg59_10_cif.got.tgz:19871.got - 2010.06.03 14:40:33.
