data_PCOD9447563
_publ_section_title
;
Structure prediction by ZEFSAII (Michael W. Deem and Ramdas Pophale) SiO2 
 PCOD9447563
Probable space group: P M M N
;
_chemical_formula_sum "Si O2"
_cell_formula_units_Z 64
_cell_length_a 23.880324
_cell_length_b 8.724144
_cell_length_c 19.724183
_cell_angle_alpha 90.000000
_cell_angle_beta 90.000000
_cell_angle_gamma 90.000000
_cell_volume 4109.245266
_symmetry_space_group_name_H-M "P M M N"
_symmetry_group_IT_number 59
_space_group.IT_coordinate_system_code '2'
_symmetry_cell_setting 'orthorhombic'
loop_
_space_group_symop_operation_xyz
x,y,z
1/2-x,1/2-y,z
1/2+x,-y,-z
-x,1/2+y,-z
-x,-y,-z
1/2+x,1/2+y,-z
1/2-x,y,z
x,1/2-y,z
loop_
_atom_site_type_symbol
_atom_site_label
_atom_site_fract_x
_atom_site_fract_y
_atom_site_fract_z
Si Si1 0.814129 0.935473 0.117479
Si Si2 0.130619 0.933717 0.746539
Si Si3 0.501452 0.565457 0.745456
Si Si4 0.911790 0.432966 0.474071
Si Si5 0.978673 0.935068 0.895646
Si Si6 0.814815 0.933541 0.389844
Si Si7 0.914690 0.934896 0.025751
Si Si8 0.981833 0.432867 0.603601
O O1 0.750000 0.984892 0.108841
O O2 0.814838 0.750000 0.121356
O O3 0.855168 0.982520 0.056208
O O4 0.839643 0.999936 0.186967
O O5 0.134429 0.750000 0.747012
O O6 0.064738 0.974883 0.746737
O O7 0.160089 0.997665 0.679409
O O8 0.505318 0.750000 0.739485
O O9 0.527145 0.517194 0.817679
O O10 0.528132 0.489742 0.679431
O O11 0.907249 0.250000 0.468166
O O12 0.854416 0.508726 0.450277
O O13 0.961351 0.489631 0.424285
O O14 0.933333 0.472175 0.549529
O O15 0.982485 0.750000 0.895915
O O16 0.930543 0.981206 0.949040
O O17 0.036447 0.999347 0.926328
O O18 0.750000 0.979162 0.397706
O O19 0.817592 0.750000 0.385764
O O20 0.917508 0.750000 0.028538
O O21 0.989463 0.250000 0.602228
#
# Coordination Sequence:
#
# PCOD9447563 Si02
#       8
#     8   8   8   8   8   8   8   8
#     4  10  20  32  45  64  92 125 160 194 228 271
#     4  11  21  32  46  67  95 128 164 195 225 269
#     4  10  19  30  46  69  96 125 155 190 234 283
#     4  10  20  34  50  71  95 123 158 195 236 279
#     4   9  17  30  46  65  90 116 149 192 234 276
#     4  11  23  36  50  69  94 127 164 198 232 272
#     4   9  17  29  46  65  86 118 154 189 232 274
#     4  10  20  32  50  72  96 123 155 194 235 282
#
# _framework density 15.574636999999999
#
# number of rings (size 3 to 8) (size 9 to 14) (size 15 to 20)
#    0.000    2.000    2.500    1.875    0.000    5.250 
#    0.000    0.000    0.000    0.000    0.000    0.875 
#    0.000    3.000    0.000    0.000    0.000    0.000 
#
# Total GULP energy -357046.741119 kJ/mol
# GULP energy per Si atom -5578.855330 kJ/mol
# Density = 1.553919 g / cm^3
# Si number density = 15.574637 Si / 1000 Ang^3
#
#
#
# Elastic Constant Matrix: (Units=GPa)
#
#
# Indices 1 2 3 4 5 6 
#
# 1 86.2482 23.7625 61.6226 0.0000 0.0000 0.0000
# 2 23.7625 16.3762 26.3802 0.0000 0.0000 0.0000
# 3 61.6226 26.3802 141.4230 0.0000 0.0000 0.0000
# 4 0.0000 0.0000 0.0000 22.0297 0.0000 0.0000
# 5 0.0000 0.0000 0.0000 0.0000 19.5736 0.0000
# 6 0.0000 0.0000 0.0000 0.0000 0.0000 18.3075
#
#
#
# Elastic Compliance Matrix: (Units=1/GPa)
#
#
# Indices 1 2 3 4 5 6 
#
# 1 0.021617 -0.023150 -0.005101 0.000000 0.000000 0.000000
# 2 -0.023150 0.112087 -0.010821 0.000000 0.000000 0.000000
# 3 -0.005101 -0.010821 0.011312 0.000000 0.000000 0.000000
# 4 0.000000 0.000000 0.000000 0.045393 0.000000 0.000000
# 5 0.000000 0.000000 0.000000 0.000000 0.051089 0.000000
# 6 0.000000 0.000000 0.000000 0.000000 0.000000 0.054622
#
#
# Mechanical properties :
#
#
# Convention : Reuss Voigt Hill
#
# Bulk Modulus (GPa) = 14.95384 51.95309 33.45347
# Shear Modulus (GPa) = 12.60856 20.80097 16.70477
#
# Velocity S-wave (km/s) = 2.84836 3.65851 3.27855
# Velocity P-wave (km/s) = 4.52104 7.16074 5.98815
#
# Compressibility (1/GPa) = 0.06687244
#
# Stress axis : x y z
#
# Youngs Moduli (GPa) = 46.25946 8.92164 88.40088
#
# Poissons Ratio (x) = 0.20654 0.45094
# Poissons Ratio (y) = 1.07092 0.95656
# Poissons Ratio (z) = 0.23597 0.09654
#
# Static dielectric constant tensor:
#      x y z
#    x 1.504030 0.000000 0.000000 
#    y 0.000000 1.522300 0.000000 
#    z 0.000000 0.000000 1.527510 
# 
# From -- ./inp_files/28459.got.cif
#   From: 2010.05.17/outbox.cif.g08.bks.cpg/sg59_15_cif.got.tgz:28459.got - 2010.06.03 14:40:33.
