data_PCOD9447700
_publ_section_title
;
Structure prediction by ZEFSAII (Michael W. Deem and Ramdas Pophale) SiO2 
 PCOD9447700
Probable space group: P M M N
;
_chemical_formula_sum "Si O2"
_cell_formula_units_Z 64
_cell_length_a 24.907056
_cell_length_b 8.937357
_cell_length_c 16.338412
_cell_angle_alpha 90.000000
_cell_angle_beta 90.000000
_cell_angle_gamma 90.000000
_cell_volume 3636.983632
_symmetry_space_group_name_H-M "P M M N"
_symmetry_group_IT_number 59
_space_group.IT_coordinate_system_code '2'
_symmetry_cell_setting 'orthorhombic'
loop_
_space_group_symop_operation_xyz
x,y,z
1/2-x,1/2-y,z
1/2+x,-y,-z
-x,1/2+y,-z
-x,-y,-z
1/2+x,1/2+y,-z
1/2-x,y,z
x,1/2-y,z
loop_
_atom_site_type_symbol
_atom_site_label
_atom_site_fract_x
_atom_site_fract_y
_atom_site_fract_z
Si Si1 0.809987 0.070605 0.250769
Si Si2 0.689396 0.928387 0.782735
Si Si3 0.473737 0.429867 0.783466
Si Si4 0.891624 0.928391 0.362181
Si Si5 0.415144 0.570547 0.295264
Si Si6 0.189321 0.428385 0.021870
Si Si7 0.389484 0.571050 0.896884
Si Si8 0.944529 0.929431 0.530697
O O1 0.750000 0.014032 0.240490
O O2 0.809242 0.250000 0.254521
O O3 0.846838 0.029048 0.174115
O O4 0.838503 0.006756 0.330303
O O5 0.750000 0.972570 0.757170
O O6 0.683939 0.750000 0.768347
O O7 0.641456 0.013816 0.738719
O O8 0.685933 0.951772 0.880624
O O9 0.470607 0.250000 0.791960
O O10 0.439494 0.472007 0.701424
O O11 0.535266 0.471832 0.765023
O O12 0.445062 0.503577 0.862057
O O13 0.886499 0.750000 0.354728
O O14 0.904653 0.963595 0.455594
O O15 0.415851 0.750000 0.302487
O O16 0.427051 0.499137 0.383578
O O17 0.250000 0.479432 0.995830
O O18 0.186668 0.250000 0.006624
O O19 0.139555 0.506897 0.977084
O O20 0.394133 0.750000 0.902456
O O21 0.949554 0.750000 0.537949
O O22 0.000000 0.000000 0.500000
#
# Coordination Sequence:
#
# PCOD9447700 Si02
#       8
#     8   8   8   8   8   8   8   8
#     4   9  18  31  46  69 104 141 174 213 262 312
#     4   9  20  40  62  83 108 140 181 227 274 326
#     4   9  18  34  51  73 109 144 175 215 263 321
#     4   9  18  33  50  72 102 135 174 216 257 306
#     4  11  22  37  58  85 112 140 179 225 276 330
#     4   9  18  34  56  79 105 141 183 225 272 325
#     4  10  19  30  49  79 110 139 178 224 268 316
#     4  11  21  35  56  82 110 139 178 224 270 319
#
# _framework density 17.597000000000001
#
# number of rings (size 3 to 8) (size 9 to 14) (size 15 to 20)
#    0.000    2.375    1.250    2.250    0.000    4.250 
#    0.000    2.500    0.000    0.750    0.000    0.000 
#    0.000    0.000    0.000    0.000    0.000    0.000 
#
# Total GULP energy -356840.403930 kJ/mol
# GULP energy per Si atom -5575.631311 kJ/mol
# Density = 1.755695 g / cm^3
# Si number density = 17.597000 Si / 1000 Ang^3
#
#
#
# Elastic Constant Matrix: (Units=GPa)
#
#
# Indices 1 2 3 4 5 6 
#
# 1 108.8296 36.4362 40.3516 0.0000 0.0000 0.0000
# 2 36.4362 30.2714 31.9443 0.0000 0.0000 0.0000
# 3 40.3516 31.9443 55.6886 0.0000 0.0000 0.0000
# 4 0.0000 0.0000 0.0000 27.2818 0.0000 0.0000
# 5 0.0000 0.0000 0.0000 0.0000 18.1515 0.0000
# 6 0.0000 0.0000 0.0000 0.0000 0.0000 29.5877
#
#
#
# Elastic Compliance Matrix: (Units=1/GPa)
#
#
# Indices 1 2 3 4 5 6 
#
# 1 0.015430 -0.017163 -0.001335 0.000000 0.000000 0.000000
# 2 -0.017163 0.102791 -0.046527 0.000000 0.000000 0.000000
# 3 -0.001335 -0.046527 0.045613 0.000000 0.000000 0.000000
# 4 0.000000 0.000000 0.000000 0.036654 0.000000 0.000000
# 5 0.000000 0.000000 0.000000 0.000000 0.055092 0.000000
# 6 0.000000 0.000000 0.000000 0.000000 0.000000 0.033798
#
#
# Mechanical properties :
#
#
# Convention : Reuss Voigt Hill
#
# Bulk Modulus (GPa) = 29.60015 45.80597 37.70306
# Shear Modulus (GPa) = 11.60926 20.74137 16.17531
#
# Velocity S-wave (km/s) = 2.57131 3.43693 3.03513
# Velocity P-wave (km/s) = 5.06687 6.46815 5.80991
#
# Compressibility (1/GPa) = 0.03378361
#
# Stress axis : x y z
#
# Youngs Moduli (GPa) = 64.80852 9.72847 21.92346
#
# Poissons Ratio (x) = 0.16697 0.02927
# Poissons Ratio (y) = 1.11234 1.02003
# Poissons Ratio (z) = 0.08653 0.45263
#
# Static dielectric constant tensor:
#      x y z
#    x 1.616170 0.000000 0.000000 
#    y 0.000000 1.595570 0.000000 
#    z 0.000000 0.000000 1.593620 
# 
# From -- ./inp_files/24653.got.cif
#   From: 2010.05.17/outbox.cif.g08.bks.cpg/sg59_13_cif.got.tgz:24653.got - 2010.06.03 14:40:33.
