data_PCOD9447097
_publ_section_title
;
Structure prediction by ZEFSAII (Michael W. Deem and Ramdas Pophale) SiO2 
 PCOD9447097
Probable space group: P M M N
;
_chemical_formula_sum "Si O2"
_cell_formula_units_Z 64
_cell_length_a 13.568389
_cell_length_b 19.816253
_cell_length_c 13.181878
_cell_angle_alpha 90.000000
_cell_angle_beta 90.000000
_cell_angle_gamma 90.000000
_cell_volume 3544.272560
_symmetry_space_group_name_H-M "P M M N"
_symmetry_group_IT_number 59
_space_group.IT_coordinate_system_code '2'
_symmetry_cell_setting 'orthorhombic'
loop_
_space_group_symop_operation_xyz
x,y,z
1/2-x,1/2-y,z
1/2+x,-y,-z
-x,1/2+y,-z
-x,-y,-z
1/2+x,1/2+y,-z
1/2-x,y,z
x,1/2-y,z
loop_
_atom_site_type_symbol
_atom_site_label
_atom_site_fract_x
_atom_site_fract_y
_atom_site_fract_z
Si Si1 0.133565 0.967085 0.932598
Si Si2 0.035121 0.323137 0.338220
Si Si3 0.366353 0.674297 0.821698
Si Si4 0.972089 0.387542 0.535280
Si Si5 0.859138 0.543054 0.699755
Si Si6 0.361324 0.011334 0.540295
Si Si7 0.867101 0.330814 0.733164
Si Si8 0.536575 0.053502 0.851268
O O1 0.250000 0.976621 0.922149
O O2 0.108126 0.892763 0.886047
O O3 0.100853 0.963890 0.049508
O O4 0.072630 0.027702 0.879823
O O5 0.078726 0.250000 0.319519
O O6 0.931679 0.327283 0.279225
O O7 0.018339 0.334324 0.457722
O O8 0.103354 0.381279 0.294505
O O9 0.250000 0.670318 0.799905
O O10 0.383461 0.750000 0.868406
O O11 0.910183 0.437664 0.461081
O O12 0.905297 0.355842 0.622800
O O13 0.061284 0.433372 0.580504
O O14 0.750000 0.534628 0.741428
O O15 0.856878 0.526087 0.580550
O O16 0.929591 0.493592 0.758998
O O17 0.250000 0.013657 0.581251
O O18 0.750000 0.347729 0.744647
O O19 0.877033 0.250000 0.741436
O O20 0.933739 0.371582 0.814346
#
# Coordination Sequence:
#
# PCOD9447097 Si02
#       8
#     8   8   8   8   8   8   8   8
#     4  10  21  36  59  87 111 143 182 224 278 333
#     4  10  20  33  48  73 108 143 179 218 264 318
#     4   9  18  33  51  74 108 143 176 217 268 326
#     4  10  19  32  52  77 109 144 183 229 274 318
#     4  10  18  32  54  76 102 138 177 223 270 315
#     4   9  18  31  51  77 105 141 183 228 274 320
#     4  11  23  38  58  83 112 147 187 233 285 338
#     4  11  21  37  59  85 112 140 179 231 279 326
#
# _framework density 18.057300999999999
#
# number of rings (size 3 to 8) (size 9 to 14) (size 15 to 20)
#    0.000    2.000    2.500    1.875    0.000    1.750 
#    0.000    4.375    0.000    2.250    0.000    0.000 
#    0.000    0.000    0.000    0.000    0.000    0.000 
#
# Total GULP energy -356720.815550 kJ/mol
# GULP energy per Si atom -5573.762743 kJ/mol
# Density = 1.801620 g / cm^3
# Si number density = 18.057301 Si / 1000 Ang^3
#
#
#
# Elastic Constant Matrix: (Units=GPa)
#
#
# Indices 1 2 3 4 5 6 
#
# 1 82.3842 29.8488 17.9217 0.0000 0.0000 0.0000
# 2 29.8488 97.6001 19.0703 0.0000 0.0000 0.0000
# 3 17.9217 19.0703 41.8199 0.0000 0.0000 0.0000
# 4 0.0000 0.0000 0.0000 20.3515 0.0000 0.0000
# 5 0.0000 0.0000 0.0000 0.0000 19.3936 0.0000
# 6 0.0000 0.0000 0.0000 0.0000 0.0000 26.5321
#
#
#
# Elastic Compliance Matrix: (Units=1/GPa)
#
#
# Indices 1 2 3 4 5 6 
#
# 1 0.014405 -0.003512 -0.004572 0.000000 0.000000 0.000000
# 2 -0.003512 0.012104 -0.004015 0.000000 0.000000 0.000000
# 3 -0.004572 -0.004015 0.027702 0.000000 0.000000 0.000000
# 4 0.000000 0.000000 0.000000 0.049136 0.000000 0.000000
# 5 0.000000 0.000000 0.000000 0.000000 0.051563 0.000000
# 6 0.000000 0.000000 0.000000 0.000000 0.000000 0.037690
#
#
# Mechanical properties :
#
#
# Convention : Reuss Voigt Hill
#
# Bulk Modulus (GPa) = 33.31712 39.49842 36.40777
# Shear Modulus (GPa) = 22.04553 23.58636 22.81594
#
# Velocity S-wave (km/s) = 3.49788 3.61805 3.55847
# Velocity P-wave (km/s) = 5.89952 6.27496 6.09014
#
# Compressibility (1/GPa) = 0.03001460
#
# Stress axis : x y z
#
# Youngs Moduli (GPa) = 69.41893 82.61422 36.09859
#
# Poissons Ratio (x) = 0.29016 0.16503
# Poissons Ratio (y) = 0.24382 0.14492
# Poissons Ratio (z) = 0.31736 0.33166
#
# Static dielectric constant tensor:
#      x y z
#    x 1.630410 0.000000 0.000000 
#    y 0.000000 1.652350 0.000000 
#    z 0.000000 0.000000 1.623560 
# 
# From -- ./inp_files/23457.got.cif
#   From: 2010.05.17/outbox.cif.g08.bks.cpg/sg59_12_cif.got.tgz:23457.got - 2010.06.03 14:40:33.
