data_PCOD9447285
_publ_section_title
;
Structure prediction by ZEFSAII (Michael W. Deem and Ramdas Pophale) SiO2 
 PCOD9447285
Probable space group: P M M N
;
_chemical_formula_sum "Si O2"
_cell_formula_units_Z 40
_cell_length_a 11.613175
_cell_length_b 7.769567
_cell_length_c 19.853000
_cell_angle_alpha 90.000000
_cell_angle_beta 90.000000
_cell_angle_gamma 90.000000
_cell_volume 1791.323112
_symmetry_space_group_name_H-M "P M M N"
_symmetry_group_IT_number 59
_space_group.IT_coordinate_system_code '2'
_symmetry_cell_setting 'orthorhombic'
loop_
_space_group_symop_operation_xyz
x,y,z
1/2-x,1/2-y,z
1/2+x,-y,-z
-x,1/2+y,-z
-x,-y,-z
1/2+x,1/2+y,-z
1/2-x,y,z
x,1/2-y,z
loop_
_atom_site_type_symbol
_atom_site_label
_atom_site_fract_x
_atom_site_fract_y
_atom_site_fract_z
Si Si1 0.250000 0.053540 0.660438
Si Si2 0.378020 0.460219 0.302216
Si Si3 0.378797 0.456803 0.036729
Si Si4 0.524610 0.044989 0.423116
Si Si5 0.000462 0.960809 0.830952
Si Si6 0.750000 0.450179 0.185642
O O1 0.250000 0.250000 0.682025
O O2 0.140279 0.019756 0.612897
O O3 0.250000 0.954672 0.732103
O O4 0.250000 0.519020 0.287885
O O5 0.377572 0.250000 0.301623
O O6 0.421740 0.516287 0.374890
O O7 0.462779 0.515651 0.243233
O O8 0.250000 0.521016 0.015693
O O9 0.371957 0.250000 0.034814
O O10 0.407895 0.512285 0.113340
O O11 0.500000 0.500000 0.000000
O O12 0.530616 0.250000 0.419227
O O13 0.500000 0.000000 0.500000
O O14 0.003280 0.750000 0.831504
O O15 0.130591 0.024501 0.842204
O O16 0.750000 0.250000 0.166057
#
# Coordination Sequence:
#
# PCOD9447285 Si02
#       6
#     4   8   8   8   8   4
#     4  12  24  40  60  84 118 157 202 247 300 363
#     4   9  17  31  55  84 110 140 184 238 292 350
#     4  10  22  39  61  91 125 162 208 255 304 370
#     4  11  23  39  59  85 118 153 196 248 302 359
#     4   9  17  32  58  87 115 149 197 249 298 358
#     4  10  18  34  60  90 114 147 200 255 310 363
#
# _framework density 22.329864000000001
#
# number of rings (size 3 to 8) (size 9 to 14) (size 15 to 20)
#    0.000    2.000    2.000    2.100    2.800    2.800 
#    0.000    1.000    0.000    0.000    0.000    0.000 
#    0.000    0.000    0.000    0.000    0.000    0.000 
#
# Total GULP energy -223235.540477 kJ/mol
# GULP energy per Si atom -5580.888512 kJ/mol
# Density = 2.227904 g / cm^3
# Si number density = 22.329864 Si / 1000 Ang^3
#
#
#
# Elastic Constant Matrix: (Units=GPa)
#
#
# Indices 1 2 3 4 5 6 
#
# 1 172.9123 7.8255 27.8071 0.0000 0.0000 0.0000
# 2 7.8255 40.0187 -5.5060 0.0000 0.0000 0.0000
# 3 27.8071 -5.5060 70.4443 0.0000 0.0000 0.0000
# 4 0.0000 0.0000 0.0000 16.8874 0.0000 0.0000
# 5 0.0000 0.0000 0.0000 0.0000 32.8879 0.0000
# 6 0.0000 0.0000 0.0000 0.0000 0.0000 9.5816
#
#
#
# Elastic Compliance Matrix: (Units=1/GPa)
#
#
# Indices 1 2 3 4 5 6 
#
# 1 0.006273 -0.001584 -0.002600 0.000000 0.000000 0.000000
# 2 -0.001584 0.025660 0.002631 0.000000 0.000000 0.000000
# 3 -0.002600 0.002631 0.015428 0.000000 0.000000 0.000000
# 4 0.000000 0.000000 0.000000 0.059216 0.000000 0.000000
# 5 0.000000 0.000000 0.000000 0.000000 0.030406 0.000000
# 6 0.000000 0.000000 0.000000 0.000000 0.000000 0.104366
#
#
# Mechanical properties :
#
#
# Convention : Reuss Voigt Hill
#
# Bulk Modulus (GPa) = 22.59683 38.18092 30.38888
# Shear Modulus (GPa) = 19.28956 28.75463 24.02210
#
# Velocity S-wave (km/s) = 2.94231 3.59238 3.28347
# Velocity P-wave (km/s) = 4.65666 5.86026 5.29278
#
# Compressibility (1/GPa) = 0.04425400
#
# Stress axis : x y z
#
# Youngs Moduli (GPa) = 159.41035 38.97092 64.81887
#
# Poissons Ratio (x) = 0.06175 0.16853
# Poissons Ratio (y) = 0.25257 -0.17054
# Poissons Ratio (z) = 0.41448 -0.10253
#
# Static dielectric constant tensor:
#      x y z
#    x 1.845100 0.000000 0.000000 
#    y 0.000000 1.831140 0.000000 
#    z 0.000000 0.000000 3.538290 
# 
# From -- ./inp_files/29923.got.cif
#   From: 2010.05.17/outbox.cif.g08.bks.cpg/sg59_15_cif.got.tgz:29923.got - 2010.06.03 14:40:33.
