data_PCOD9447073
_publ_section_title
;
Structure prediction by ZEFSAII (Michael W. Deem and Ramdas Pophale) SiO2 
 PCOD9447073
Probable space group: P M M N
;
_chemical_formula_sum "Si O2"
_cell_formula_units_Z 56
_cell_length_a 8.802664
_cell_length_b 21.346696
_cell_length_c 16.485013
_cell_angle_alpha 90.000000
_cell_angle_beta 90.000000
_cell_angle_gamma 90.000000
_cell_volume 3097.662400
_symmetry_space_group_name_H-M "P M M N"
_symmetry_group_IT_number 59
_space_group.IT_coordinate_system_code '2'
_symmetry_cell_setting 'orthorhombic'
loop_
_space_group_symop_operation_xyz
x,y,z
1/2-x,1/2-y,z
1/2+x,-y,-z
-x,1/2+y,-z
-x,-y,-z
1/2+x,1/2+y,-z
1/2-x,y,z
x,1/2-y,z
loop_
_atom_site_type_symbol
_atom_site_label
_atom_site_fract_x
_atom_site_fract_y
_atom_site_fract_z
Si Si1 0.066159 0.750000 0.608365
Si Si2 0.567991 0.250000 0.203392
Si Si3 0.069226 0.118831 0.186746
Si Si4 0.566421 0.376977 0.481340
Si Si5 0.569333 0.541631 0.653405
Si Si6 0.068085 0.072421 0.755316
Si Si7 0.566734 0.176811 0.654463
Si Si8 0.068330 0.504505 0.910872
O O1 0.250000 0.750000 0.603834
O O2 0.023002 0.750000 0.701711
O O3 0.016807 0.686704 0.564553
O O4 0.750000 0.250000 0.197457
O O5 0.499033 0.313506 0.169199
O O6 0.250000 0.118385 0.175956
O O7 0.038016 0.095849 0.279226
O O8 0.991551 0.067842 0.129966
O O9 0.750000 0.382278 0.477402
O O10 0.495983 0.434757 0.432161
O O11 0.523566 0.363014 0.574147
O O12 0.750000 0.532380 0.647315
O O13 0.495963 0.479732 0.692528
O O14 0.250000 0.072474 0.750125
O O15 0.002660 0.139422 0.729671
O O16 0.023979 0.049533 0.845838
O O17 0.750000 0.175989 0.658704
O O18 0.521076 0.250000 0.647785
O O19 0.250000 0.504920 0.915696
O O20 0.000000 0.500000 0.000000
#
# Coordination Sequence:
#
# PCOD9447073 Si02
#       8
#     4   4   8   8   8   8   8   8
#     4   9  16  27  47  73 104 145 190 229 267 312
#     4  11  19  29  51  79 112 153 188 223 271 328
#     4  10  20  33  51  80 116 149 181 222 271 325
#     4  10  18  32  52  76 107 148 194 235 275 320
#     4  10  20  33  51  78 111 146 187 232 277 323
#     4  10  22  39  59  83 111 143 179 222 279 337
#     4  10  21  37  58  81 108 146 192 236 277 322
#     4  10  21  39  64  89 110 137 176 222 275 339
#
# _framework density 18.078147999999999
#
# number of rings (size 3 to 8) (size 9 to 14) (size 15 to 20)
#    0.000    2.000    2.143    1.929    0.000    4.286 
#    0.000    0.357    1.571    0.000    0.000    0.000 
#    0.000    0.000    0.000    0.000    0.000    0.000 
#
# Total GULP energy -312550.036871 kJ/mol
# GULP energy per Si atom -5581.250658 kJ/mol
# Density = 1.803700 g / cm^3
# Si number density = 18.078148 Si / 1000 Ang^3
#
#
#
# Elastic Constant Matrix: (Units=GPa)
#
#
# Indices 1 2 3 4 5 6 
#
# 1 40.2711 35.1853 44.7818 0.0000 0.0000 0.0000
# 2 35.1853 70.9324 61.8888 0.0000 0.0000 0.0000
# 3 44.7818 61.8888 123.9407 0.0000 0.0000 0.0000
# 4 0.0000 0.0000 0.0000 13.8549 0.0000 0.0000
# 5 0.0000 0.0000 0.0000 0.0000 26.4544 0.0000
# 6 0.0000 0.0000 0.0000 0.0000 0.0000 29.4866
#
#
#
# Elastic Compliance Matrix: (Units=1/GPa)
#
#
# Indices 1 2 3 4 5 6 
#
# 1 0.050044 -0.016033 -0.010076 0.000000 0.000000 0.000000
# 2 -0.016033 0.030118 -0.009247 0.000000 0.000000 0.000000
# 3 -0.010076 -0.009247 0.016326 0.000000 0.000000 0.000000
# 4 0.000000 0.000000 0.000000 0.072176 0.000000 0.000000
# 5 0.000000 0.000000 0.000000 0.000000 0.037801 0.000000
# 6 0.000000 0.000000 0.000000 0.000000 0.000000 0.033914
#
#
# Mechanical properties :
#
#
# Convention : Reuss Voigt Hill
#
# Bulk Modulus (GPa) = 38.79204 57.65069 48.22137
# Shear Modulus (GPa) = 15.64049 20.17841 17.90945
#
# Velocity S-wave (km/s) = 2.94455 3.34455 3.15090
# Velocity P-wave (km/s) = 5.75022 6.84643 6.32213
#
# Compressibility (1/GPa) = 0.02577849
#
# Stress axis : x y z
#
# Youngs Moduli (GPa) = 19.98232 33.20237 61.25113
#
# Poissons Ratio (x) = 0.53232 0.61717
# Poissons Ratio (y) = 0.32037 0.56636
# Poissons Ratio (z) = 0.20134 0.30701
#
# Static dielectric constant tensor:
#      x y z
#    x 1.599610 0.000000 0.000000 
#    y 0.000000 1.618110 0.000000 
#    z 0.000000 0.000000 1.818990 
# 
# From -- ./inp_files/21233.got.cif
#   From: 2010.05.17/outbox.cif.g08.bks.cpg/sg59_11_cif.got.tgz:21233.got - 2010.06.03 14:40:33.
