data_PCOD9447615
_publ_section_title
;
Structure prediction by ZEFSAII (Michael W. Deem and Ramdas Pophale) SiO2 
 PCOD9447615
Probable space group: P M M N
;
_chemical_formula_sum "Si O2"
_cell_formula_units_Z 64
_cell_length_a 8.622495
_cell_length_b 24.641252
_cell_length_c 17.094514
_cell_angle_alpha 90.000000
_cell_angle_beta 90.000000
_cell_angle_gamma 90.000000
_cell_volume 3632.055529
_symmetry_space_group_name_H-M "P M M N"
_symmetry_group_IT_number 59
_space_group.IT_coordinate_system_code '2'
_symmetry_cell_setting 'orthorhombic'
loop_
_space_group_symop_operation_xyz
x,y,z
1/2-x,1/2-y,z
1/2+x,-y,-z
-x,1/2+y,-z
-x,-y,-z
1/2+x,1/2+y,-z
1/2-x,y,z
x,1/2-y,z
loop_
_atom_site_type_symbol
_atom_site_label
_atom_site_fract_x
_atom_site_fract_y
_atom_site_fract_z
Si Si1 0.434893 0.624290 0.218006
Si Si2 0.065931 0.089077 0.533140
Si Si3 0.937058 0.973874 0.308955
Si Si4 0.434763 0.588036 0.636486
Si Si5 0.562107 0.687081 0.070511
Si Si6 0.937758 0.812327 0.728098
Si Si7 0.436497 0.813058 0.376876
Si Si8 0.428207 0.184136 0.100348
O O1 0.250000 0.624190 0.211600
O O2 0.492980 0.564735 0.242765
O O3 0.506103 0.648689 0.139538
O O4 0.477842 0.663260 0.291349
O O5 0.250000 0.083876 0.522924
O O6 0.017551 0.051906 0.606806
O O7 0.982478 0.075928 0.452495
O O8 0.021043 0.149778 0.559782
O O9 0.750000 0.970955 0.304202
O O10 0.984984 0.036608 0.310828
O O11 0.250000 0.592122 0.640797
O O12 0.507793 0.643962 0.665763
O O13 0.750000 0.686984 0.067778
O O14 0.514174 0.750000 0.084462
O O15 0.503554 0.669293 0.984106
O O16 0.750000 0.811938 0.731155
O O17 0.986673 0.750000 0.712383
O O18 0.997204 0.829471 0.814989
O O19 0.250000 0.818914 0.386095
O O20 0.476060 0.750000 0.382575
O O21 0.250000 0.164438 0.100901
O O22 0.422499 0.250000 0.099535
#
# Coordination Sequence:
#
# PCOD9447615 Si02
#       8
#     8   8   8   8   8   8   8   8
#     4  10  19  30  47  72 101 131 163 202 244 284
#     4  10  20  34  52  72  93 121 162 206 242 282
#     4   9  20  37  53  70  94 126 164 203 242 286
#     4  11  22  35  53  75  98 124 156 198 247 295
#     4   9  16  27  47  74 102 133 166 197 234 284
#     4   9  18  34  55  77 101 128 160 198 238 285
#     4   9  18  32  47  65  96 134 163 191 236 288
#     4   7  12  26  48  72  97 127 162 197 234 278
#
# _framework density 17.620875999999999
#
# number of rings (size 3 to 8) (size 9 to 14) (size 15 to 20)
#    0.000    2.750    0.000    3.375    0.000    3.750 
#    0.000    0.625    0.000    3.000    0.000    0.000 
#    0.000    0.000    0.000    0.000    0.000    0.000 
#
# Total GULP energy -356675.344895 kJ/mol
# GULP energy per Si atom -5573.052264 kJ/mol
# Density = 1.758077 g / cm^3
# Si number density = 17.620876 Si / 1000 Ang^3
#
#
#
# Elastic Constant Matrix: (Units=GPa)
#
#
# Indices 1 2 3 4 5 6 
#
# 1 12.1395 16.2616 8.4882 0.0000 0.0000 0.0000
# 2 16.2616 76.4796 12.4615 0.0000 0.0000 0.0000
# 3 8.4882 12.4615 50.5463 0.0000 0.0000 0.0000
# 4 0.0000 0.0000 0.0000 16.0474 0.0000 0.0000
# 5 0.0000 0.0000 0.0000 0.0000 12.5859 0.0000
# 6 0.0000 0.0000 0.0000 0.0000 0.0000 18.7373
#
#
#
# Elastic Compliance Matrix: (Units=1/GPa)
#
#
# Indices 1 2 3 4 5 6 
#
# 1 0.125326 -0.024190 -0.015082 0.000000 0.000000 0.000000
# 2 -0.024190 0.018292 -0.000447 0.000000 0.000000 0.000000
# 3 -0.015082 -0.000447 0.022427 0.000000 0.000000 0.000000
# 4 0.000000 0.000000 0.000000 0.062315 0.000000 0.000000
# 5 0.000000 0.000000 0.000000 0.000000 0.079454 0.000000
# 6 0.000000 0.000000 0.000000 0.000000 0.000000 0.053369
#
#
# Mechanical properties :
#
#
# Convention : Reuss Voigt Hill
#
# Bulk Modulus (GPa) = 11.54663 23.73201 17.63932
# Shear Modulus (GPa) = 10.64981 16.27106 13.46044
#
# Velocity S-wave (km/s) = 2.46109 3.04204 2.76686
# Velocity P-wave (km/s) = 3.82662 5.08292 4.49884
#
# Compressibility (1/GPa) = 0.08660532
#
# Stress axis : x y z
#
# Youngs Moduli (GPa) = 7.97918 54.66940 44.58940
#
# Poissons Ratio (x) = 1.32247 0.67250
# Poissons Ratio (y) = 0.19302 0.01995
# Poissons Ratio (z) = 0.12034 0.02446
#
# Static dielectric constant tensor:
#      x y z
#    x 1.594670 0.000000 0.000000 
#    y 0.000000 1.592450 0.000000 
#    z 0.000000 0.000000 1.615350 
# 
# From -- ./inp_files/26451.got.cif
#   From: 2010.05.17/outbox.cif.g08.bks.cpg/sg59_14_cif.got.tgz:26451.got - 2010.06.03 14:40:33.
