data_PCOD9447312
_publ_section_title
;
Structure prediction by ZEFSAII (Michael W. Deem and Ramdas Pophale) SiO2 
 PCOD9447312
Probable space group: P M M N
;
_chemical_formula_sum "Si O2"
_cell_formula_units_Z 56
_cell_length_a 7.427892
_cell_length_b 20.568627
_cell_length_c 15.169233
_cell_angle_alpha 90.000000
_cell_angle_beta 90.000000
_cell_angle_gamma 90.000000
_cell_volume 2317.578778
_symmetry_space_group_name_H-M "P M M N"
_symmetry_group_IT_number 59
_space_group.IT_coordinate_system_code '2'
_symmetry_cell_setting 'orthorhombic'
loop_
_space_group_symop_operation_xyz
x,y,z
1/2-x,1/2-y,z
1/2+x,-y,-z
-x,1/2+y,-z
-x,-y,-z
1/2+x,1/2+y,-z
1/2-x,y,z
x,1/2-y,z
loop_
_atom_site_type_symbol
_atom_site_label
_atom_site_fract_x
_atom_site_fract_y
_atom_site_fract_z
Si Si1 0.463885 0.250000 0.559151
Si Si2 0.963895 0.428365 0.527392
Si Si3 0.540771 0.250000 0.350876
Si Si4 0.036254 0.602338 0.120846
Si Si5 0.961064 0.368891 0.689605
Si Si6 0.966388 0.046556 0.169533
Si Si7 0.970197 0.173721 0.056517
Si Si8 0.028981 0.888588 0.659429
O O1 0.250000 0.250000 0.552252
O O2 0.534473 0.250000 0.458818
O O3 0.522243 0.190615 0.621459
O O4 0.750000 0.415218 0.532685
O O5 0.042569 0.421949 0.624734
O O6 0.034876 0.391149 0.441834
O O7 0.000000 0.500000 0.500000
O O8 0.750000 0.250000 0.326918
O O9 0.468647 0.183205 0.312206
O O10 0.250000 0.612698 0.116002
O O11 0.962210 0.631414 0.212927
O O12 0.968555 0.643605 0.037793
O O13 0.014435 0.523408 0.126583
O O14 0.750000 0.380817 0.704523
O O15 0.750000 0.046824 0.169027
O O16 0.028829 0.056972 0.270915
O O17 0.023173 0.113655 0.121163
O O18 0.750000 0.175562 0.059954
O O19 0.026049 0.250000 0.069605
O O20 0.250000 0.890604 0.656624
#
# Coordination Sequence:
#
# PCOD9447312 Si02
#       8
#     4   8   4   8   8   8   8   8
#     4  12  24  36  54  83 114 146 186 239 292 331
#     4  10  19  32  49  73 103 138 182 225 269 323
#     4  10  18  36  58  75 106 148 192 231 272 341
#     4  10  21  37  60  85 111 151 195 234 280 339
#     4  10  21  37  57  78 107 152 195 227 274 339
#     4  10  20  35  58  87 118 148 182 236 294 336
#     4   9  19  35  57  88 117 144 189 240 281 332
#     4   9  18  31  53  80 105 141 185 226 271 328
#
# _framework density 24.163150000000002
#
# number of rings (size 3 to 8) (size 9 to 14) (size 15 to 20)
#    0.000    2.143    1.429    1.929    2.000    1.143 
#    0.000    0.714    0.000    1.286    0.000    0.000 
#    0.000    0.000    0.000    0.000    0.000    0.000 
#
# Total GULP energy -312005.775542 kJ/mol
# GULP energy per Si atom -5571.531706 kJ/mol
# Density = 2.410815 g / cm^3
# Si number density = 24.163150 Si / 1000 Ang^3
#
#
#
# Elastic Constant Matrix: (Units=GPa)
#
#
# Indices 1 2 3 4 5 6 
#
# 1 84.9938 -21.0425 -3.5572 0.0000 0.0000 0.0000
# 2 -21.0425 75.0185 -23.0502 0.0000 0.0000 0.0000
# 3 -3.5572 -23.0502 48.9512 0.0000 0.0000 0.0000
# 4 0.0000 0.0000 0.0000 47.6378 0.0000 0.0000
# 5 0.0000 0.0000 0.0000 0.0000 -61.9245 0.0000
# 6 0.0000 0.0000 0.0000 0.0000 0.0000 19.6974
#
#
#
# Elastic Compliance Matrix: (Units=1/GPa)
#
#
# Indices 1 2 3 4 5 6 
#
# 1 0.013039 0.004617 0.003121 0.000000 0.000000 0.000000
# 2 0.004617 0.017219 0.008444 0.000000 0.000000 0.000000
# 3 0.003121 0.008444 0.024631 0.000000 0.000000 0.000000
# 4 0.000000 0.000000 0.000000 0.020992 0.000000 0.000000
# 5 0.000000 0.000000 0.000000 0.000000 -0.016149 0.000000
# 6 0.000000 0.000000 0.000000 0.000000 0.000000 0.050768
#
#
# Mechanical properties :
#
#
# Convention : Reuss Voigt Hill
#
# Bulk Modulus (GPa) = 11.46089 12.62929 12.04509
# Shear Modulus (GPa) = 46.63219 18.18971 32.41095
#
# Velocity S-wave (km/s) = 4.39782 2.74667 3.66640
# Velocity P-wave (km/s) = 5.52640 3.91113 4.78739
#
# Compressibility (1/GPa) = 0.08725328
#
# Stress axis : x y z
#
# Youngs Moduli (GPa) = 76.69217 58.07400 40.59862
#
# Poissons Ratio (x) = -0.26810 -0.12672
# Poissons Ratio (y) = -0.35405 -0.34281
# Poissons Ratio (z) = -0.23938 -0.49036
#
# Static dielectric constant tensor:
#      x y z
#    x 1.911920 0.000000 0.000000 
#    y 0.000000 2.023690 0.000000 
#    z 0.000000 0.000000 2.033740 
# 
# From -- ./inp_files/21114.got.cif
#   From: 2010.05.17/outbox.cif.g08.bks.cpg/sg59_11_cif.got.tgz:21114.got - 2010.06.03 14:40:33.
