data_PCOD9447674
_publ_section_title
;
Structure prediction by ZEFSAII (Michael W. Deem and Ramdas Pophale) SiO2 
 PCOD9447674
Probable space group: P M M N
;
_chemical_formula_sum "Si O2"
_cell_formula_units_Z 56
_cell_length_a 8.548847
_cell_length_b 16.333895
_cell_length_c 19.201707
_cell_angle_alpha 90.000000
_cell_angle_beta 90.000000
_cell_angle_gamma 90.000000
_cell_volume 2681.248969
_symmetry_space_group_name_H-M "P M M N"
_symmetry_group_IT_number 59
_space_group.IT_coordinate_system_code '2'
_symmetry_cell_setting 'orthorhombic'
loop_
_space_group_symop_operation_xyz
x,y,z
1/2-x,1/2-y,z
1/2+x,-y,-z
-x,1/2+y,-z
-x,-y,-z
1/2+x,1/2+y,-z
1/2-x,y,z
x,1/2-y,z
loop_
_atom_site_type_symbol
_atom_site_label
_atom_site_fract_x
_atom_site_fract_y
_atom_site_fract_z
Si Si1 0.063480 0.390632 0.669144
Si Si2 0.919004 0.846632 0.714901
Si Si3 0.434803 0.993643 0.077971
Si Si4 0.941167 0.836664 0.477408
Si Si5 0.430735 0.845537 0.852440
Si Si6 0.560175 0.654399 0.174990
Si Si7 0.931486 0.541901 0.587470
O O1 0.250000 0.382281 0.673948
O O2 0.011255 0.336816 0.603320
O O3 0.004181 0.369511 0.746241
O O4 0.021615 0.478372 0.636411
O O5 0.750000 0.876832 0.743279
O O6 0.914563 0.750000 0.711410
O O7 0.931271 0.879742 0.638073
O O8 0.051200 0.866580 0.770548
O O9 0.250000 0.982406 0.076509
O O10 0.476516 0.082142 0.110617
O O11 0.504114 0.916486 0.121872
O O12 0.500000 0.000000 0.000000
O O13 0.750000 0.840943 0.480302
O O14 0.989833 0.750000 0.508873
O O15 0.997776 0.918189 0.516432
O O16 0.250000 0.849238 0.873514
O O17 0.483777 0.750000 0.862585
O O18 0.750000 0.652774 0.174493
O O19 0.514532 0.750000 0.160201
O O20 0.750000 0.515421 0.578302
#
# Coordination Sequence:
#
# PCOD9447674 Si02
#       7
#     8   8   8   8   8   8   8
#     4  10  20  34  55  81 110 148 195 246 298 354
#     4   9  17  30  49  75 107 144 187 233 284 345
#     4  12  26  44  67  94 125 159 195 239 293 355
#     4   9  17  31  51  74 102 142 195 249 299 355
#     4  10  21  38  61  89 121 157 197 241 291 351
#     4  10  22  42  67  94 125 163 208 256 305 360
#     4  10  19  30  48  75 108 147 191 243 301 356
#
# _framework density 20.88579
#
# number of rings (size 3 to 8) (size 9 to 14) (size 15 to 20)
#    0.000    2.000    0.000    3.857    0.000    8.571 
#    0.000    0.000    0.000    3.429    0.000    0.000 
#    0.000    0.000    0.000    0.000    0.000    0.000 
#
# Total GULP energy -311940.011699 kJ/mol
# GULP energy per Si atom -5570.357352 kJ/mol
# Density = 2.083825 g / cm^3
# Si number density = 20.885790 Si / 1000 Ang^3
#
#
#
# Elastic Constant Matrix: (Units=GPa)
#
#
# Indices 1 2 3 4 5 6 
#
# 1 27.2794 34.6297 22.3960 0.0000 0.0000 0.0000
# 2 34.6297 131.3718 78.2585 0.0000 0.0000 0.0000
# 3 22.3960 78.2585 106.7636 0.0000 0.0000 0.0000
# 4 0.0000 0.0000 0.0000 27.2729 0.0000 0.0000
# 5 0.0000 0.0000 0.0000 0.0000 21.2824 0.0000
# 6 0.0000 0.0000 0.0000 0.0000 0.0000 22.2448
#
#
#
# Elastic Compliance Matrix: (Units=1/GPa)
#
#
# Indices 1 2 3 4 5 6 
#
# 1 0.055252 -0.013597 -0.001623 0.000000 0.000000 0.000000
# 2 -0.013597 0.016858 -0.009505 0.000000 0.000000 0.000000
# 3 -0.001623 -0.009505 0.016674 0.000000 0.000000 0.000000
# 4 0.000000 0.000000 0.000000 0.036666 0.000000 0.000000
# 5 0.000000 0.000000 0.000000 0.000000 0.046987 0.000000
# 6 0.000000 0.000000 0.000000 0.000000 0.000000 0.044954
#
#
# Mechanical properties :
#
#
# Convention : Reuss Voigt Hill
#
# Bulk Modulus (GPa) = 25.42396 59.55370 42.48883
# Shear Modulus (GPa) = 17.86006 22.83541 20.34774
#
# Velocity S-wave (km/s) = 2.92743 3.31017 3.12467
# Velocity P-wave (km/s) = 4.86063 6.57157 5.77976
#
# Compressibility (1/GPa) = 0.03933297
#
# Stress axis : x y z
#
# Youngs Moduli (GPa) = 18.09903 59.31758 59.97289
#
# Poissons Ratio (x) = 0.80657 0.09735
# Poissons Ratio (y) = 0.24610 0.57004
# Poissons Ratio (z) = 0.02938 0.56381
#
# Static dielectric constant tensor:
#      x y z
#    x 1.772050 0.000000 0.000000 
#    y 0.000000 1.837990 0.000000 
#    z 0.000000 0.000000 1.785620 
# 
# From -- ./inp_files/29118.got.cif
#   From: 2010.05.17/outbox.cif.g08.bks.cpg/sg59_15_cif.got.tgz:29118.got - 2010.06.03 14:40:33.
