data_PCOD9447467
_publ_section_title
;
Structure prediction by ZEFSAII (Michael W. Deem and Ramdas Pophale) SiO2 
 PCOD9447467
Probable space group: P M M N
;
_chemical_formula_sum "Si O2"
_cell_formula_units_Z 40
_cell_length_a 8.794811
_cell_length_b 22.213794
_cell_length_c 12.013342
_cell_angle_alpha 90.000000
_cell_angle_beta 90.000000
_cell_angle_gamma 90.000000
_cell_volume 2347.000013
_symmetry_space_group_name_H-M "P M M N"
_symmetry_group_IT_number 59
_space_group.IT_coordinate_system_code '2'
_symmetry_cell_setting 'orthorhombic'
loop_
_space_group_symop_operation_xyz
x,y,z
1/2-x,1/2-y,z
1/2+x,-y,-z
-x,1/2+y,-z
-x,-y,-z
1/2+x,1/2+y,-z
1/2-x,y,z
x,1/2-y,z
loop_
_atom_site_type_symbol
_atom_site_label
_atom_site_fract_x
_atom_site_fract_y
_atom_site_fract_z
Si Si1 0.570171 0.507966 0.314037
Si Si2 0.933726 0.319424 0.855771
Si Si3 0.068805 0.549496 0.083299
Si Si4 0.570621 0.084435 0.485700
Si Si5 0.076967 0.320850 0.612175
O O1 0.750000 0.512666 0.291578
O O2 0.478629 0.527672 0.206422
O O3 0.522038 0.548945 0.418827
O O4 0.536358 0.441683 0.363925
O O5 0.750000 0.319484 0.850537
O O6 0.979347 0.250000 0.887967
O O7 0.979305 0.379386 0.925913
O O8 0.999123 0.331239 0.732097
O O9 0.250000 0.548471 0.070964
O O10 0.000000 0.500000 0.000000
O O11 0.750000 0.075331 0.504711
O O12 0.520007 0.151348 0.512489
O O13 0.250000 0.344321 0.613497
O O14 0.083518 0.250000 0.598650
#
# Coordination Sequence:
#
# PCOD9447467 Si02
#       5
#     8   8   8   8   8
#     4  10  20  33  50  73 102 133 169 210 254 305
#     4   9  18  33  52  74 101 133 171 214 260 312
#     4  11  22  35  54  78 106 139 176 219 267 313
#     4  10  19  31  49  73 102 136 168 204 253 308
#     4  10  19  29  46  74 105 136 169 210 258 306
#
# _framework density 17.043033000000001
#
# number of rings (size 3 to 8) (size 9 to 14) (size 15 to 20)
#    0.000    2.000    2.000    2.400    0.000    4.400 
#    0.000    0.000    0.000    1.200    0.000    2.800 
#    0.000    0.000    0.000    0.000    0.000    0.000 
#
# Total GULP energy -222691.311890 kJ/mol
# GULP energy per Si atom -5567.282797 kJ/mol
# Density = 1.700424 g / cm^3
# Si number density = 17.043033 Si / 1000 Ang^3
#
#
#
# Elastic Constant Matrix: (Units=GPa)
#
#
# Indices 1 2 3 4 5 6 
#
# 1 32.6994 32.1677 9.1848 0.0000 0.0000 0.0000
# 2 32.1677 127.7172 45.6390 0.0000 0.0000 0.0000
# 3 9.1848 45.6390 43.0215 0.0000 0.0000 0.0000
# 4 0.0000 0.0000 0.0000 29.4591 0.0000 0.0000
# 5 0.0000 0.0000 0.0000 0.0000 24.8785 0.0000
# 6 0.0000 0.0000 0.0000 0.0000 0.0000 27.6670
#
#
#
# Elastic Compliance Matrix: (Units=1/GPa)
#
#
# Indices 1 2 3 4 5 6 
#
# 1 0.040988 -0.011590 0.003545 0.000000 0.000000 0.000000
# 2 -0.011590 0.015887 -0.014380 0.000000 0.000000 0.000000
# 3 0.003545 -0.014380 0.037742 0.000000 0.000000 0.000000
# 4 0.000000 0.000000 0.000000 0.033945 0.000000 0.000000
# 5 0.000000 0.000000 0.000000 0.000000 0.040195 0.000000
# 6 0.000000 0.000000 0.000000 0.000000 0.000000 0.036144
#
#
# Mechanical properties :
#
#
# Convention : Reuss Voigt Hill
#
# Bulk Modulus (GPa) = 20.09370 41.93570 31.01470
# Shear Modulus (GPa) = 18.77292 24.16401 21.46846
#
# Velocity S-wave (km/s) = 3.32249 3.76948 3.55302
# Velocity P-wave (km/s) = 5.15113 6.60337 5.92194
#
# Compressibility (1/GPa) = 0.04976684
#
# Stress axis : x y z
#
# Youngs Moduli (GPa) = 24.39761 62.94277 26.49568
#
# Poissons Ratio (x) = 0.72951 -0.09392
# Poissons Ratio (y) = 0.28277 0.38100
# Poissons Ratio (z) = -0.08648 0.90510
#
# Static dielectric constant tensor:
#      x y z
#    x 1.576610 0.000000 0.000000 
#    y 0.000000 1.702360 0.000000 
#    z 0.000000 0.000000 1.542460 
# 
# From -- ./inp_files/14051.got.cif
#   From: 2010.05.17/outbox.cif.g08.bks.cpg/sg59_8_cif.got.tgz:14051.got - 2010.06.03 14:40:33.
