data_PCOD9447756
_publ_section_title
;
Structure prediction by ZEFSAII (Michael W. Deem and Ramdas Pophale) SiO2 
 PCOD9447756
Probable space group: P M M N
;
_chemical_formula_sum "Si O2"
_cell_formula_units_Z 56
_cell_length_a 8.864331
_cell_length_b 21.773989
_cell_length_c 14.922958
_cell_angle_alpha 90.000000
_cell_angle_beta 90.000000
_cell_angle_gamma 90.000000
_cell_volume 2880.307667
_symmetry_space_group_name_H-M "P M M N"
_symmetry_group_IT_number 59
_space_group.IT_coordinate_system_code '2'
_symmetry_cell_setting 'orthorhombic'
loop_
_space_group_symop_operation_xyz
x,y,z
1/2-x,1/2-y,z
1/2+x,-y,-z
-x,1/2+y,-z
-x,-y,-z
1/2+x,1/2+y,-z
1/2-x,y,z
x,1/2-y,z
loop_
_atom_site_type_symbol
_atom_site_label
_atom_site_fract_x
_atom_site_fract_y
_atom_site_fract_z
Si Si1 0.574729 0.320027 0.914014
Si Si2 0.071448 0.500414 0.721316
Si Si3 0.420154 0.486524 0.092564
Si Si4 0.066119 0.750000 0.579660
Si Si5 0.918598 0.840672 0.896662
Si Si6 0.066125 0.750000 0.373618
Si Si7 0.432544 0.874368 0.271768
Si Si8 0.068183 0.641479 0.710152
O O1 0.750000 0.334646 0.931791
O O2 0.567980 0.250000 0.879608
O O3 0.520281 0.362733 0.832458
O O4 0.491141 0.321956 0.008929
O O5 0.250000 0.497124 0.706891
O O6 0.019176 0.569975 0.695077
O O7 0.027496 0.496458 0.825796
O O8 0.994019 0.437877 0.686441
O O9 0.250000 0.512924 0.100197
O O10 0.406767 0.413755 0.097301
O O11 0.500000 0.500000 0.000000
O O12 0.250000 0.750000 0.579956
O O13 0.017169 0.750000 0.476922
O O14 0.019180 0.688769 0.633256
O O15 0.750000 0.815993 0.887633
O O16 0.012127 0.831647 0.805542
O O17 0.250000 0.750000 0.371171
O O18 0.019280 0.686801 0.325261
O O19 0.250000 0.876797 0.271924
O O20 0.250000 0.639834 0.713255
#
# Coordination Sequence:
#
# PCOD9447756 Si02
#       8
#     8   8   8   4   8   4   8   8
#     4  10  20  33  49  72 105 144 184 223 265 317
#     4  10  20  33  51  77 111 146 181 223 273 327
#     4  10  19  31  47  70 103 143 186 226 267 318
#     4   9  18  36  64  87 104 134 181 231 274 325
#     4  10  21  33  47  73 109 143 178 221 267 314
#     4   9  18  36  62  89 108 132 181 235 278 325
#     4  10  19  35  58  82 110 143 182 229 276 324
#     4   9  19  36  57  82 110 144 185 226 270 323
#
# _framework density 19.442367999999998
#
# number of rings (size 3 to 8) (size 9 to 14) (size 15 to 20)
#    0.000    2.286    0.714    2.143    1.000    5.429 
#    0.000    1.071    0.000    1.714    0.000    0.000 
#    0.000    0.000    0.000    0.000    0.000    0.000 
#
# Total GULP energy -312091.023957 kJ/mol
# GULP energy per Si atom -5573.053999 kJ/mol
# Density = 1.939812 g / cm^3
# Si number density = 19.442368 Si / 1000 Ang^3
#
#
#
# Elastic Constant Matrix: (Units=GPa)
#
#
# Indices 1 2 3 4 5 6 
#
# 1 27.5172 22.6695 14.6431 0.0000 0.0000 0.0000
# 2 22.6695 160.7620 54.9450 0.0000 0.0000 0.0000
# 3 14.6431 54.9450 95.5182 0.0000 0.0000 0.0000
# 4 0.0000 0.0000 0.0000 6.9152 0.0000 0.0000
# 5 0.0000 0.0000 0.0000 0.0000 7.2564 0.0000
# 6 0.0000 0.0000 0.0000 0.0000 0.0000 22.7090
#
#
#
# Elastic Compliance Matrix: (Units=1/GPa)
#
#
# Indices 1 2 3 4 5 6 
#
# 1 0.042192 -0.004654 -0.003791 0.000000 0.000000 0.000000
# 2 -0.004654 0.008256 -0.004036 0.000000 0.000000 0.000000
# 3 -0.003791 -0.004036 0.013372 0.000000 0.000000 0.000000
# 4 0.000000 0.000000 0.000000 0.144608 0.000000 0.000000
# 5 0.000000 0.000000 0.000000 0.000000 0.137810 0.000000
# 6 0.000000 0.000000 0.000000 0.000000 0.000000 0.044035
#
#
# Mechanical properties :
#
#
# Convention : Reuss Voigt Hill
#
# Bulk Modulus (GPa) = 25.73421 52.03475 38.88448
# Shear Modulus (GPa) = 11.67713 20.14546 15.91129
#
# Velocity S-wave (km/s) = 2.45338 3.22244 2.86384
# Velocity P-wave (km/s) = 4.61414 6.37708 5.56585
#
# Compressibility (1/GPa) = 0.03885877
#
# Stress axis : x y z
#
# Youngs Moduli (GPa) = 23.70101 121.12519 74.78432
#
# Poissons Ratio (x) = 0.56371 0.28351
# Poissons Ratio (y) = 0.11030 0.30180
# Poissons Ratio (z) = 0.08985 0.48881
#
# Static dielectric constant tensor:
#      x y z
#    x 1.688640 0.000000 0.000000 
#    y 0.000000 1.749840 0.000000 
#    z 0.000000 0.000000 1.766410 
# 
# From -- ./inp_files/21179.got.cif
#   From: 2010.05.17/outbox.cif.g08.bks.cpg/sg59_11_cif.got.tgz:21179.got - 2010.06.03 14:40:33.
