data_PCOD9447409
_publ_section_title
;
Structure prediction by ZEFSAII (Michael W. Deem and Ramdas Pophale) SiO2 
 PCOD9447409
Probable space group: P M M N
;
_chemical_formula_sum "Si O2"
_cell_formula_units_Z 64
_cell_length_a 9.191412
_cell_length_b 17.443168
_cell_length_c 22.215744
_cell_angle_alpha 90.000000
_cell_angle_beta 90.000000
_cell_angle_gamma 90.000000
_cell_volume 3561.791223
_symmetry_space_group_name_H-M "P M M N"
_symmetry_group_IT_number 59
_space_group.IT_coordinate_system_code '2'
_symmetry_cell_setting 'orthorhombic'
loop_
_space_group_symop_operation_xyz
x,y,z
1/2-x,1/2-y,z
1/2+x,-y,-z
-x,1/2+y,-z
-x,-y,-z
1/2+x,1/2+y,-z
1/2-x,y,z
x,1/2-y,z
loop_
_atom_site_type_symbol
_atom_site_label
_atom_site_fract_x
_atom_site_fract_y
_atom_site_fract_z
Si Si1 0.422464 0.658037 0.636741
Si Si2 0.079714 0.834797 0.865654
Si Si3 0.421058 0.939268 0.176870
Si Si4 0.582923 0.657764 0.271769
Si Si5 0.419836 0.400002 0.246376
Si Si6 0.417708 0.843645 0.392842
Si Si7 0.417591 0.156548 0.486417
Si Si8 0.076310 0.510751 0.936172
O O1 0.250000 0.645557 0.632933
O O2 0.446135 0.750000 0.644979
O O3 0.491363 0.614563 0.693127
O O4 0.499859 0.634676 0.574567
O O5 0.250000 0.841569 0.847933
O O6 0.056425 0.750000 0.890965
O O7 0.050382 0.902644 0.912318
O O8 0.983613 0.846951 0.806538
O O9 0.250000 0.926129 0.166100
O O10 0.495564 0.872057 0.214381
O O11 0.434970 0.014577 0.219368
O O12 0.504100 0.957413 0.114934
O O13 0.750000 0.630790 0.270351
O O14 0.583894 0.750000 0.272394
O O15 0.503194 0.631991 0.333034
O O16 0.250000 0.384321 0.256874
O O17 0.250000 0.868535 0.391222
O O18 0.417675 0.750000 0.393231
O O19 0.498289 0.868921 0.453608
O O20 0.250000 0.131400 0.486451
O O21 0.417383 0.250000 0.487800
O O22 0.250000 0.498257 0.939770
O O23 0.000000 0.500000 0.000000
#
# Coordination Sequence:
#
# PCOD9447409 Si02
#       8
#     8   8   8   8   8   8   8   8
#     4  10  19  29  43  66  97 133 172 212 255 304
#     4   9  18  33  53  77 104 135 173 214 254 298
#     4  10  21  37  56  78 104 135 170 206 249 304
#     4  10  20  34  54  80 106 131 165 211 259 305
#     4  10  20  32  48  72 101 133 169 209 253 301
#     4   9  16  27  45  69  97 129 165 206 254 307
#     4   9  16  26  41  63  93 128 167 212 258 302
#     4  10  20  36  58  81 108 142 177 213 254 304
#
# _framework density 17.968487
#
# number of rings (size 3 to 8) (size 9 to 14) (size 15 to 20)
#    0.000    2.375    0.000    3.000    0.000    8.250 
#    0.000    0.625    0.000    3.000    0.000    0.000 
#    0.000    0.000    0.000    0.000    0.000    0.000 
#
# Total GULP energy -357166.977508 kJ/mol
# GULP energy per Si atom -5580.734024 kJ/mol
# Density = 1.792759 g / cm^3
# Si number density = 17.968487 Si / 1000 Ang^3
#
#
#
# Elastic Constant Matrix: (Units=GPa)
#
#
# Indices 1 2 3 4 5 6 
#
# 1 138.6940 26.8691 93.3122 0.0000 0.0000 0.0000
# 2 26.8691 12.9042 24.1435 0.0000 0.0000 0.0000
# 3 93.3122 24.1435 159.3810 0.0000 0.0000 0.0000
# 4 0.0000 0.0000 0.0000 1.0839 0.0000 0.0000
# 5 0.0000 0.0000 0.0000 0.0000 39.5489 0.0000
# 6 0.0000 0.0000 0.0000 0.0000 0.0000 19.8453
#
#
#
# Elastic Compliance Matrix: (Units=1/GPa)
#
#
# Indices 1 2 3 4 5 6 
#
# 1 0.015032 -0.020700 -0.005665 0.000000 0.000000 0.000000
# 2 -0.020700 0.136651 -0.008581 0.000000 0.000000 0.000000
# 3 -0.005665 -0.008581 0.010891 0.000000 0.000000 0.000000
# 4 0.000000 0.000000 0.000000 0.922570 0.000000 0.000000
# 5 0.000000 0.000000 0.000000 0.000000 0.025285 0.000000
# 6 0.000000 0.000000 0.000000 0.000000 0.000000 0.050390
#
#
# Mechanical properties :
#
#
# Convention : Reuss Voigt Hill
#
# Bulk Modulus (GPa) = 10.78965 66.62543 38.70754
# Shear Modulus (GPa) = 3.96321 23.20590 13.58456
#
# Velocity S-wave (km/s) = 1.48675 3.59761 2.75257
# Velocity P-wave (km/s) = 2.99417 7.37676 5.62946
#
# Compressibility (1/GPa) = 0.09268138
#
# Stress axis : x y z
#
# Youngs Moduli (GPa) = 66.52673 7.31791 91.82156
#
# Poissons Ratio (x) = 0.15148 0.52015
# Poissons Ratio (y) = 1.37711 0.78793
# Poissons Ratio (z) = 0.37686 0.06280
#
# Static dielectric constant tensor:
#      x y z
#    x 1.603650 0.000000 0.000000 
#    y 0.000000 1.629600 0.000000 
#    z 0.000000 0.000000 1.576270 
# 
# From -- ./inp_files/29365.got.cif
#   From: 2010.05.17/outbox.cif.g08.bks.cpg/sg59_15_cif.got.tgz:29365.got - 2010.06.03 14:40:33.
