data_PCOD9447925
_publ_section_title
;
Structure prediction by ZEFSAII (Michael W. Deem and Ramdas Pophale) SiO2 
 PCOD9447925
Probable space group: P M M N
;
_chemical_formula_sum "Si O2"
_cell_formula_units_Z 64
_cell_length_a 15.134712
_cell_length_b 8.173803
_cell_length_c 27.193112
_cell_angle_alpha 90.000000
_cell_angle_beta 90.000000
_cell_angle_gamma 90.000000
_cell_volume 3364.009697
_symmetry_space_group_name_H-M "P M M N"
_symmetry_group_IT_number 59
_space_group.IT_coordinate_system_code '2'
_symmetry_cell_setting 'orthorhombic'
loop_
_space_group_symop_operation_xyz
x,y,z
1/2-x,1/2-y,z
1/2+x,-y,-z
-x,1/2+y,-z
-x,-y,-z
1/2+x,1/2+y,-z
1/2-x,y,z
x,1/2-y,z
loop_
_atom_site_type_symbol
_atom_site_label
_atom_site_fract_x
_atom_site_fract_y
_atom_site_fract_z
Si Si1 0.149020 0.449467 0.740748
Si Si2 0.148589 0.050233 0.629712
Si Si3 0.000925 0.944732 0.443919
Si Si4 0.997910 0.445167 0.074386
Si Si5 0.350647 0.947137 0.263281
Si Si6 0.351170 0.445432 0.370424
Si Si7 0.148394 0.053380 0.999542
Si Si8 0.503759 0.051603 0.813359
O O1 0.250000 0.500314 0.749614
O O2 0.147755 0.250000 0.740691
O O3 0.123546 0.500348 0.685285
O O4 0.081889 0.503802 0.782551
O O5 0.250000 0.001040 0.620802
O O6 0.147144 0.250000 0.629412
O O7 0.081324 0.990301 0.588465
O O8 0.994946 0.750000 0.443677
O O9 0.088470 0.994848 0.414617
O O10 0.000000 0.000000 0.500000
O O11 0.995689 0.250000 0.069327
O O12 0.084250 0.506031 0.043893
O O13 0.004239 0.491320 0.131156
O O14 0.908808 0.512161 0.048905
O O15 0.250000 0.008355 0.258950
O O16 0.348990 0.750000 0.261910
O O17 0.412289 0.003231 0.218924
O O18 0.385117 0.995910 0.317166
O O19 0.250000 0.505575 0.375080
O O20 0.350158 0.250000 0.370420
O O21 0.250000 0.991744 0.999880
O O22 0.153483 0.250000 0.003244
O O23 0.503688 0.250000 0.814329
#
# Coordination Sequence:
#
# PCOD9447925 Si02
#       8
#     8   8   8   8   8   8   8   8
#     4   8  14  26  46  71  95 123 163 203 238 286
#     4   8  15  30  52  75  98 127 166 211 255 301
#     4  11  22  35  53  78 106 136 172 216 268 324
#     4  10  21  35  52  79 109 135 171 219 265 307
#     4   9  18  33  53  77 104 136 176 218 259 307
#     4  10  21  37  56  77 103 138 180 224 270 320
#     4   9  19  38  60  76  96 134 180 220 261 313
#     4  10  19  31  49  75 108 141 170 205 253 311
#
# _framework density 19.024916999999999
#
# number of rings (size 3 to 8) (size 9 to 14) (size 15 to 20)
#    0.000    2.625    0.000    2.625    0.000    5.500 
#    0.000    2.500    0.000    1.125    0.000    3.500 
#    0.000    0.000    0.000    0.000    0.000    0.000 
#
# Total GULP energy -357023.454549 kJ/mol
# GULP energy per Si atom -5578.491477 kJ/mol
# Density = 1.898162 g / cm^3
# Si number density = 19.024917 Si / 1000 Ang^3
#
#
#
# Elastic Constant Matrix: (Units=GPa)
#
#
# Indices 1 2 3 4 5 6 
#
# 1 137.9056 12.7679 100.7439 0.0000 0.0000 0.0000
# 2 12.7679 10.5614 8.2185 0.0000 0.0000 0.0000
# 3 100.7439 8.2185 183.6112 0.0000 0.0000 0.0000
# 4 0.0000 0.0000 0.0000 29.8803 0.0000 0.0000
# 5 0.0000 0.0000 0.0000 0.0000 -52.0274 0.0000
# 6 0.0000 0.0000 0.0000 0.0000 0.0000 13.5241
#
#
#
# Elastic Compliance Matrix: (Units=1/GPa)
#
#
# Indices 1 2 3 4 5 6 
#
# 1 0.013169 -0.010669 -0.006748 0.000000 0.000000 0.000000
# 2 -0.010669 0.106745 0.001076 0.000000 0.000000 0.000000
# 3 -0.006748 0.001076 0.009101 0.000000 0.000000 0.000000
# 4 0.000000 0.000000 0.000000 0.033467 0.000000 0.000000
# 5 0.000000 0.000000 0.000000 0.000000 -0.019221 0.000000
# 6 0.000000 0.000000 0.000000 0.000000 0.000000 0.073942
#
#
# Mechanical properties :
#
#
# Convention : Reuss Voigt Hill
#
# Bulk Modulus (GPa) = 10.38072 63.94874 37.16473
# Shear Modulus (GPa) = 17.73086 12.29861 15.01473
#
# Velocity S-wave (km/s) = 3.05615 2.54529 2.81234
# Velocity P-wave (km/s) = 4.23339 6.50570 5.48843
#
# Compressibility (1/GPa) = 0.09633242
#
# Stress axis : x y z
#
# Youngs Moduli (GPa) = 75.93859 9.36813 109.88395
#
# Poissons Ratio (x) = 0.09995 0.74147
# Poissons Ratio (y) = 0.81017 -0.11822
# Poissons Ratio (z) = 0.51242 -0.01008
#
# Static dielectric constant tensor:
#      x y z
#    x 1.677670 0.000000 0.000000 
#    y 0.000000 1.674340 0.000000 
#    z 0.000000 0.000000 1.607480 
# 
# From -- ./inp_files/32145.got.cif
#   From: 2010.05.17/outbox.cif.g08.bks.cpg/sg59_17_cif.got.tgz:32145.got - 2010.06.03 14:40:33.
