data_PCOD9447437
_publ_section_title
;
Structure prediction by ZEFSAII (Michael W. Deem and Ramdas Pophale) SiO2 
 PCOD9447437
Probable space group: P M M N
;
_chemical_formula_sum "Si O2"
_cell_formula_units_Z 64
_cell_length_a 14.291601
_cell_length_b 8.864909
_cell_length_c 32.386377
_cell_angle_alpha 90.000000
_cell_angle_beta 90.000000
_cell_angle_gamma 90.000000
_cell_volume 4103.151303
_symmetry_space_group_name_H-M "P M M N"
_symmetry_group_IT_number 59
_space_group.IT_coordinate_system_code '2'
_symmetry_cell_setting 'orthorhombic'
loop_
_space_group_symop_operation_xyz
x,y,z
1/2-x,1/2-y,z
1/2+x,-y,-z
-x,1/2+y,-z
-x,-y,-z
1/2+x,1/2+y,-z
1/2-x,y,z
x,1/2-y,z
loop_
_atom_site_type_symbol
_atom_site_label
_atom_site_fract_x
_atom_site_fract_y
_atom_site_fract_z
Si Si1 0.141859 0.066704 0.973404
Si Si2 0.641844 0.068185 0.520461
Si Si3 0.966769 0.069624 0.436523
Si Si4 0.359547 0.070259 0.640033
Si Si5 0.859105 0.067465 0.182425
Si Si6 0.639040 0.570096 0.934053
Si Si7 0.472304 0.069520 0.893006
Si Si8 0.363431 0.576468 0.725771
O O1 0.250000 0.023069 0.967304
O O2 0.138971 0.250000 0.974322
O O3 0.082130 0.016038 0.934446
O O4 0.113036 0.016495 0.019348
O O5 0.750000 0.021016 0.524980
O O6 0.638123 0.250000 0.524170
O O7 0.601558 0.028792 0.475007
O O8 0.568639 0.996291 0.552391
O O9 0.971710 0.250000 0.434424
O O10 0.922432 0.004818 0.394984
O O11 0.250000 0.024365 0.634668
O O12 0.364173 0.250000 0.636582
O O13 0.389832 0.019270 0.685871
O O14 0.750000 0.022585 0.176575
O O15 0.861872 0.250000 0.181332
O O16 0.891291 0.021601 0.228608
O O17 0.922519 0.999658 0.146737
O O18 0.750000 0.546703 0.929534
O O19 0.621922 0.750000 0.931624
O O20 0.577490 0.485738 0.900441
O O21 0.467355 0.250000 0.891060
O O22 0.250000 0.577975 0.727213
O O23 0.394077 0.750000 0.720310
#
# Coordination Sequence:
#
# PCOD9447437 Si02
#       8
#     8   8   8   8   8   8   8   8
#     4   8  15  28  44  63  88 117 147 178 215 259
#     4   9  18  32  47  64  91 126 161 198 238 274
#     4  10  19  30  46  68  93 123 160 197 232 274
#     4  10  19  29  44  68  96 124 154 189 228 270
#     4   9  18  32  48  67  93 123 152 180 213 262
#     4   9  18  33  49  61  80 115 155 191 223 257
#     4  11  20  28  44  69  94 118 144 180 224 267
#     4   8  15  29  47  65  88 119 151 183 220 262
#
# _framework density 15.597768
#
# number of rings (size 3 to 8) (size 9 to 14) (size 15 to 20)
#    0.000    2.750    0.000    3.750    0.000    3.500 
#    0.000    1.875    0.000    1.500    0.000    0.875 
#    0.000    1.000    0.000    0.000    0.000    0.000 
#
# Total GULP energy -356690.203698 kJ/mol
# GULP energy per Si atom -5573.284433 kJ/mol
# Density = 1.556227 g / cm^3
# Si number density = 15.597768 Si / 1000 Ang^3
#
#
#
# Elastic Constant Matrix: (Units=GPa)
#
#
# Indices 1 2 3 4 5 6 
#
# 1 82.6072 32.2918 65.1115 0.0000 0.0000 0.0000
# 2 32.2918 26.1079 40.6658 0.0000 0.0000 0.0000
# 3 65.1115 40.6658 127.3431 0.0000 0.0000 0.0000
# 4 0.0000 0.0000 0.0000 24.7083 0.0000 0.0000
# 5 0.0000 0.0000 0.0000 0.0000 25.0011 0.0000
# 6 0.0000 0.0000 0.0000 0.0000 0.0000 19.5452
#
#
#
# Elastic Compliance Matrix: (Units=1/GPa)
#
#
# Indices 1 2 3 4 5 6 
#
# 1 0.025485 -0.022334 -0.005899 0.000000 0.000000 0.000000
# 2 -0.022334 0.095782 -0.019167 0.000000 0.000000 0.000000
# 3 -0.005899 -0.019167 0.016990 0.000000 0.000000 0.000000
# 4 0.000000 0.000000 0.000000 0.040472 0.000000 0.000000
# 5 0.000000 0.000000 0.000000 0.000000 0.039998 0.000000
# 6 0.000000 0.000000 0.000000 0.000000 0.000000 0.051164
#
#
# Mechanical properties :
#
#
# Convention : Reuss Voigt Hill
#
# Bulk Modulus (GPa) = 23.01143 56.91072 39.96108
# Shear Modulus (GPa) = 13.18645 20.38352 16.78499
#
# Velocity S-wave (km/s) = 2.91074 3.61892 3.28398
# Velocity P-wave (km/s) = 5.10702 7.35036 6.32888
#
# Compressibility (1/GPa) = 0.04345666
#
# Stress axis : x y z
#
# Youngs Moduli (GPa) = 39.23806 10.44039 58.85883
#
# Poissons Ratio (x) = 0.23318 0.34719
# Poissons Ratio (y) = 0.87634 1.12817
# Poissons Ratio (z) = 0.23146 0.20012
#
# Static dielectric constant tensor:
#      x y z
#    x 1.511070 0.000000 0.000000 
#    y 0.000000 1.519290 0.000000 
#    z 0.000000 0.000000 1.517190 
# 
# From -- ./inp_files/33339.got.cif
#   From: 2010.05.17/outbox.cif.g08.bks.cpg/sg59_17_cif.got.tgz:33339.got - 2010.06.03 14:40:33.
