data_PCOD9447947
_publ_section_title
;
Structure prediction by ZEFSAII (Michael W. Deem and Ramdas Pophale) SiO2 
 PCOD9447947
Probable space group: P M M N
;
_chemical_formula_sum "Si O2"
_cell_formula_units_Z 64
_cell_length_a 8.633750
_cell_length_b 18.099937
_cell_length_c 23.822234
_cell_angle_alpha 90.000000
_cell_angle_beta 90.000000
_cell_angle_gamma 90.000000
_cell_volume 3722.708394
_symmetry_space_group_name_H-M "P M M N"
_symmetry_group_IT_number 59
_space_group.IT_coordinate_system_code '2'
_symmetry_cell_setting 'orthorhombic'
loop_
_space_group_symop_operation_xyz
x,y,z
1/2-x,1/2-y,z
1/2+x,-y,-z
-x,1/2+y,-z
-x,-y,-z
1/2+x,1/2+y,-z
1/2-x,y,z
x,1/2-y,z
loop_
_atom_site_type_symbol
_atom_site_label
_atom_site_fract_x
_atom_site_fract_y
_atom_site_fract_z
Si Si1 0.564559 0.568087 0.463566
Si Si2 0.065461 0.974241 0.756704
Si Si3 0.065955 0.166515 0.182509
Si Si4 0.937323 0.397448 0.071597
Si Si5 0.565119 0.520529 0.633039
Si Si6 0.563924 0.550169 0.130180
Si Si7 0.061608 0.333645 0.436255
Si Si8 0.436577 0.834706 0.047852
O O1 0.500000 0.500000 0.500000
O O2 0.750000 0.565414 0.461886
O O3 0.499885 0.548652 0.402512
O O4 0.520385 0.639905 0.500325
O O5 0.250000 0.980329 0.750583
O O6 0.022625 0.893650 0.780694
O O7 0.986271 0.984691 0.697090
O O8 0.014630 0.030027 0.806500
O O9 0.250000 0.153387 0.186426
O O10 0.033616 0.250000 0.200591
O O11 0.011563 0.155100 0.118458
O O12 0.750000 0.390981 0.075056
O O13 0.979935 0.480141 0.090922
O O14 0.987428 0.376194 0.009155
O O15 0.750000 0.519984 0.628372
O O16 0.511404 0.599324 0.605225
O O17 0.750000 0.554459 0.130084
O O18 0.495208 0.622397 0.102169
O O19 0.250000 0.332289 0.433270
O O20 0.007354 0.250000 0.423998
O O21 0.250000 0.835433 0.047848
O O22 0.488832 0.750000 0.046188
#
# Coordination Sequence:
#
# PCOD9447947 Si02
#       8
#     8   8   8   8   8   8   8   8
#     4   9  16  28  48  71  97 130 165 199 234 276
#     4  10  21  36  52  70  94 127 169 209 245 289
#     4  10  20  32  47  70  99 130 164 200 240 289
#     4   9  18  33  51  71  97 128 161 196 240 297
#     4  10  19  31  50  74  99 129 164 203 245 289
#     4   9  19  34  51  71  94 125 164 205 247 290
#     4   8  15  28  47  73 103 131 158 191 232 276
#     4  10  20  32  49  74 100 126 156 195 249 306
#
# _framework density 17.191783000000001
#
# number of rings (size 3 to 8) (size 9 to 14) (size 15 to 20)
#    0.000    2.625    0.000    3.750    0.000    5.250 
#    0.000    1.250    0.000   13.875    0.000    1.750 
#    0.000    0.000    0.000    0.000    0.000    0.000 
#
# Total GULP energy -356658.707519 kJ/mol
# GULP energy per Si atom -5572.792305 kJ/mol
# Density = 1.715265 g / cm^3
# Si number density = 17.191783 Si / 1000 Ang^3
#
#
#
# Elastic Constant Matrix: (Units=GPa)
#
#
# Indices 1 2 3 4 5 6 
#
# 1 19.4162 11.9244 21.0417 0.0000 0.0000 0.0000
# 2 11.9244 54.0624 47.1352 0.0000 0.0000 0.0000
# 3 21.0417 47.1352 127.6881 0.0000 0.0000 0.0000
# 4 0.0000 0.0000 0.0000 8.6721 0.0000 0.0000
# 5 0.0000 0.0000 0.0000 0.0000 28.0532 0.0000
# 6 0.0000 0.0000 0.0000 0.0000 0.0000 21.7417
#
#
#
# Elastic Compliance Matrix: (Units=1/GPa)
#
#
# Indices 1 2 3 4 5 6 
#
# 1 0.064610 -0.007326 -0.007943 0.000000 0.000000 0.000000
# 2 -0.007326 0.028106 -0.009168 0.000000 0.000000 0.000000
# 3 -0.007943 -0.009168 0.012525 0.000000 0.000000 0.000000
# 4 0.000000 0.000000 0.000000 0.115313 0.000000 0.000000
# 5 0.000000 0.000000 0.000000 0.000000 0.035647 0.000000
# 6 0.000000 0.000000 0.000000 0.000000 0.000000 0.045995
#
#
# Mechanical properties :
#
#
# Convention : Reuss Voigt Hill
#
# Bulk Modulus (GPa) = 17.74056 40.15213 28.94634
# Shear Modulus (GPa) = 13.51872 19.76443 16.64158
#
# Velocity S-wave (km/s) = 2.80723 3.39432 3.11464
# Velocity P-wave (km/s) = 4.56607 6.22639 5.45972
#
# Compressibility (1/GPa) = 0.05636801
#
# Stress axis : x y z
#
# Youngs Moduli (GPa) = 15.47743 35.57934 79.84168
#
# Poissons Ratio (x) = 0.26065 0.63417
# Poissons Ratio (y) = 0.11338 0.73199
# Poissons Ratio (z) = 0.12293 0.32619
#
# Static dielectric constant tensor:
#      x y z
#    x 1.585590 0.000000 0.000000 
#    y 0.000000 1.585240 0.000000 
#    z 0.000000 0.000000 1.582570 
# 
# From -- ./inp_files/31707.got.cif
#   From: 2010.05.17/outbox.cif.g08.bks.cpg/sg59_16_cif.got.tgz:31707.got - 2010.06.03 14:40:33.
