data_PCOD9447421
_publ_section_title
;
Structure prediction by ZEFSAII (Michael W. Deem and Ramdas Pophale) SiO2 
 PCOD9447421
Probable space group: P M M N
;
_chemical_formula_sum "Si O2"
_cell_formula_units_Z 56
_cell_length_a 9.073933
_cell_length_b 13.934079
_cell_length_c 29.608748
_cell_angle_alpha 90.000000
_cell_angle_beta 90.000000
_cell_angle_gamma 90.000000
_cell_volume 3743.638288
_symmetry_space_group_name_H-M "P M M N"
_symmetry_group_IT_number 59
_space_group.IT_coordinate_system_code '2'
_symmetry_cell_setting 'orthorhombic'
loop_
_space_group_symop_operation_xyz
x,y,z
1/2-x,1/2-y,z
1/2+x,-y,-z
-x,1/2+y,-z
-x,-y,-z
1/2+x,1/2+y,-z
1/2-x,y,z
x,1/2-y,z
loop_
_atom_site_type_symbol
_atom_site_label
_atom_site_fract_x
_atom_site_fract_y
_atom_site_fract_z
Si Si1 0.574584 0.635487 0.157313
Si Si2 0.074599 0.135560 0.656248
Si Si3 0.580245 0.133477 0.749446
Si Si4 0.425599 0.962293 0.429414
Si Si5 0.926236 0.138904 0.475657
Si Si6 0.574293 0.450960 0.930440
Si Si7 0.574478 0.859026 0.983175
O O1 0.750000 0.622018 0.158634
O O2 0.546629 0.750000 0.151466
O O3 0.502473 0.604726 0.204751
O O4 0.503605 0.580246 0.115446
O O5 0.250000 0.121591 0.657451
O O6 0.046623 0.250000 0.650779
O O7 0.002893 0.104480 0.703754
O O8 0.002994 0.080040 0.614585
O O9 0.750000 0.101788 0.749396
O O10 0.579678 0.250000 0.749431
O O11 0.250000 0.965522 0.423141
O O12 0.456921 0.894511 0.472884
O O13 0.488311 0.066124 0.443227
O O14 0.750000 0.128322 0.468768
O O15 0.965712 0.250000 0.469477
O O16 0.750000 0.439593 0.926405
O O17 0.513191 0.386647 0.971645
O O18 0.541615 0.560394 0.945726
O O19 0.750000 0.865930 0.993005
O O20 0.542227 0.750000 0.969425
#
# Coordination Sequence:
#
# PCOD9447421 Si02
#       7
#     8   8   8   8   8   8   8
#     4  10  19  30  44  63  90 121 148 176 215 263
#     4  10  19  30  45  66  93 123 152 182 220 268
#     4   9  17  29  45  65  89 116 147 183 220 259
#     4  10  19  30  46  68  92 119 153 189 225 267
#     4   9  18  32  47  64  90 122 154 189 227 266
#     4  10  19  29  44  66  88 113 148 184 217 257
#     4   9  18  32  46  61  86 118 148 180 219 260
#
# _framework density 14.958710999999999
#
# number of rings (size 3 to 8) (size 9 to 14) (size 15 to 20)
#    0.000    2.429    0.000    3.000    0.000    7.429 
#    0.000    0.000    0.000    0.000    0.000    1.000 
#    0.000    5.714    0.000    0.000    0.000    0.000 
#
# Total GULP energy -312310.185463 kJ/mol
# GULP energy per Si atom -5576.967598 kJ/mol
# Density = 1.492466 g / cm^3
# Si number density = 14.958711 Si / 1000 Ang^3
#
#
#
# Elastic Constant Matrix: (Units=GPa)
#
#
# Indices 1 2 3 4 5 6 
#
# 1 82.4146 56.6869 84.4453 0.0000 0.0000 0.0000
# 2 56.6869 87.6429 63.6286 0.0000 0.0000 0.0000
# 3 84.4453 63.6286 153.9813 0.0000 0.0000 0.0000
# 4 0.0000 0.0000 0.0000 23.0627 0.0000 0.0000
# 5 0.0000 0.0000 0.0000 0.0000 31.8543 0.0000
# 6 0.0000 0.0000 0.0000 0.0000 0.0000 21.0332
#
#
#
# Elastic Compliance Matrix: (Units=1/GPa)
#
#
# Indices 1 2 3 4 5 6 
#
# 1 0.035257 -0.012524 -0.014160 0.000000 0.000000 0.000000
# 2 -0.012524 0.020748 -0.001706 0.000000 0.000000 0.000000
# 3 -0.014160 -0.001706 0.014965 0.000000 0.000000 0.000000
# 4 0.000000 0.000000 0.000000 0.043360 0.000000 0.000000
# 5 0.000000 0.000000 0.000000 0.000000 0.031393 0.000000
# 6 0.000000 0.000000 0.000000 0.000000 0.000000 0.047544
#
#
# Mechanical properties :
#
#
# Convention : Reuss Voigt Hill
#
# Bulk Modulus (GPa) = 70.46680 81.50671 75.98675
# Shear Modulus (GPa) = 19.62500 23.14192 21.38346
#
# Velocity S-wave (km/s) = 3.62601 3.93753 3.78497
# Velocity P-wave (km/s) = 8.04614 8.67630 8.36716
#
# Compressibility (1/GPa) = 0.01419108
#
# Stress axis : x y z
#
# Youngs Moduli (GPa) = 28.36298 48.19640 66.82343
#
# Poissons Ratio (x) = 0.60360 0.94625
# Poissons Ratio (y) = 0.35521 0.11397
# Poissons Ratio (z) = 0.40163 0.08220
#
# Static dielectric constant tensor:
#      x y z
#    x 1.497220 0.000000 0.000000 
#    y 0.000000 1.481390 0.000000 
#    z 0.000000 0.000000 1.470490 
# 
# From -- ./inp_files/33188.got.cif
#   From: 2010.05.17/outbox.cif.g08.bks.cpg/sg59_17_cif.got.tgz:33188.got - 2010.06.03 14:40:33.
