data_PCOD9447677
_publ_section_title
;
Structure prediction by ZEFSAII (Michael W. Deem and Ramdas Pophale) SiO2 
 PCOD9447677
Probable space group: P M M N
;
_chemical_formula_sum "Si O2"
_cell_formula_units_Z 40
_cell_length_a 21.979655
_cell_length_b 8.924122
_cell_length_c 11.178355
_cell_angle_alpha 90.000000
_cell_angle_beta 90.000000
_cell_angle_gamma 90.000000
_cell_volume 2192.624527
_symmetry_space_group_name_H-M "P M M N"
_symmetry_group_IT_number 59
_space_group.IT_coordinate_system_code '2'
_symmetry_cell_setting 'orthorhombic'
loop_
_space_group_symop_operation_xyz
x,y,z
1/2-x,1/2-y,z
1/2+x,-y,-z
-x,1/2+y,-z
-x,-y,-z
1/2+x,1/2+y,-z
1/2-x,y,z
x,1/2-y,z
loop_
_atom_site_type_symbol
_atom_site_label
_atom_site_fract_x
_atom_site_fract_y
_atom_site_fract_z
Si Si1 0.591712 0.420929 0.043714
Si Si2 0.820307 0.070684 0.616685
Si Si3 0.494637 0.920933 0.190367
Si Si4 0.945144 0.928408 0.576524
Si Si5 0.678580 0.581404 0.873389
O O1 0.605808 0.250000 0.076548
O O2 0.558277 0.507606 0.150027
O O3 0.545714 0.416563 0.929956
O O4 0.647738 0.509533 0.988419
O O5 0.750000 0.028979 0.582826
O O6 0.825520 0.250000 0.608471
O O7 0.877612 0.994618 0.550160
O O8 0.828305 0.019373 0.754869
O O9 0.500610 0.750000 0.234401
O O10 0.462249 0.022609 0.288503
O O11 0.944340 0.750000 0.563570
O O12 0.000000 0.000000 0.500000
O O13 0.750000 0.591511 0.894043
O O14 0.654451 0.750000 0.850514
#
# Coordination Sequence:
#
# PCOD9447677 Si02
#       5
#     8   8   8   8   8
#     4  10  19  31  51  76 107 142 175 216 265 321
#     4  10  20  35  55  80 111 144 181 227 279 332
#     4  10  20  34  52  76 107 140 177 218 267 321
#     4  12  24  38  58  82 113 147 188 234 279 331
#     4  10  19  30  48  76 109 144 180 220 269 324
#
# _framework density 18.242977
#
# number of rings (size 3 to 8) (size 9 to 14) (size 15 to 20)
#    0.000    1.600    2.000    4.200    0.000    4.000 
#    0.000    0.000    0.000    1.200    0.000    0.000 
#    0.000    0.000    0.000    0.000    0.000    0.000 
#
# Total GULP energy -223121.124858 kJ/mol
# GULP energy per Si atom -5578.028121 kJ/mol
# Density = 1.820146 g / cm^3
# Si number density = 18.242977 Si / 1000 Ang^3
#
#
#
# Elastic Constant Matrix: (Units=GPa)
#
#
# Indices 1 2 3 4 5 6 
#
# 1 132.5357 63.1982 31.9710 0.0000 0.0000 0.0000
# 2 63.1982 135.0361 19.3086 0.0000 0.0000 0.0000
# 3 31.9710 19.3086 15.8928 0.0000 0.0000 0.0000
# 4 0.0000 0.0000 0.0000 22.4171 0.0000 0.0000
# 5 0.0000 0.0000 0.0000 0.0000 31.6777 0.0000
# 6 0.0000 0.0000 0.0000 0.0000 0.0000 31.9152
#
#
#
# Elastic Compliance Matrix: (Units=1/GPa)
#
#
# Indices 1 2 3 4 5 6 
#
# 1 0.015897 -0.003470 -0.027764 0.000000 0.000000 0.000000
# 2 -0.003470 0.009720 -0.004828 0.000000 0.000000 0.000000
# 3 -0.027764 -0.004828 0.124639 0.000000 0.000000 0.000000
# 4 0.000000 0.000000 0.000000 0.044609 0.000000 0.000000
# 5 0.000000 0.000000 0.000000 0.000000 0.031568 0.000000
# 6 0.000000 0.000000 0.000000 0.000000 0.000000 0.031333
#
#
# Mechanical properties :
#
#
# Convention : Reuss Voigt Hill
#
# Bulk Modulus (GPa) = 12.79889 56.93558 34.86723
# Shear Modulus (GPa) = 14.04753 28.46778 21.25766
#
# Velocity S-wave (km/s) = 2.77794 3.95458 3.41728
# Velocity P-wave (km/s) = 4.16177 7.22003 5.89276
#
# Compressibility (1/GPa) = 0.07813179
#
# Stress axis : x y z
#
# Youngs Moduli (GPa) = 62.90426 102.88226 8.02316
#
# Poissons Ratio (x) = 0.35701 0.22275
# Poissons Ratio (y) = 0.21828 0.03874
# Poissons Ratio (z) = 1.74647 0.49674
#
# Static dielectric constant tensor:
#      x y z
#    x 1.667480 0.000000 0.000000 
#    y 0.000000 1.640220 0.000000 
#    z 0.000000 0.000000 1.616140 
# 
# From -- ./inp_files/18144.got.cif
#   From: 2010.05.17/outbox.cif.g08.bks.cpg/sg59_10_cif.got.tgz:18144.got - 2010.06.03 14:40:33.
