data_PCOD9447877
_publ_section_title
;
Structure prediction by ZEFSAII (Michael W. Deem and Ramdas Pophale) SiO2 
 PCOD9447877
Probable space group: P M M N
;
_chemical_formula_sum "Si O2"
_cell_formula_units_Z 48
_cell_length_a 9.206252
_cell_length_b 20.561572
_cell_length_c 14.426491
_cell_angle_alpha 90.000000
_cell_angle_beta 90.000000
_cell_angle_gamma 90.000000
_cell_volume 2730.862806
_symmetry_space_group_name_H-M "P M M N"
_symmetry_group_IT_number 59
_space_group.IT_coordinate_system_code '2'
_symmetry_cell_setting 'orthorhombic'
loop_
_space_group_symop_operation_xyz
x,y,z
1/2-x,1/2-y,z
1/2+x,-y,-z
-x,1/2+y,-z
-x,-y,-z
1/2+x,1/2+y,-z
1/2-x,y,z
x,1/2-y,z
loop_
_atom_site_type_symbol
_atom_site_label
_atom_site_fract_x
_atom_site_fract_y
_atom_site_fract_z
Si Si1 0.917331 0.477568 0.228875
Si Si2 0.422947 0.325500 0.515054
Si Si3 0.575275 0.066699 0.034233
Si Si4 0.588562 0.326805 0.699282
Si Si5 0.076937 0.457539 0.419845
Si Si6 0.081565 0.380080 0.867929
O O1 0.750000 0.466242 0.257005
O O2 0.955003 0.428745 0.144105
O O3 0.923062 0.548311 0.180088
O O4 0.017195 0.474951 0.318479
O O5 0.250000 0.325471 0.532583
O O6 0.463403 0.250000 0.493217
O O7 0.502600 0.349183 0.608454
O O8 0.452921 0.380807 0.439317
O O9 0.750000 0.062756 0.022963
O O10 0.504631 0.118449 0.964773
O O11 0.500000 0.000000 0.000000
O O12 0.750000 0.356160 0.705773
O O13 0.602436 0.250000 0.686033
O O14 0.498749 0.337203 0.792155
O O15 0.250000 0.467667 0.425211
O O16 0.000000 0.500000 0.500000
O O17 0.250000 0.363232 0.881503
#
# Coordination Sequence:
#
# PCOD9447877 Si02
#       6
#     8   8   8   8   8   8
#     4   9  19  33  48  70 100 129 158 196 242 291
#     4   9  19  36  53  69  95 132 170 204 242 293
#     4   9  17  30  48  70  96 126 158 194 238 290
#     4  10  20  32  48  72  98 125 160 201 245 293
#     4  11  22  33  50  75 101 130 164 207 254 295
#     4  10  19  31  49  72  98 129 162 196 240 293
#
# _framework density 17.576862999999999
#
# number of rings (size 3 to 8) (size 9 to 14) (size 15 to 20)
#    0.000    2.333    0.000    4.000    0.000   10.333 
#    0.000    0.000    0.000    1.000    0.000    4.667 
#    0.000    0.000    0.000    0.000    0.000    0.000 
#
# Total GULP energy -267446.356446 kJ/mol
# GULP energy per Si atom -5571.799093 kJ/mol
# Density = 1.753686 g / cm^3
# Si number density = 17.576863 Si / 1000 Ang^3
#
#
#
# Elastic Constant Matrix: (Units=GPa)
#
#
# Indices 1 2 3 4 5 6 
#
# 1 82.4293 22.4044 55.4260 0.0000 0.0000 0.0000
# 2 22.4044 29.1933 14.9002 0.0000 0.0000 0.0000
# 3 55.4260 14.9002 102.5520 0.0000 0.0000 0.0000
# 4 0.0000 0.0000 0.0000 25.9541 0.0000 0.0000
# 5 0.0000 0.0000 0.0000 0.0000 35.3233 0.0000
# 6 0.0000 0.0000 0.0000 0.0000 0.0000 19.4217
#
#
#
# Elastic Compliance Matrix: (Units=1/GPa)
#
#
# Indices 1 2 3 4 5 6 
#
# 1 0.022295 -0.011838 -0.010330 0.000000 0.000000 0.000000
# 2 -0.011838 0.043284 0.000109 0.000000 0.000000 0.000000
# 3 -0.010330 0.000109 0.015318 0.000000 0.000000 0.000000
# 4 0.000000 0.000000 0.000000 0.038530 0.000000 0.000000
# 5 0.000000 0.000000 0.000000 0.000000 0.028310 0.000000
# 6 0.000000 0.000000 0.000000 0.000000 0.000000 0.051489
#
#
# Mechanical properties :
#
#
# Convention : Reuss Voigt Hill
#
# Bulk Modulus (GPa) = 27.18881 44.40400 35.79640
# Shear Modulus (GPa) = 19.56165 24.23609 21.89887
#
# Velocity S-wave (km/s) = 3.33967 3.71733 3.53355
# Velocity P-wave (km/s) = 5.51119 6.61380 6.08751
#
# Compressibility (1/GPa) = 0.03677984
#
# Stress axis : x y z
#
# Youngs Moduli (GPa) = 44.85319 23.10332 65.28200
#
# Poissons Ratio (x) = 0.27350 0.67434
# Poissons Ratio (y) = 0.53097 -0.00713
# Poissons Ratio (z) = 0.46332 -0.00252
#
# Static dielectric constant tensor:
#      x y z
#    x 1.592530 0.000000 0.000000 
#    y 0.000000 1.676810 0.000000 
#    z 0.000000 0.000000 1.606000 
# 
# From -- ./inp_files/20777.got.cif
#   From: 2010.05.17/outbox.cif.g08.bks.cpg/sg59_11_cif.got.tgz:20777.got - 2010.06.03 14:40:33.
