data_PCOD9447398
_publ_section_title
;
Structure prediction by ZEFSAII (Michael W. Deem and Ramdas Pophale) SiO2 
 PCOD9447398
Probable space group: P M M N
;
_chemical_formula_sum "Si O2"
_cell_formula_units_Z 48
_cell_length_a 7.687894
_cell_length_b 24.811628
_cell_length_c 14.110150
_cell_angle_alpha 90.000000
_cell_angle_beta 90.000000
_cell_angle_gamma 90.000000
_cell_volume 2691.499345
_symmetry_space_group_name_H-M "P M M N"
_symmetry_group_IT_number 59
_space_group.IT_coordinate_system_code '2'
_symmetry_cell_setting 'orthorhombic'
loop_
_space_group_symop_operation_xyz
x,y,z
1/2-x,1/2-y,z
1/2+x,-y,-z
-x,1/2+y,-z
-x,-y,-z
1/2+x,1/2+y,-z
1/2-x,y,z
x,1/2-y,z
loop_
_atom_site_type_symbol
_atom_site_label
_atom_site_fract_x
_atom_site_fract_y
_atom_site_fract_z
Si Si1 0.544555 0.519498 0.650163
Si Si2 0.960236 0.416397 0.530851
Si Si3 0.037244 0.811061 0.144581
Si Si4 0.546754 0.485144 0.135928
Si Si5 0.962301 0.310814 0.637271
Si Si6 0.048515 0.911167 0.029234
O O1 0.750000 0.513009 0.662613
O O2 0.511822 0.566971 0.575052
O O3 0.477065 0.464758 0.599756
O O4 0.469218 0.527796 0.754015
O O5 0.750000 0.416749 0.534272
O O6 0.021297 0.358806 0.569182
O O7 0.250000 0.812596 0.144303
O O8 0.985772 0.750000 0.120066
O O9 0.985690 0.821706 0.253693
O O10 0.971632 0.857061 0.073930
O O11 0.750000 0.492006 0.112069
O O12 0.459827 0.541747 0.108224
O O13 0.474842 0.438859 0.065727
O O14 0.750000 0.310824 0.635947
O O15 0.017907 0.250000 0.612173
O O16 0.250000 0.898810 0.008251
#
# Coordination Sequence:
#
# PCOD9447398 Si02
#       6
#     8   8   8   8   8   8
#     4  10  19  30  45  64  87 116 147 180 219 261
#     4   9  17  29  45  65  88 112 141 178 217 260
#     4   8  13  23  42  67  91 113 139 174 216 259
#     4  10  19  29  43  64  90 119 148 180 218 259
#     4   8  13  22  40  66  90 110 134 169 215 261
#     4   9  17  29  45  66  90 115 145 180 217 258
#
# _framework density 17.833926000000002
#
# number of rings (size 3 to 8) (size 9 to 14) (size 15 to 20)
#    0.000    3.000    0.000    3.000    0.000    4.000 
#    0.000    0.000    0.000    2.000    0.000    7.000 
#    0.000    0.000    0.000    0.000    0.000    0.000 
#
# Total GULP energy -267523.194242 kJ/mol
# GULP energy per Si atom -5573.399880 kJ/mol
# Density = 1.779334 g / cm^3
# Si number density = 17.833926 Si / 1000 Ang^3
#
#
#
# Elastic Constant Matrix: (Units=GPa)
#
#
# Indices 1 2 3 4 5 6 
#
# 1 31.1505 -4.4799 -3.1335 0.0000 0.0000 0.0000
# 2 -4.4799 121.1226 74.3288 0.0000 0.0000 0.0000
# 3 -3.1335 74.3288 123.1365 0.0000 0.0000 0.0000
# 4 0.0000 0.0000 0.0000 25.0383 0.0000 0.0000
# 5 0.0000 0.0000 0.0000 0.0000 9.7667 0.0000
# 6 0.0000 0.0000 0.0000 0.0000 0.0000 10.5641
#
#
#
# Elastic Compliance Matrix: (Units=1/GPa)
#
#
# Indices 1 2 3 4 5 6 
#
# 1 0.032276 0.001096 0.000160 0.000000 0.000000 0.000000
# 2 0.001096 0.013151 -0.007910 0.000000 0.000000 0.000000
# 3 0.000160 -0.007910 0.012900 0.000000 0.000000 0.000000
# 4 0.000000 0.000000 0.000000 0.039939 0.000000 0.000000
# 5 0.000000 0.000000 0.000000 0.000000 0.102388 0.000000
# 6 0.000000 0.000000 0.000000 0.000000 0.000000 0.094660
#
#
# Mechanical properties :
#
#
# Convention : Reuss Voigt Hill
#
# Bulk Modulus (GPa) = 22.21367 45.42670 33.82019
# Shear Modulus (GPa) = 15.44976 22.98679 19.21828
#
# Velocity S-wave (km/s) = 2.94651 3.59407 3.28628
# Velocity P-wave (km/s) = 4.90498 6.53839 5.77968
#
# Compressibility (1/GPa) = 0.04501733
#
# Stress axis : x y z
#
# Youngs Moduli (GPa) = 30.98286 76.03989 77.51868
#
# Poissons Ratio (x) = -0.08331 -0.01241
# Poissons Ratio (y) = -0.03394 0.61321
# Poissons Ratio (z) = -0.00496 0.60151
#
# Static dielectric constant tensor:
#      x y z
#    x 1.677640 0.000000 0.000000 
#    y 0.000000 1.615980 0.000000 
#    z 0.000000 0.000000 1.591610 
# 
# From -- ./inp_files/14511.got.cif
#   From: 2010.05.17/outbox.cif.g08.bks.cpg/sg59_8_cif.got.tgz:14511.got - 2010.06.03 14:40:33.
