data_PCOD9447391
_publ_section_title
;
Structure prediction by ZEFSAII (Michael W. Deem and Ramdas Pophale) SiO2 
 PCOD9447391
Probable space group: P M M N
;
_chemical_formula_sum "Si O2"
_cell_formula_units_Z 64
_cell_length_a 14.179949
_cell_length_b 9.483965
_cell_length_c 32.434996
_cell_angle_alpha 90.000000
_cell_angle_beta 90.000000
_cell_angle_gamma 90.000000
_cell_volume 4361.927674
_symmetry_space_group_name_H-M "P M M N"
_symmetry_group_IT_number 59
_space_group.IT_coordinate_system_code '2'
_symmetry_cell_setting 'orthorhombic'
loop_
_space_group_symop_operation_xyz
x,y,z
1/2-x,1/2-y,z
1/2+x,-y,-z
-x,1/2+y,-z
-x,-y,-z
1/2+x,1/2+y,-z
1/2-x,y,z
x,1/2-y,z
loop_
_atom_site_type_symbol
_atom_site_label
_atom_site_fract_x
_atom_site_fract_y
_atom_site_fract_z
Si Si1 0.364517 0.912108 0.226640
Si Si2 0.141495 0.918389 0.559665
Si Si3 0.037824 0.081091 0.392301
Si Si4 0.861251 0.918483 0.853863
Si Si5 0.857788 0.418432 0.014768
Si Si6 0.136673 0.087024 0.478172
Si Si7 0.047354 0.080956 0.060077
Si Si8 0.638603 0.080159 0.680849
O O1 0.250000 0.912671 0.227227
O O2 0.394373 0.750000 0.220899
O O3 0.392165 0.959868 0.272602
O O4 0.393505 0.005970 0.187974
O O5 0.250000 0.958058 0.567870
O O6 0.137266 0.750000 0.553350
O O7 0.070524 0.952160 0.596619
O O8 0.110192 0.993268 0.517419
O O9 0.047746 0.250000 0.386031
O O10 0.093371 0.044196 0.434462
O O11 0.079618 0.997775 0.354002
O O12 0.750000 0.951599 0.860693
O O13 0.868369 0.750000 0.848897
O O14 0.920098 0.960307 0.894224
O O15 0.750000 0.453904 0.026042
O O16 0.861759 0.250000 0.006901
O O17 0.938112 0.449147 0.048905
O O18 0.889992 0.501538 0.973978
O O19 0.250000 0.080513 0.474682
O O20 0.109269 0.250000 0.485626
O O21 0.061677 0.250000 0.056162
O O22 0.750000 0.046127 0.676035
O O23 0.630196 0.250000 0.677642
#
# Coordination Sequence:
#
# PCOD9447391 Si02
#       8
#     8   8   8   8   8   8   8   8
#     4   8  15  28  43  59  82 109 132 158 197 243
#     4   9  18  31  44  59  81 109 141 174 204 234
#     4  10  19  29  43  63  85 110 138 168 203 240
#     4   9  16  25  39  60  83 107 136 168 202 241
#     4   9  17  28  41  58  82 113 147 179 210 245
#     4   9  17  28  41  59  83 108 135 168 203 238
#     4   9  17  28  41  59  84 112 142 177 213 246
#     4   9  18  31  45  63  87 111 134 162 199 246
#
# _framework density 14.672412
#
# number of rings (size 3 to 8) (size 9 to 14) (size 15 to 20)
#    0.000    3.000    0.000    1.875    0.000    3.500 
#    0.000    3.750    0.000    0.000    0.000    0.875 
#    0.000    5.000    0.000    0.000    0.000    0.000 
#
# Total GULP energy -356415.475966 kJ/mol
# GULP energy per Si atom -5568.991812 kJ/mol
# Density = 1.463902 g / cm^3
# Si number density = 14.672412 Si / 1000 Ang^3
#
#
#
# Elastic Constant Matrix: (Units=GPa)
#
#
# Indices 1 2 3 4 5 6 
#
# 1 77.7889 32.3552 66.8211 0.0000 0.0000 0.0000
# 2 32.3552 24.9324 53.1192 0.0000 0.0000 0.0000
# 3 66.8211 53.1192 148.6764 0.0000 0.0000 0.0000
# 4 0.0000 0.0000 0.0000 29.8082 0.0000 0.0000
# 5 0.0000 0.0000 0.0000 0.0000 23.6323 0.0000
# 6 0.0000 0.0000 0.0000 0.0000 0.0000 15.7077
#
#
#
# Elastic Compliance Matrix: (Units=1/GPa)
#
#
# Indices 1 2 3 4 5 6 
#
# 1 0.028031 -0.039930 0.001668 0.000000 0.000000 0.000000
# 2 -0.039930 0.224836 -0.062384 0.000000 0.000000 0.000000
# 3 0.001668 -0.062384 0.028265 0.000000 0.000000 0.000000
# 4 0.000000 0.000000 0.000000 0.033548 0.000000 0.000000
# 5 0.000000 0.000000 0.000000 0.000000 0.042315 0.000000
# 6 0.000000 0.000000 0.000000 0.000000 0.000000 0.063663
#
#
# Mechanical properties :
#
#
# Convention : Reuss Voigt Hill
#
# Bulk Modulus (GPa) = 12.52488 61.77650 37.15069
# Shear Modulus (GPa) = 7.70937 20.43646 14.07292
#
# Velocity S-wave (km/s) = 2.29472 3.73614 3.10036
# Velocity P-wave (km/s) = 3.94663 7.79788 6.17992
#
# Compressibility (1/GPa) = 0.07984107
#
# Stress axis : x y z
#
# Youngs Moduli (GPa) = 35.67520 4.44769 35.37969
#
# Poissons Ratio (x) = 0.17759 -0.05901
# Poissons Ratio (y) = 1.42449 2.20711
# Poissons Ratio (z) = -0.05950 0.27746
#
# Static dielectric constant tensor:
#      x y z
#    x 1.496970 0.000000 0.000000 
#    y 0.000000 1.489870 0.000000 
#    z 0.000000 0.000000 1.464830 
# 
# From -- ./inp_files/33334.got.cif
#   From: 2010.05.17/outbox.cif.g08.bks.cpg/sg59_17_cif.got.tgz:33334.got - 2010.06.03 14:40:33.
