data_PCOD9447029
_publ_section_title
;
Structure prediction by ZEFSAII (Michael W. Deem and Ramdas Pophale) SiO2 
 PCOD9447029
Probable space group: P M M N
;
_chemical_formula_sum "Si O2"
_cell_formula_units_Z 48
_cell_length_a 8.799861
_cell_length_b 14.851100
_cell_length_c 20.350765
_cell_angle_alpha 90.000000
_cell_angle_beta 90.000000
_cell_angle_gamma 90.000000
_cell_volume 2659.592955
_symmetry_space_group_name_H-M "P M M N"
_symmetry_group_IT_number 59
_space_group.IT_coordinate_system_code '2'
_symmetry_cell_setting 'orthorhombic'
loop_
_space_group_symop_operation_xyz
x,y,z
1/2-x,1/2-y,z
1/2+x,-y,-z
-x,1/2+y,-z
-x,-y,-z
1/2+x,1/2+y,-z
1/2-x,y,z
x,1/2-y,z
loop_
_atom_site_type_symbol
_atom_site_label
_atom_site_fract_x
_atom_site_fract_y
_atom_site_fract_z
Si Si1 0.576129 0.750000 0.580907
Si Si2 0.431979 0.250000 0.023412
Si Si3 0.573985 0.946636 0.558607
Si Si4 0.066994 0.059161 0.289150
Si Si5 0.569601 0.932250 0.182413
Si Si6 0.429942 0.561361 0.942425
Si Si7 0.927354 0.250000 0.281619
Si Si8 0.932183 0.250000 0.875833
O O1 0.750000 0.750000 0.610258
O O2 0.561702 0.841076 0.541642
O O3 0.456893 0.750000 0.639830
O O4 0.250000 0.250000 0.021055
O O5 0.491671 0.158831 0.057261
O O6 0.497145 0.250000 0.949081
O O7 0.750000 0.972235 0.561445
O O8 0.518018 0.952979 0.634260
O O9 0.500000 0.000000 0.500000
O O10 0.250000 0.062341 0.287242
O O11 0.003735 0.155028 0.261921
O O12 0.002989 0.977792 0.246300
O O13 0.750000 0.917492 0.190671
O O14 0.490626 0.839566 0.160810
O O15 0.549000 0.005163 0.124135
O O16 0.250000 0.573210 0.953963
O O17 0.500000 0.500000 0.000000
O O18 0.750000 0.250000 0.264803
O O19 0.750000 0.250000 0.880201
#
# Coordination Sequence:
#
# PCOD9447029 Si02
#       8
#     4   4   8   8   8   8   4   4
#     4   8  16  32  50  74 108 146 184 223 277 344
#     4  12  24  39  61  89 121 154 198 245 289 345
#     4   9  18  33  55  81 111 148 190 236 284 342
#     4  10  21  38  58  83 117 156 195 236 291 353
#     4  11  24  41  62  88 118 151 195 245 292 343
#     4  11  23  39  61  87 117 150 191 240 294 345
#     4  10  18  31  55  83 111 145 185 232 288 343
#     4  12  24  40  64  86 114 157 199 236 290 352
#
# _framework density 18.047874
#
# number of rings (size 3 to 8) (size 9 to 14) (size 15 to 20)
#    0.000    1.667    1.667    4.750    0.000    6.000 
#    0.000    1.667    0.000    4.000    0.000    0.000 
#    0.000    0.000    0.000    0.000    0.000    0.000 
#
# Total GULP energy -267884.520989 kJ/mol
# GULP energy per Si atom -5580.927521 kJ/mol
# Density = 1.800680 g / cm^3
# Si number density = 18.047874 Si / 1000 Ang^3
#
#
#
# Elastic Constant Matrix: (Units=GPa)
#
#
# Indices 1 2 3 4 5 6 
#
# 1 116.0005 80.5097 52.3848 0.0000 0.0000 0.0000
# 2 80.5097 147.8906 54.2095 0.0000 0.0000 0.0000
# 3 52.3848 54.2095 72.9857 0.0000 0.0000 0.0000
# 4 0.0000 0.0000 0.0000 26.3646 0.0000 0.0000
# 5 0.0000 0.0000 0.0000 0.0000 28.7532 0.0000
# 6 0.0000 0.0000 0.0000 0.0000 0.0000 37.4342
#
#
#
# Elastic Compliance Matrix: (Units=1/GPa)
#
#
# Indices 1 2 3 4 5 6 
#
# 1 0.016046 -0.006202 -0.006910 0.000000 0.000000 0.000000
# 2 -0.006202 0.011689 -0.004230 0.000000 0.000000 0.000000
# 3 -0.006910 -0.004230 0.021803 0.000000 0.000000 0.000000
# 4 0.000000 0.000000 0.000000 0.037930 0.000000 0.000000
# 5 0.000000 0.000000 0.000000 0.000000 0.034779 0.000000
# 6 0.000000 0.000000 0.000000 0.000000 0.000000 0.026714
#
#
# Mechanical properties :
#
#
# Convention : Reuss Voigt Hill
#
# Bulk Modulus (GPa) = 67.32857 79.00944 73.16901
# Shear Modulus (GPa) = 26.51184 28.49525 27.50355
#
# Velocity S-wave (km/s) = 3.83688 3.97781 3.90798
# Velocity P-wave (km/s) = 7.55085 8.06040 7.80978
#
# Compressibility (1/GPa) = 0.01485254
#
# Stress axis : x y z
#
# Youngs Moduli (GPa) = 62.32147 85.55256 45.86559
#
# Poissons Ratio (x) = 0.53062 0.31694
# Poissons Ratio (y) = 0.38653 0.19402
# Poissons Ratio (z) = 0.43065 0.36190
#
# Static dielectric constant tensor:
#      x y z
#    x 1.627510 0.000000 0.000000 
#    y 0.000000 1.615500 0.000000 
#    z 0.000000 0.000000 1.613840 
# 
# From -- ./inp_files/25645.got.cif
#   From: 2010.05.17/outbox.cif.g08.bks.cpg/sg59_13_cif.got.tgz:25645.got - 2010.06.03 14:40:33.
