data_PCOD9447780
_publ_section_title
;
Structure prediction by ZEFSAII (Michael W. Deem and Ramdas Pophale) SiO2 
 PCOD9447780
Probable space group: P M M N
;
_chemical_formula_sum "Si O2"
_cell_formula_units_Z 64
_cell_length_a 8.168144
_cell_length_b 18.274794
_cell_length_c 23.930528
_cell_angle_alpha 90.000000
_cell_angle_beta 90.000000
_cell_angle_gamma 90.000000
_cell_volume 3572.137410
_symmetry_space_group_name_H-M "P M M N"
_symmetry_group_IT_number 59
_space_group.IT_coordinate_system_code '2'
_symmetry_cell_setting 'orthorhombic'
loop_
_space_group_symop_operation_xyz
x,y,z
1/2-x,1/2-y,z
1/2+x,-y,-z
-x,1/2+y,-z
-x,-y,-z
1/2+x,1/2+y,-z
1/2-x,y,z
x,1/2-y,z
loop_
_atom_site_type_symbol
_atom_site_label
_atom_site_fract_x
_atom_site_fract_y
_atom_site_fract_z
Si Si1 0.447202 0.570515 0.464233
Si Si2 0.058464 0.977910 0.757568
Si Si3 0.056290 0.168967 0.187406
Si Si4 0.946018 0.392328 0.073679
Si Si5 0.556497 0.526342 0.632322
Si Si6 0.550520 0.544872 0.129041
Si Si7 0.947311 0.332483 0.436949
Si Si8 0.551930 0.833310 0.045821
O O1 0.500000 0.500000 0.500000
O O2 0.250000 0.576910 0.462548
O O3 0.504878 0.544661 0.402948
O O4 0.505625 0.638926 0.501665
O O5 0.250000 0.993070 0.750672
O O6 0.035652 0.895822 0.781123
O O7 0.978163 0.982868 0.697380
O O8 0.992663 0.029002 0.807939
O O9 0.250000 0.161340 0.197851
O O10 0.003558 0.250000 0.204693
O O11 0.023838 0.158400 0.121482
O O12 0.750000 0.386715 0.078040
O O13 0.994387 0.474864 0.090936
O O14 0.999891 0.370159 0.012211
O O15 0.750000 0.530576 0.623485
O O16 0.489068 0.602779 0.606869
O O17 0.750000 0.545668 0.131302
O O18 0.494841 0.617611 0.097854
O O19 0.750000 0.329201 0.438365
O O20 0.007464 0.250000 0.424338
O O21 0.750000 0.832513 0.046986
O O22 0.492925 0.750000 0.047981
#
# Coordination Sequence:
#
# PCOD9447780 Si02
#       8
#     8   8   8   8   8   8   8   8
#     4   8  15  28  46  68  93 122 155 188 223 263
#     4  10  20  34  51  68  89 121 161 199 231 270
#     4  10  20  33  48  67  93 123 154 190 232 278
#     4  10  19  31  48  69  95 124 153 187 227 279
#     4  10  19  31  48  70  96 125 158 194 230 272
#     4   8  17  33  49  67  90 119 156 194 233 274
#     4   9  17  30  49  73 100 128 157 190 229 272
#     4  10  19  31  49  71  93 117 148 190 239 287
#
# _framework density 17.916443999999998
#
# number of rings (size 3 to 8) (size 9 to 14) (size 15 to 20)
#    0.000    2.625    0.000    3.000    0.000    4.000 
#    0.000    3.125    0.000    0.750    0.000    0.000 
#    0.000    0.000    0.000    0.000    0.000    0.875 
#
# Total GULP energy -356548.577886 kJ/mol
# GULP energy per Si atom -5571.071529 kJ/mol
# Density = 1.787567 g / cm^3
# Si number density = 17.916444 Si / 1000 Ang^3
#
#
#
# Elastic Constant Matrix: (Units=GPa)
#
#
# Indices 1 2 3 4 5 6 
#
# 1 11.9969 8.1863 -1.1083 0.0000 0.0000 0.0000
# 2 8.1863 68.0001 54.7769 0.0000 0.0000 0.0000
# 3 -1.1083 54.7769 127.3703 0.0000 0.0000 0.0000
# 4 0.0000 0.0000 0.0000 7.7206 0.0000 0.0000
# 5 0.0000 0.0000 0.0000 0.0000 9.7881 0.0000
# 6 0.0000 0.0000 0.0000 0.0000 0.0000 12.3053
#
#
#
# Elastic Compliance Matrix: (Units=1/GPa)
#
#
# Indices 1 2 3 4 5 6 
#
# 1 0.097100 -0.018927 0.008985 0.000000 0.000000 0.000000
# 2 -0.018927 0.026190 -0.011428 0.000000 0.000000 0.000000
# 3 0.008985 -0.011428 0.012844 0.000000 0.000000 0.000000
# 4 0.000000 0.000000 0.000000 0.129524 0.000000 0.000000
# 5 0.000000 0.000000 0.000000 0.000000 0.102165 0.000000
# 6 0.000000 0.000000 0.000000 0.000000 0.000000 0.081266
#
#
# Mechanical properties :
#
#
# Convention : Reuss Voigt Hill
#
# Bulk Modulus (GPa) = 10.70739 36.78634 23.74687
# Shear Modulus (GPa) = 9.56095 15.66363 12.61229
#
# Velocity S-wave (km/s) = 2.31257 2.96000 2.65608
# Velocity P-wave (km/s) = 3.62214 5.67969 4.76334
#
# Compressibility (1/GPa) = 0.09339342
#
# Stress axis : x y z
#
# Youngs Moduli (GPa) = 10.29866 38.18224 77.85700
#
# Poissons Ratio (x) = 0.72268 -0.69952
# Poissons Ratio (y) = 0.19492 0.88975
# Poissons Ratio (z) = -0.09253 0.43635
#
# Static dielectric constant tensor:
#      x y z
#    x 1.635450 0.000000 0.000000 
#    y 0.000000 1.624690 0.000000 
#    z 0.000000 0.000000 1.622390 
# 
# From -- ./inp_files/31704.got.cif
#   From: 2010.05.17/outbox.cif.g08.bks.cpg/sg59_16_cif.got.tgz:31704.got - 2010.06.03 14:40:33.
