data_PCOD9447591
_publ_section_title
;
Structure prediction by ZEFSAII (Michael W. Deem and Ramdas Pophale) SiO2 
 PCOD9447591
Probable space group: P M M N
;
_chemical_formula_sum "Si O2"
_cell_formula_units_Z 48
_cell_length_a 8.739815
_cell_length_b 14.133006
_cell_length_c 24.578482
_cell_angle_alpha 90.000000
_cell_angle_beta 90.000000
_cell_angle_gamma 90.000000
_cell_volume 3035.930602
_symmetry_space_group_name_H-M "P M M N"
_symmetry_group_IT_number 59
_space_group.IT_coordinate_system_code '2'
_symmetry_cell_setting 'orthorhombic'
loop_
_space_group_symop_operation_xyz
x,y,z
1/2-x,1/2-y,z
1/2+x,-y,-z
-x,1/2+y,-z
-x,-y,-z
1/2+x,1/2+y,-z
1/2-x,y,z
x,1/2-y,z
loop_
_atom_site_type_symbol
_atom_site_label
_atom_site_fract_x
_atom_site_fract_y
_atom_site_fract_z
Si Si1 0.934046 0.639270 0.194008
Si Si2 0.932936 0.360129 0.689057
Si Si3 0.565452 0.142916 0.478549
Si Si4 0.066864 0.456461 0.583915
Si Si5 0.565105 0.955767 0.082664
Si Si6 0.434661 0.856442 0.977349
O O1 0.750000 0.632169 0.198878
O O2 0.971116 0.750000 0.183855
O O3 0.984337 0.577963 0.142218
O O4 0.007854 0.611630 0.251308
O O5 0.750000 0.363674 0.687764
O O6 0.980299 0.250000 0.680443
O O7 0.999815 0.423563 0.641066
O O8 0.750000 0.140077 0.483919
O O9 0.520575 0.250000 0.464535
O O10 0.494506 0.111430 0.535986
O O11 0.521986 0.062679 0.434776
O O12 0.250000 0.451276 0.585663
O O13 0.750000 0.950054 0.081039
O O14 0.519445 0.062183 0.065496
O O15 0.499937 0.888066 0.035655
O O16 0.250000 0.857758 0.980413
O O17 0.483730 0.750000 0.963629
#
# Coordination Sequence:
#
# PCOD9447591 Si02
#       6
#     8   8   8   8   8   8
#     4   9  17  29  45  64  85 111 146 186 223 260
#     4  10  20  32  46  65  90 119 148 180 221 266
#     4   9  18  32  48  67  93 122 149 179 217 260
#     4  10  19  30  47  70  93 118 149 183 218 258
#     4   9  17  29  45  65  89 117 148 181 218 260
#     4   9  17  28  43  65  92 119 146 178 217 261
#
# _framework density 15.810639
#
# number of rings (size 3 to 8) (size 9 to 14) (size 15 to 20)
#    0.000    2.667    0.000    2.000    0.000    5.667 
#    0.000    1.667    0.000    1.000    0.000    4.667 
#    0.000    0.000    0.000    0.000    0.000    0.000 
#
# Total GULP energy -267580.956740 kJ/mol
# GULP energy per Si atom -5574.603265 kJ/mol
# Density = 1.577465 g / cm^3
# Si number density = 15.810639 Si / 1000 Ang^3
#
#
#
# Elastic Constant Matrix: (Units=GPa)
#
#
# Indices 1 2 3 4 5 6 
#
# 1 11.5431 27.0504 32.7045 0.0000 0.0000 0.0000
# 2 27.0504 118.4357 84.3831 0.0000 0.0000 0.0000
# 3 32.7045 84.3831 155.4600 0.0000 0.0000 0.0000
# 4 0.0000 0.0000 0.0000 19.9858 0.0000 0.0000
# 5 0.0000 0.0000 0.0000 0.0000 27.3479 0.0000
# 6 0.0000 0.0000 0.0000 0.0000 0.0000 18.1035
#
#
#
# Elastic Compliance Matrix: (Units=1/GPa)
#
#
# Indices 1 2 3 4 5 6 
#
# 1 0.287976 -0.036867 -0.040571 0.000000 0.000000 0.000000
# 2 -0.036867 0.018488 -0.002279 0.000000 0.000000 0.000000
# 3 -0.040571 -0.002279 0.016205 0.000000 0.000000 0.000000
# 4 0.000000 0.000000 0.000000 0.050036 0.000000 0.000000
# 5 0.000000 0.000000 0.000000 0.000000 0.036566 0.000000
# 6 0.000000 0.000000 0.000000 0.000000 0.000000 0.055238
#
#
# Mechanical properties :
#
#
# Convention : Reuss Voigt Hill
#
# Bulk Modulus (GPa) = 6.12618 63.74609 34.93614
# Shear Modulus (GPa) = 7.37079 22.50750 14.93915
#
# Velocity S-wave (km/s) = 2.16149 3.77711 3.07722
# Velocity P-wave (km/s) = 3.18002 7.70896 5.89664
#
# Compressibility (1/GPa) = 0.16323388
#
# Stress axis : x y z
#
# Youngs Moduli (GPa) = 3.47251 54.09031 61.71046
#
# Poissons Ratio (x) = 1.99415 2.50366
# Poissons Ratio (y) = 0.12802 0.14065
# Poissons Ratio (z) = 0.14088 0.12328
#
# Static dielectric constant tensor:
#      x y z
#    x 1.533200 0.000000 0.000000 
#    y 0.000000 1.540470 0.000000 
#    z 0.000000 0.000000 1.497840 
# 
# From -- ./inp_files/28825.got.cif
#   From: 2010.05.17/outbox.cif.g08.bks.cpg/sg59_15_cif.got.tgz:28825.got - 2010.06.03 14:40:33.
