data_PCOD9447845
_publ_section_title
;
Structure prediction by ZEFSAII (Michael W. Deem and Ramdas Pophale) SiO2 
 PCOD9447845
Probable space group: P M M N
;
_chemical_formula_sum "Si O2"
_cell_formula_units_Z 56
_cell_length_a 8.888681
_cell_length_b 15.066092
_cell_length_c 21.606789
_cell_angle_alpha 90.000000
_cell_angle_beta 90.000000
_cell_angle_gamma 90.000000
_cell_volume 2893.531178
_symmetry_space_group_name_H-M "P M M N"
_symmetry_group_IT_number 59
_space_group.IT_coordinate_system_code '2'
_symmetry_cell_setting 'orthorhombic'
loop_
_space_group_symop_operation_xyz
x,y,z
1/2-x,1/2-y,z
1/2+x,-y,-z
-x,1/2+y,-z
-x,-y,-z
1/2+x,1/2+y,-z
1/2-x,y,z
x,1/2-y,z
loop_
_atom_site_type_symbol
_atom_site_label
_atom_site_fract_x
_atom_site_fract_y
_atom_site_fract_z
Si Si1 0.932503 0.346562 0.773540
Si Si2 0.081226 0.648752 0.969499
Si Si3 0.570217 0.470452 0.270706
Si Si4 0.068429 0.146743 0.521973
Si Si5 0.931189 0.465917 0.411522
Si Si6 0.923485 0.097206 0.903398
Si Si7 0.579515 0.600700 0.847966
O O1 0.750000 0.357378 0.773921
O O2 0.967671 0.250000 0.746240
O O3 0.984937 0.348208 0.845455
O O4 0.005679 0.430786 0.741117
O O5 0.250000 0.612517 0.958441
O O6 0.090114 0.750000 0.991045
O O7 0.999856 0.650090 0.903986
O O8 0.005693 0.600609 0.028482
O O9 0.750000 0.472698 0.265161
O O10 0.529611 0.445164 0.340684
O O11 0.504161 0.407076 0.217374
O O12 0.250000 0.148752 0.520138
O O13 0.018703 0.250000 0.531978
O O14 0.006236 0.103656 0.458482
O O15 0.026061 0.068488 0.571197
O O16 0.750000 0.460226 0.418449
O O17 0.750000 0.126253 0.913013
O O18 0.919495 0.998851 0.876068
O O19 0.750000 0.630531 0.838705
#
# Coordination Sequence:
#
# PCOD9447845 Si02
#       7
#     8   8   8   8   8   8   8
#     4   9  17  30  48  72 103 135 168 208 255 307
#     4  10  19  31  49  71  94 122 159 204 254 306
#     4  10  20  34  52  73 100 136 174 208 245 293
#     4   9  18  34  57  84 112 140 170 206 250 300
#     4   9  19  35  55  80 110 142 174 211 253 298
#     4   8  15  29  49  70  92 123 160 200 252 308
#     4  10  20  34  51  70  95 127 164 206 250 298
#
# _framework density 19.353515999999999
#
# number of rings (size 3 to 8) (size 9 to 14) (size 15 to 20)
#    0.000    2.714    0.000    2.571    0.000    4.286 
#    0.000    5.000    0.000    4.286    0.000    0.000 
#    0.000    0.000    0.000    0.000    0.000    0.000 
#
# Total GULP energy -311758.651367 kJ/mol
# GULP energy per Si atom -5567.118774 kJ/mol
# Density = 1.930947 g / cm^3
# Si number density = 19.353516 Si / 1000 Ang^3
#
#
#
# Elastic Constant Matrix: (Units=GPa)
#
#
# Indices 1 2 3 4 5 6 
#
# 1 31.3485 -3.9753 22.9886 0.0000 0.0000 0.0000
# 2 -3.9753 40.3111 -7.1159 0.0000 0.0000 0.0000
# 3 22.9886 -7.1159 107.9286 0.0000 0.0000 0.0000
# 4 0.0000 0.0000 0.0000 12.7370 0.0000 0.0000
# 5 0.0000 0.0000 0.0000 0.0000 22.5882 0.0000
# 6 0.0000 0.0000 0.0000 0.0000 0.0000 14.9250
#
#
#
# Elastic Compliance Matrix: (Units=1/GPa)
#
#
# Indices 1 2 3 4 5 6 
#
# 1 0.038023 0.002347 -0.007944 0.000000 0.000000 0.000000
# 2 0.002347 0.025244 0.001164 0.000000 0.000000 0.000000
# 3 -0.007944 0.001164 0.011034 0.000000 0.000000 0.000000
# 4 0.000000 0.000000 0.000000 0.078512 0.000000 0.000000
# 5 0.000000 0.000000 0.000000 0.000000 0.044271 0.000000
# 6 0.000000 0.000000 0.000000 0.000000 0.000000 0.067002
#
#
# Mechanical properties :
#
#
# Convention : Reuss Voigt Hill
#
# Bulk Modulus (GPa) = 15.28202 22.59811 18.94007
# Shear Modulus (GPa) = 16.96285 21.22942 19.09613
#
# Velocity S-wave (km/s) = 2.96374 3.31558 3.14459
# Velocity P-wave (km/s) = 4.43002 5.13413 4.79502
#
# Compressibility (1/GPa) = 0.06543637
#
# Stress axis : x y z
#
# Youngs Moduli (GPa) = 26.30014 39.61324 90.62727
#
# Poissons Ratio (x) = -0.09298 0.71994
# Poissons Ratio (y) = -0.06173 -0.10553
# Poissons Ratio (z) = 0.20893 -0.04613
#
# Static dielectric constant tensor:
#      x y z
#    x 1.685080 0.000000 0.000000 
#    y 0.000000 1.722400 0.000000 
#    z 0.000000 0.000000 1.702710 
# 
# From -- ./inp_files/29039.got.cif
#   From: 2010.05.17/outbox.cif.g08.bks.cpg/sg59_15_cif.got.tgz:29039.got - 2010.06.03 14:40:33.
