data_PCOD9447114
_publ_section_title
;
Structure prediction by ZEFSAII (Michael W. Deem and Ramdas Pophale) SiO2 
 PCOD9447114
Probable space group: P M M N
;
_chemical_formula_sum "Si O2"
_cell_formula_units_Z 64
_cell_length_a 16.565954
_cell_length_b 16.634497
_cell_length_c 12.957078
_cell_angle_alpha 90.000000
_cell_angle_beta 90.000000
_cell_angle_gamma 90.000000
_cell_volume 3570.534200
_symmetry_space_group_name_H-M "P M M N"
_symmetry_group_IT_number 59
_space_group.IT_coordinate_system_code '2'
_symmetry_cell_setting 'orthorhombic'
loop_
_space_group_symop_operation_xyz
x,y,z
1/2-x,1/2-y,z
1/2+x,-y,-z
-x,1/2+y,-z
-x,-y,-z
1/2+x,1/2+y,-z
1/2-x,y,z
x,1/2-y,z
loop_
_atom_site_type_symbol
_atom_site_label
_atom_site_fract_x
_atom_site_fract_y
_atom_site_fract_z
Si Si1 0.342273 0.905675 0.983490
Si Si2 0.152564 0.345896 0.692752
Si Si3 0.994230 0.660684 0.926133
Si Si4 0.416116 0.062117 0.888757
Si Si5 0.015134 0.053679 0.254517
Si Si6 0.343009 0.533289 0.364442
Si Si7 0.653421 0.160546 0.794164
Si Si8 0.417803 0.496449 0.567807
O O1 0.250000 0.881352 0.966318
O O2 0.359171 0.895218 0.105887
O O3 0.409229 0.849709 0.931955
O O4 0.357600 0.993961 0.936713
O O5 0.250000 0.354127 0.681962
O O6 0.133104 0.250000 0.680363
O O7 0.125651 0.378558 0.806066
O O8 0.108624 0.408934 0.613301
O O9 0.968775 0.750000 0.947192
O O10 0.970894 0.631783 0.812791
O O11 0.955787 0.606158 0.014712
O O12 0.485728 0.014089 0.826796
O O13 0.096414 0.030354 0.313551
O O14 0.940973 0.052369 0.335308
O O15 0.250000 0.519654 0.335886
O O16 0.371398 0.616586 0.311042
O O17 0.352606 0.529097 0.487233
O O18 0.750000 0.169206 0.787710
O O19 0.617966 0.250000 0.808297
O O20 0.500000 0.500000 0.500000
#
# Coordination Sequence:
#
# PCOD9447114 Si02
#       8
#     8   8   8   8   8   8   8   8
#     4  10  19  32  53  77 103 140 183 223 265 322
#     4  10  20  35  57  84 111 139 180 237 286 322
#     4  11  21  33  51  75 109 147 178 214 261 319
#     4  10  19  34  53  77 108 143 179 214 265 327
#     4   9  19  35  51  73 103 136 173 212 258 318
#     4  10  18  32  55  75  95 131 175 219 267 318
#     4   9  17  28  44  72 105 129 161 215 266 304
#     4   9  19  36  55  76 103 135 174 219 269 329
#
# _framework density 17.924489000000001
#
# number of rings (size 3 to 8) (size 9 to 14) (size 15 to 20)
#    0.000    2.250    0.000    4.500    0.000    0.750 
#    0.000   11.250    0.000    2.625    0.000    0.000 
#    0.000    0.000    0.000    0.000    0.000    0.000 
#
# Total GULP energy -356331.927137 kJ/mol
# GULP energy per Si atom -5567.686362 kJ/mol
# Density = 1.788369 g / cm^3
# Si number density = 17.924489 Si / 1000 Ang^3
#
#
#
# Elastic Constant Matrix: (Units=GPa)
#
#
# Indices 1 2 3 4 5 6 
#
# 1 60.5928 9.8354 19.8946 0.0000 0.0000 0.0000
# 2 9.8354 49.1306 40.3918 0.0000 0.0000 0.0000
# 3 19.8946 40.3918 107.4988 0.0000 0.0000 0.0000
# 4 0.0000 0.0000 0.0000 13.0111 0.0000 0.0000
# 5 0.0000 0.0000 0.0000 0.0000 22.7437 0.0000
# 6 0.0000 0.0000 0.0000 0.0000 0.0000 9.0467
#
#
#
# Elastic Compliance Matrix: (Units=1/GPa)
#
#
# Indices 1 2 3 4 5 6 
#
# 1 0.017622 -0.001225 -0.002801 0.000000 0.000000 0.000000
# 2 -0.001225 0.029537 -0.010872 0.000000 0.000000 0.000000
# 3 -0.002801 -0.010872 0.013906 0.000000 0.000000 0.000000
# 4 0.000000 0.000000 0.000000 0.076858 0.000000 0.000000
# 5 0.000000 0.000000 0.000000 0.000000 0.043968 0.000000
# 6 0.000000 0.000000 0.000000 0.000000 0.000000 0.110538
#
#
# Mechanical properties :
#
#
# Convention : Reuss Voigt Hill
#
# Bulk Modulus (GPa) = 31.97982 39.71842 35.84912
# Shear Modulus (GPa) = 15.03096 18.76698 16.89897
#
# Velocity S-wave (km/s) = 2.89895 3.23925 3.07381
# Velocity P-wave (km/s) = 5.39308 6.01641 5.71325
#
# Compressibility (1/GPa) = 0.03126972
#
# Stress axis : x y z
#
# Youngs Moduli (GPa) = 56.74691 33.85581 71.91280
#
# Poissons Ratio (x) = 0.04147 0.20143
# Poissons Ratio (y) = 0.06951 0.78181
# Poissons Ratio (z) = 0.15895 0.36807
#
# Static dielectric constant tensor:
#      x y z
#    x 1.639840 0.000000 0.000000 
#    y 0.000000 1.640840 0.000000 
#    z 0.000000 0.000000 1.648600 
# 
# From -- ./inp_files/17956.got.cif
#   From: 2010.05.17/outbox.cif.g08.bks.cpg/sg59_9_cif.got.tgz:17956.got - 2010.06.03 14:40:33.
