data_PCOD9447071
_publ_section_title
;
Structure prediction by ZEFSAII (Michael W. Deem and Ramdas Pophale) SiO2 
 PCOD9447071
Probable space group: P M M N
;
_chemical_formula_sum "Si O2"
_cell_formula_units_Z 56
_cell_length_a 21.398403
_cell_length_b 7.490806
_cell_length_c 16.511745
_cell_angle_alpha 90.000000
_cell_angle_beta 90.000000
_cell_angle_gamma 90.000000
_cell_volume 2646.688833
_symmetry_space_group_name_H-M "P M M N"
_symmetry_group_IT_number 59
_space_group.IT_coordinate_system_code '2'
_symmetry_cell_setting 'orthorhombic'
loop_
_space_group_symop_operation_xyz
x,y,z
1/2-x,1/2-y,z
1/2+x,-y,-z
-x,1/2+y,-z
-x,-y,-z
1/2+x,1/2+y,-z
1/2-x,y,z
x,1/2-y,z
loop_
_atom_site_type_symbol
_atom_site_label
_atom_site_fract_x
_atom_site_fract_y
_atom_site_fract_z
Si Si1 0.437497 0.454298 0.884402
Si Si2 0.180288 0.534121 0.180435
Si Si3 0.000362 0.463420 0.595471
Si Si4 0.430307 0.042806 0.063767
Si Si5 0.362928 0.968098 0.358228
Si Si6 0.387536 0.030374 0.711785
Si Si7 0.250000 0.457735 0.662559
Si Si8 0.250000 0.966343 0.473599
O O1 0.414827 0.250000 0.886125
O O2 0.512922 0.456262 0.886453
O O3 0.410833 0.529105 0.800799
O O4 0.422073 0.533202 0.973022
O O5 0.250000 0.474002 0.162721
O O6 0.179333 0.750000 0.180617
O O7 0.131903 0.471132 0.114324
O O8 0.160689 0.476594 0.270163
O O9 0.000200 0.250000 0.606382
O O10 0.933618 0.530463 0.628063
O O11 0.000000 0.500000 0.500000
O O12 0.061408 0.528317 0.644430
O O13 0.448261 0.250000 0.054227
O O14 0.363358 0.750000 0.360197
O O15 0.312369 0.024204 0.425533
O O16 0.387630 0.250000 0.709984
O O17 0.316773 0.969423 0.693362
O O18 0.250000 0.250000 0.686690
O O19 0.250000 0.470639 0.565462
O O20 0.250000 0.750000 0.474179
#
# Coordination Sequence:
#
# PCOD9447071 Si02
#       8
#     8   8   8   8   8   8   4   4
#     4   9  18  36  58  77  99 137 182 214 252 315
#     4  10  19  34  55  77 104 143 185 214 248 310
#     4  10  19  31  49  73 101 129 165 215 261 301
#     4  10  20  33  53  83 111 133 165 219 276 312
#     4   9  17  31  52  74  96 131 178 216 245 298
#     4   9  18  34  54  75  98 133 179 216 247 301
#     4  10  20  34  52  73 100 132 170 215 262 308
#     4  10  18  32  52  73  98 130 174 217 256 308
#
# _framework density 21.158512000000002
#
# number of rings (size 3 to 8) (size 9 to 14) (size 15 to 20)
#    0.000    2.429    0.714    2.143    0.000    3.143 
#    1.286    4.286    0.000    0.000    0.000    0.000 
#    0.000    0.000    0.000    0.000    0.000    0.000 
#
# Total GULP energy -312621.668747 kJ/mol
# GULP energy per Si atom -5582.529799 kJ/mol
# Density = 2.111035 g / cm^3
# Si number density = 21.158512 Si / 1000 Ang^3
#
#
#
# Elastic Constant Matrix: (Units=GPa)
#
#
# Indices 1 2 3 4 5 6 
#
# 1 193.9920 -1.0975 117.0565 0.0000 0.0000 0.0000
# 2 -1.0975 56.7954 -0.4905 0.0000 0.0000 0.0000
# 3 117.0565 -0.4905 163.9196 0.0000 0.0000 0.0000
# 4 0.0000 0.0000 0.0000 10.6573 0.0000 0.0000
# 5 0.0000 0.0000 0.0000 0.0000 42.4874 0.0000
# 6 0.0000 0.0000 0.0000 0.0000 0.0000 2.8546
#
#
#
# Elastic Compliance Matrix: (Units=1/GPa)
#
#
# Indices 1 2 3 4 5 6 
#
# 1 0.009059 0.000119 -0.006469 0.000000 0.000000 0.000000
# 2 0.000119 0.017609 -0.000032 0.000000 0.000000 0.000000
# 3 -0.006469 -0.000032 0.010720 0.000000 0.000000 0.000000
# 4 0.000000 0.000000 0.000000 0.093833 0.000000 0.000000
# 5 0.000000 0.000000 0.000000 0.000000 0.023536 0.000000
# 6 0.000000 0.000000 0.000000 0.000000 0.000000 0.350306
#
#
# Mechanical properties :
#
#
# Convention : Reuss Voigt Hill
#
# Bulk Modulus (GPa) = 40.61091 71.73821 56.17456
# Shear Modulus (GPa) = 9.50509 31.14911 20.32710
#
# Velocity S-wave (km/s) = 2.12181 3.84106 3.10289
# Velocity P-wave (km/s) = 5.02375 7.32464 6.28047
#
# Compressibility (1/GPa) = 0.02462392
#
# Stress axis : x y z
#
# Youngs Moduli (GPa) = 110.39109 56.78889 93.28615
#
# Poissons Ratio (x) = -0.00677 0.60343
# Poissons Ratio (y) = -0.01316 0.00302
# Poissons Ratio (z) = 0.71407 0.00184
#
# Static dielectric constant tensor:
#      x y z
#    x 1.736160 0.000000 0.000000 
#    y 0.000000 1.866720 0.000000 
#    z 0.000000 0.000000 1.768790 
# 
# From -- ./inp_files/24329.got.cif
#   From: 2010.05.17/outbox.cif.g08.bks.cpg/sg59_13_cif.got.tgz:24329.got - 2010.06.03 14:40:33.
