data_PCOD9447438
_publ_section_title
;
Structure prediction by ZEFSAII (Michael W. Deem and Ramdas Pophale) SiO2 
 PCOD9447438
Probable space group: P M M N
;
_chemical_formula_sum "Si O2"
_cell_formula_units_Z 56
_cell_length_a 19.669657
_cell_length_b 9.221952
_cell_length_c 16.644111
_cell_angle_alpha 90.000000
_cell_angle_beta 90.000000
_cell_angle_gamma 90.000000
_cell_volume 3019.119113
_symmetry_space_group_name_H-M "P M M N"
_symmetry_group_IT_number 59
_space_group.IT_coordinate_system_code '2'
_symmetry_cell_setting 'orthorhombic'
loop_
_space_group_symop_operation_xyz
x,y,z
1/2-x,1/2-y,z
1/2+x,-y,-z
-x,1/2+y,-z
-x,-y,-z
1/2+x,1/2+y,-z
1/2-x,y,z
x,1/2-y,z
loop_
_atom_site_type_symbol
_atom_site_label
_atom_site_fract_x
_atom_site_fract_y
_atom_site_fract_z
Si Si1 0.940574 0.082826 0.391339
Si Si2 0.980946 0.914928 0.240713
Si Si3 0.098010 0.083925 0.454074
Si Si4 0.866512 0.411120 0.694312
Si Si5 0.830660 0.924289 0.027403
Si Si6 0.962533 0.074919 0.076513
Si Si7 0.830030 0.908389 0.846266
O O1 0.920658 0.250000 0.381566
O O2 0.019604 0.083058 0.421729
O O3 0.935962 0.996985 0.307409
O O4 0.900983 0.004336 0.463265
O O5 0.957944 0.750000 0.222057
O O6 0.053543 0.902209 0.284643
O O7 0.990530 0.009145 0.160204
O O8 0.117420 0.250000 0.466605
O O9 0.141226 0.009115 0.384023
O O10 0.840268 0.250000 0.680562
O O11 0.837990 0.482540 0.774178
O O12 0.750000 0.956567 0.038443
O O13 0.839052 0.750000 0.040290
O O14 0.883834 0.020298 0.076436
O O15 0.852805 0.953359 0.934722
O O16 0.968228 0.250000 0.072491
O O17 0.000000 0.000000 0.000000
O O18 0.750000 0.890610 0.857901
O O19 0.860226 0.750000 0.825736
#
# Coordination Sequence:
#
# PCOD9447438 Si02
#       7
#     8   8   8   8   8   8   8
#     4   9  16  27  43  65  93 123 157 195 235 283
#     4  10  20  33  48  69  98 130 164 202 248 300
#     4   9  16  26  42  63  90 125 158 190 231 282
#     4  10  19  29  44  68  96 126 160 199 242 288
#     4   9  19  37  58  77 100 133 172 213 258 309
#     4  12  24  36  52  76 106 138 173 215 263 311
#     4   9  18  32  49  68  91 122 159 197 239 291
#
# _framework density 18.548458
#
# number of rings (size 3 to 8) (size 9 to 14) (size 15 to 20)
#    0.000    2.286    0.000    4.714    0.000    8.571 
#    0.000    1.429    0.000    0.000    0.000    1.000 
#    0.000    8.000    0.000    0.000    0.000    0.000 
#
# Total GULP energy -312088.112977 kJ/mol
# GULP energy per Si atom -5573.002017 kJ/mol
# Density = 1.850624 g / cm^3
# Si number density = 18.548458 Si / 1000 Ang^3
#
#
#
# Elastic Constant Matrix: (Units=GPa)
#
#
# Indices 1 2 3 4 5 6 
#
# 1 28.2641 12.7390 2.0913 0.0000 0.0000 0.0000
# 2 12.7390 119.8205 56.0240 0.0000 0.0000 0.0000
# 3 2.0913 56.0240 80.1871 0.0000 0.0000 0.0000
# 4 0.0000 0.0000 0.0000 32.7730 0.0000 0.0000
# 5 0.0000 0.0000 0.0000 0.0000 12.4615 0.0000
# 6 0.0000 0.0000 0.0000 0.0000 0.0000 15.2438
#
#
#
# Elastic Compliance Matrix: (Units=1/GPa)
#
#
# Indices 1 2 3 4 5 6 
#
# 1 0.037547 -0.005249 0.002688 0.000000 0.000000 0.000000
# 2 -0.005249 0.013129 -0.009036 0.000000 0.000000 0.000000
# 3 0.002688 -0.009036 0.018714 0.000000 0.000000 0.000000
# 4 0.000000 0.000000 0.000000 0.030513 0.000000 0.000000
# 5 0.000000 0.000000 0.000000 0.000000 0.080247 0.000000
# 6 0.000000 0.000000 0.000000 0.000000 0.000000 0.065600
#
#
# Mechanical properties :
#
#
# Convention : Reuss Voigt Hill
#
# Bulk Modulus (GPa) = 21.64657 41.10892 31.37775
# Shear Modulus (GPa) = 17.58445 22.59014 20.08730
#
# Velocity S-wave (km/s) = 3.08235 3.49363 3.29441
# Velocity P-wave (km/s) = 4.93593 6.20363 5.60573
#
# Compressibility (1/GPa) = 0.04619669
#
# Stress axis : x y z
#
# Youngs Moduli (GPa) = 26.63300 76.16954 53.43696
#
# Poissons Ratio (x) = 0.39979 -0.14363
# Poissons Ratio (y) = 0.13979 0.48284
# Poissons Ratio (z) = -0.07159 0.68824
#
# Static dielectric constant tensor:
#      x y z
#    x 1.689520 0.000000 0.000000 
#    y 0.000000 1.652570 0.000000 
#    z 0.000000 0.000000 1.682990 
# 
# From -- ./inp_files/24252.got.cif
#   From: 2010.05.17/outbox.cif.g08.bks.cpg/sg59_13_cif.got.tgz:24252.got - 2010.06.03 14:40:33.
