data_PCOD9447061
_publ_section_title
;
Structure prediction by ZEFSAII (Michael W. Deem and Ramdas Pophale) SiO2 
 PCOD9447061
Probable space group: P M M N
;
_chemical_formula_sum "Si O2"
_cell_formula_units_Z 64
_cell_length_a 25.492592
_cell_length_b 7.628797
_cell_length_c 15.589674
_cell_angle_alpha 90.000000
_cell_angle_beta 90.000000
_cell_angle_gamma 90.000000
_cell_volume 3031.845648
_symmetry_space_group_name_H-M "P M M N"
_symmetry_group_IT_number 59
_space_group.IT_coordinate_system_code '2'
_symmetry_cell_setting 'orthorhombic'
loop_
_space_group_symop_operation_xyz
x,y,z
1/2-x,1/2-y,z
1/2+x,-y,-z
-x,1/2+y,-z
-x,-y,-z
1/2+x,1/2+y,-z
1/2-x,y,z
x,1/2-y,z
loop_
_atom_site_type_symbol
_atom_site_label
_atom_site_fract_x
_atom_site_fract_y
_atom_site_fract_z
Si Si1 0.190553 0.961228 0.872747
Si Si2 0.807724 0.464860 0.640527
Si Si3 0.345068 0.947201 0.537953
Si Si4 0.888796 0.046860 0.783007
Si Si5 0.614522 0.465725 0.279108
Si Si6 0.994291 0.956512 0.730121
Si Si7 0.190768 0.042682 0.069282
Si Si8 0.448709 0.040794 0.446884
O O1 0.250000 0.024302 0.855926
O O2 0.191397 0.750000 0.868505
O O3 0.149615 0.021351 0.801332
O O4 0.176794 0.010409 0.969991
O O5 0.750000 0.511549 0.674606
O O6 0.810577 0.250000 0.638393
O O7 0.812392 0.526435 0.541412
O O8 0.854259 0.529397 0.703013
O O9 0.324426 0.750000 0.552972
O O10 0.358080 0.024832 0.631577
O O11 0.401511 0.943486 0.492091
O O12 0.895603 0.250000 0.764732
O O13 0.947744 0.976385 0.799233
O O14 0.851577 0.029925 0.865292
O O15 0.614125 0.250000 0.282617
O O16 0.553865 0.525156 0.266626
O O17 0.001313 0.750000 0.716559
O O18 0.963644 0.024970 0.646955
O O19 0.250000 0.971187 0.082776
O O20 0.192637 0.250000 0.083314
O O21 0.437772 0.250000 0.446292
O O22 0.500000 0.000000 0.500000
#
# Coordination Sequence:
#
# PCOD9447061 Si02
#       8
#     8   8   8   8   8   8   8   8
#     4   9  18  35  60  86 108 134 175 225 273 322
#     4   9  18  30  47  75 109 142 176 219 269 318
#     4  10  18  32  51  74 107 143 182 223 265 315
#     4  11  21  34  55  81 111 142 181 229 272 321
#     4   9  18  33  54  80 110 143 178 223 272 318
#     4  10  20  34  51  74 110 148 183 222 270 326
#     4  10  21  38  60  84 109 140 177 218 271 331
#     4  11  20  31  50  73 102 141 187 230 267 307
#
# _framework density 21.109252999999999
#
# number of rings (size 3 to 8) (size 9 to 14) (size 15 to 20)
#    0.000    2.125    2.500    1.500    0.000    2.250 
#    0.000    4.375    0.000    1.125    0.000    0.000 
#    0.000    0.000    0.000    0.000    0.000    0.000 
#
# Total GULP energy -356795.057749 kJ/mol
# GULP energy per Si atom -5574.922777 kJ/mol
# Density = 2.106121 g / cm^3
# Si number density = 21.109253 Si / 1000 Ang^3
#
#
#
# Elastic Constant Matrix: (Units=GPa)
#
#
# Indices 1 2 3 4 5 6 
#
# 1 100.1420 2.1034 61.3839 0.0000 0.0000 0.0000
# 2 2.1034 53.9851 5.3520 0.0000 0.0000 0.0000
# 3 61.3839 5.3520 110.2729 0.0000 0.0000 0.0000
# 4 0.0000 0.0000 0.0000 1.0641 0.0000 0.0000
# 5 0.0000 0.0000 0.0000 0.0000 35.7240 0.0000
# 6 0.0000 0.0000 0.0000 0.0000 0.0000 11.1977
#
#
#
# Elastic Compliance Matrix: (Units=1/GPa)
#
#
# Indices 1 2 3 4 5 6 
#
# 1 0.015161 0.000247 -0.008452 0.000000 0.000000 0.000000
# 2 0.000247 0.018617 -0.001041 0.000000 0.000000 0.000000
# 3 -0.008452 -0.001041 0.013824 0.000000 0.000000 0.000000
# 4 0.000000 0.000000 0.000000 0.939763 0.000000 0.000000
# 5 0.000000 0.000000 0.000000 0.000000 0.027992 0.000000
# 6 0.000000 0.000000 0.000000 0.000000 0.000000 0.089304
#
#
# Mechanical properties :
#
#
# Convention : Reuss Voigt Hill
#
# Bulk Modulus (GPa) = 34.35147 44.67540 39.51343
# Shear Modulus (GPa) = 4.41362 22.63454 13.52408
#
# Velocity S-wave (km/s) = 1.44754 3.27809 2.53389
# Velocity P-wave (km/s) = 4.37062 5.96134 5.22685
#
# Compressibility (1/GPa) = 0.02911084
#
# Stress axis : x y z
#
# Youngs Moduli (GPa) = 65.95811 53.71376 72.34053
#
# Poissons Ratio (x) = -0.01328 0.61139
# Poissons Ratio (y) = -0.01630 0.07532
# Poissons Ratio (z) = 0.55745 0.05592
#
# Static dielectric constant tensor:
#      x y z
#    x 1.987100 0.000000 0.000000 
#    y 0.000000 1.493410 0.000000 
#    z 0.000000 0.000000 2.048230 
# 
# From -- ./inp_files/24794.got.cif
#   From: 2010.05.17/outbox.cif.g08.bks.cpg/sg59_13_cif.got.tgz:24794.got - 2010.06.03 14:40:33.
