data_PCOD9447381
_publ_section_title
;
Structure prediction by ZEFSAII (Michael W. Deem and Ramdas Pophale) SiO2 
 PCOD9447381
Probable space group: P M M N
;
_chemical_formula_sum "Si O2"
_cell_formula_units_Z 64
_cell_length_a 9.113914
_cell_length_b 24.770005
_cell_length_c 18.782814
_cell_angle_alpha 90.000000
_cell_angle_beta 90.000000
_cell_angle_gamma 90.000000
_cell_volume 4240.252104
_symmetry_space_group_name_H-M "P M M N"
_symmetry_group_IT_number 59
_space_group.IT_coordinate_system_code '2'
_symmetry_cell_setting 'orthorhombic'
loop_
_space_group_symop_operation_xyz
x,y,z
1/2-x,1/2-y,z
1/2+x,-y,-z
-x,1/2+y,-z
-x,-y,-z
1/2+x,1/2+y,-z
1/2-x,y,z
x,1/2-y,z
loop_
_atom_site_type_symbol
_atom_site_label
_atom_site_fract_x
_atom_site_fract_y
_atom_site_fract_z
Si Si1 0.080164 0.119934 0.670120
Si Si2 0.919334 0.080723 0.535076
Si Si3 0.575089 0.085993 0.003363
Si Si4 0.425155 0.186769 0.939822
Si Si5 0.079528 0.999000 0.735024
Si Si6 0.425006 0.005636 0.112671
Si Si7 0.580518 0.958669 0.599658
Si Si8 0.917966 0.314390 0.790425
O O1 0.250000 0.136479 0.666027
O O2 0.007971 0.115607 0.592424
O O3 0.988719 0.157663 0.722456
O O4 0.075322 0.060020 0.704489
O O5 0.750000 0.097421 0.529495
O O6 0.997033 0.077209 0.458681
O O7 0.920233 0.019558 0.566907
O O8 0.750000 0.089406 0.013646
O O9 0.499421 0.053581 0.067562
O O10 0.504253 0.144360 0.991115
O O11 0.548153 0.048996 0.933013
O O12 0.250000 0.179501 0.941459
O O13 0.457467 0.250000 0.955163
O O14 0.486787 0.174869 0.860813
O O15 0.250000 0.984064 0.744075
O O16 0.995450 0.997578 0.809613
O O17 0.001911 0.962684 0.674813
O O18 0.250000 0.013276 0.116960
O O19 0.750000 0.942725 0.607876
O O20 0.750000 0.332983 0.801524
O O21 0.916359 0.250000 0.780515
#
# Coordination Sequence:
#
# PCOD9447381 Si02
#       8
#     8   8   8   8   8   8   8   8
#     4  10  19  29  43  62  85 115 149 183 218 260
#     4   9  16  26  40  58  82 111 142 175 210 248
#     4  10  20  33  49  67  89 118 151 187 226 270
#     4  10  20  33  49  68  90 117 149 186 227 269
#     4  10  19  29  42  62  87 115 148 182 218 261
#     4  10  20  32  46  65  90 120 152 186 226 271
#     4   9  16  26  40  58  82 111 142 175 210 248
#     4  10  20  32  45  62  85 113 146 184 223 261
#
# _framework density 15.093442
#
# number of rings (size 3 to 8) (size 9 to 14) (size 15 to 20)
#    0.000    2.250    0.000    3.750    0.000    9.500 
#    0.000    0.000    0.000    0.000    0.000    0.000 
#    0.000    1.000    0.000    3.750    0.000    5.750 
#
# Total GULP energy -356999.482327 kJ/mol
# GULP energy per Si atom -5578.116911 kJ/mol
# Density = 1.505909 g / cm^3
# Si number density = 15.093442 Si / 1000 Ang^3
#
#
#
# Elastic Constant Matrix: (Units=GPa)
#
#
# Indices 1 2 3 4 5 6 
#
# 1 116.2973 29.1642 53.5968 0.0000 0.0000 0.0000
# 2 29.1642 31.1516 13.8400 0.0000 0.0000 0.0000
# 3 53.5968 13.8400 86.1418 0.0000 0.0000 0.0000
# 4 0.0000 0.0000 0.0000 23.2034 0.0000 0.0000
# 5 0.0000 0.0000 0.0000 0.0000 30.6498 0.0000
# 6 0.0000 0.0000 0.0000 0.0000 0.0000 21.3932
#
#
#
# Elastic Compliance Matrix: (Units=1/GPa)
#
#
# Indices 1 2 3 4 5 6 
#
# 1 0.014631 -0.010395 -0.007433 0.000000 0.000000 0.000000
# 2 -0.010395 0.041954 -0.000273 0.000000 0.000000 0.000000
# 3 -0.007433 -0.000273 0.016278 0.000000 0.000000 0.000000
# 4 0.000000 0.000000 0.000000 0.043097 0.000000 0.000000
# 5 0.000000 0.000000 0.000000 0.000000 0.032627 0.000000
# 6 0.000000 0.000000 0.000000 0.000000 0.000000 0.046744
#
#
# Mechanical properties :
#
#
# Convention : Reuss Voigt Hill
#
# Bulk Modulus (GPa) = 27.27731 47.42141 37.34936
# Shear Modulus (GPa) = 20.51251 24.18192 22.34722
#
# Velocity S-wave (km/s) = 3.69051 4.00703 3.85202
# Velocity P-wave (km/s) = 6.02257 7.27290 6.67707
#
# Compressibility (1/GPa) = 0.03666050
#
# Stress axis : x y z
#
# Youngs Moduli (GPa) = 68.34690 23.83540 61.43443
#
# Poissons Ratio (x) = 0.24778 0.45666
# Poissons Ratio (y) = 0.71049 0.01675
# Poissons Ratio (z) = 0.50804 0.00650
#
# Static dielectric constant tensor:
#      x y z
#    x 1.505530 0.000000 0.000000 
#    y 0.000000 1.486350 0.000000 
#    z 0.000000 0.000000 1.480170 
# 
# From -- ./inp_files/26439.got.cif
#   From: 2010.05.17/outbox.cif.g08.bks.cpg/sg59_14_cif.got.tgz:26439.got - 2010.06.03 14:40:33.
