data_PCOD9447594
_publ_section_title
;
Structure prediction by ZEFSAII (Michael W. Deem and Ramdas Pophale) SiO2 
 PCOD9447594
Probable space group: P M M N
;
_chemical_formula_sum "Si O2"
_cell_formula_units_Z 64
_cell_length_a 14.084483
_cell_length_b 9.081563
_cell_length_c 31.197765
_cell_angle_alpha 90.000000
_cell_angle_beta 90.000000
_cell_angle_gamma 90.000000
_cell_volume 3990.478657
_symmetry_space_group_name_H-M "P M M N"
_symmetry_group_IT_number 59
_space_group.IT_coordinate_system_code '2'
_symmetry_cell_setting 'orthorhombic'
loop_
_space_group_symop_operation_xyz
x,y,z
1/2-x,1/2-y,z
1/2+x,-y,-z
-x,1/2+y,-z
-x,-y,-z
1/2+x,1/2+y,-z
1/2-x,y,z
x,1/2-y,z
loop_
_atom_site_type_symbol
_atom_site_label
_atom_site_fract_x
_atom_site_fract_y
_atom_site_fract_z
Si Si1 0.456496 0.925455 0.933583
Si Si2 0.506212 0.076472 0.545775
Si Si3 0.640656 0.071968 0.238597
Si Si4 0.509491 0.078429 0.316101
Si Si5 0.858715 0.574501 0.985834
Si Si6 0.861068 0.574985 0.146314
Si Si7 0.860194 0.072276 0.623828
Si Si8 0.138351 0.583419 0.601014
O O1 0.445252 0.750000 0.929629
O O2 0.390916 0.986699 0.972038
O O3 0.426164 0.003810 0.890009
O O4 0.564272 0.957298 0.948921
O O5 0.516949 0.250000 0.539879
O O6 0.588986 0.025926 0.579038
O O7 0.500000 0.000000 0.500000
O O8 0.410391 0.034850 0.570762
O O9 0.750000 0.035491 0.251771
O O10 0.636321 0.250000 0.235425
O O11 0.561166 0.024809 0.272952
O O12 0.623831 0.999486 0.192480
O O13 0.482751 0.250000 0.310345
O O14 0.590610 0.072740 0.352582
O O15 0.421282 0.992156 0.336763
O O16 0.750000 0.541278 0.974436
O O17 0.865456 0.750000 0.995118
O O18 0.750000 0.549734 0.134688
O O19 0.875839 0.750000 0.148944
O O20 0.750000 0.028176 0.625018
O O21 0.865162 0.250000 0.625443
O O22 0.250000 0.565507 0.603850
O O23 0.117847 0.750000 0.584699
#
# Coordination Sequence:
#
# PCOD9447594 Si02
#       8
#     8   8   8   8   8   8   8   8
#     4  10  19  30  47  70  94 123 160 199 238 281
#     4  10  20  33  48  68  94 123 157 195 233 274
#     4   9  17  30  49  73 100 127 153 184 227 280
#     4   9  17  30  50  75  98 119 149 190 231 273
#     4   9  18  32  48  67  93 124 157 195 240 286
#     4  10  20  32  46  67  97 130 160 191 231 279
#     4   9  19  35  52  69  92 125 161 195 234 278
#     4   9  17  30  48  69  94 123 150 179 223 276
#
# _framework density 16.038176
#
# number of rings (size 3 to 8) (size 9 to 14) (size 15 to 20)
#    0.000    2.625    0.000    1.875    0.000    6.500 
#    0.000    1.250    0.000    3.000    0.000    1.750 
#    0.000    0.000    0.000    0.000    0.000    0.000 
#
# Total GULP energy -356673.152230 kJ/mol
# GULP energy per Si atom -5573.018004 kJ/mol
# Density = 1.600167 g / cm^3
# Si number density = 16.038176 Si / 1000 Ang^3
#
#
#
# Elastic Constant Matrix: (Units=GPa)
#
#
# Indices 1 2 3 4 5 6 
#
# 1 121.4523 42.9182 65.8923 0.0000 0.0000 0.0000
# 2 42.9182 35.7869 41.4611 0.0000 0.0000 0.0000
# 3 65.8923 41.4611 97.9869 0.0000 0.0000 0.0000
# 4 0.0000 0.0000 0.0000 27.7256 0.0000 0.0000
# 5 0.0000 0.0000 0.0000 0.0000 13.9094 0.0000
# 6 0.0000 0.0000 0.0000 0.0000 0.0000 22.6829
#
#
#
# Elastic Compliance Matrix: (Units=1/GPa)
#
#
# Indices 1 2 3 4 5 6 
#
# 1 0.015445 -0.012730 -0.004999 0.000000 0.000000 0.000000
# 2 -0.012730 0.065307 -0.019073 0.000000 0.000000 0.000000
# 3 -0.004999 -0.019073 0.021637 0.000000 0.000000 0.000000
# 4 0.000000 0.000000 0.000000 0.036068 0.000000 0.000000
# 5 0.000000 0.000000 0.000000 0.000000 0.071894 0.000000
# 6 0.000000 0.000000 0.000000 0.000000 0.000000 0.044086
#
#
# Mechanical properties :
#
#
# Convention : Reuss Voigt Hill
#
# Bulk Modulus (GPa) = 34.74091 61.75212 48.24652
# Shear Modulus (GPa) = 14.80887 19.86054 17.33471
#
# Velocity S-wave (km/s) = 3.04197 3.52281 3.29118
# Velocity P-wave (km/s) = 5.83494 7.42521 6.67758
#
# Compressibility (1/GPa) = 0.02878451
#
# Stress axis : x y z
#
# Youngs Moduli (GPa) = 64.74791 15.31234 46.21610
#
# Poissons Ratio (x) = 0.19493 0.23105
# Poissons Ratio (y) = 0.82425 0.88146
# Poissons Ratio (z) = 0.32370 0.29205
#
# Static dielectric constant tensor:
#      x y z
#    x 1.532100 0.000000 0.000000 
#    y 0.000000 1.546120 0.000000 
#    z 0.000000 0.000000 1.518830 
# 
# From -- ./inp_files/33348.got.cif
#   From: 2010.05.17/outbox.cif.g08.bks.cpg/sg59_17_cif.got.tgz:33348.got - 2010.06.03 14:40:33.
