data_PCOD9447954
_publ_section_title
;
Structure prediction by ZEFSAII (Michael W. Deem and Ramdas Pophale) SiO2 
 PCOD9447954
Probable space group: P M M N
;
_chemical_formula_sum "Si O2"
_cell_formula_units_Z 48
_cell_length_a 17.878431
_cell_length_b 8.823669
_cell_length_c 16.354020
_cell_angle_alpha 90.000000
_cell_angle_beta 90.000000
_cell_angle_gamma 90.000000
_cell_volume 2579.901562
_symmetry_space_group_name_H-M "P M M N"
_symmetry_group_IT_number 59
_space_group.IT_coordinate_system_code '2'
_symmetry_cell_setting 'orthorhombic'
loop_
_space_group_symop_operation_xyz
x,y,z
1/2-x,1/2-y,z
1/2+x,-y,-z
-x,1/2+y,-z
-x,-y,-z
1/2+x,1/2+y,-z
1/2-x,y,z
x,1/2-y,z
loop_
_atom_site_type_symbol
_atom_site_label
_atom_site_fract_x
_atom_site_fract_y
_atom_site_fract_z
Si Si1 0.085553 0.931641 0.912598
Si Si2 0.661139 0.569892 0.576203
Si Si3 0.578560 0.931944 0.742894
Si Si4 0.412416 0.070447 0.748051
Si Si5 0.417451 0.931566 0.091621
Si Si6 0.159895 0.922948 0.592919
O O1 0.080805 0.750000 0.904654
O O2 0.122063 0.000842 0.831486
O O3 0.118065 0.966250 0.002775
O O4 0.001721 0.001254 0.912603
O O5 0.750000 0.544069 0.584555
O O6 0.649739 0.750000 0.564180
O O7 0.621193 0.524956 0.660103
O O8 0.634039 0.483781 0.495274
O O9 0.575401 0.750000 0.748445
O O10 0.495019 0.998729 0.738782
O O11 0.615383 0.996851 0.825972
O O12 0.418228 0.250000 0.756646
O O13 0.367652 0.024342 0.667541
O O14 0.421349 0.750000 0.099824
O O15 0.250000 0.925326 0.591583
O O16 0.134615 0.750000 0.605596
#
# Coordination Sequence:
#
# PCOD9447954 Si02
#       6
#     8   8   8   8   8   8
#     4   9  16  27  44  67  97 130 164 202 243 288
#     4   9  19  36  55  74  97 128 166 204 244 292
#     4  10  19  31  50  75 103 132 163 204 249 291
#     4  11  21  32  50  75 103 132 163 203 246 290
#     4   9  16  26  43  68  98 130 163 200 242 289
#     4  10  21  37  56  75  96 126 163 202 246 297
#
# _framework density 18.605360999999998
#
# number of rings (size 3 to 8) (size 9 to 14) (size 15 to 20)
#    0.000    2.333    0.000    5.500    0.000    5.000 
#    0.000    0.000    0.000    1.000    0.000    4.667 
#    0.000    0.000    0.000    0.000    0.000    0.000 
#
# Total GULP energy -267591.465384 kJ/mol
# GULP energy per Si atom -5574.822195 kJ/mol
# Density = 1.856301 g / cm^3
# Si number density = 18.605361 Si / 1000 Ang^3
#
#
#
# Elastic Constant Matrix: (Units=GPa)
#
#
# Indices 1 2 3 4 5 6 
#
# 1 3.2355 13.2081 21.1749 0.0000 0.0000 0.0000
# 2 13.2081 91.2957 68.2359 0.0000 0.0000 0.0000
# 3 21.1749 68.2359 190.0074 0.0000 0.0000 0.0000
# 4 0.0000 0.0000 0.0000 38.5611 0.0000 0.0000
# 5 0.0000 0.0000 0.0000 0.0000 -165.8777 0.0000
# 6 0.0000 0.0000 0.0000 0.0000 0.0000 5.5669
#
#
#
# Elastic Compliance Matrix: (Units=1/GPa)
#
#
# Indices 1 2 3 4 5 6 
#
# 1 2.465725 -0.206875 -0.200493 0.000000 0.000000 0.000000
# 2 -0.206875 0.032329 0.011445 0.000000 0.000000 0.000000
# 3 -0.200493 0.011445 0.023496 0.000000 0.000000 0.000000
# 4 0.000000 0.000000 0.000000 0.025933 0.000000 0.000000
# 5 0.000000 0.000000 0.000000 0.000000 -0.006029 0.000000
# 6 0.000000 0.000000 0.000000 0.000000 0.000000 0.179632
#
#
# Mechanical properties :
#
#
# Convention : Reuss Voigt Hill
#
# Bulk Modulus (GPa) = 0.57813 54.41963 27.49888
# Shear Modulus (GPa) = 1.22264 -12.22197 -5.49966
#
# Velocity S-wave (km/s) = 0.81152 -2.56580 -1.72115
# Velocity P-wave (km/s) = 1.09064 4.53158 3.29581
#
# Compressibility (1/GPa) = 1.72970306
#
# Stress axis : x y z
#
# Youngs Moduli (GPa) = 0.40556 30.93197 42.55961
#
# Poissons Ratio (x) = 6.39905 8.53292
# Poissons Ratio (y) = 0.08390 -0.48708
# Poissons Ratio (z) = 0.08131 -0.35400
#
# Static dielectric constant tensor:
#      x y z
#    x 1.620220 0.000000 0.000000 
#    y 0.000000 1.627430 0.000000 
#    z 0.000000 0.000000 1.698820 
# 
# From -- ./inp_files/24088.got.cif
#   From: 2010.05.17/outbox.cif.g08.bks.cpg/sg59_13_cif.got.tgz:24088.got - 2010.06.03 14:40:33.
