data_PCOD9447433
_publ_section_title
;
Structure prediction by ZEFSAII (Michael W. Deem and Ramdas Pophale) SiO2 
 PCOD9447433
Probable space group: P M M N
;
_chemical_formula_sum "Si O2"
_cell_formula_units_Z 64
_cell_length_a 18.380309
_cell_length_b 7.881023
_cell_length_c 23.705025
_cell_angle_alpha 90.000000
_cell_angle_beta 90.000000
_cell_angle_gamma 90.000000
_cell_volume 3433.806520
_symmetry_space_group_name_H-M "P M M N"
_symmetry_group_IT_number 59
_space_group.IT_coordinate_system_code '2'
_symmetry_cell_setting 'orthorhombic'
loop_
_space_group_symop_operation_xyz
x,y,z
1/2-x,1/2-y,z
1/2+x,-y,-z
-x,1/2+y,-z
-x,-y,-z
1/2+x,1/2+y,-z
1/2-x,y,z
x,1/2-y,z
loop_
_atom_site_type_symbol
_atom_site_label
_atom_site_fract_x
_atom_site_fract_y
_atom_site_fract_z
Si Si1 0.669782 0.453830 0.542414
Si Si2 0.514651 0.046867 0.258460
Si Si3 0.329820 0.542763 0.701614
Si Si4 0.615588 0.043112 0.421199
Si Si5 0.066495 0.548130 0.958828
Si Si6 0.666893 0.041892 0.944005
Si Si7 0.460672 0.045786 0.378009
Si Si8 0.535632 0.050732 0.863672
O O1 0.750000 0.517408 0.556791
O O2 0.672654 0.250000 0.537869
O O3 0.646735 0.518370 0.480418
O O4 0.611149 0.494331 0.589663
O O5 0.518695 0.250000 0.263363
O O6 0.598466 0.985078 0.264435
O O7 0.471292 0.984398 0.313762
O O8 0.476371 0.009597 0.199655
O O9 0.250000 0.485090 0.720789
O O10 0.329542 0.750000 0.703368
O O11 0.342296 0.494543 0.635946
O O12 0.617256 0.250000 0.422164
O O13 0.532164 0.989237 0.412421
O O14 0.071321 0.750000 0.953879
O O15 0.038449 0.481765 0.899068
O O16 0.137207 0.489684 0.993840
O O17 0.000000 0.500000 0.000000
O O18 0.750000 0.988028 0.933616
O O19 0.666230 0.250000 0.943242
O O20 0.606042 0.981994 0.898444
O O21 0.462592 0.250000 0.376746
O O22 0.547012 0.250000 0.861784
#
# Coordination Sequence:
#
# PCOD9447433 Si02
#       8
#     8   8   8   8   8   8   8   8
#     4  10  19  29  44  68  94 118 148 190 238 286
#     4   9  18  32  49  68  91 121 159 198 230 269
#     4   8  13  24  45  70  91 113 147 192 238 281
#     4   8  14  26  45  68  91 114 145 189 239 289
#     4   9  16  28  49  73  97 123 149 183 226 271
#     4   8  15  29  49  73  96 118 151 193 229 259
#     4   9  18  32  48  65  88 121 156 191 236 285
#     4  10  19  31  50  72  95 127 161 192 229 273
#
# _framework density 18.638207999999999
#
# number of rings (size 3 to 8) (size 9 to 14) (size 15 to 20)
#    0.000    3.125    0.000    3.750    0.000    2.250 
#    0.000    1.250    0.000   20.625    0.000    0.000 
#    0.000    0.000    0.000    0.000    0.000    0.000 
#
# Total GULP energy -356393.779657 kJ/mol
# GULP energy per Si atom -5568.652807 kJ/mol
# Density = 1.859579 g / cm^3
# Si number density = 18.638208 Si / 1000 Ang^3
#
#
#
# Elastic Constant Matrix: (Units=GPa)
#
#
# Indices 1 2 3 4 5 6 
#
# 1 132.1422 5.7967 51.2089 0.0000 0.0000 0.0000
# 2 5.7967 11.9668 4.7439 0.0000 0.0000 0.0000
# 3 51.2089 4.7439 58.5794 0.0000 0.0000 0.0000
# 4 0.0000 0.0000 0.0000 17.7550 0.0000 0.0000
# 5 0.0000 0.0000 0.0000 0.0000 17.7507 0.0000
# 6 0.0000 0.0000 0.0000 0.0000 0.0000 14.8663
#
#
#
# Elastic Compliance Matrix: (Units=1/GPa)
#
#
# Indices 1 2 3 4 5 6 
#
# 1 0.011476 -0.001634 -0.009899 0.000000 0.000000 0.000000
# 2 -0.001634 0.086569 -0.005582 0.000000 0.000000 0.000000
# 3 -0.009899 -0.005582 0.026177 0.000000 0.000000 0.000000
# 4 0.000000 0.000000 0.000000 0.056322 0.000000 0.000000
# 5 0.000000 0.000000 0.000000 0.000000 0.056336 0.000000
# 6 0.000000 0.000000 0.000000 0.000000 0.000000 0.067266
#
#
# Mechanical properties :
#
#
# Convention : Reuss Voigt Hill
#
# Bulk Modulus (GPa) = 11.11232 36.24306 23.67769
# Shear Modulus (GPa) = 13.57319 19.47033 16.52176
#
# Velocity S-wave (km/s) = 2.70153 3.23561 2.98055
# Velocity P-wave (km/s) = 3.96309 5.78331 4.95746
#
# Compressibility (1/GPa) = 0.08999020
#
# Stress axis : x y z
#
# Youngs Moduli (GPa) = 87.14146 11.55148 38.20194
#
# Poissons Ratio (x) = 0.01888 0.37818
# Poissons Ratio (y) = 0.14243 0.21323
# Poissons Ratio (z) = 0.86265 0.06448
#
# Static dielectric constant tensor:
#      x y z
#    x 1.663390 0.000000 0.000000 
#    y 0.000000 1.670560 0.000000 
#    z 0.000000 0.000000 1.643740 
# 
# From -- ./inp_files/30747.got.cif
#   From: 2010.05.17/outbox.cif.g08.bks.cpg/sg59_16_cif.got.tgz:30747.got - 2010.06.03 14:40:33.
