data_PCOD9447030
_publ_section_title
;
Structure prediction by ZEFSAII (Michael W. Deem and Ramdas Pophale) SiO2 
 PCOD9447030
Probable space group: P M M N
;
_chemical_formula_sum "Si O2"
_cell_formula_units_Z 64
_cell_length_a 15.671810
_cell_length_b 8.054774
_cell_length_c 25.005915
_cell_angle_alpha 90.000000
_cell_angle_beta 90.000000
_cell_angle_gamma 90.000000
_cell_volume 3156.568861
_symmetry_space_group_name_H-M "P M M N"
_symmetry_group_IT_number 59
_space_group.IT_coordinate_system_code '2'
_symmetry_cell_setting 'orthorhombic'
loop_
_space_group_symop_operation_xyz
x,y,z
1/2-x,1/2-y,z
1/2+x,-y,-z
-x,1/2+y,-z
-x,-y,-z
1/2+x,1/2+y,-z
1/2-x,y,z
x,1/2-y,z
loop_
_atom_site_type_symbol
_atom_site_label
_atom_site_fract_x
_atom_site_fract_y
_atom_site_fract_z
Si Si1 0.853573 0.440641 0.009650
Si Si2 0.000710 0.448970 0.310180
Si Si3 0.010997 0.054785 0.189962
Si Si4 0.844523 0.453202 0.381814
Si Si5 0.152102 0.055469 0.873686
Si Si6 0.098574 0.549960 0.501342
Si Si7 0.652461 0.050973 0.893840
Si Si8 0.655723 0.451043 0.615066
O O1 0.750000 0.438380 0.006485
O O2 0.883041 0.250000 0.015231
O O3 0.879886 0.512165 0.952007
O O4 0.874531 0.533548 0.064214
O O5 0.990378 0.250000 0.306102
O O6 0.082646 0.484623 0.346309
O O7 0.010397 0.515571 0.250158
O O8 0.918242 0.513000 0.342284
O O9 0.027481 0.250000 0.193314
O O10 0.918774 0.027635 0.163098
O O11 0.085439 0.984216 0.152469
O O12 0.750000 0.502739 0.364796
O O13 0.847455 0.250000 0.382487
O O14 0.861739 0.508740 0.442783
O O15 0.250000 0.991209 0.868004
O O16 0.153158 0.250000 0.861295
O O17 0.105258 0.750000 0.501623
O O18 0.140510 0.491943 0.446067
O O19 0.000000 0.500000 0.500000
O O20 0.750000 0.991361 0.883425
O O21 0.657735 0.250000 0.900183
O O22 0.750000 0.501800 0.632752
O O23 0.651792 0.250000 0.614957
#
# Coordination Sequence:
#
# PCOD9447030 Si02
#       8
#     8   8   8   8   8   8   8   8
#     4   8  15  31  56  84 112 141 176 222 276 332
#     4  10  22  39  56  78 106 141 188 233 273 317
#     4  11  24  38  55  80 110 147 191 236 278 326
#     4   9  17  32  56  81 105 137 177 220 266 319
#     4  10  21  37  58  84 113 146 183 224 275 334
#     4  10  18  31  55  83 112 143 174 215 269 325
#     4   9  19  37  60  84 111 145 184 228 280 335
#     4  10  21  36  56  83 112 144 181 221 272 331
#
# _framework density 20.275181
#
# number of rings (size 3 to 8) (size 9 to 14) (size 15 to 20)
#    0.000    2.375    1.250    1.875    0.000    5.750 
#    0.000    5.000    0.000    2.250    0.000    0.000 
#    0.000    0.000    0.000    0.000    0.000    0.000 
#
# Total GULP energy -357171.358322 kJ/mol
# GULP energy per Si atom -5580.802474 kJ/mol
# Density = 2.022903 g / cm^3
# Si number density = 20.275181 Si / 1000 Ang^3
#
#
#
# Elastic Constant Matrix: (Units=GPa)
#
#
# Indices 1 2 3 4 5 6 
#
# 1 98.4018 -10.4517 37.9093 0.0000 0.0000 0.0000
# 2 -10.4517 7.2703 -2.6239 0.0000 0.0000 0.0000
# 3 37.9093 -2.6239 114.5029 0.0000 0.0000 0.0000
# 4 0.0000 0.0000 0.0000-3667.9593 0.0000 0.0000
# 5 0.0000 0.0000 0.0000 0.0000 -159.1262 0.0000
# 6 0.0000 0.0000 0.0000 0.0000 0.0000 9.8469
#
#
#
# Elastic Compliance Matrix: (Units=1/GPa)
#
#
# Indices 1 2 3 4 5 6 
#
# 1 0.013677 0.018178 -0.004112 0.000000 0.000000 0.000000
# 2 0.018178 0.162853 -0.002287 0.000000 0.000000 0.000000
# 3 -0.004112 -0.002287 0.010042 0.000000 0.000000 0.000000
# 4 0.000000 0.000000 0.000000 -0.000273 0.000000 0.000000
# 5 0.000000 0.000000 0.000000 0.000000 -0.006284 0.000000
# 6 0.000000 0.000000 0.000000 0.000000 0.000000 0.101555
#
#
# Mechanical properties :
#
#
# Convention : Reuss Voigt Hill
#
# Bulk Modulus (GPa) = 4.75890 29.98249 17.37070
# Shear Modulus (GPa) = 15.24138 -750.42494 -367.59178
#
# Velocity S-wave (km/s) = 2.74474 -19.25937 -13.47943
# Velocity P-wave (km/s) = 3.52094 21.90308 15.28639
#
# Compressibility (1/GPa) = 0.21013248
#
# Stress axis : x y z
#
# Youngs Moduli (GPa) = 73.11418 6.14051 99.57897
#
# Poissons Ratio (x) = -0.11162 0.40943
# Poissons Ratio (y) = -1.32909 0.22770
# Poissons Ratio (z) = 0.30062 0.01404
#
# Static dielectric constant tensor:
#      x y z
#    x 1.701220 0.000000 0.000000 
#    y 0.000000 1.762560 0.000000 
#    z 0.000000 0.000000 1.728960 
# 
# From -- ./inp_files/31540.got.cif
#   From: 2010.05.17/outbox.cif.g08.bks.cpg/sg59_16_cif.got.tgz:31540.got - 2010.06.03 14:40:33.
