data_PCOD9447022
_publ_section_title
;
Structure prediction by ZEFSAII (Michael W. Deem and Ramdas Pophale) SiO2 
 PCOD9447022
Probable space group: P M M N
;
_chemical_formula_sum "Si O2"
_cell_formula_units_Z 64
_cell_length_a 15.679655
_cell_length_b 8.056451
_cell_length_c 24.990741
_cell_angle_alpha 90.000000
_cell_angle_beta 90.000000
_cell_angle_gamma 90.000000
_cell_volume 3156.889686
_symmetry_space_group_name_H-M "P M M N"
_symmetry_group_IT_number 59
_space_group.IT_coordinate_system_code '2'
_symmetry_cell_setting 'orthorhombic'
loop_
_space_group_symop_operation_xyz
x,y,z
1/2-x,1/2-y,z
1/2+x,-y,-z
-x,1/2+y,-z
-x,-y,-z
1/2+x,1/2+y,-z
1/2-x,y,z
x,1/2-y,z
loop_
_atom_site_type_symbol
_atom_site_label
_atom_site_fract_x
_atom_site_fract_y
_atom_site_fract_z
Si Si1 0.988687 0.948029 0.190204
Si Si2 0.646585 0.060214 0.989722
Si Si3 0.006982 0.050171 0.688918
Si Si4 0.098233 0.049921 0.495228
Si Si5 0.652375 0.944439 0.873250
Si Si6 0.151728 0.050403 0.893243
Si Si7 0.156375 0.452899 0.610941
Si Si8 0.344766 0.049178 0.378120
O O1 0.975827 0.750000 0.193141
O O2 0.914239 0.013958 0.151136
O O3 0.985001 0.014200 0.250654
O O4 0.081230 0.976971 0.164344
O O5 0.750000 0.054859 0.991851
O O6 0.618738 0.250000 0.984402
O O7 0.624303 0.967696 0.935098
O O8 0.619114 0.991166 0.047031
O O9 0.014449 0.250000 0.690770
O O10 0.081116 0.987778 0.649325
O O11 0.916992 0.008826 0.662223
O O12 0.104907 0.250000 0.494577
O O13 0.143079 0.991930 0.549667
O O14 0.134902 0.990215 0.438644
O O15 0.000000 0.000000 0.500000
O O16 0.750000 0.010952 0.867824
O O17 0.655404 0.750000 0.861451
O O18 0.250000 0.989561 0.886911
O O19 0.155101 0.250000 0.889521
O O20 0.250000 0.501656 0.630112
O O21 0.153110 0.250000 0.610347
O O22 0.250000 0.995045 0.362664
O O23 0.346290 0.250000 0.379099
#
# Coordination Sequence:
#
# PCOD9447022 Si02
#       8
#     8   8   8   8   8   8   8   8
#     4  10  22  37  54  78 107 140 180 224 269 315
#     4   9  17  31  54  83 112 140 172 214 265 319
#     4  10  21  37  55  78 106 138 181 228 269 311
#     4  10  18  31  54  81 110 141 173 214 265 318
#     4  10  21  37  57  80 106 139 179 221 266 318
#     4   9  18  34  55  79 109 142 175 215 263 317
#     4   9  17  31  54  81 107 137 174 216 263 316
#     4  10  21  36  55  79 108 143 180 218 266 323
#
# _framework density 20.273119999999999
#
# number of rings (size 3 to 8) (size 9 to 14) (size 15 to 20)
#    0.000    2.375    1.250    1.125    0.000    6.500 
#    0.000    5.000    0.000    2.250    0.000    1.750 
#    0.000    0.000    0.000    0.000    0.000    0.000 
#
# Total GULP energy -357170.669097 kJ/mol
# GULP energy per Si atom -5580.791705 kJ/mol
# Density = 2.022698 g / cm^3
# Si number density = 20.273120 Si / 1000 Ang^3
#
#
#
# Elastic Constant Matrix: (Units=GPa)
#
#
# Indices 1 2 3 4 5 6 
#
# 1 78.9195 -8.8487 17.5934 0.0000 0.0000 0.0000
# 2 -8.8487 9.2265 -3.7008 0.0000 0.0000 0.0000
# 3 17.5934 -3.7008 89.8910 0.0000 0.0000 0.0000
# 4 0.0000 0.0000 0.0000 6.3176 0.0000 0.0000
# 5 0.0000 0.0000 0.0000 0.0000 -260.9525 0.0000
# 6 0.0000 0.0000 0.0000 0.0000 0.0000 17.6372
#
#
#
# Elastic Compliance Matrix: (Units=1/GPa)
#
#
# Indices 1 2 3 4 5 6 
#
# 1 0.014662 0.013128 -0.002329 0.000000 0.000000 0.000000
# 2 0.013128 0.121957 0.002452 0.000000 0.000000 0.000000
# 3 -0.002329 0.002452 0.011681 0.000000 0.000000 0.000000
# 4 0.000000 0.000000 0.000000 0.158289 0.000000 0.000000
# 5 0.000000 0.000000 0.000000 0.000000 -0.003832 0.000000
# 6 0.000000 0.000000 0.000000 0.000000 0.000000 0.056698
#
#
# Mechanical properties :
#
#
# Convention : Reuss Voigt Hill
#
# Bulk Modulus (GPa) = 5.72079 20.90275 13.31177
# Shear Modulus (GPa) = 12.78046 -35.86667 -11.54310
#
# Velocity S-wave (km/s) = 2.51353 -4.21072 -2.38876
# Velocity P-wave (km/s) = 3.35436 3.64791 1.01377
#
# Compressibility (1/GPa) = 0.17480097
#
# Stress axis : x y z
#
# Youngs Moduli (GPa) = 68.20203 8.19961 85.60622
#
# Poissons Ratio (x) = -0.10764 0.19940
# Poissons Ratio (y) = -0.89534 -0.20987
# Poissons Ratio (z) = 0.15886 -0.02010
#
# Static dielectric constant tensor:
#      x y z
#    x 1.715490 0.000000 0.000000 
#    y 0.000000 1.741630 0.000000 
#    z 0.000000 0.000000 1.710020 
# 
# From -- ./inp_files/32143.got.cif
#   From: 2010.05.17/outbox.cif.g08.bks.cpg/sg59_17_cif.got.tgz:32143.got - 2010.06.03 14:40:33.
