data_PCOD9447272
_publ_section_title
;
Structure prediction by ZEFSAII (Michael W. Deem and Ramdas Pophale) SiO2 
 PCOD9447272
Probable space group: P M M N
;
_chemical_formula_sum "Si O2"
_cell_formula_units_Z 48
_cell_length_a 15.057760
_cell_length_b 8.376844
_cell_length_c 20.250524
_cell_angle_alpha 90.000000
_cell_angle_beta 90.000000
_cell_angle_gamma 90.000000
_cell_volume 2554.330352
_symmetry_space_group_name_H-M "P M M N"
_symmetry_group_IT_number 59
_space_group.IT_coordinate_system_code '2'
_symmetry_cell_setting 'orthorhombic'
loop_
_space_group_symop_operation_xyz
x,y,z
1/2-x,1/2-y,z
1/2+x,-y,-z
-x,1/2+y,-z
-x,-y,-z
1/2+x,1/2+y,-z
1/2-x,y,z
x,1/2-y,z
loop_
_atom_site_type_symbol
_atom_site_label
_atom_site_fract_x
_atom_site_fract_y
_atom_site_fract_z
Si Si1 0.147671 0.439456 0.908172
Si Si2 0.443776 0.943316 0.563143
Si Si3 0.852843 0.060638 0.947957
Si Si4 0.750000 0.442651 0.477476
Si Si5 0.481466 0.060471 0.165794
Si Si6 0.750000 0.556858 0.628333
Si Si7 0.438664 0.055093 0.313425
O O1 0.250000 0.493292 0.901035
O O2 0.143977 0.250000 0.898190
O O3 0.080472 0.522280 0.858419
O O4 0.120216 0.477012 0.983618
O O5 0.444293 0.750000 0.562814
O O6 0.341892 0.997935 0.555677
O O7 0.492387 0.997023 0.630053
O O8 0.500000 0.000000 0.500000
O O9 0.750000 0.016256 0.934350
O O10 0.857051 0.250000 0.958920
O O11 0.914847 0.015088 0.887306
O O12 0.750000 0.250000 0.475421
O O13 0.750000 0.495484 0.553587
O O14 0.467359 0.250000 0.164732
O O15 0.463272 0.001524 0.239974
O O16 0.750000 0.750000 0.626206
O O17 0.660216 0.505303 0.665073
O O18 0.439827 0.250000 0.313148
#
# Coordination Sequence:
#
# PCOD9447272 Si02
#       7
#     8   8   8   4   8   4   8
#     4  10  21  39  61  82 108 144 185 230 277 325
#     4  10  19  35  55  80 109 141 182 225 271 321
#     4  10  21  37  58  85 114 145 184 228 273 326
#     4  10  20  32  54  84 110 135 174 231 282 319
#     4  11  22  36  56  82 112 148 186 226 275 328
#     4  10  18  34  58  80 106 141 182 221 264 327
#     4   9  20  35  54  80 109 144 182 221 267 324
#
# _framework density 18.791618
#
# number of rings (size 3 to 8) (size 9 to 14) (size 15 to 20)
#    0.000    2.000    1.667    2.000    1.167    2.000 
#    1.500    3.333    0.000    0.000    0.000    0.000 
#    0.000    0.000    0.000    0.000    0.000    0.000 
#
# Total GULP energy -268063.547289 kJ/mol
# GULP energy per Si atom -5584.657235 kJ/mol
# Density = 1.874885 g / cm^3
# Si number density = 18.791618 Si / 1000 Ang^3
#
#
#
# Elastic Constant Matrix: (Units=GPa)
#
#
# Indices 1 2 3 4 5 6 
#
# 1 131.3603 -0.0204 69.8955 0.0000 0.0000 0.0000
# 2 -0.0204 8.3547 -6.7464 0.0000 0.0000 0.0000
# 3 69.8955 -6.7464 114.3176 0.0000 0.0000 0.0000
# 4 0.0000 0.0000 0.0000 24.9317 0.0000 0.0000
# 5 0.0000 0.0000 0.0000 0.0000 11.0203 0.0000
# 6 0.0000 0.0000 0.0000 0.0000 0.0000 15.2256
#
#
#
# Elastic Compliance Matrix: (Units=1/GPa)
#
#
# Indices 1 2 3 4 5 6 
#
# 1 0.011560 -0.005963 -0.007420 0.000000 0.000000 0.000000
# 2 -0.005963 0.128758 0.011244 0.000000 0.000000 0.000000
# 3 -0.007420 0.011244 0.013948 0.000000 0.000000 0.000000
# 4 0.000000 0.000000 0.000000 0.040110 0.000000 0.000000
# 5 0.000000 0.000000 0.000000 0.000000 0.090742 0.000000
# 6 0.000000 0.000000 0.000000 0.000000 0.000000 0.065679
#
#
# Mechanical properties :
#
#
# Convention : Reuss Voigt Hill
#
# Bulk Modulus (GPa) = 6.66719 42.25447 24.46083
# Shear Modulus (GPa) = 12.34362 22.96246 17.65304
#
# Velocity S-wave (km/s) = 2.56573 3.49944 3.06831
# Velocity P-wave (km/s) = 3.51183 6.23399 5.05943
#
# Compressibility (1/GPa) = 0.14998832
#
# Stress axis : x y z
#
# Youngs Moduli (GPa) = 86.50784 7.76653 71.69678
#
# Poissons Ratio (x) = 0.04631 0.53197
# Poissons Ratio (y) = 0.51585 -0.80619
# Poissons Ratio (z) = 0.64186 -0.08733
#
# Static dielectric constant tensor:
#      x y z
#    x 1.659820 0.000000 0.000000 
#    y 0.000000 1.645840 0.000000 
#    z 0.000000 0.000000 1.612690 
# 
# From -- ./inp_files/25584.got.cif
#   From: 2010.05.17/outbox.cif.g08.bks.cpg/sg59_13_cif.got.tgz:25584.got - 2010.06.03 14:40:33.
