data_PCOD9447226
_publ_section_title
;
Structure prediction by ZEFSAII (Michael W. Deem and Ramdas Pophale) SiO2 
 PCOD9447226
Probable space group: P M M N
;
_chemical_formula_sum "Si O2"
_cell_formula_units_Z 64
_cell_length_a 7.780395
_cell_length_b 32.184488
_cell_length_c 12.261491
_cell_angle_alpha 90.000000
_cell_angle_beta 90.000000
_cell_angle_gamma 90.000000
_cell_volume 3070.375800
_symmetry_space_group_name_H-M "P M M N"
_symmetry_group_IT_number 59
_space_group.IT_coordinate_system_code '2'
_symmetry_cell_setting 'orthorhombic'
loop_
_space_group_symop_operation_xyz
x,y,z
1/2-x,1/2-y,z
1/2+x,-y,-z
-x,1/2+y,-z
-x,-y,-z
1/2+x,1/2+y,-z
1/2-x,y,z
x,1/2-y,z
loop_
_atom_site_type_symbol
_atom_site_label
_atom_site_fract_x
_atom_site_fract_y
_atom_site_fract_z
Si Si1 0.954756 0.084983 0.255181
Si Si2 0.454351 0.452846 0.025820
Si Si3 0.959924 0.295901 0.489603
Si Si4 0.042909 0.952167 0.518884
Si Si5 0.457094 0.123639 0.881867
Si Si6 0.458372 0.820432 0.753279
Si Si7 0.045660 0.294805 0.006591
Si Si8 0.457072 0.624075 0.372356
O O1 0.750000 0.088944 0.269693
O O2 0.022552 0.062818 0.363222
O O3 0.020316 0.131860 0.243475
O O4 0.986803 0.059651 0.146125
O O5 0.250000 0.449809 0.023738
O O6 0.522490 0.418356 0.940493
O O7 0.500000 0.500000 0.000000
O O8 0.750000 0.296733 0.491067
O O9 0.013885 0.250000 0.528082
O O10 0.011357 0.301734 0.363062
O O11 0.018793 0.335021 0.561892
O O12 0.250000 0.949684 0.519060
O O13 0.981103 0.918509 0.429839
O O14 0.000000 0.000000 0.500000
O O15 0.250000 0.123573 0.892259
O O16 0.524094 0.164503 0.945260
O O17 0.498138 0.125220 0.754480
O O18 0.250000 0.819298 0.755589
O O19 0.519335 0.799217 0.863853
O O20 0.250000 0.294334 0.986319
O O21 0.974577 0.250000 0.970625
O O22 0.250000 0.624358 0.381155
#
# Coordination Sequence:
#
# PCOD9447226 Si02
#       8
#     8   8   8   8   8   8   8   8
#     4  10  20  37  61  87 118 150 183 231 286 335
#     4  11  24  41  61  85 115 149 191 236 284 339
#     4   9  17  32  56  85 115 146 180 224 281 334
#     4  10  22  39  58  84 116 148 186 230 280 333
#     4  10  23  41  57  79 112 151 189 230 280 335
#     4  10  18  33  59  88 116 145 182 229 279 332
#     4  10  21  38  58  81 114 152 187 229 283 337
#     4  10  21  38  58  82 112 147 187 233 277 326
#
# _framework density 20.844353999999999
#
# number of rings (size 3 to 8) (size 9 to 14) (size 15 to 20)
#    0.000    2.000    2.500    0.750    1.750    3.750 
#    0.000    0.625    0.000    0.750    0.000    0.000 
#    0.000    0.000    0.000    0.000    0.000    0.000 
#
# Total GULP energy -357435.723244 kJ/mol
# GULP energy per Si atom -5584.933176 kJ/mol
# Density = 2.079691 g / cm^3
# Si number density = 20.844354 Si / 1000 Ang^3
#
#
#
# Elastic Constant Matrix: (Units=GPa)
#
#
# Indices 1 2 3 4 5 6 
#
# 1 23.8748 3.3361 -7.2461 0.0000 0.0000 0.0000
# 2 3.3361 208.8503 90.1313 0.0000 0.0000 0.0000
# 3 -7.2461 90.1313 147.9037 0.0000 0.0000 0.0000
# 4 0.0000 0.0000 0.0000 49.5579 0.0000 0.0000
# 5 0.0000 0.0000 0.0000 0.0000 42.7529 0.0000
# 6 0.0000 0.0000 0.0000 0.0000 0.0000 13.4577
#
#
#
# Elastic Compliance Matrix: (Units=1/GPa)
#
#
# Indices 1 2 3 4 5 6 
#
# 1 0.043235 -0.002177 0.003445 0.000000 0.000000 0.000000
# 2 -0.002177 0.006606 -0.004133 0.000000 0.000000 0.000000
# 3 0.003445 -0.004133 0.009448 0.000000 0.000000 0.000000
# 4 0.000000 0.000000 0.000000 0.020178 0.000000 0.000000
# 5 0.000000 0.000000 0.000000 0.000000 0.023390 0.000000
# 6 0.000000 0.000000 0.000000 0.000000 0.000000 0.074307
#
#
# Mechanical properties :
#
#
# Convention : Reuss Voigt Hill
#
# Bulk Modulus (GPa) = 18.67067 61.45240 40.06153
# Shear Modulus (GPa) = 24.90684 40.78087 32.84386
#
# Velocity S-wave (km/s) = 3.46048 4.42797 3.97378
# Velocity P-wave (km/s) = 4.99431 7.46245 6.34946
#
# Compressibility (1/GPa) = 0.05355995
#
# Stress axis : x y z
#
# Youngs Moduli (GPa) = 23.12937 151.37014 105.83967
#
# Poissons Ratio (x) = 0.32959 -0.36462
# Poissons Ratio (y) = 0.05036 0.43738
# Poissons Ratio (z) = -0.07968 0.62554
#
# Static dielectric constant tensor:
#      x y z
#    x 1.781920 0.000000 0.000000 
#    y 0.000000 1.749810 0.000000 
#    z 0.000000 0.000000 1.701040 
# 
# From -- ./inp_files/14956.got.cif
#   From: 2010.05.17/outbox.cif.g08.bks.cpg/sg59_8_cif.got.tgz:14956.got - 2010.06.03 14:40:33.
