data_PCOD9447034
_publ_section_title
;
Structure prediction by ZEFSAII (Michael W. Deem and Ramdas Pophale) SiO2 
 PCOD9447034
Probable space group: P M M N
;
_chemical_formula_sum "Si O2"
_cell_formula_units_Z 64
_cell_length_a 16.643701
_cell_length_b 16.685227
_cell_length_c 10.801726
_cell_angle_alpha 90.000000
_cell_angle_beta 90.000000
_cell_angle_gamma 90.000000
_cell_volume 2999.681753
_symmetry_space_group_name_H-M "P M M N"
_symmetry_group_IT_number 59
_space_group.IT_coordinate_system_code '2'
_symmetry_cell_setting 'orthorhombic'
loop_
_space_group_symop_operation_xyz
x,y,z
1/2-x,1/2-y,z
1/2+x,-y,-z
-x,1/2+y,-z
-x,-y,-z
1/2+x,1/2+y,-z
1/2-x,y,z
x,1/2-y,z
loop_
_atom_site_type_symbol
_atom_site_label
_atom_site_fract_x
_atom_site_fract_y
_atom_site_fract_z
Si Si1 0.993119 0.864742 0.851253
Si Si2 0.980529 0.838799 0.126249
Si Si3 0.838622 0.006363 0.628731
Si Si4 0.341848 0.457654 0.843067
Si Si5 0.098540 0.980497 0.109500
Si Si6 0.589579 0.663058 0.589567
Si Si7 0.584438 0.337659 0.526398
Si Si8 0.841296 0.127684 0.262074
O O1 0.086228 0.845035 0.827400
O O2 0.944077 0.838976 0.730822
O O3 0.961038 0.832157 0.979877
O O4 0.977193 0.959945 0.866786
O O5 0.989448 0.750000 0.178826
O O6 0.061561 0.892034 0.122550
O O7 0.907693 0.889756 0.183600
O O8 0.750000 0.027633 0.585255
O O9 0.863159 0.919914 0.574983
O O10 0.842583 0.000723 0.777564
O O11 0.895500 0.080774 0.596680
O O12 0.250000 0.427525 0.845988
O O13 0.345537 0.530989 0.746475
O O14 0.362257 0.496897 0.978314
O O15 0.630044 0.750000 0.569981
O O16 0.509562 0.660604 0.506754
O O17 0.603765 0.250000 0.582393
O O18 0.633591 0.343618 0.397547
O O19 0.750000 0.150950 0.229892
#
# Coordination Sequence:
#
# PCOD9447034 Si02
#       8
#     8   8   8   8   8   8   8   8
#     4   9  16  33  54  77 107 142 184 226 270 326
#     4  11  20  32  52  79 111 148 183 221 273 334
#     4  11  23  37  59  84 115 155 187 225 277 335
#     4  10  19  35  57  80 107 139 181 232 282 330
#     4  10  19  36  53  76 109 150 188 217 261 332
#     4   9  19  36  60  88 113 141 185 239 285 330
#     4  10  22  40  60  83 110 145 190 234 276 331
#     4  10  18  31  56  81 103 134 175 232 286 321
#
# _framework density 21.335597
#
# number of rings (size 3 to 8) (size 9 to 14) (size 15 to 20)
#    0.000    2.000    2.500    2.250    0.000    2.500 
#    0.000    0.000    0.000    6.375    0.000    1.750 
#    0.000    0.000    0.000    0.000    0.000    0.000 
#
# Total GULP energy -357091.480468 kJ/mol
# GULP energy per Si atom -5579.554382 kJ/mol
# Density = 2.128704 g / cm^3
# Si number density = 21.335597 Si / 1000 Ang^3
#
#
#
# Elastic Constant Matrix: (Units=GPa)
#
#
# Indices 1 2 3 4 5 6 
#
# 1 48.4489 4.8855 0.0767 0.0000 0.0000 0.0000
# 2 4.8855 151.7899 16.3862 0.0000 0.0000 0.0000
# 3 0.0767 16.3862 31.5426 0.0000 0.0000 0.0000
# 4 0.0000 0.0000 0.0000 3.1621 0.0000 0.0000
# 5 0.0000 0.0000 0.0000 0.0000 14.1027 0.0000
# 6 0.0000 0.0000 0.0000 0.0000 0.0000 5.2794
#
#
#
# Elastic Compliance Matrix: (Units=1/GPa)
#
#
# Indices 1 2 3 4 5 6 
#
# 1 0.020710 -0.000700 0.000314 0.000000 0.000000 0.000000
# 2 -0.000700 0.007003 -0.003636 0.000000 0.000000 0.000000
# 3 0.000314 -0.003636 0.033591 0.000000 0.000000 0.000000
# 4 0.000000 0.000000 0.000000 0.316243 0.000000 0.000000
# 5 0.000000 0.000000 0.000000 0.000000 0.070908 0.000000
# 6 0.000000 0.000000 0.000000 0.000000 0.000000 0.189417
#
#
# Mechanical properties :
#
#
# Convention : Reuss Voigt Hill
#
# Bulk Modulus (GPa) = 18.77635 30.49756 24.63695
# Shear Modulus (GPa) = 7.53383 18.53771 13.03577
#
# Velocity S-wave (km/s) = 1.88116 2.95085 2.47450
# Velocity P-wave (km/s) = 3.67940 5.09266 4.44259
#
# Compressibility (1/GPa) = 0.05325850
#
# Stress axis : x y z
#
# Youngs Moduli (GPa) = 48.28482 142.79270 29.76944
#
# Poissons Ratio (x) = 0.10002 -0.00933
# Poissons Ratio (y) = 0.03382 0.10825
# Poissons Ratio (z) = -0.01514 0.51925
#
# Static dielectric constant tensor:
#      x y z
#    x 1.755690 0.000000 0.000000 
#    y 0.000000 1.835440 0.000000 
#    z 0.000000 0.000000 1.797640 
# 
# From -- ./inp_files/17878.got.cif
#   From: 2010.05.17/outbox.cif.g08.bks.cpg/sg59_9_cif.got.tgz:17878.got - 2010.06.03 14:40:33.
