data_PCOD9447505
_publ_section_title
;
Structure prediction by ZEFSAII (Michael W. Deem and Ramdas Pophale) SiO2 
 PCOD9447505
Probable space group: P M M N
;
_chemical_formula_sum "Si O2"
_cell_formula_units_Z 56
_cell_length_a 9.129160
_cell_length_b 13.997171
_cell_length_c 29.683520
_cell_angle_alpha 90.000000
_cell_angle_beta 90.000000
_cell_angle_gamma 90.000000
_cell_volume 3793.031830
_symmetry_space_group_name_H-M "P M M N"
_symmetry_group_IT_number 59
_space_group.IT_coordinate_system_code '2'
_symmetry_cell_setting 'orthorhombic'
loop_
_space_group_symop_operation_xyz
x,y,z
1/2-x,1/2-y,z
1/2+x,-y,-z
-x,1/2+y,-z
-x,-y,-z
1/2+x,1/2+y,-z
1/2-x,y,z
x,1/2-y,z
loop_
_atom_site_type_symbol
_atom_site_label
_atom_site_fract_x
_atom_site_fract_y
_atom_site_fract_z
Si Si1 0.074978 0.860879 0.975616
Si Si2 0.925644 0.637102 0.339058
Si Si3 0.424353 0.363942 0.845471
Si Si4 0.926049 0.966602 0.430920
Si Si5 0.918602 0.366045 0.753001
Si Si6 0.426144 0.359424 0.477001
Si Si7 0.924493 0.463731 0.929863
O O1 0.250000 0.870804 0.968187
O O2 0.035245 0.750000 0.970137
O O3 0.046113 0.895771 0.026805
O O4 0.989116 0.933239 0.943362
O O5 0.750000 0.628520 0.333351
O O6 0.956663 0.750000 0.346073
O O7 0.970132 0.578765 0.383363
O O8 0.005330 0.604259 0.293576
O O9 0.250000 0.377981 0.845281
O O10 0.452361 0.250000 0.851018
O O11 0.493007 0.394295 0.797624
O O12 0.498656 0.420106 0.886251
O O13 0.750000 0.977096 0.430697
O O14 0.963033 0.896023 0.472533
O O15 0.000100 0.066982 0.442711
O O16 0.750000 0.397033 0.755356
O O17 0.920328 0.250000 0.752497
O O18 0.250000 0.364543 0.472693
O O19 0.471765 0.250000 0.470849
O O20 0.750000 0.468454 0.923528
#
# Coordination Sequence:
#
# PCOD9447505 Si02
#       7
#     8   8   8   8   8   8   8
#     4   9  18  32  47  64  90 122 153 185 220 259
#     4   9  16  27  43  62  86 115 144 174 211 257
#     4  10  19  30  45  65  90 120 151 181 216 262
#     4   9  17  28  43  63  85 112 146 179 212 252
#     4   9  17  28  42  62  88 115 143 177 216 257
#     4   9  17  29  43  60  85 115 145 178 215 253
#     4  10  19  30  46  68  92 118 150 186 223 261
#
# _framework density 14.763915000000001
#
# number of rings (size 3 to 8) (size 9 to 14) (size 15 to 20)
#    0.000    2.714    0.000    2.143    0.000    6.571 
#    0.000    0.000    0.000    2.571    0.000    1.000 
#    0.000    3.429    0.000    0.000    0.000    0.000 
#
# Total GULP energy -312134.691580 kJ/mol
# GULP energy per Si atom -5573.833778 kJ/mol
# Density = 1.473031 g / cm^3
# Si number density = 14.763915 Si / 1000 Ang^3
#
#
#
# Elastic Constant Matrix: (Units=GPa)
#
#
# Indices 1 2 3 4 5 6 
#
# 1 55.7491 51.3251 69.1222 0.0000 0.0000 0.0000
# 2 51.3251 101.4385 69.9003 0.0000 0.0000 0.0000
# 3 69.1222 69.9003 147.9040 0.0000 0.0000 0.0000
# 4 0.0000 0.0000 0.0000 25.2138 0.0000 0.0000
# 5 0.0000 0.0000 0.0000 0.0000 27.9588 0.0000
# 6 0.0000 0.0000 0.0000 0.0000 0.0000 22.7919
#
#
#
# Elastic Compliance Matrix: (Units=1/GPa)
#
#
# Indices 1 2 3 4 5 6 
#
# 1 0.054477 -0.014859 -0.018437 0.000000 0.000000 0.000000
# 2 -0.014859 0.018672 -0.001880 0.000000 0.000000 0.000000
# 3 -0.018437 -0.001880 0.016266 0.000000 0.000000 0.000000
# 4 0.000000 0.000000 0.000000 0.039661 0.000000 0.000000
# 5 0.000000 0.000000 0.000000 0.000000 0.035767 0.000000
# 6 0.000000 0.000000 0.000000 0.000000 0.000000 0.043875
#
#
# Mechanical properties :
#
#
# Convention : Reuss Voigt Hill
#
# Bulk Modulus (GPa) = 52.45857 76.19853 64.32855
# Shear Modulus (GPa) = 17.51766 22.84251 20.18009
#
# Velocity S-wave (km/s) = 3.44833 3.93769 3.70111
# Velocity P-wave (km/s) = 7.17380 8.50866 7.86958
#
# Compressibility (1/GPa) = 0.01906266
#
# Stress axis : x y z
#
# Youngs Moduli (GPa) = 18.35623 53.55568 61.47685
#
# Poissons Ratio (x) = 0.79579 1.13346
# Poissons Ratio (y) = 0.27276 0.11559
# Poissons Ratio (z) = 0.33844 0.10070
#
# Static dielectric constant tensor:
#      x y z
#    x 1.491550 0.000000 0.000000 
#    y 0.000000 1.464870 0.000000 
#    z 0.000000 0.000000 1.472230 
# 
# From -- ./inp_files/33187.got.cif
#   From: 2010.05.17/outbox.cif.g08.bks.cpg/sg59_17_cif.got.tgz:33187.got - 2010.06.03 14:40:33.
