data_PCOD9447798
_publ_section_title
;
Structure prediction by ZEFSAII (Michael W. Deem and Ramdas Pophale) SiO2 
 PCOD9447798
Probable space group: P M M N
;
_chemical_formula_sum "Si O2"
_cell_formula_units_Z 48
_cell_length_a 13.910941
_cell_length_b 8.725385
_cell_length_c 18.074672
_cell_angle_alpha 90.000000
_cell_angle_beta 90.000000
_cell_angle_gamma 90.000000
_cell_volume 2193.873248
_symmetry_space_group_name_H-M "P M M N"
_symmetry_group_IT_number 59
_space_group.IT_coordinate_system_code '2'
_symmetry_cell_setting 'orthorhombic'
loop_
_space_group_symop_operation_xyz
x,y,z
1/2-x,1/2-y,z
1/2+x,-y,-z
-x,1/2+y,-z
-x,-y,-z
1/2+x,1/2+y,-z
1/2-x,y,z
x,1/2-y,z
loop_
_atom_site_type_symbol
_atom_site_label
_atom_site_fract_x
_atom_site_fract_y
_atom_site_fract_z
Si Si1 0.069106 0.433507 0.239342
Si Si2 0.648064 0.430871 0.214816
Si Si3 0.381638 0.076842 0.936462
Si Si4 0.859718 0.433753 0.447785
Si Si5 0.057180 0.568285 0.390303
Si Si6 0.888849 0.075226 0.913043
O O1 0.069938 0.250000 0.232213
O O2 0.122253 0.504255 0.168381
O O3 0.956886 0.490287 0.237530
O O4 0.103287 0.485969 0.319595
O O5 0.750000 0.493466 0.245240
O O6 0.647089 0.250000 0.230883
O O7 0.650407 0.460742 0.126941
O O8 0.350691 0.250000 0.920468
O O9 0.496792 0.078416 0.928558
O O10 0.353086 0.024724 0.018226
O O11 0.750000 0.482044 0.431254
O O12 0.865277 0.250000 0.435349
O O13 0.947681 0.510238 0.403830
O O14 0.884544 0.462734 0.534114
O O15 0.056278 0.750000 0.378156
O O16 0.855233 0.250000 0.915674
#
# Coordination Sequence:
#
# PCOD9447798 Si02
#       6
#     8   8   8   8   8   8
#     4  10  19  31  48  71 101 135 169 208 255 308
#     4   9  18  31  45  63  91 130 172 209 250 304
#     4   9  16  26  42  64  88 116 154 200 247 295
#     4   9  19  37  59  80 105 140 177 211 254 312
#     4  10  20  34  54  82 111 137 172 218 263 311
#     4   9  16  27  44  65  89 119 157 201 247 295
#
# _framework density 21.879111999999999
#
# number of rings (size 3 to 8) (size 9 to 14) (size 15 to 20)
#    0.000    2.667    0.000    2.000    0.000    6.667 
#    0.000    1.667    0.000    1.000    0.000    2.333 
#    0.000    0.000    0.000    0.000    0.000    0.000 
#
# Total GULP energy -267805.091576 kJ/mol
# GULP energy per Si atom -5579.272741 kJ/mol
# Density = 2.182931 g / cm^3
# Si number density = 21.879112 Si / 1000 Ang^3
#
#
#
# Elastic Constant Matrix: (Units=GPa)
#
#
# Indices 1 2 3 4 5 6 
#
# 1 78.8943 -4.5695 -12.5097 0.0000 0.0000 0.0000
# 2 -4.5695 30.1608 25.9224 0.0000 0.0000 0.0000
# 3 -12.5097 25.9224 125.7552 0.0000 0.0000 0.0000
# 4 0.0000 0.0000 0.0000 30.2082 0.0000 0.0000
# 5 0.0000 0.0000 0.0000 0.0000 -58.1211 0.0000
# 6 0.0000 0.0000 0.0000 0.0000 0.0000 -9.9745
#
#
#
# Elastic Compliance Matrix: (Units=1/GPa)
#
#
# Indices 1 2 3 4 5 6 
#
# 1 0.012905 0.001035 0.001070 0.000000 0.000000 0.000000
# 2 0.001035 0.040377 -0.008220 0.000000 0.000000 0.000000
# 3 0.001070 -0.008220 0.009753 0.000000 0.000000 0.000000
# 4 0.000000 0.000000 0.000000 0.033104 0.000000 0.000000
# 5 0.000000 0.000000 0.000000 0.000000 -0.017205 0.000000
# 6 0.000000 0.000000 0.000000 0.000000 0.000000 -0.100255
#
#
# Mechanical properties :
#
#
# Convention : Reuss Voigt Hill
#
# Bulk Modulus (GPa) = 19.68273 28.05520 23.86897
# Shear Modulus (GPa) = 637.54220 7.48699 322.51459
#
# Velocity S-wave (km/s) = 17.08876 1.85187 12.15432
# Velocity P-wave (km/s) = 19.95954 4.17411 14.41885
#
# Compressibility (1/GPa) = 0.05080595
#
# Stress axis : x y z
#
# Youngs Moduli (GPa) = 77.49016 24.76628 102.53369
#
# Poissons Ratio (x) = -0.02564 -0.10975
# Poissons Ratio (y) = -0.08022 0.84285
# Poissons Ratio (z) = -0.08294 0.20358
#
# Static dielectric constant tensor:
#      x y z
#    x 1.851350 0.000000 0.000000 
#    y 0.000000 1.748620 0.000000 
#    z 0.000000 0.000000 1.792270 
# 
# From -- ./inp_files/27363.got.cif
#   From: 2010.05.17/outbox.cif.g08.bks.cpg/sg59_14_cif.got.tgz:27363.got - 2010.06.03 14:40:33.
