data_PCOD9447044
_publ_section_title
;
Structure prediction by ZEFSAII (Michael W. Deem and Ramdas Pophale) SiO2 
 PCOD9447044
Probable space group: P M M N
;
_chemical_formula_sum "Si O2"
_cell_formula_units_Z 48
_cell_length_a 8.498739
_cell_length_b 10.304962
_cell_length_c 30.249851
_cell_angle_alpha 90.000000
_cell_angle_beta 90.000000
_cell_angle_gamma 90.000000
_cell_volume 2649.257220
_symmetry_space_group_name_H-M "P M M N"
_symmetry_group_IT_number 59
_space_group.IT_coordinate_system_code '2'
_symmetry_cell_setting 'orthorhombic'
loop_
_space_group_symop_operation_xyz
x,y,z
1/2-x,1/2-y,z
1/2+x,-y,-z
-x,1/2+y,-z
-x,-y,-z
1/2+x,1/2+y,-z
1/2-x,y,z
x,1/2-y,z
loop_
_atom_site_type_symbol
_atom_site_label
_atom_site_fract_x
_atom_site_fract_y
_atom_site_fract_z
Si Si1 0.069394 0.407235 0.131009
Si Si2 0.559884 0.250000 0.436080
Si Si3 0.059718 0.250000 0.535841
Si Si4 0.562461 0.399725 0.036119
Si Si5 0.058034 0.476945 0.601936
Si Si6 0.442340 0.102681 0.700394
Si Si7 0.060355 0.899561 0.774321
O O1 0.250000 0.449377 0.129992
O O2 0.064795 0.250000 0.131590
O O3 0.986504 0.444297 0.085350
O O4 0.990800 0.446685 0.177098
O O5 0.750000 0.250000 0.435299
O O6 0.506757 0.250000 0.486764
O O7 0.505530 0.379812 0.411465
O O8 0.250000 0.250000 0.533339
O O9 0.009932 0.375036 0.564335
O O10 0.750000 0.396303 0.033611
O O11 0.504549 0.250000 0.029654
O O12 0.500000 0.500000 0.000000
O O13 0.250000 0.475703 0.602569
O O14 0.007252 0.434033 0.650728
O O15 0.250000 0.100906 0.700478
O O16 0.490768 0.250000 0.710838
O O17 0.495197 0.996800 0.736147
O O18 0.250000 0.896805 0.773121
O O19 0.005819 0.750000 0.767825
#
# Coordination Sequence:
#
# PCOD9447044 Si02
#       7
#     8   4   4   8   8   8   8
#     4   9  17  31  51  73 100 136 173 208 251 303
#     4  10  20  30  46  72  96 116 150 198 237 270
#     4  10  18  32  50  66  90 126 158 184 227 288
#     4  10  20  34  54  80 110 143 181 223 265 311
#     4   9  17  29  46  69  94 120 152 192 235 281
#     4   9  16  28  46  69  95 121 152 191 239 291
#     4   9  17  28  47  74  96 116 152 204 249 286
#
# _framework density 18.118285
#
# number of rings (size 3 to 8) (size 9 to 14) (size 15 to 20)
#    0.000    2.667    0.833    1.500    1.167    3.000 
#    0.000    0.833    0.000    5.500    0.000    0.000 
#    0.000    0.000    0.000    0.000    0.000    0.000 
#
# Total GULP energy -267603.035806 kJ/mol
# GULP energy per Si atom -5575.063246 kJ/mol
# Density = 1.807705 g / cm^3
# Si number density = 18.118285 Si / 1000 Ang^3
#
#
#
# Elastic Constant Matrix: (Units=GPa)
#
#
# Indices 1 2 3 4 5 6 
#
# 1 11.1539 14.5976 15.0175 0.0000 0.0000 0.0000
# 2 14.5976 123.3156 76.4474 0.0000 0.0000 0.0000
# 3 15.0175 76.4474 143.2305 0.0000 0.0000 0.0000
# 4 0.0000 0.0000 0.0000 34.5752 0.0000 0.0000
# 5 0.0000 0.0000 0.0000 0.0000 26.2833 0.0000
# 6 0.0000 0.0000 0.0000 0.0000 0.0000 9.2251
#
#
#
# Elastic Compliance Matrix: (Units=1/GPa)
#
#
# Indices 1 2 3 4 5 6 
#
# 1 0.110446 -0.008810 -0.006878 0.000000 0.000000 0.000000
# 2 -0.008810 0.012822 -0.005920 0.000000 0.000000 0.000000
# 3 -0.006878 -0.005920 0.010863 0.000000 0.000000 0.000000
# 4 0.000000 0.000000 0.000000 0.028922 0.000000 0.000000
# 5 0.000000 0.000000 0.000000 0.000000 0.038047 0.000000
# 6 0.000000 0.000000 0.000000 0.000000 0.000000 0.108400
#
#
# Mechanical properties :
#
#
# Convention : Reuss Voigt Hill
#
# Bulk Modulus (GPa) = 10.99937 54.42500 32.71219
# Shear Modulus (GPa) = 13.05414 25.45921 19.25667
#
# Velocity S-wave (km/s) = 2.68712 3.75262 3.26365
# Velocity P-wave (km/s) = 3.96377 6.99143 5.68294
#
# Compressibility (1/GPa) = 0.09091431
#
# Stress axis : x y z
#
# Youngs Moduli (GPa) = 9.05424 77.99008 92.05964
#
# Poissons Ratio (x) = 0.68713 0.63315
# Poissons Ratio (y) = 0.07977 0.54498
# Poissons Ratio (z) = 0.06227 0.46169
#
# Static dielectric constant tensor:
#      x y z
#    x 1.626780 0.000000 0.000000 
#    y 0.000000 1.625560 0.000000 
#    z 0.000000 0.000000 1.595500 
# 
# From -- ./inp_files/32983.got.cif
#   From: 2010.05.17/outbox.cif.g08.bks.cpg/sg59_17_cif.got.tgz:32983.got - 2010.06.03 14:40:33.
