data_PCOD9447126
_publ_section_title
;
Structure prediction by ZEFSAII (Michael W. Deem and Ramdas Pophale) SiO2 
 PCOD9447126
Probable space group: P M M N
;
_chemical_formula_sum "Si O2"
_cell_formula_units_Z 64
_cell_length_a 14.920225
_cell_length_b 18.732541
_cell_length_c 12.882963
_cell_angle_alpha 90.000000
_cell_angle_beta 90.000000
_cell_angle_gamma 90.000000
_cell_volume 3600.707338
_symmetry_space_group_name_H-M "P M M N"
_symmetry_group_IT_number 59
_space_group.IT_coordinate_system_code '2'
_symmetry_cell_setting 'orthorhombic'
loop_
_space_group_symop_operation_xyz
x,y,z
1/2-x,1/2-y,z
1/2+x,-y,-z
-x,1/2+y,-z
-x,-y,-z
1/2+x,1/2+y,-z
1/2-x,y,z
x,1/2-y,z
loop_
_atom_site_type_symbol
_atom_site_label
_atom_site_fract_x
_atom_site_fract_y
_atom_site_fract_z
Si Si1 0.850468 0.918374 0.737765
Si Si2 0.142233 0.169686 0.063154
Si Si3 0.494666 0.335607 0.592748
Si Si4 0.852574 0.549140 0.324320
Si Si5 0.098439 0.455280 0.910083
Si Si6 0.016545 0.561460 0.584718
Si Si7 0.850647 0.166475 0.761090
Si Si8 0.111762 0.539936 0.102228
O O1 0.750000 0.906201 0.694891
O O2 0.874951 0.855968 0.819362
O O3 0.928219 0.929274 0.654783
O O4 0.846978 0.987582 0.812083
O O5 0.250000 0.166058 0.050312
O O6 0.111860 0.250000 0.046098
O O7 0.101403 0.115486 0.980666
O O8 0.477382 0.250000 0.590835
O O9 0.410066 0.384692 0.627910
O O10 0.527886 0.366403 0.481956
O O11 0.573001 0.350506 0.676879
O O12 0.750000 0.550174 0.361211
O O13 0.855245 0.555612 0.199577
O O14 0.901874 0.474012 0.351534
O O15 0.994771 0.472130 0.888906
O O16 0.137673 0.515696 0.986769
O O17 0.000000 0.500000 0.500000
O O18 0.750000 0.152352 0.720512
O O19 0.857475 0.250000 0.784676
O O20 0.865424 0.118978 0.862599
#
# Coordination Sequence:
#
# PCOD9447126 Si02
#       8
#     8   8   8   8   8   8   8   8
#     4  10  19  34  57  79 104 141 181 228 276 316
#     4   9  19  33  50  79 113 144 182 220 263 327
#     4  10  22  40  59  82 113 143 183 235 283 334
#     4  11  22  37  56  81 115 151 184 221 272 335
#     4  10  19  32  54  81 110 147 181 218 264 321
#     4  10  21  37  55  80 109 141 186 234 277 330
#     4  10  20  35  57  82 107 139 180 229 282 325
#     4  10  18  32  55  79 108 138 181 226 264 315
#
# _framework density 17.774287000000001
#
# number of rings (size 3 to 8) (size 9 to 14) (size 15 to 20)
#    0.000    2.000    2.500    1.500    0.000    5.750 
#    0.000    0.000    0.000    0.000    0.000    0.000 
#    0.000    0.000    0.000    0.000    0.000    0.000 
#
# Total GULP energy -356746.225016 kJ/mol
# GULP energy per Si atom -5574.159766 kJ/mol
# Density = 1.773383 g / cm^3
# Si number density = 17.774287 Si / 1000 Ang^3
#
#
#
# Elastic Constant Matrix: (Units=GPa)
#
#
# Indices 1 2 3 4 5 6 
#
# 1 105.8150 54.5376 38.6029 0.0000 0.0000 0.0000
# 2 54.5376 84.5718 50.1755 0.0000 0.0000 0.0000
# 3 38.6029 50.1755 77.9594 0.0000 0.0000 0.0000
# 4 0.0000 0.0000 0.0000 19.5572 0.0000 0.0000
# 5 0.0000 0.0000 0.0000 0.0000 0.0911 0.0000
# 6 0.0000 0.0000 0.0000 0.0000 0.0000 8.2865
#
#
#
# Elastic Compliance Matrix: (Units=1/GPa)
#
#
# Indices 1 2 3 4 5 6 
#
# 1 0.014319 -0.008133 -0.001856 0.000000 0.000000 0.000000
# 2 -0.008133 0.023748 -0.011257 0.000000 0.000000 0.000000
# 3 -0.001856 -0.011257 0.020991 0.000000 0.000000 0.000000
# 4 0.000000 0.000000 0.000000 0.051132 0.000000 0.000000
# 5 0.000000 0.000000 0.000000 0.000000 10.977870 0.000000
# 6 0.000000 0.000000 0.000000 0.000000 0.000000 0.120678
#
#
# Mechanical properties :
#
#
# Convention : Reuss Voigt Hill
#
# Bulk Modulus (GPa) = 60.36341 61.66425 61.01383
# Shear Modulus (GPa) = 0.44418 13.92229 7.18324
#
# Velocity S-wave (km/s) = 0.50044 2.80176 2.01250
# Velocity P-wave (km/s) = 5.86249 6.72568 6.30886
#
# Compressibility (1/GPa) = 0.01656633
#
# Stress axis : x y z
#
# Youngs Moduli (GPa) = 69.83582 42.10947 47.63847
#
# Poissons Ratio (x) = 0.34247 0.08842
# Poissons Ratio (y) = 0.56797 0.53627
# Poissons Ratio (z) = 0.12962 0.47403
#
# Static dielectric constant tensor:
#      x y z
#    x 1.634030 0.000000 0.000000 
#    y 0.000000 1.620900 0.000000 
#    z 0.000000 0.000000 1.613210 
# 
# From -- ./inp_files/17257.got.cif
#   From: 2010.05.17/outbox.cif.g08.bks.cpg/sg59_9_cif.got.tgz:17257.got - 2010.06.03 14:40:33.
