data_PCOD9447236
_publ_section_title
;
Structure prediction by ZEFSAII (Michael W. Deem and Ramdas Pophale) SiO2 
 PCOD9447236
Probable space group: P M M N
;
_chemical_formula_sum "Si O2"
_cell_formula_units_Z 64
_cell_length_a 17.730973
_cell_length_b 15.792262
_cell_length_c 11.983012
_cell_angle_alpha 90.000000
_cell_angle_beta 90.000000
_cell_angle_gamma 90.000000
_cell_volume 3355.389207
_symmetry_space_group_name_H-M "P M M N"
_symmetry_group_IT_number 59
_space_group.IT_coordinate_system_code '2'
_symmetry_cell_setting 'orthorhombic'
loop_
_space_group_symop_operation_xyz
x,y,z
1/2-x,1/2-y,z
1/2+x,-y,-z
-x,1/2+y,-z
-x,-y,-z
1/2+x,1/2+y,-z
1/2-x,y,z
x,1/2-y,z
loop_
_atom_site_type_symbol
_atom_site_label
_atom_site_fract_x
_atom_site_fract_y
_atom_site_fract_z
Si Si1 0.599872 0.555589 0.779680
Si Si2 0.666062 0.980666 0.546595
Si Si3 0.590572 0.345331 0.994701
Si Si4 0.559479 0.847341 0.418885
Si Si5 0.395402 0.848642 0.535638
Si Si6 0.965404 0.346456 0.246147
Si Si7 0.529614 0.584800 0.173291
Si Si8 0.663391 0.521335 0.012524
O O1 0.651135 0.526886 0.678658
O O2 0.553541 0.637096 0.741717
O O3 0.529073 0.490957 0.797521
O O4 0.642440 0.566453 0.895844
O O5 0.750000 0.953044 0.517797
O O6 0.608054 0.919191 0.481670
O O7 0.655876 0.079716 0.518504
O O8 0.620914 0.250000 0.984391
O O9 0.558210 0.357868 0.119083
O O10 0.649122 0.422064 0.983378
O O11 0.521677 0.357984 0.908665
O O12 0.587093 0.750000 0.432532
O O13 0.475328 0.849774 0.470851
O O14 0.553233 0.870439 0.287725
O O15 0.367777 0.750000 0.533366
O O16 0.414015 0.887522 0.658970
O O17 0.951905 0.250000 0.274047
O O18 0.601740 0.550747 0.104013
O O19 0.750000 0.535351 0.045279
#
# Coordination Sequence:
#
# PCOD9447236 Si02
#       8
#     8   8   8   8   8   8   8   8
#     4  11  19  39  61  85 115 154 208 249 285 354
#     4  12  25  39  61  89 125 165 196 248 315 363
#     4  10  20  36  60  87 113 149 199 246 291 349
#     4  11  23  39  63  90 116 155 207 250 291 355
#     4  10  21  39  63  90 118 154 202 252 295 353
#     4  10  18  33  62  88 106 141 200 255 289 332
#     4  11  20  38  63  86 114 159 203 246 291 349
#     4  11  23  37  56  87 123 158 192 239 309 365
#
# _framework density 19.073792999999998
#
# number of rings (size 3 to 8) (size 9 to 14) (size 15 to 20)
#    0.000    1.250    5.000    2.625    0.000    1.250 
#    0.000    0.000    0.000    7.500    0.000    0.000 
#    0.000    0.000    0.000    0.000    0.000    0.000 
#
# Total GULP energy -356767.684651 kJ/mol
# GULP energy per Si atom -5574.495073 kJ/mol
# Density = 1.903038 g / cm^3
# Si number density = 19.073793 Si / 1000 Ang^3
#
#
#
# Elastic Constant Matrix: (Units=GPa)
#
#
# Indices 1 2 3 4 5 6 
#
# 1 60.9177 6.5674 7.4582 0.0000 0.0000 0.0000
# 2 6.5674 35.2986 18.5967 0.0000 0.0000 0.0000
# 3 7.4582 18.5967 86.4704 0.0000 0.0000 0.0000
# 4 0.0000 0.0000 0.0000 21.8677 0.0000 0.0000
# 5 0.0000 0.0000 0.0000 0.0000 8.6892 0.0000
# 6 0.0000 0.0000 0.0000 0.0000 0.0000 8.2475
#
#
#
# Elastic Compliance Matrix: (Units=1/GPa)
#
#
# Indices 1 2 3 4 5 6 
#
# 1 0.016810 -0.002666 -0.000877 0.000000 0.000000 0.000000
# 2 -0.002666 0.032373 -0.006732 0.000000 0.000000 0.000000
# 3 -0.000877 -0.006732 0.013088 0.000000 0.000000 0.000000
# 4 0.000000 0.000000 0.000000 0.045730 0.000000 0.000000
# 5 0.000000 0.000000 0.000000 0.000000 0.115085 0.000000
# 6 0.000000 0.000000 0.000000 0.000000 0.000000 0.121249
#
#
# Mechanical properties :
#
#
# Convention : Reuss Voigt Hill
#
# Bulk Modulus (GPa) = 23.96835 27.54793 25.75814
# Shear Modulus (GPa) = 13.19986 17.76515 15.48251
#
# Velocity S-wave (km/s) = 2.63352 3.05518 2.85215
# Velocity P-wave (km/s) = 4.67340 5.18842 4.93763
#
# Compressibility (1/GPa) = 0.04172168
#
# Stress axis : x y z
#
# Youngs Moduli (GPa) = 59.48730 30.89041 76.40507
#
# Poissons Ratio (x) = 0.08235 0.06698
# Poissons Ratio (y) = 0.15858 0.51438
# Poissons Ratio (z) = 0.05215 0.20796
#
# Static dielectric constant tensor:
#      x y z
#    x 1.642260 0.000000 0.000000 
#    y 0.000000 1.746390 0.000000 
#    z 0.000000 0.000000 1.701590 
# 
# From -- ./inp_files/17186.got.cif
#   From: 2010.05.17/outbox.cif.g08.bks.cpg/sg59_9_cif.got.tgz:17186.got - 2010.06.03 14:40:33.
