data_PCOD9447766
_publ_section_title
;
Structure prediction by ZEFSAII (Michael W. Deem and Ramdas Pophale) SiO2 
 PCOD9447766
Probable space group: P M M N
;
_chemical_formula_sum "Si O2"
_cell_formula_units_Z 56
_cell_length_a 14.339697
_cell_length_b 8.937451
_cell_length_c 26.971848
_cell_angle_alpha 90.000000
_cell_angle_beta 90.000000
_cell_angle_gamma 90.000000
_cell_volume 3456.721191
_symmetry_space_group_name_H-M "P M M N"
_symmetry_group_IT_number 59
_space_group.IT_coordinate_system_code '2'
_symmetry_cell_setting 'orthorhombic'
loop_
_space_group_symop_operation_xyz
x,y,z
1/2-x,1/2-y,z
1/2+x,-y,-z
-x,1/2+y,-z
-x,-y,-z
1/2+x,1/2+y,-z
1/2-x,y,z
x,1/2-y,z
loop_
_atom_site_type_symbol
_atom_site_label
_atom_site_fract_x
_atom_site_fract_y
_atom_site_fract_z
Si Si1 0.534841 0.930662 0.629651
Si Si2 0.357545 0.430368 0.976296
Si Si3 0.355972 0.570127 0.574509
Si Si4 0.358678 0.069904 0.172822
Si Si5 0.361557 0.074427 0.471001
Si Si6 0.141231 0.928798 0.278789
Si Si7 0.970103 0.930257 0.924521
O O1 0.541372 0.750000 0.634298
O O2 0.428450 0.973023 0.617076
O O3 0.591522 0.975275 0.580061
O O4 0.578039 0.004721 0.677882
O O5 0.250000 0.478703 0.971279
O O6 0.359719 0.250000 0.972556
O O7 0.429924 0.499229 0.937129
O O8 0.399891 0.470342 0.030359
O O9 0.250000 0.517051 0.582596
O O10 0.355210 0.750000 0.572333
O O11 0.388780 0.511773 0.520872
O O12 0.250000 0.033968 0.161680
O O13 0.364653 0.250000 0.177755
O O14 0.424390 0.023288 0.127411
O O15 0.383314 0.994998 0.225004
O O16 0.250000 0.058797 0.465862
O O17 0.383500 0.250000 0.477693
O O18 0.250000 0.969524 0.288338
O O19 0.134461 0.750000 0.277809
O O20 0.978429 0.750000 0.924475
#
# Coordination Sequence:
#
# PCOD9447766 Si02
#       7
#     8   8   8   8   8   8   8
#     4  10  19  31  48  67  90 122 154 184 223 271
#     4   9  17  29  45  68 100 133 161 192 233 277
#     4   9  18  31  46  66  91 118 150 187 224 263
#     4   9  17  31  51  71  93 123 155 187 226 273
#     4   9  17  28  43  65  91 118 149 183 220 268
#     4  10  21  34  48  70  96 118 145 186 233 277
#     4   9  17  29  47  71  96 125 163 199 229 269
#
# _framework density 16.200322
#
# number of rings (size 3 to 8) (size 9 to 14) (size 15 to 20)
#    0.000    2.714    0.000    1.714    0.000    5.143 
#    0.000    1.429    0.000    3.429    0.000    2.000 
#    0.000    0.000    0.000    0.000    0.000    0.000 
#
# Total GULP energy -312211.600346 kJ/mol
# GULP energy per Si atom -5575.207149 kJ/mol
# Density = 1.616345 g / cm^3
# Si number density = 16.200322 Si / 1000 Ang^3
#
#
#
# Elastic Constant Matrix: (Units=GPa)
#
#
# Indices 1 2 3 4 5 6 
#
# 1 120.7480 35.3186 93.2032 0.0000 0.0000 0.0000
# 2 35.3186 14.3410 37.8680 0.0000 0.0000 0.0000
# 3 93.2032 37.8680 142.8070 0.0000 0.0000 0.0000
# 4 0.0000 0.0000 0.0000 26.9145 0.0000 0.0000
# 5 0.0000 0.0000 0.0000 0.0000 31.6169 0.0000
# 6 0.0000 0.0000 0.0000 0.0000 0.0000 21.1152
#
#
#
# Elastic Compliance Matrix: (Units=1/GPa)
#
#
# Indices 1 2 3 4 5 6 
#
# 1 0.029615 -0.073041 0.000040 0.000000 0.000000 0.000000
# 2 -0.073041 0.412727 -0.061772 0.000000 0.000000 0.000000
# 3 0.000040 -0.061772 0.023357 0.000000 0.000000 0.000000
# 4 0.000000 0.000000 0.000000 0.037155 0.000000 0.000000
# 5 0.000000 0.000000 0.000000 0.000000 0.031629 0.000000
# 6 0.000000 0.000000 0.000000 0.000000 0.000000 0.047359
#
#
# Mechanical properties :
#
#
# Convention : Reuss Voigt Hill
#
# Bulk Modulus (GPa) = 5.09809 67.85285 36.47547
# Shear Modulus (GPa) = 5.45391 23.36304 14.40848
#
# Velocity S-wave (km/s) = 1.83681 3.80166 2.98551
# Velocity P-wave (km/s) = 2.76626 7.82590 5.86928
#
# Compressibility (1/GPa) = 0.19615196
#
# Stress axis : x y z
#
# Youngs Moduli (GPa) = 33.76616 2.42291 42.81427
#
# Poissons Ratio (x) = 0.17697 -0.00170
# Poissons Ratio (y) = 2.46631 2.64474
# Poissons Ratio (z) = -0.00134 0.14967
#
# Static dielectric constant tensor:
#      x y z
#    x 1.558520 0.000000 0.000000 
#    y 0.000000 1.545120 0.000000 
#    z 0.000000 0.000000 1.513570 
# 
# From -- ./inp_files/30374.got.cif
#   From: 2010.05.17/outbox.cif.g08.bks.cpg/sg59_16_cif.got.tgz:30374.got - 2010.06.03 14:40:33.
