data_PCOD9447145
_publ_section_title
;
Structure prediction by ZEFSAII (Michael W. Deem and Ramdas Pophale) SiO2 
 PCOD9447145
Probable space group: P M M N
;
_chemical_formula_sum "Si O2"
_cell_formula_units_Z 34
_cell_length_a 11.074925
_cell_length_b 7.318541
_cell_length_c 19.307543
_cell_angle_alpha 90.000000
_cell_angle_beta 90.000000
_cell_angle_gamma 90.000000
_cell_volume 1564.920626
_symmetry_space_group_name_H-M "P M M N"
_symmetry_group_IT_number 59
_space_group.IT_coordinate_system_code '2'
_symmetry_cell_setting 'orthorhombic'
loop_
_space_group_symop_operation_xyz
x,y,z
1/2-x,1/2-y,z
1/2+x,-y,-z
-x,1/2+y,-z
-x,-y,-z
1/2+x,1/2+y,-z
1/2-x,y,z
x,1/2-y,z
loop_
_atom_site_type_symbol
_atom_site_label
_atom_site_fract_x
_atom_site_fract_y
_atom_site_fract_z
Si Si1 0.750000 0.970033 0.084052
Si Si2 0.884836 0.470835 0.709532
Si Si3 0.498022 0.527034 0.150727
Si Si4 0.250000 0.750000 0.603222
Si Si5 0.534893 0.965721 0.420554
Si Si6 0.750000 0.035936 0.920698
O O1 0.750000 0.750000 0.089552
O O2 0.625307 0.035167 0.119164
O O3 0.750000 0.016537 0.003091
O O4 0.750000 0.536841 0.724661
O O5 0.880809 0.250000 0.713489
O O6 0.976871 0.528209 0.769642
O O7 0.927636 0.515181 0.632649
O O8 0.500508 0.750000 0.147380
O O9 0.377200 0.465360 0.109781
O O10 0.354311 0.591105 0.599422
O O11 0.560155 0.750000 0.411705
O O12 0.500000 0.000000 0.500000
O O13 0.750000 0.250000 0.901862
#
# Coordination Sequence:
#
# PCOD9447145 Si02
#       6
#     4   8   8   2   8   4
#     4  10  20  31  51  81 119 154 191 252 316 381
#     4   9  18  35  64  94 121 158 216 270 317 385
#     4   9  17  32  55  85 113 154 208 256 310 381
#     4  12  26  46  64  96 144 172 220 274 340 398
#     4  11  24  42  71 102 131 178 223 277 335 398
#     4  10  18  32  56  80 109 152 202 251 310 381
#
# _framework density 21.72634
#
# number of rings (size 3 to 8) (size 9 to 14) (size 15 to 20)
#    0.000    2.118    2.353    1.059    1.647    0.941 
#    0.000    4.118    7.765    0.000    0.000    0.000 
#    0.000    0.000    0.000    0.000    0.000    0.000 
#
# Total GULP energy -189390.690214 kJ/mol
# GULP energy per Si atom -5570.314418 kJ/mol
# Density = 2.167689 g / cm^3
# Si number density = 21.726340 Si / 1000 Ang^3
#
#
#
# Elastic Constant Matrix: (Units=GPa)
#
#
# Indices 1 2 3 4 5 6 
#
# 1 154.6459 15.3138 62.5040 0.0000 0.0000 0.0000
# 2 15.3138 111.0979 -13.8122 0.0000 0.0000 0.0000
# 3 62.5040 -13.8122 145.6704 0.0000 0.0000 0.0000
# 4 0.0000 0.0000 0.0000 18.2332 0.0000 0.0000
# 5 0.0000 0.0000 0.0000 0.0000 -40.7055 0.0000
# 6 0.0000 0.0000 0.0000 0.0000 0.0000 7.9863
#
#
#
# Elastic Compliance Matrix: (Units=1/GPa)
#
#
# Indices 1 2 3 4 5 6 
#
# 1 0.008083 -0.001564 -0.003616 0.000000 0.000000 0.000000
# 2 -0.001564 0.009411 0.001563 0.000000 0.000000 0.000000
# 3 -0.003616 0.001563 0.008565 0.000000 0.000000 0.000000
# 4 0.000000 0.000000 0.000000 0.054845 0.000000 0.000000
# 5 0.000000 0.000000 0.000000 0.000000 -0.024567 0.000000
# 6 0.000000 0.000000 0.000000 0.000000 0.000000 0.125214
#
#
# Mechanical properties :
#
#
# Convention : Reuss Voigt Hill
#
# Bulk Modulus (GPa) = 53.12134 59.93614 56.52874
# Shear Modulus (GPa) = 25.63318 20.26337 22.94827
#
# Velocity S-wave (km/s) = 3.43858 3.05727 3.25351
# Velocity P-wave (km/s) = 6.34574 6.33319 6.33946
#
# Compressibility (1/GPa) = 0.01882483
#
# Stress axis : x y z
#
# Youngs Moduli (GPa) = 123.71753 106.25883 116.75700
#
# Poissons Ratio (x) = 0.16616 0.42225
# Poissons Ratio (y) = 0.19347 -0.18253
# Poissons Ratio (z) = 0.44742 -0.16612
#
# Static dielectric constant tensor:
#      x y z
#    x 1.749270 0.000000 0.000000 
#    y 0.000000 1.822550 0.000000 
#    z 0.000000 0.000000 1.755740 
# 
# From -- ./inp_files/28633.got.cif
#   From: 2010.05.17/outbox.cif.g08.bks.cpg/sg59_15_cif.got.tgz:28633.got - 2010.06.03 14:40:33.
