data_PCOD9447977
_publ_section_title
;
Structure prediction by ZEFSAII (Michael W. Deem and Ramdas Pophale) SiO2 
 PCOD9447977
Probable space group: P M M N
;
_chemical_formula_sum "Si O2"
_cell_formula_units_Z 64
_cell_length_a 8.776995
_cell_length_b 21.918763
_cell_length_c 17.060682
_cell_angle_alpha 90.000000
_cell_angle_beta 90.000000
_cell_angle_gamma 90.000000
_cell_volume 3282.148902
_symmetry_space_group_name_H-M "P M M N"
_symmetry_group_IT_number 59
_space_group.IT_coordinate_system_code '2'
_symmetry_cell_setting 'orthorhombic'
loop_
_space_group_symop_operation_xyz
x,y,z
1/2-x,1/2-y,z
1/2+x,-y,-z
-x,1/2+y,-z
-x,-y,-z
1/2+x,1/2+y,-z
1/2-x,y,z
x,1/2-y,z
loop_
_atom_site_type_symbol
_atom_site_label
_atom_site_fract_x
_atom_site_fract_y
_atom_site_fract_z
Si Si1 0.566042 0.992396 0.174071
Si Si2 0.565817 0.320475 0.560362
Si Si3 0.933209 0.375052 0.235976
Si Si4 0.418480 0.181973 0.825935
Si Si5 0.573071 0.393679 0.708955
Si Si6 0.431297 0.321187 0.390789
Si Si7 0.433018 0.817496 0.922869
Si Si8 0.076326 0.084227 0.965632
O O1 0.750000 0.989604 0.169065
O O2 0.520617 0.059423 0.201091
O O3 0.512666 0.946232 0.242454
O O4 0.510732 0.972214 0.086498
O O5 0.750000 0.320486 0.561179
O O6 0.516871 0.250000 0.577773
O O7 0.515268 0.369946 0.625012
O O8 0.506875 0.336486 0.474064
O O9 0.750000 0.375187 0.245318
O O10 0.972124 0.326345 0.168562
O O11 0.008114 0.360224 0.318505
O O12 0.250000 0.177058 0.787596
O O13 0.436826 0.250000 0.855447
O O14 0.548087 0.164625 0.765064
O O15 0.418678 0.135129 0.896725
O O16 0.750000 0.410202 0.702822
O O17 0.250000 0.326923 0.397579
O O18 0.468757 0.250000 0.374994
O O19 0.250000 0.817713 0.930113
O O20 0.487964 0.750000 0.949524
O O21 0.490100 0.877997 0.967723
O O22 0.250000 0.070536 0.990447
#
# Coordination Sequence:
#
# PCOD9447977 Si02
#       8
#     8   8   8   8   8   8   8   8
#     4   9  20  38  56  75 103 142 184 220 258 310
#     4   9  18  33  53  78 109 143 176 211 258 317
#     4  10  21  39  60  77 100 139 182 221 264 315
#     4   9  17  29  46  69 101 142 180 213 257 312
#     4  10  19  31  50  77 107 138 176 221 264 309
#     4  10  21  36  56  84 112 135 167 216 269 316
#     4  10  21  35  53  80 108 133 169 218 268 317
#     4   9  18  33  51  73 104 139 173 211 257 309
#
# _framework density 19.499421000000002
#
# number of rings (size 3 to 8) (size 9 to 14) (size 15 to 20)
#    0.000    2.500    0.000    2.625    0.000    7.250 
#    0.000    1.875    0.000    0.000    0.000    0.000 
#    0.000    0.000    0.000    0.000    0.000    0.000 
#
# Total GULP energy -356681.431958 kJ/mol
# GULP energy per Si atom -5573.147374 kJ/mol
# Density = 1.945504 g / cm^3
# Si number density = 19.499421 Si / 1000 Ang^3
#
#
#
# Elastic Constant Matrix: (Units=GPa)
#
#
# Indices 1 2 3 4 5 6 
#
# 1 10.5365 12.0358 19.9403 0.0000 0.0000 0.0000
# 2 12.0358 61.5619 31.1630 0.0000 0.0000 0.0000
# 3 19.9403 31.1630 111.0796 0.0000 0.0000 0.0000
# 4 0.0000 0.0000 0.0000 25.7522 0.0000 0.0000
# 5 0.0000 0.0000 0.0000 0.0000 22.9329 0.0000
# 6 0.0000 0.0000 0.0000 0.0000 0.0000 23.0461
#
#
#
# Elastic Compliance Matrix: (Units=1/GPa)
#
#
# Indices 1 2 3 4 5 6 
#
# 1 0.162039 -0.019762 -0.023544 0.000000 0.000000 0.000000
# 2 -0.019762 0.021343 -0.002440 0.000000 0.000000 0.000000
# 3 -0.023544 -0.002440 0.013914 0.000000 0.000000 0.000000
# 4 0.000000 0.000000 0.000000 0.038832 0.000000 0.000000
# 5 0.000000 0.000000 0.000000 0.000000 0.043605 0.000000
# 6 0.000000 0.000000 0.000000 0.000000 0.000000 0.043391
#
#
# Mechanical properties :
#
#
# Convention : Reuss Voigt Hill
#
# Bulk Modulus (GPa) = 9.45147 34.38402 21.91774
# Shear Modulus (GPa) = 11.11399 22.34884 16.73141
#
# Velocity S-wave (km/s) = 2.38998 3.38912 2.93242
# Velocity P-wave (km/s) = 3.53180 5.74339 4.76761
#
# Compressibility (1/GPa) = 0.10580370
#
# Stress axis : x y z
#
# Youngs Moduli (GPa) = 6.17134 46.85485 71.87201
#
# Poissons Ratio (x) = 0.92592 1.69217
# Poissons Ratio (y) = 0.12196 0.17538
# Poissons Ratio (z) = 0.14530 0.11433
#
# Static dielectric constant tensor:
#      x y z
#    x 1.680750 0.000000 0.000000 
#    y 0.000000 1.728860 0.000000 
#    z 0.000000 0.000000 1.675870 
# 
# From -- ./inp_files/26342.got.cif
#   From: 2010.05.17/outbox.cif.g08.bks.cpg/sg59_14_cif.got.tgz:26342.got - 2010.06.03 14:40:33.
