data_PCOD9447019
_publ_section_title
;
Structure prediction by ZEFSAII (Michael W. Deem and Ramdas Pophale) SiO2 
 PCOD9447019
Probable space group: P M M N
;
_chemical_formula_sum "Si O2"
_cell_formula_units_Z 64
_cell_length_a 15.662792
_cell_length_b 7.920689
_cell_length_c 25.063432
_cell_angle_alpha 90.000000
_cell_angle_beta 90.000000
_cell_angle_gamma 90.000000
_cell_volume 3109.371988
_symmetry_space_group_name_H-M "P M M N"
_symmetry_group_IT_number 59
_space_group.IT_coordinate_system_code '2'
_symmetry_cell_setting 'orthorhombic'
loop_
_space_group_symop_operation_xyz
x,y,z
1/2-x,1/2-y,z
1/2+x,-y,-z
-x,1/2+y,-z
-x,-y,-z
1/2+x,1/2+y,-z
1/2-x,y,z
x,1/2-y,z
loop_
_atom_site_type_symbol
_atom_site_label
_atom_site_fract_x
_atom_site_fract_y
_atom_site_fract_z
Si Si1 0.652180 0.053199 0.124441
Si Si2 0.990543 0.449891 0.809456
Si Si3 0.155499 0.456698 0.616320
Si Si4 0.651865 0.452618 0.890628
Si Si5 0.353406 0.056268 0.992098
Si Si6 0.501859 0.951596 0.310190
Si Si7 0.155530 0.454532 0.383619
Si Si8 0.400806 0.453139 0.499956
O O1 0.750000 0.985337 0.128985
O O2 0.655088 0.250000 0.137766
O O3 0.581502 0.970362 0.161675
O O4 0.623644 0.035468 0.062641
O O5 0.973448 0.250000 0.804788
O O6 0.993771 0.521116 0.749607
O O7 0.914680 0.519746 0.846900
O O8 0.250000 0.505807 0.633799
O O9 0.152036 0.250000 0.615406
O O10 0.081777 0.518377 0.655672
O O11 0.139267 0.513840 0.555475
O O12 0.750000 0.516507 0.884879
O O13 0.656072 0.250000 0.885990
O O14 0.618536 0.489650 0.950445
O O15 0.250000 0.046822 0.994359
O O16 0.379536 0.250000 0.986594
O O17 0.514841 0.750000 0.305654
O O18 0.417494 0.982068 0.344644
O O19 0.250000 0.506593 0.366413
O O20 0.151982 0.250000 0.384032
O O21 0.139228 0.513628 0.444423
O O22 0.500000 0.500000 0.500000
O O23 0.392282 0.250000 0.499976
#
# Coordination Sequence:
#
# PCOD9447019 Si02
#       8
#     8   8   8   8   8   8   8   8
#     4  10  21  37  57  81 110 145 181 218 267 325
#     4  10  22  37  55  80 108 142 185 229 272 318
#     4   9  17  31  53  79 106 138 176 218 267 323
#     4   9  18  34  54  76 106 142 178 219 270 327
#     4   9  17  31  54  83 111 138 173 220 271 322
#     4  10  21  37  56  80 107 139 184 232 273 315
#     4  10  21  36  55  80 110 146 183 220 270 329
#     4  10  18  31  54  80 109 142 176 218 270 325
#
# _framework density 20.582934999999999
#
# number of rings (size 3 to 8) (size 9 to 14) (size 15 to 20)
#    0.000    2.375    1.250    1.125    0.000    6.500 
#    0.000    2.500    0.000    3.750    0.000    0.000 
#    0.000    0.000    0.000    0.000    0.000    0.000 
#
# Total GULP energy -357182.699635 kJ/mol
# GULP energy per Si atom -5580.979682 kJ/mol
# Density = 2.053609 g / cm^3
# Si number density = 20.582935 Si / 1000 Ang^3
#
#
#
# Elastic Constant Matrix: (Units=GPa)
#
#
# Indices 1 2 3 4 5 6 
#
# 1 106.3630 -12.9571 54.9740 0.0000 0.0000 0.0000
# 2 -12.9571 11.8924 -1.2161 0.0000 0.0000 0.0000
# 3 54.9740 -1.2161 135.1000 0.0000 0.0000 0.0000
# 4 0.0000 0.0000 0.0000 -8.4265 0.0000 0.0000
# 5 0.0000 0.0000 0.0000 0.0000 20.7754 0.0000
# 6 0.0000 0.0000 0.0000 0.0000 0.0000 18.7200
#
#
#
# Elastic Compliance Matrix: (Units=1/GPa)
#
#
# Indices 1 2 3 4 5 6 
#
# 1 0.014100 0.014789 -0.005604 0.000000 0.000000 0.000000
# 2 0.014789 0.099677 -0.005121 0.000000 0.000000 0.000000
# 3 -0.005604 -0.005121 0.009636 0.000000 0.000000 0.000000
# 4 0.000000 0.000000 0.000000 -0.118673 0.000000 0.000000
# 5 0.000000 0.000000 0.000000 0.000000 0.048134 0.000000
# 6 0.000000 0.000000 0.000000 0.000000 0.000000 0.053419
#
#
# Mechanical properties :
#
#
# Convention : Reuss Voigt Hill
#
# Bulk Modulus (GPa) = 7.60215 37.21743 22.40979
# Shear Modulus (GPa) = 35.20840 20.38410 27.79625
#
# Velocity S-wave (km/s) = 4.14038 3.15038 3.67884
# Velocity P-wave (km/s) = 5.15349 5.59948 5.38111
#
# Compressibility (1/GPa) = 0.13154167
#
# Stress axis : x y z
#
# Youngs Moduli (GPa) = 70.92187 10.03241 103.77402
#
# Poissons Ratio (x) = -0.14837 0.58159
# Poissons Ratio (y) = -1.04888 0.53140
# Poissons Ratio (z) = 0.39747 0.05137
#
# Static dielectric constant tensor:
#      x y z
#    x 1.727490 0.000000 0.000000 
#    y 0.000000 1.756440 0.000000 
#    z 0.000000 0.000000 1.727190 
# 
# From -- ./inp_files/32254.got.cif
#   From: 2010.05.17/outbox.cif.g08.bks.cpg/sg59_17_cif.got.tgz:32254.got - 2010.06.03 14:40:33.
