data_PCOD9447043
_publ_section_title
;
Structure prediction by ZEFSAII (Michael W. Deem and Ramdas Pophale) SiO2 
 PCOD9447043
Probable space group: P M M N
;
_chemical_formula_sum "Si O2"
_cell_formula_units_Z 48
_cell_length_a 7.424786
_cell_length_b 10.246993
_cell_length_c 29.424724
_cell_angle_alpha 90.000000
_cell_angle_beta 90.000000
_cell_angle_gamma 90.000000
_cell_volume 2238.683912
_symmetry_space_group_name_H-M "P M M N"
_symmetry_group_IT_number 59
_space_group.IT_coordinate_system_code '2'
_symmetry_cell_setting 'orthorhombic'
loop_
_space_group_symop_operation_xyz
x,y,z
1/2-x,1/2-y,z
1/2+x,-y,-z
-x,1/2+y,-z
-x,-y,-z
1/2+x,1/2+y,-z
1/2-x,y,z
x,1/2-y,z
loop_
_atom_site_type_symbol
_atom_site_label
_atom_site_fract_x
_atom_site_fract_y
_atom_site_fract_z
Si Si1 0.036364 0.398049 0.116119
Si Si2 0.540311 0.250000 0.428211
Si Si3 0.032384 0.250000 0.534173
Si Si4 0.465701 0.599123 0.041717
Si Si5 0.029482 0.472936 0.603136
Si Si6 0.469936 0.103769 0.704623
Si Si7 0.033163 0.896430 0.778296
O O1 0.250000 0.391095 0.107348
O O2 0.964810 0.250000 0.106865
O O3 0.965476 0.516111 0.085164
O O4 0.011050 0.426025 0.169398
O O5 0.750000 0.250000 0.414913
O O6 0.530846 0.250000 0.482634
O O7 0.463994 0.382970 0.408394
O O8 0.250000 0.250000 0.532619
O O9 0.973546 0.374822 0.563356
O O10 0.250000 0.610776 0.045829
O O11 0.532791 0.750000 0.036831
O O12 0.500000 0.500000 0.000000
O O13 0.250000 0.471097 0.602803
O O14 0.974031 0.428442 0.653204
O O15 0.250000 0.100867 0.704470
O O16 0.525219 0.250000 0.716518
O O17 0.532698 0.999922 0.741649
O O18 0.250000 0.894568 0.775204
O O19 0.967797 0.750000 0.768502
#
# Coordination Sequence:
#
# PCOD9447043 Si02
#       7
#     8   4   4   8   8   8   8
#     4   9  18  34  53  72 101 140 173 202 247 307
#     4  10  20  30  46  72  94 116 150 194 235 274
#     4  10  18  32  50  66  90 124 156 184 227 286
#     4  10  21  36  55  80 108 141 181 222 262 306
#     4   9  17  29  46  69  93 119 153 191 233 282
#     4   9  16  28  46  69  95 121 153 195 240 286
#     4   9  18  30  48  75 100 122 156 206 252 286
#
# _framework density 21.441172000000002
#
# number of rings (size 3 to 8) (size 9 to 14) (size 15 to 20)
#    0.000    2.667    0.833    1.000    1.167    2.333 
#    0.000    1.667    0.000    2.000    0.000    0.000 
#    0.000    0.000    0.000    0.000    0.000    0.000 
#
# Total GULP energy -267957.558870 kJ/mol
# GULP energy per Si atom -5582.449143 kJ/mol
# Density = 2.139237 g / cm^3
# Si number density = 21.441172 Si / 1000 Ang^3
#
#
#
# Elastic Constant Matrix: (Units=GPa)
#
#
# Indices 1 2 3 4 5 6 
#
# 1 68.7926 2.6494 -10.6603 0.0000 0.0000 0.0000
# 2 2.6494 187.0788 90.8901 0.0000 0.0000 0.0000
# 3 -10.6603 90.8901 106.1047 0.0000 0.0000 0.0000
# 4 0.0000 0.0000 0.0000 41.3472 0.0000 0.0000
# 5 0.0000 0.0000 0.0000 0.0000 20.5225 0.0000
# 6 0.0000 0.0000 0.0000 0.0000 0.0000 -2.3112
#
#
#
# Elastic Compliance Matrix: (Units=1/GPa)
#
#
# Indices 1 2 3 4 5 6 
#
# 1 0.015049 -0.001623 0.002902 0.000000 0.000000 0.000000
# 2 -0.001623 0.009331 -0.008156 0.000000 0.000000 0.000000
# 3 0.002902 -0.008156 0.016703 0.000000 0.000000 0.000000
# 4 0.000000 0.000000 0.000000 0.024185 0.000000 0.000000
# 5 0.000000 0.000000 0.000000 0.000000 0.048727 0.000000
# 6 0.000000 0.000000 0.000000 0.000000 0.000000 -0.432671
#
#
# Mechanical properties :
#
#
# Convention : Reuss Voigt Hill
#
# Bulk Modulus (GPa) = 36.59153 58.63717 47.61435
# Shear Modulus (GPa) = -16.90257 30.51815 6.80779
#
# Velocity S-wave (km/s) = -2.81076 3.77681 1.78381
# Velocity P-wave (km/s) = 2.56306 6.81369 5.14761
#
# Compressibility (1/GPa) = 0.02732873
#
# Stress axis : x y z
#
# Youngs Moduli (GPa) = 66.45079 107.17216 59.87068
#
# Poissons Ratio (x) = 0.17396 -0.17377
# Poissons Ratio (y) = 0.10786 0.48830
# Poissons Ratio (z) = -0.19287 0.87409
#
# Static dielectric constant tensor:
#      x y z
#    x 1.853370 0.000000 0.000000 
#    y 0.000000 1.808900 0.000000 
#    z 0.000000 0.000000 1.717670 
# 
# From -- ./inp_files/32987.got.cif
#   From: 2010.05.17/outbox.cif.g08.bks.cpg/sg59_17_cif.got.tgz:32987.got - 2010.06.03 14:40:33.
