data_PCOD9447583
_publ_section_title
;
Structure prediction by ZEFSAII (Michael W. Deem and Ramdas Pophale) SiO2 
 PCOD9447583
Probable space group: P M M N
;
_chemical_formula_sum "Si O2"
_cell_formula_units_Z 64
_cell_length_a 24.223932
_cell_length_b 7.839579
_cell_length_c 19.793499
_cell_angle_alpha 90.000000
_cell_angle_beta 90.000000
_cell_angle_gamma 90.000000
_cell_volume 3758.892911
_symmetry_space_group_name_H-M "P M M N"
_symmetry_group_IT_number 59
_space_group.IT_coordinate_system_code '2'
_symmetry_cell_setting 'orthorhombic'
loop_
_space_group_symop_operation_xyz
x,y,z
1/2-x,1/2-y,z
1/2+x,-y,-z
-x,1/2+y,-z
-x,-y,-z
1/2+x,1/2+y,-z
1/2-x,y,z
x,1/2-y,z
loop_
_atom_site_type_symbol
_atom_site_label
_atom_site_fract_x
_atom_site_fract_y
_atom_site_fract_z
Si Si1 0.976906 0.953695 0.105584
Si Si2 0.086175 0.456906 0.022038
Si Si3 0.638917 0.949027 0.744559
Si Si4 0.914581 0.042795 0.520929
Si Si5 0.987656 0.450484 0.751782
Si Si6 0.186889 0.458815 0.111732
Si Si7 0.977963 0.047527 0.392334
Si Si8 0.311533 0.951388 0.397393
O O1 0.968947 0.750000 0.108879
O O2 0.980703 0.018706 0.182095
O O3 0.931200 0.019548 0.052592
O O4 0.036160 0.989573 0.071212
O O5 0.086719 0.250000 0.020975
O O6 0.143761 0.514629 0.054227
O O7 0.653086 0.750000 0.740191
O O8 0.663983 0.014866 0.815059
O O9 0.572799 0.967101 0.745396
O O10 0.664418 0.032168 0.678061
O O11 0.914060 0.250000 0.520339
O O12 0.856963 0.978028 0.550662
O O13 0.932469 0.984543 0.446181
O O14 0.963409 0.990180 0.571840
O O15 0.977190 0.250000 0.762173
O O16 0.020483 0.472505 0.682287
O O17 0.250000 0.512912 0.101839
O O18 0.186200 0.250000 0.112028
O O19 0.972148 0.250000 0.385684
O O20 0.250000 0.025099 0.401449
O O21 0.307683 0.750000 0.411799
#
# Coordination Sequence:
#
# PCOD9447583 Si02
#       8
#     8   8   8   8   8   8   8   8
#     4   9  18  29  44  64  88 115 145 183 226 269
#     4   9  16  29  46  64  86 114 148 184 222 264
#     4  11  20  30  44  65  92 123 158 188 217 256
#     4   9  18  32  47  66  92 118 146 185 225 266
#     4  11  20  30  44  65  93 122 151 185 229 272
#     4   9  17  28  43  64  90 118 149 185 221 257
#     4  10  19  30  47  68  89 117 151 184 225 270
#     4  10  20  33  48  66  91 124 154 182 221 266
#
# _framework density 17.026289999999999
#
# number of rings (size 3 to 8) (size 9 to 14) (size 15 to 20)
#    0.000    2.250    2.500    1.500    0.000    1.750 
#    0.000    0.000    0.000    1.125    0.000    0.875 
#    0.000    1.000    0.000    0.000    0.000    0.000 
#
# Total GULP energy -356882.275340 kJ/mol
# GULP energy per Si atom -5576.285552 kJ/mol
# Density = 1.698754 g / cm^3
# Si number density = 17.026290 Si / 1000 Ang^3
#
#
#
# Elastic Constant Matrix: (Units=GPa)
#
#
# Indices 1 2 3 4 5 6 
#
# 1 109.7086 -4.7676 72.3336 0.0000 0.0000 0.0000
# 2 -4.7676 13.1458 -9.1936 0.0000 0.0000 0.0000
# 3 72.3336 -9.1936 135.8074 0.0000 0.0000 0.0000
# 4 0.0000 0.0000 0.0000 7.9913 0.0000 0.0000
# 5 0.0000 0.0000 0.0000 0.0000 17.3640 0.0000
# 6 0.0000 0.0000 0.0000 0.0000 0.0000 7.9839
#
#
#
# Elastic Compliance Matrix: (Units=1/GPa)
#
#
# Indices 1 2 3 4 5 6 
#
# 1 0.014049 -0.000145 -0.007492 0.000000 0.000000 0.000000
# 2 -0.000145 0.079852 0.005483 0.000000 0.000000 0.000000
# 3 -0.007492 0.005483 0.011725 0.000000 0.000000 0.000000
# 4 0.000000 0.000000 0.000000 0.125135 0.000000 0.000000
# 5 0.000000 0.000000 0.000000 0.000000 0.057590 0.000000
# 6 0.000000 0.000000 0.000000 0.000000 0.000000 0.125252
#
#
# Mechanical properties :
#
#
# Convention : Reuss Voigt Hill
#
# Bulk Modulus (GPa) = 9.87000 41.71183 25.79092
# Shear Modulus (GPa) = 11.06966 20.02047 15.54507
#
# Velocity S-wave (km/s) = 2.55257 3.43280 3.02487
# Velocity P-wave (km/s) = 3.80749 6.34538 5.23263
#
# Compressibility (1/GPa) = 0.10131709
#
# Stress axis : x y z
#
# Youngs Moduli (GPa) = 71.18099 12.52316 85.28689
#
# Poissons Ratio (x) = 0.00181 0.63900
# Poissons Ratio (y) = 0.01031 -0.46761
# Poissons Ratio (z) = 0.53332 -0.06866
#
# Static dielectric constant tensor:
#      x y z
#    x 1.566760 0.000000 0.000000 
#    y 0.000000 1.612400 0.000000 
#    z 0.000000 0.000000 1.596970 
# 
# From -- ./inp_files/26636.got.cif
#   From: 2010.05.17/outbox.cif.g08.bks.cpg/sg59_14_cif.got.tgz:26636.got - 2010.06.03 14:40:33.
