data_PCOD9447813
_publ_section_title
;
Structure prediction by ZEFSAII (Michael W. Deem and Ramdas Pophale) SiO2 
 PCOD9447813
Probable space group: P M M N
;
_chemical_formula_sum "Si O2"
_cell_formula_units_Z 56
_cell_length_a 9.392894
_cell_length_b 14.672267
_cell_length_c 18.616644
_cell_angle_alpha 90.000000
_cell_angle_beta 90.000000
_cell_angle_gamma 90.000000
_cell_volume 2565.653699
_symmetry_space_group_name_H-M "P M M N"
_symmetry_group_IT_number 59
_space_group.IT_coordinate_system_code '2'
_symmetry_cell_setting 'orthorhombic'
loop_
_space_group_symop_operation_xyz
x,y,z
1/2-x,1/2-y,z
1/2+x,-y,-z
-x,1/2+y,-z
-x,-y,-z
1/2+x,1/2+y,-z
1/2-x,y,z
x,1/2-y,z
loop_
_atom_site_type_symbol
_atom_site_label
_atom_site_fract_x
_atom_site_fract_y
_atom_site_fract_z
Si Si1 0.088475 0.141060 0.870704
Si Si2 0.410669 0.141140 0.146832
Si Si3 0.087174 0.638205 0.991586
Si Si4 0.087915 0.890525 0.708826
Si Si5 0.087735 0.108169 0.709254
Si Si6 0.085927 0.388353 0.430141
Si Si7 0.413577 0.610945 0.428472
O O1 0.250000 0.103258 0.875274
O O2 0.098897 0.250000 0.879339
O O3 0.034183 0.124954 0.790018
O O4 0.988838 0.108751 0.934906
O O5 0.250000 0.103552 0.152201
O O6 0.398410 0.250000 0.138025
O O7 0.501122 0.126467 0.218622
O O8 0.496192 0.108076 0.077198
O O9 0.250000 0.607387 0.987331
O O10 0.089425 0.750000 0.991075
O O11 0.250000 0.856065 0.712598
O O12 0.001097 0.857091 0.639653
O O13 0.096661 0.999515 0.700692
O O14 0.250000 0.144040 0.704286
O O15 0.987892 0.141389 0.645284
O O16 0.250000 0.359152 0.428595
O O17 0.087090 0.499630 0.428912
O O18 0.005835 0.360822 0.502799
O O19 0.250000 0.640042 0.433766
#
# Coordination Sequence:
#
# PCOD9447813 Si02
#       7
#     8   8   8   8   8   8   8
#     4   9  17  31  51  72  95 125 160 195 232 277
#     4  10  20  34  52  72  94 122 157 194 233 281
#     4   9  17  30  49  72  95 120 155 197 236 275
#     4  10  19  31  48  71  99 126 155 194 238 282
#     4   9  18  31  47  70  99 128 157 193 238 284
#     4   9  16  27  44  66  93 124 158 195 235 280
#     4   9  16  26  43  67  93 123 159 197 236 278
#
# _framework density 21.826796999999999
#
# number of rings (size 3 to 8) (size 9 to 14) (size 15 to 20)
#    0.000    2.714    0.000    2.143    0.000    7.143 
#    0.000    0.714    0.000    0.857    0.000    2.000 
#    0.000    0.000    0.000    0.000    0.000    0.000 
#
# Total GULP energy -312890.477720 kJ/mol
# GULP energy per Si atom -5587.329959 kJ/mol
# Density = 2.177712 g / cm^3
# Si number density = 21.826797 Si / 1000 Ang^3
#
#
#
# Elastic Constant Matrix: (Units=GPa)
#
#
# Indices 1 2 3 4 5 6 
#
# 1 225.1121 6.7454 163.2619 0.0000 0.0000 0.0000
# 2 6.7454 65.3467 -0.1038 0.0000 0.0000 0.0000
# 3 163.2619 -0.1038 251.7191 0.0000 0.0000 0.0000
# 4 0.0000 0.0000 0.0000 23.5759 0.0000 0.0000
# 5 0.0000 0.0000 0.0000 0.0000 20.4426 0.0000
# 6 0.0000 0.0000 0.0000 0.0000 0.0000 10.5760
#
#
#
# Elastic Compliance Matrix: (Units=1/GPa)
#
#
# Indices 1 2 3 4 5 6 
#
# 1 0.008438 -0.000880 -0.005473 0.000000 0.000000 0.000000
# 2 -0.000880 0.015395 0.000577 0.000000 0.000000 0.000000
# 3 -0.005473 0.000577 0.007523 0.000000 0.000000 0.000000
# 4 0.000000 0.000000 0.000000 0.042416 0.000000 0.000000
# 5 0.000000 0.000000 0.000000 0.000000 0.048918 0.000000
# 6 0.000000 0.000000 0.000000 0.000000 0.000000 0.094553
#
#
# Mechanical properties :
#
#
# Convention : Reuss Voigt Hill
#
# Bulk Modulus (GPa) = 50.49592 97.99833 74.24713
# Shear Modulus (GPa) = 21.24084 35.73719 28.48901
#
# Velocity S-wave (km/s) = 3.12293 4.05076 3.61672
# Velocity P-wave (km/s) = 6.01570 8.17764 7.17852
#
# Compressibility (1/GPa) = 0.01980358
#
# Stress axis : x y z
#
# Youngs Moduli (GPa) = 118.51220 64.95733 132.93078
#
# Poissons Ratio (x) = 0.05714 0.72755
# Poissons Ratio (y) = 0.10426 -0.07669
# Poissons Ratio (z) = 0.64863 -0.03747
#
# Static dielectric constant tensor:
#      x y z
#    x 1.761630 0.000000 0.000000 
#    y 0.000000 3.052550 0.000000 
#    z 0.000000 0.000000 1.745110 
# 
# From -- ./inp_files/26122.got.cif
#   From: 2010.05.17/outbox.cif.g08.bks.cpg/sg59_14_cif.got.tgz:26122.got - 2010.06.03 14:40:33.
