data_PCOD9447089
_publ_section_title
;
Structure prediction by ZEFSAII (Michael W. Deem and Ramdas Pophale) SiO2 
 PCOD9447089
Probable space group: P M M N
;
_chemical_formula_sum "Si O2"
_cell_formula_units_Z 56
_cell_length_a 7.529752
_cell_length_b 23.267478
_cell_length_c 15.212298
_cell_angle_alpha 90.000000
_cell_angle_beta 90.000000
_cell_angle_gamma 90.000000
_cell_volume 2665.169342
_symmetry_space_group_name_H-M "P M M N"
_symmetry_group_IT_number 59
_space_group.IT_coordinate_system_code '2'
_symmetry_cell_setting 'orthorhombic'
loop_
_space_group_symop_operation_xyz
x,y,z
1/2-x,1/2-y,z
1/2+x,-y,-z
-x,1/2+y,-z
-x,-y,-z
1/2+x,1/2+y,-z
1/2-x,y,z
x,1/2-y,z
loop_
_atom_site_type_symbol
_atom_site_label
_atom_site_fract_x
_atom_site_fract_y
_atom_site_fract_z
Si Si1 0.536136 0.583555 0.791838
Si Si2 0.961735 0.024087 0.902716
Si Si3 0.467332 0.185976 0.082708
Si Si4 0.045188 0.075849 0.592895
Si Si5 0.954004 0.655749 0.110214
Si Si6 0.040440 0.947246 0.600354
Si Si7 0.468055 0.313528 0.697389
O O1 0.750000 0.582976 0.797887
O O2 0.472937 0.523461 0.833694
O O3 0.472068 0.636082 0.851861
O O4 0.487662 0.586555 0.690124
O O5 0.750000 0.030308 0.893423
O O6 0.042518 0.086622 0.889222
O O7 0.000000 0.000000 0.000000
O O8 0.250000 0.182951 0.080799
O O9 0.516498 0.250000 0.111034
O O10 0.531435 0.175114 0.983094
O O11 0.250000 0.072766 0.622050
O O12 0.969387 0.131873 0.640589
O O13 0.038835 0.080397 0.487306
O O14 0.967187 0.012488 0.612397
O O15 0.750000 0.675852 0.109194
O O16 0.029185 0.678089 0.201885
O O17 0.250000 0.952197 0.583017
O O18 0.250000 0.314601 0.696779
O O19 0.520709 0.250000 0.665808
#
# Coordination Sequence:
#
# PCOD9447089 Si02
#       7
#     8   8   8   8   8   8   8
#     4  10  20  34  51  76 105 134 172 214 256 303
#     4  11  21  33  50  76 107 139 173 213 261 309
#     4   9  17  31  51  73 100 137 179 216 249 293
#     4   9  18  34  54  78 106 133 167 213 261 315
#     4  10  18  32  53  79 108 138 175 216 259 308
#     4  10  20  34  55  80 102 132 170 212 267 319
#     4   9  17  30  53  83 109 137 177 221 261 306
#
# _framework density 21.011799
#
# number of rings (size 3 to 8) (size 9 to 14) (size 15 to 20)
#    0.000    2.286    1.429    2.143    0.000    4.571 
#    0.000    1.429    0.000    8.571    0.000    0.000 
#    0.000    0.000    0.000    0.000    0.000    0.000 
#
# Total GULP energy -312730.596612 kJ/mol
# GULP energy per Si atom -5584.474940 kJ/mol
# Density = 2.096398 g / cm^3
# Si number density = 21.011799 Si / 1000 Ang^3
#
#
#
# Elastic Constant Matrix: (Units=GPa)
#
#
# Indices 1 2 3 4 5 6 
#
# 1 57.6212 1.1595 -7.7594 0.0000 0.0000 0.0000
# 2 1.1595 116.8893 54.9794 0.0000 0.0000 0.0000
# 3 -7.7594 54.9794 120.2794 0.0000 0.0000 0.0000
# 4 0.0000 0.0000 0.0000 16.6706 0.0000 0.0000
# 5 0.0000 0.0000 0.0000 0.0000 9.8357 0.0000
# 6 0.0000 0.0000 0.0000 0.0000 0.0000 8.0269
#
#
#
# Elastic Compliance Matrix: (Units=1/GPa)
#
#
# Indices 1 2 3 4 5 6 
#
# 1 0.017581 -0.000902 0.001546 0.000000 0.000000 0.000000
# 2 -0.000902 0.010944 -0.005061 0.000000 0.000000 0.000000
# 3 0.001546 -0.005061 0.010727 0.000000 0.000000 0.000000
# 4 0.000000 0.000000 0.000000 0.059986 0.000000 0.000000
# 5 0.000000 0.000000 0.000000 0.000000 0.101670 0.000000
# 6 0.000000 0.000000 0.000000 0.000000 0.000000 0.124582
#
#
# Mechanical properties :
#
#
# Convention : Reuss Voigt Hill
#
# Bulk Modulus (GPa) = 32.87297 43.50543 38.18920
# Shear Modulus (GPa) = 14.51535 23.33400 18.92467
#
# Velocity S-wave (km/s) = 2.63119 3.33606 3.00437
# Velocity P-wave (km/s) = 4.99098 5.96567 5.49996
#
# Compressibility (1/GPa) = 0.03042013
#
# Stress axis : x y z
#
# Youngs Moduli (GPa) = 56.87929 91.37058 93.22241
#
# Poissons Ratio (x) = 0.08239 -0.14416
# Poissons Ratio (y) = 0.05129 0.47178
# Poissons Ratio (z) = -0.08796 0.46241
#
# Static dielectric constant tensor:
#      x y z
#    x 1.827680 0.000000 0.000000 
#    y 0.000000 1.711440 0.000000 
#    z 0.000000 0.000000 1.728690 
# 
# From -- ./inp_files/20937.got.cif
#   From: 2010.05.17/outbox.cif.g08.bks.cpg/sg59_11_cif.got.tgz:20937.got - 2010.06.03 14:40:33.
