data_PCOD9447480
_publ_section_title
;
Structure prediction by ZEFSAII (Michael W. Deem and Ramdas Pophale) SiO2 
 PCOD9447480
Probable space group: P M M N
;
_chemical_formula_sum "Si O2"
_cell_formula_units_Z 64
_cell_length_a 8.823280
_cell_length_b 29.491229
_cell_length_c 16.018572
_cell_angle_alpha 90.000000
_cell_angle_beta 90.000000
_cell_angle_gamma 90.000000
_cell_volume 4168.182545
_symmetry_space_group_name_H-M "P M M N"
_symmetry_group_IT_number 59
_space_group.IT_coordinate_system_code '2'
_symmetry_cell_setting 'orthorhombic'
loop_
_space_group_symop_operation_xyz
x,y,z
1/2-x,1/2-y,z
1/2+x,-y,-z
-x,1/2+y,-z
-x,-y,-z
1/2+x,1/2+y,-z
1/2-x,y,z
x,1/2-y,z
loop_
_atom_site_type_symbol
_atom_site_label
_atom_site_fract_x
_atom_site_fract_y
_atom_site_fract_z
Si Si1 0.567103 0.050305 0.406047
Si Si2 0.075257 0.194968 0.995250
Si Si3 0.932522 0.196565 0.503046
Si Si4 0.932852 0.303115 0.170259
Si Si5 0.434486 0.855991 0.665559
Si Si6 0.931592 0.645857 0.337142
Si Si7 0.067340 0.051207 0.590753
Si Si8 0.068833 0.803113 0.179789
O O1 0.750000 0.051756 0.410758
O O2 0.517583 0.091994 0.348184
O O3 0.503191 0.057777 0.499028
O O4 0.522930 0.999316 0.379684
O O5 0.250000 0.181034 0.991882
O O6 0.069512 0.250000 0.996238
O O7 0.999374 0.180675 0.082090
O O8 0.990304 0.181284 0.910724
O O9 0.750000 0.191491 0.511398
O O10 0.966213 0.250000 0.500086
O O11 0.978911 0.172362 0.416747
O O12 0.010273 0.173201 0.582020
O O13 0.750000 0.305118 0.165851
O O14 0.973504 0.250000 0.182695
O O15 0.985964 0.332335 0.249327
O O16 0.250000 0.855050 0.667658
O O17 0.750000 0.648522 0.333165
O O18 0.976569 0.593329 0.351435
O O19 0.000896 0.667711 0.254530
O O20 0.250000 0.051975 0.582546
O O21 0.250000 0.805132 0.181626
O O22 0.024285 0.750000 0.190973
#
# Coordination Sequence:
#
# PCOD9447480 Si02
#       8
#     8   8   8   8   8   8   8   8
#     4   9  16  29  48  65  84 114 154 194 230 266
#     4   9  17  30  47  67  91 118 147 181 223 266
#     4  10  19  30  43  61  88 122 159 191 217 254
#     4   9  16  27  44  66  92 120 150 183 218 260
#     4   9  16  27  45  67  88 117 154 189 223 260
#     4  11  21  31  43  63  92 122 151 184 228 275
#     4   9  18  30  44  64  88 115 149 192 234 270
#     4  10  20  33  49  68  89 116 152 189 222 262
#
# _framework density 15.354414
#
# number of rings (size 3 to 8) (size 9 to 14) (size 15 to 20)
#    0.000    2.500    1.250    1.875    0.000    6.000 
#    0.000    1.250    0.000    1.500    0.000    0.875 
#    0.000    0.000    0.000    0.000    0.000    0.000 
#
# Total GULP energy -356714.997885 kJ/mol
# GULP energy per Si atom -5573.671842 kJ/mol
# Density = 1.531947 g / cm^3
# Si number density = 15.354414 Si / 1000 Ang^3
#
#
#
# Elastic Constant Matrix: (Units=GPa)
#
#
# Indices 1 2 3 4 5 6 
#
# 1 21.3871 33.1109 36.1508 0.0000 0.0000 0.0000
# 2 33.1109 113.6156 81.6303 0.0000 0.0000 0.0000
# 3 36.1508 81.6303 149.7874 0.0000 0.0000 0.0000
# 4 0.0000 0.0000 0.0000 9.0710 0.0000 0.0000
# 5 0.0000 0.0000 0.0000 0.0000 12.6335 0.0000
# 6 0.0000 0.0000 0.0000 0.0000 0.0000 14.8227
#
#
#
# Elastic Compliance Matrix: (Units=1/GPa)
#
#
# Indices 1 2 3 4 5 6 
#
# 1 0.099394 -0.019280 -0.013481 0.000000 0.000000 0.000000
# 2 -0.019280 0.018206 -0.005268 0.000000 0.000000 0.000000
# 3 -0.013481 -0.005268 0.012801 0.000000 0.000000 0.000000
# 4 0.000000 0.000000 0.000000 0.110241 0.000000 0.000000
# 5 0.000000 0.000000 0.000000 0.000000 0.079155 0.000000
# 6 0.000000 0.000000 0.000000 0.000000 0.000000 0.067464
#
#
# Mechanical properties :
#
#
# Convention : Reuss Voigt Hill
#
# Bulk Modulus (GPa) = 18.40245 65.17491 41.78868
# Shear Modulus (GPa) = 10.38565 16.23198 13.30881
#
# Velocity S-wave (km/s) = 2.60358 3.25492 2.94730
# Velocity P-wave (km/s) = 4.58795 7.52763 6.23356
#
# Compressibility (1/GPa) = 0.05434058
#
# Stress axis : x y z
#
# Youngs Moduli (GPa) = 10.06099 54.92795 78.11966
#
# Poissons Ratio (x) = 1.05903 1.05314
# Poissons Ratio (y) = 0.19398 0.41156
# Poissons Ratio (z) = 0.13563 0.28938
#
# Static dielectric constant tensor:
#      x y z
#    x 1.517410 0.000000 0.000000 
#    y 0.000000 1.522110 0.000000 
#    z 0.000000 0.000000 1.484800 
# 
# From -- ./inp_files/21819.got.cif
#   From: 2010.05.17/outbox.cif.g08.bks.cpg/sg59_11_cif.got.tgz:21819.got - 2010.06.03 14:40:33.
