data_PCOD9447740
_publ_section_title
;
Structure prediction by ZEFSAII (Michael W. Deem and Ramdas Pophale) SiO2 
 PCOD9447740
Probable space group: P M M N
;
_chemical_formula_sum "Si O2"
_cell_formula_units_Z 56
_cell_length_a 9.200912
_cell_length_b 14.763227
_cell_length_c 19.253719
_cell_angle_alpha 90.000000
_cell_angle_beta 90.000000
_cell_angle_gamma 90.000000
_cell_volume 2615.331856
_symmetry_space_group_name_H-M "P M M N"
_symmetry_group_IT_number 59
_space_group.IT_coordinate_system_code '2'
_symmetry_cell_setting 'orthorhombic'
loop_
_space_group_symop_operation_xyz
x,y,z
1/2-x,1/2-y,z
1/2+x,-y,-z
-x,1/2+y,-z
-x,-y,-z
1/2+x,1/2+y,-z
1/2-x,y,z
x,1/2-y,z
loop_
_atom_site_type_symbol
_atom_site_label
_atom_site_fract_x
_atom_site_fract_y
_atom_site_fract_z
Si Si1 0.084875 0.358371 0.872505
Si Si2 0.077123 0.397857 0.421961
Si Si3 0.915807 0.361213 0.009224
Si Si4 0.912098 0.642552 0.855711
Si Si5 0.915488 0.892521 0.278301
Si Si6 0.084374 0.889705 0.714594
Si Si7 0.426759 0.405558 0.574022
O O1 0.250000 0.396296 0.873710
O O2 0.095691 0.250000 0.879225
O O3 0.015019 0.375063 0.796618
O O4 0.995317 0.390261 0.938772
O O5 0.250000 0.396060 0.409609
O O6 0.049080 0.359411 0.499336
O O7 0.994403 0.357824 0.355704
O O8 0.017801 0.501127 0.426853
O O9 0.750000 0.391624 0.010596
O O10 0.914721 0.250000 0.009628
O O11 0.999374 0.392409 0.078155
O O12 0.750000 0.603295 0.851124
O O13 0.898468 0.750000 0.867455
O O14 0.997174 0.632672 0.783885
O O15 0.750000 0.858031 0.270937
O O16 0.968752 0.858246 0.353281
O O17 0.911794 0.000810 0.287222
O O18 0.250000 0.857614 0.718116
O O19 0.250000 0.423274 0.577541
#
# Coordination Sequence:
#
# PCOD9447740 Si02
#       7
#     8   8   8   8   8   8   8
#     4   9  16  28  48  70  91 118 153 190 226 264
#     4   9  15  24  41  64  89 118 155 195 232 270
#     4   9  17  30  48  69  92 118 150 185 221 266
#     4  10  20  34  52  72  92 114 146 188 229 271
#     4   8  15  28  45  67  94 122 153 191 231 268
#     4  10  19  31  47  67  94 124 153 187 230 279
#     4   8  14  25  41  61  88 121 155 193 233 272
#
# _framework density 21.412196999999999
#
# number of rings (size 3 to 8) (size 9 to 14) (size 15 to 20)
#    0.000    3.000    0.000    2.571    0.000    3.143 
#    0.000    4.286    0.000    0.857    0.000    4.000 
#    0.000    0.000    0.000    0.000    0.000    0.000 
#
# Total GULP energy -312111.341352 kJ/mol
# GULP energy per Si atom -5573.416810 kJ/mol
# Density = 2.136346 g / cm^3
# Si number density = 21.412197 Si / 1000 Ang^3
#
#
#
# Elastic Constant Matrix: (Units=GPa)
#
#
# Indices 1 2 3 4 5 6 
#
# 1 129.0373 6.9882 113.5336 0.0000 0.0000 0.0000
# 2 6.9882 50.5764 1.1486 0.0000 0.0000 0.0000
# 3 113.5336 1.1486 277.3573 0.0000 0.0000 0.0000
# 4 0.0000 0.0000 0.0000 25.4860 0.0000 0.0000
# 5 0.0000 0.0000 0.0000 0.0000 22.4345 0.0000
# 6 0.0000 0.0000 0.0000 0.0000 0.0000 2.1091
#
#
#
# Elastic Compliance Matrix: (Units=1/GPa)
#
#
# Indices 1 2 3 4 5 6 
#
# 1 0.012236 -0.001577 -0.005002 0.000000 0.000000 0.000000
# 2 -0.001577 0.019977 0.000563 0.000000 0.000000 0.000000
# 3 -0.005002 0.000563 0.005651 0.000000 0.000000 0.000000
# 4 0.000000 0.000000 0.000000 0.039237 0.000000 0.000000
# 5 0.000000 0.000000 0.000000 0.000000 0.044574 0.000000
# 6 0.000000 0.000000 0.000000 0.000000 0.000000 0.474132
#
#
# Mechanical properties :
#
#
# Convention : Reuss Voigt Hill
#
# Bulk Modulus (GPa) = 38.71284 77.81241 58.26263
# Shear Modulus (GPa) = 8.11093 32.35929 20.23511
#
# Velocity S-wave (km/s) = 1.94839 3.89170 3.07746
# Velocity P-wave (km/s) = 4.81463 7.52416 6.31639
#
# Compressibility (1/GPa) = 0.02583122
#
# Stress axis : x y z
#
# Youngs Moduli (GPa) = 81.72327 50.05704 176.96657
#
# Poissons Ratio (x) = 0.07895 0.88525
# Poissons Ratio (y) = 0.12889 -0.09960
# Poissons Ratio (z) = 0.40881 -0.02817
#
# Static dielectric constant tensor:
#      x y z
#    x 1.745410 0.000000 0.000000 
#    y 0.000000 1.838620 0.000000 
#    z 0.000000 0.000000 1.821750 
# 
# From -- ./inp_files/26026.got.cif
#   From: 2010.05.17/outbox.cif.g08.bks.cpg/sg59_14_cif.got.tgz:26026.got - 2010.06.03 14:40:33.
