data_PCOD9447625
_publ_section_title
;
Structure prediction by ZEFSAII (Michael W. Deem and Ramdas Pophale) SiO2 
 PCOD9447625
Probable space group: P M M N
;
_chemical_formula_sum "Si O2"
_cell_formula_units_Z 64
_cell_length_a 9.256567
_cell_length_b 25.741355
_cell_length_c 15.697167
_cell_angle_alpha 90.000000
_cell_angle_beta 90.000000
_cell_angle_gamma 90.000000
_cell_volume 3740.267225
_symmetry_space_group_name_H-M "P M M N"
_symmetry_group_IT_number 59
_space_group.IT_coordinate_system_code '2'
_symmetry_cell_setting 'orthorhombic'
loop_
_space_group_symop_operation_xyz
x,y,z
1/2-x,1/2-y,z
1/2+x,-y,-z
-x,1/2+y,-z
-x,-y,-z
1/2+x,1/2+y,-z
1/2-x,y,z
x,1/2-y,z
loop_
_atom_site_type_symbol
_atom_site_label
_atom_site_fract_x
_atom_site_fract_y
_atom_site_fract_z
Si Si1 0.920627 0.521319 0.126764
Si Si2 0.915461 0.933876 0.636766
Si Si3 0.415967 0.550302 0.293394
Si Si4 0.576036 0.691844 0.882843
Si Si5 0.581075 0.159808 0.286773
Si Si6 0.412807 0.691042 0.520778
Si Si7 0.578765 0.577482 0.945707
Si Si8 0.579905 0.901107 0.450304
O O1 0.750000 0.515149 0.141648
O O2 0.997265 0.549184 0.205545
O O3 0.991891 0.464634 0.110447
O O4 0.940285 0.556390 0.041915
O O5 0.750000 0.913462 0.641111
O O6 0.958191 0.932786 0.537000
O O7 0.017685 0.896865 0.691501
O O8 0.916949 0.991196 0.672943
O O9 0.250000 0.566468 0.280992
O O10 0.492773 0.582248 0.367648
O O11 0.750000 0.691305 0.877404
O O12 0.535019 0.750000 0.916060
O O13 0.507126 0.685164 0.789554
O O14 0.535803 0.637957 0.932010
O O15 0.750000 0.157833 0.264692
O O16 0.566236 0.188795 0.377263
O O17 0.250000 0.669765 0.505078
O O18 0.417484 0.750000 0.492024
O O19 0.532326 0.656566 0.476122
O O20 0.750000 0.573244 0.924618
O O21 0.750000 0.906572 0.435540
#
# Coordination Sequence:
#
# PCOD9447625 Si02
#       8
#     8   8   8   8   8   8   8   8
#     4  10  20  34  54  77  99 127 164 208 253 296
#     4   9  19  33  48  69 100 136 168 200 239 286
#     4  11  21  33  50  72 100 132 164 199 245 297
#     4  10  20  33  50  72 100 134 166 197 240 295
#     4  10  19  30  47  73 103 133 166 202 239 283
#     4   9  18  33  50  67  93 130 167 202 243 289
#     4   9  19  36  54  74 101 129 161 202 249 301
#     4  10  20  33  49  71  98 127 164 206 244 286
#
# _framework density 17.111077000000002
#
# number of rings (size 3 to 8) (size 9 to 14) (size 15 to 20)
#    0.000    2.250    0.000    3.000    0.000    7.000 
#    0.000    0.000    0.000    0.750    0.000    1.750 
#    0.000    0.000    0.000    0.000    0.000    0.000 
#
# Total GULP energy -356893.616757 kJ/mol
# GULP energy per Si atom -5576.462762 kJ/mol
# Density = 1.707213 g / cm^3
# Si number density = 17.111077 Si / 1000 Ang^3
#
#
#
# Elastic Constant Matrix: (Units=GPa)
#
#
# Indices 1 2 3 4 5 6 
#
# 1 48.2515 29.0969 38.6751 0.0000 0.0000 0.0000
# 2 29.0969 81.5950 28.0901 0.0000 0.0000 0.0000
# 3 38.6751 28.0901 65.2536 0.0000 0.0000 0.0000
# 4 0.0000 0.0000 0.0000 9.8467 0.0000 0.0000
# 5 0.0000 0.0000 0.0000 0.0000 27.5130 0.0000
# 6 0.0000 0.0000 0.0000 0.0000 0.0000 22.0482
#
#
#
# Elastic Compliance Matrix: (Units=1/GPa)
#
#
# Indices 1 2 3 4 5 6 
#
# 1 0.043291 -0.007753 -0.022320 0.000000 0.000000 0.000000
# 2 -0.007753 0.015777 -0.002196 0.000000 0.000000 0.000000
# 3 -0.022320 -0.002196 0.029499 0.000000 0.000000 0.000000
# 4 0.000000 0.000000 0.000000 0.101557 0.000000 0.000000
# 5 0.000000 0.000000 0.000000 0.000000 0.036346 0.000000
# 6 0.000000 0.000000 0.000000 0.000000 0.000000 0.045355
#
#
# Mechanical properties :
#
#
# Convention : Reuss Voigt Hill
#
# Bulk Modulus (GPa) = 41.62004 42.98047 42.30025
# Shear Modulus (GPa) = 14.51915 18.49745 16.50830
#
# Velocity S-wave (km/s) = 2.91610 3.29146 3.10945
# Velocity P-wave (km/s) = 5.97616 6.29428 6.13728
#
# Compressibility (1/GPa) = 0.02402689
#
# Stress axis : x y z
#
# Youngs Moduli (GPa) = 23.09971 63.38517 33.89940
#
# Poissons Ratio (x) = 0.49146 0.75664
# Poissons Ratio (y) = 0.17910 0.07444
# Poissons Ratio (z) = 0.51559 0.13920
#
# Static dielectric constant tensor:
#      x y z
#    x 1.585830 0.000000 0.000000 
#    y 0.000000 1.588170 0.000000 
#    z 0.000000 0.000000 1.568800 
# 
# From -- ./inp_files/21603.got.cif
#   From: 2010.05.17/outbox.cif.g08.bks.cpg/sg59_11_cif.got.tgz:21603.got - 2010.06.03 14:40:33.
