data_PCOD9447731
_publ_section_title
;
Structure prediction by ZEFSAII (Michael W. Deem and Ramdas Pophale) SiO2 
 PCOD9447731
Probable space group: P M M N
;
_chemical_formula_sum "Si O2"
_cell_formula_units_Z 56
_cell_length_a 19.018431
_cell_length_b 8.735279
_cell_length_c 21.154881
_cell_angle_alpha 90.000000
_cell_angle_beta 90.000000
_cell_angle_gamma 90.000000
_cell_volume 3514.487901
_symmetry_space_group_name_H-M "P M M N"
_symmetry_group_IT_number 59
_space_group.IT_coordinate_system_code '2'
_symmetry_cell_setting 'orthorhombic'
loop_
_space_group_symop_operation_xyz
x,y,z
1/2-x,1/2-y,z
1/2+x,-y,-z
-x,1/2+y,-z
-x,-y,-z
1/2+x,1/2+y,-z
1/2-x,y,z
x,1/2-y,z
loop_
_atom_site_type_symbol
_atom_site_label
_atom_site_fract_x
_atom_site_fract_y
_atom_site_fract_z
Si Si1 0.608985 0.434150 0.121776
Si Si2 0.330408 0.565578 0.016697
Si Si3 0.533470 0.932980 0.935875
Si Si4 0.537690 0.066212 0.562538
Si Si5 0.830986 0.566972 0.249994
Si Si6 0.670585 0.436023 0.492475
Si Si7 0.584856 0.066620 0.366625
O O1 0.615473 0.250000 0.128094
O O2 0.645796 0.476676 0.054978
O O3 0.525713 0.472069 0.116134
O O4 0.644829 0.513917 0.180806
O O5 0.250000 0.517592 0.027683
O O6 0.333904 0.750000 0.019901
O O7 0.387928 0.498283 0.064872
O O8 0.536188 0.750000 0.940236
O O9 0.500000 0.000000 0.000000
O O10 0.532430 0.250000 0.562983
O O11 0.618890 0.022626 0.550352
O O12 0.500000 0.000000 0.500000
O O13 0.492926 0.998437 0.619877
O O14 0.750000 0.519283 0.260625
O O15 0.834784 0.750000 0.254434
O O16 0.880448 0.493287 0.302909
O O17 0.750000 0.493235 0.497440
O O18 0.672731 0.250000 0.491093
O O19 0.633980 0.482502 0.426300
O O20 0.582050 0.250000 0.366641
#
# Coordination Sequence:
#
# PCOD9447731 Si02
#       7
#     8   8   8   8   8   8   8
#     4   9  18  32  47  63  88 123 157 185 217 264
#     4   9  17  29  46  69  95 121 150 186 227 270
#     4   9  17  29  45  65  89 118 152 188 227 270
#     4   9  16  27  44  65  90 118 150 189 228 268
#     4  11  23  34  45  66  93 119 151 190 226 262
#     4   8  14  25  43  67  90 114 146 181 219 263
#     4  10  19  31  47  64  88 124 158 186 219 265
#
# _framework density 15.934041000000001
#
# number of rings (size 3 to 8) (size 9 to 14) (size 15 to 20)
#    0.000    2.714    0.000    4.286    0.000    5.429 
#    0.000    0.000    0.000    8.571    0.000    1.000 
#    0.000    5.714    0.000    0.000    0.000    0.000 
#
# Total GULP energy -311862.686735 kJ/mol
# GULP energy per Si atom -5568.976549 kJ/mol
# Density = 1.589777 g / cm^3
# Si number density = 15.934041 Si / 1000 Ang^3
#
#
#
# Elastic Constant Matrix: (Units=GPa)
#
#
# Indices 1 2 3 4 5 6 
#
# 1 76.5853 12.6335 -6.2075 0.0000 0.0000 0.0000
# 2 12.6335 27.0082 6.2591 0.0000 0.0000 0.0000
# 3 -6.2075 6.2591 14.8859 0.0000 0.0000 0.0000
# 4 0.0000 0.0000 0.0000 21.9595 0.0000 0.0000
# 5 0.0000 0.0000 0.0000 0.0000 27.4077 0.0000
# 6 0.0000 0.0000 0.0000 0.0000 0.0000 23.5544
#
#
#
# Elastic Compliance Matrix: (Units=1/GPa)
#
#
# Indices 1 2 3 4 5 6 
#
# 1 0.015512 -0.009701 0.010548 0.000000 0.000000 0.000000
# 2 -0.009701 0.047089 -0.023845 0.000000 0.000000 0.000000
# 3 0.010548 -0.023845 0.081602 0.000000 0.000000 0.000000
# 4 0.000000 0.000000 0.000000 0.045538 0.000000 0.000000
# 5 0.000000 0.000000 0.000000 0.000000 0.036486 0.000000
# 6 0.000000 0.000000 0.000000 0.000000 0.000000 0.042455
#
#
# Mechanical properties :
#
#
# Convention : Reuss Voigt Hill
#
# Bulk Modulus (GPa) = 10.18245 15.98329 13.08287
# Shear Modulus (GPa) = 14.39198 21.63727 18.01462
#
# Velocity S-wave (km/s) = 3.00863 3.68900 3.36605
# Velocity P-wave (km/s) = 4.29806 5.31015 4.83069
#
# Compressibility (1/GPa) = 0.09820821
#
# Stress axis : x y z
#
# Youngs Moduli (GPa) = 64.46434 21.23621 12.25454
#
# Poissons Ratio (x) = 0.20600 -0.12926
# Poissons Ratio (y) = 0.62534 0.29221
# Poissons Ratio (z) = -0.67994 0.50638
#
# Static dielectric constant tensor:
#      x y z
#    x 1.567160 0.000000 0.000000 
#    y 0.000000 1.537470 0.000000 
#    z 0.000000 0.000000 1.519170 
# 
# From -- ./inp_files/30565.got.cif
#   From: 2010.05.17/outbox.cif.g08.bks.cpg/sg59_16_cif.got.tgz:30565.got - 2010.06.03 14:40:33.
