data_PCOD9447109
_publ_section_title
;
Structure prediction by ZEFSAII (Michael W. Deem and Ramdas Pophale) SiO2 
 PCOD9447109
Probable space group: P M M N
;
_chemical_formula_sum "Si O2"
_cell_formula_units_Z 56
_cell_length_a 8.850831
_cell_length_b 20.928622
_cell_length_c 15.856138
_cell_angle_alpha 90.000000
_cell_angle_beta 90.000000
_cell_angle_gamma 90.000000
_cell_volume 2937.122764
_symmetry_space_group_name_H-M "P M M N"
_symmetry_group_IT_number 59
_space_group.IT_coordinate_system_code '2'
_symmetry_cell_setting 'orthorhombic'
loop_
_space_group_symop_operation_xyz
x,y,z
1/2-x,1/2-y,z
1/2+x,-y,-z
-x,1/2+y,-z
-x,-y,-z
1/2+x,1/2+y,-z
1/2-x,y,z
x,1/2-y,z
loop_
_atom_site_type_symbol
_atom_site_label
_atom_site_fract_x
_atom_site_fract_y
_atom_site_fract_z
Si Si1 0.415478 0.174211 0.874688
Si Si2 0.433907 0.680793 0.481162
Si Si3 0.922494 0.993460 0.731740
Si Si4 0.431311 0.459892 0.079281
Si Si5 0.427806 0.674574 0.956237
Si Si6 0.922359 0.142819 0.705015
Si Si7 0.430577 0.551265 0.565125
O O1 0.250000 0.145622 0.894311
O O2 0.400940 0.250000 0.878738
O O3 0.471040 0.158450 0.782312
O O4 0.538971 0.159402 0.945319
O O5 0.250000 0.680007 0.482146
O O6 0.485266 0.750000 0.511301
O O7 0.475753 0.670752 0.383519
O O8 0.484600 0.620788 0.534925
O O9 0.750000 0.968559 0.729317
O O10 0.972674 0.990392 0.829427
O O11 0.022166 0.958983 0.661722
O O12 0.917829 0.066501 0.700779
O O13 0.250000 0.462034 0.070583
O O14 0.485817 0.385607 0.084900
O O15 0.500000 0.500000 0.000000
O O16 0.250000 0.670745 0.938245
O O17 0.473970 0.750000 0.940265
O O18 0.750000 0.165569 0.721300
O O19 0.500000 0.500000 0.500000
O O20 0.250000 0.547299 0.557478
#
# Coordination Sequence:
#
# PCOD9447109 Si02
#       7
#     8   8   8   8   8   8   8
#     4  10  20  32  48  76 113 148 187 236 294 361
#     4   9  18  33  55  83 113 148 190 237 289 341
#     4  10  22  39  58  85 115 149 195 240 290 354
#     4  11  23  39  62  91 126 159 196 254 309 364
#     4  10  21  38  59  81 110 154 206 254 302 359
#     4  10  18  32  54  78 109 147 189 236 286 352
#     4  11  21  37  61  86 115 152 194 241 287 343
#
# _framework density 19.066278000000001
#
# number of rings (size 3 to 8) (size 9 to 14) (size 15 to 20)
#    0.000    1.857    1.429    3.000    0.000    5.143 
#    0.000    0.714    0.000    5.143    0.000    0.000 
#    0.000    0.000    0.000    0.000    0.000    0.000 
#
# Total GULP energy -312201.067524 kJ/mol
# GULP energy per Si atom -5575.019063 kJ/mol
# Density = 1.902288 g / cm^3
# Si number density = 19.066278 Si / 1000 Ang^3
#
#
#
# Elastic Constant Matrix: (Units=GPa)
#
#
# Indices 1 2 3 4 5 6 
#
# 1 45.0319 30.2347 20.0701 0.0000 0.0000 0.0000
# 2 30.2347 105.2112 43.8629 0.0000 0.0000 0.0000
# 3 20.0701 43.8629 81.6849 0.0000 0.0000 0.0000
# 4 0.0000 0.0000 0.0000 32.8983 0.0000 0.0000
# 5 0.0000 0.0000 0.0000 0.0000 28.1792 0.0000
# 6 0.0000 0.0000 0.0000 0.0000 0.0000 25.0460
#
#
#
# Elastic Compliance Matrix: (Units=1/GPa)
#
#
# Indices 1 2 3 4 5 6 
#
# 1 0.028197 -0.006719 -0.003320 0.000000 0.000000 0.000000
# 2 -0.006719 0.013847 -0.005785 0.000000 0.000000 0.000000
# 3 -0.003320 -0.005785 0.016164 0.000000 0.000000 0.000000
# 4 0.000000 0.000000 0.000000 0.030397 0.000000 0.000000
# 5 0.000000 0.000000 0.000000 0.000000 0.035487 0.000000
# 6 0.000000 0.000000 0.000000 0.000000 0.000000 0.039927
#
#
# Mechanical properties :
#
#
# Convention : Reuss Voigt Hill
#
# Bulk Modulus (GPa) = 37.64923 46.69594 42.17259
# Shear Modulus (GPa) = 24.44740 26.40873 25.42807
#
# Velocity S-wave (km/s) = 3.58471 3.72573 3.65590
# Velocity P-wave (km/s) = 6.07642 6.56145 6.32359
#
# Compressibility (1/GPa) = 0.02656097
#
# Stress axis : x y z
#
# Youngs Moduli (GPa) = 35.46432 72.21670 61.86492
#
# Poissons Ratio (x) = 0.48522 0.20541
# Poissons Ratio (y) = 0.23828 0.35788
# Poissons Ratio (z) = 0.11775 0.41776
#
# Static dielectric constant tensor:
#      x y z
#    x 1.673910 0.000000 0.000000 
#    y 0.000000 1.686890 0.000000 
#    z 0.000000 0.000000 1.660130 
# 
# From -- ./inp_files/21026.got.cif
#   From: 2010.05.17/outbox.cif.g08.bks.cpg/sg59_11_cif.got.tgz:21026.got - 2010.06.03 14:40:33.
