data_PCOD9447735
_publ_section_title
;
Structure prediction by ZEFSAII (Michael W. Deem and Ramdas Pophale) SiO2 
 PCOD9447735
Probable space group: P M M N
;
_chemical_formula_sum "Si O2"
_cell_formula_units_Z 48
_cell_length_a 34.284822
_cell_length_b 7.614539
_cell_length_c 7.283813
_cell_angle_alpha 90.000000
_cell_angle_beta 90.000000
_cell_angle_gamma 90.000000
_cell_volume 1901.534905
_symmetry_space_group_name_H-M "P M M N"
_symmetry_group_IT_number 59
_space_group.IT_coordinate_system_code '2'
_symmetry_cell_setting 'orthorhombic'
loop_
_space_group_symop_operation_xyz
x,y,z
1/2-x,1/2-y,z
1/2+x,-y,-z
-x,1/2+y,-z
-x,-y,-z
1/2+x,1/2+y,-z
1/2-x,y,z
x,1/2-y,z
loop_
_atom_site_type_symbol
_atom_site_label
_atom_site_fract_x
_atom_site_fract_y
_atom_site_fract_z
Si Si1 0.624131 0.959111 0.593008
Si Si2 0.956536 0.038487 0.935676
Si Si3 0.955569 0.941077 0.522429
Si Si4 0.708328 0.039726 0.572166
Si Si5 0.292292 0.964078 0.991839
Si Si6 0.875859 0.451622 0.022024
O O1 0.618745 0.750000 0.616881
O O2 0.586372 0.030137 0.481896
O O3 0.666224 0.983143 0.501596
O O4 0.625750 0.044497 0.796425
O O5 0.953172 0.250000 0.912262
O O6 0.919547 0.978691 0.057980
O O7 0.952501 0.943110 0.742583
O O8 0.000000 0.000000 0.000000
O O9 0.954696 0.750000 0.435322
O O10 0.000000 0.000000 0.500000
O O11 0.750000 0.973437 0.499067
O O12 0.708881 0.250000 0.554520
O O13 0.708272 0.996770 0.789891
O O14 0.250000 0.022702 0.919101
O O15 0.293011 0.750000 0.974481
O O16 0.334167 0.031968 0.921761
O O17 0.875405 0.250000 0.083674
#
# Coordination Sequence:
#
# PCOD9447735 Si02
#       6
#     8   8   8   8   8   8
#     4   9  16  24  36  56  81 107 137 176 219 261
#     4  10  19  31  47  66  90 120 153 189 227 269
#     4  10  20  33  48  67  91 120 154 190 230 276
#     4   8  13  21  33  49  72 105 141 171 203 251
#     4   7   9  15  29  48  69  95 129 165 198 238
#     4   8  14  24  37  53  76 108 141 171 209 258
#
# _framework density 25.242766
#
# number of rings (size 3 to 8) (size 9 to 14) (size 15 to 20)
#    0.000    3.333    0.000    3.500    0.000    3.000 
#    0.000    0.000    0.000    0.000    0.000    0.000 
#    0.000    1.333    0.000    7.000    0.000   16.167 
#
# Total GULP energy -267239.247256 kJ/mol
# GULP energy per Si atom -5567.484318 kJ/mol
# Density = 2.518531 g / cm^3
# Si number density = 25.242766 Si / 1000 Ang^3
#
#
#
# Elastic Constant Matrix: (Units=GPa)
#
#
# Indices 1 2 3 4 5 6 
#
# 1 357.3962 22.3106 11.5655 0.0000 0.0000 0.0000
# 2 22.3106 73.3628 -0.6345 0.0000 0.0000 0.0000
# 3 11.5655 -0.6345 74.9588 0.0000 0.0000 0.0000
# 4 0.0000 0.0000 0.0000 -36.4285 0.0000 0.0000
# 5 0.0000 0.0000 0.0000 0.0000 -0.2035 0.0000
# 6 0.0000 0.0000 0.0000 0.0000 0.0000 29.1839
#
#
#
# Elastic Compliance Matrix: (Units=1/GPa)
#
#
# Indices 1 2 3 4 5 6 
#
# 1 0.002867 -0.000876 -0.000450 0.000000 0.000000 0.000000
# 2 -0.000876 0.013899 0.000253 0.000000 0.000000 0.000000
# 3 -0.000450 0.000253 0.013412 0.000000 0.000000 0.000000
# 4 0.000000 0.000000 0.000000 -0.027451 0.000000 0.000000
# 5 0.000000 0.000000 0.000000 0.000000 -4.915096 0.000000
# 6 0.000000 0.000000 0.000000 0.000000 0.000000 0.034265
#
#
# Mechanical properties :
#
#
# Convention : Reuss Voigt Hill
#
# Bulk Modulus (GPa) = 35.67208 63.57790 49.62499
# Shear Modulus (GPa) = -1.02741 30.00880 14.49070
#
# Velocity S-wave (km/s) = -0.63867 3.45165 2.39854
# Velocity P-wave (km/s) = 3.69032 6.41299 5.23187
#
# Compressibility (1/GPa) = 0.02803312
#
# Stress axis : x y z
#
# Youngs Moduli (GPa) = 348.76666 71.94538 74.55894
#
# Poissons Ratio (x) = 0.06301 0.03354
# Poissons Ratio (y) = 0.30547 -0.01885
# Poissons Ratio (z) = 0.15688 -0.01819
#
# Static dielectric constant tensor:
#      x y z
#    x 2.199610 0.000000 0.000000 
#    y 0.000000 1.969600 0.000000 
#    z 0.000000 0.000000 2.143880 
# 
# From -- ./inp_files/19039.got.cif
#   From: 2010.05.17/outbox.cif.g08.bks.cpg/sg59_10_cif.got.tgz:19039.got - 2010.06.03 14:40:33.
