data_PCOD9447705
_publ_section_title
;
Structure prediction by ZEFSAII (Michael W. Deem and Ramdas Pophale) SiO2 
 PCOD9447705
Probable space group: P M M N
;
_chemical_formula_sum "Si O2"
_cell_formula_units_Z 64
_cell_length_a 7.428328
_cell_length_b 16.141378
_cell_length_c 24.597051
_cell_angle_alpha 90.000000
_cell_angle_beta 90.000000
_cell_angle_gamma 90.000000
_cell_volume 2949.271279
_symmetry_space_group_name_H-M "P M M N"
_symmetry_group_IT_number 59
_space_group.IT_coordinate_system_code '2'
_symmetry_cell_setting 'orthorhombic'
loop_
_space_group_symop_operation_xyz
x,y,z
1/2-x,1/2-y,z
1/2+x,-y,-z
-x,1/2+y,-z
-x,-y,-z
1/2+x,1/2+y,-z
1/2-x,y,z
x,1/2-y,z
loop_
_atom_site_type_symbol
_atom_site_label
_atom_site_fract_x
_atom_site_fract_y
_atom_site_fract_z
Si Si1 0.457848 0.840111 0.178826
Si Si2 0.965183 0.657111 0.564183
Si Si3 0.029544 0.500629 0.367671
Si Si4 0.468493 0.091706 0.058090
Si Si5 0.041321 0.103876 0.939242
Si Si6 0.034544 0.842910 0.437145
Si Si7 0.529558 0.500624 0.757873
Si Si8 0.969656 0.658808 0.826525
O O1 0.250000 0.836180 0.196400
O O2 0.539622 0.750000 0.189741
O O3 0.457906 0.857221 0.114316
O O4 0.534950 0.919613 0.209607
O O5 0.750000 0.660159 0.571549
O O6 0.035156 0.750000 0.575932
O O7 0.031990 0.582346 0.601429
O O8 0.998902 0.639506 0.500610
O O9 0.250000 0.500605 0.369044
O O10 0.968097 0.582774 0.399471
O O11 0.976214 0.501256 0.304849
O O12 0.250000 0.091399 0.056363
O O13 0.524715 0.141237 0.111299
O O14 0.525495 0.996000 0.064546
O O15 0.531263 0.124357 0.999377
O O16 0.250000 0.127765 0.937825
O O17 0.250000 0.840103 0.430407
O O18 0.965280 0.750000 0.425164
O O19 0.750000 0.501188 0.759768
O O20 0.470547 0.583725 0.788578
O O21 0.750000 0.657842 0.826280
O O22 0.027272 0.750000 0.808849
#
# Coordination Sequence:
#
# PCOD9447705 Si02
#       8
#     8   8   8   8   8   8   8   8
#     4  10  20  34  52  71  95 130 167 203 246 295
#     4   9  17  29  46  70  99 126 152 187 233 283
#     4   9  17  28  45  69  96 124 156 197 238 275
#     4   9  17  31  50  73 101 128 158 197 242 295
#     4  10  19  30  50  75  99 128 159 199 250 296
#     4   9  17  29  46  69  96 124 155 192 232 276
#     4   9  17  30  47  69  96 123 159 205 243 280
#     4   9  16  27  47  72  95 121 154 195 241 287
#
# _framework density 21.700277
#
# number of rings (size 3 to 8) (size 9 to 14) (size 15 to 20)
#    0.000    2.750    1.250    0.750    0.000    2.250 
#    0.000    6.250    0.000    1.875    0.000    1.750 
#    0.000    0.000    0.000    0.000    0.000    0.000 
#
# Total GULP energy -357331.921346 kJ/mol
# GULP energy per Si atom -5583.311271 kJ/mol
# Density = 2.165089 g / cm^3
# Si number density = 21.700277 Si / 1000 Ang^3
#
#
#
# Elastic Constant Matrix: (Units=GPa)
#
#
# Indices 1 2 3 4 5 6 
#
# 1 69.7831 6.4820 1.5620 0.0000 0.0000 0.0000
# 2 6.4820 205.4714 136.0463 0.0000 0.0000 0.0000
# 3 1.5620 136.0463 163.6499 0.0000 0.0000 0.0000
# 4 0.0000 0.0000 0.0000 -0.8896 0.0000 0.0000
# 5 0.0000 0.0000 0.0000 0.0000 15.4872 0.0000
# 6 0.0000 0.0000 0.0000 0.0000 0.0000 -16.3192
#
#
#
# Elastic Compliance Matrix: (Units=1/GPa)
#
#
# Indices 1 2 3 4 5 6 
#
# 1 0.014393 -0.000808 0.000534 0.000000 0.000000 0.000000
# 2 -0.000808 0.010871 -0.009030 0.000000 0.000000 0.000000
# 3 0.000534 -0.009030 0.013612 0.000000 0.000000 0.000000
# 4 0.000000 0.000000 0.000000 -1.124092 0.000000 0.000000
# 5 0.000000 0.000000 0.000000 0.000000 0.064570 0.000000
# 6 0.000000 0.000000 0.000000 0.000000 0.000000 -0.061277
#
#
# Mechanical properties :
#
#
# Convention : Reuss Voigt Hill
#
# Bulk Modulus (GPa) = 49.33455 80.78723 65.06089
# Shear Modulus (GPa) = -4.73234 19.30993 7.28880
#
# Velocity S-wave (km/s) = -1.47835 2.98627 1.83470
# Velocity P-wave (km/s) = 4.45756 7.01426 5.87664
#
# Compressibility (1/GPa) = 0.02026977
#
# Stress axis : x y z
#
# Youngs Moduli (GPa) = 69.47730 91.98754 73.46407
#
# Poissons Ratio (x) = 0.07430 -0.03923
# Poissons Ratio (y) = 0.05611 0.66336
# Poissons Ratio (z) = -0.03710 0.83062
#
# Static dielectric constant tensor:
#      x y z
#    x 1.799810 0.000000 0.000000 
#    y 0.000000 1.782520 0.000000 
#    z 0.000000 0.000000 1.735960 
# 
# From -- ./inp_files/29623.got.cif
#   From: 2010.05.17/outbox.cif.g08.bks.cpg/sg59_15_cif.got.tgz:29623.got - 2010.06.03 14:40:33.
