data_PCOD9447691
_publ_section_title
;
Structure prediction by ZEFSAII (Michael W. Deem and Ramdas Pophale) SiO2 
 PCOD9447691
Probable space group: P M M N
;
_chemical_formula_sum "Si O2"
_cell_formula_units_Z 64
_cell_length_a 30.378729
_cell_length_b 11.577807
_cell_length_c 10.136307
_cell_angle_alpha 90.000000
_cell_angle_beta 90.000000
_cell_angle_gamma 90.000000
_cell_volume 3565.132383
_symmetry_space_group_name_H-M "P M M N"
_symmetry_group_IT_number 59
_space_group.IT_coordinate_system_code '2'
_symmetry_cell_setting 'orthorhombic'
loop_
_space_group_symop_operation_xyz
x,y,z
1/2-x,1/2-y,z
1/2+x,-y,-z
-x,1/2+y,-z
-x,-y,-z
1/2+x,1/2+y,-z
1/2-x,y,z
x,1/2-y,z
loop_
_atom_site_type_symbol
_atom_site_label
_atom_site_fract_x
_atom_site_fract_y
_atom_site_fract_z
Si Si1 0.109836 0.885963 0.668537
Si Si2 0.956831 0.384608 0.114429
Si Si3 0.202495 0.384509 0.398935
Si Si4 0.956878 0.467696 0.821499
Si Si5 0.201003 0.111402 0.971710
Si Si6 0.799529 0.984774 0.322222
Si Si7 0.530277 0.385573 0.532821
Si Si8 0.631866 0.889676 0.805772
O O1 0.115522 0.750000 0.681506
O O2 0.085020 0.927589 0.801485
O O3 0.158021 0.937507 0.653363
O O4 0.075186 0.905202 0.549917
O O5 0.963746 0.250000 0.146278
O O6 0.998983 0.456926 0.160415
O O7 0.951211 0.399065 0.958180
O O8 0.250000 0.436860 0.360331
O O9 0.204298 0.250000 0.362722
O O10 0.199116 0.396148 0.555797
O O11 0.160458 0.429337 0.320778
O O12 0.961490 0.393242 0.689307
O O13 0.915159 0.551270 0.807281
O O14 0.250000 0.073444 0.017081
O O15 0.201063 0.250000 0.973174
O O16 0.195592 0.070653 0.821774
O O17 0.161902 0.075782 0.068742
O O18 0.750000 0.038032 0.326496
O O19 0.500000 0.500000 0.500000
O O20 0.515561 0.250000 0.502181
O O21 0.626703 0.750000 0.805402
#
# Coordination Sequence:
#
# PCOD9447691 Si02
#       8
#     8   8   8   8   8   8   8   8
#     4  10  21  38  57  77 109 147 183 230 287 338
#     4  10  21  37  56  77 106 145 182 227 285 338
#     4   9  17  30  48  72 104 139 173 216 275 336
#     4  11  21  35  57  81 109 141 184 236 277 339
#     4   9  17  30  48  73 109 149 186 231 288 342
#     4  10  19  32  52  76 104 139 183 229 275 332
#     4  11  23  41  63  87 116 152 193 239 291 350
#     4  10  19  30  49  77 107 142 186 233 280 339
#
# _framework density 17.951647000000001
#
# number of rings (size 3 to 8) (size 9 to 14) (size 15 to 20)
#    0.000    2.000    1.250    3.000    0.000    3.750 
#    0.000    1.250    0.000    0.000    0.000    0.000 
#    0.000   18.000    0.000    0.000    0.000    0.000 
#
# Total GULP energy -356470.189817 kJ/mol
# GULP energy per Si atom -5569.846716 kJ/mol
# Density = 1.791079 g / cm^3
# Si number density = 17.951647 Si / 1000 Ang^3
#
#
#
# Elastic Constant Matrix: (Units=GPa)
#
#
# Indices 1 2 3 4 5 6 
#
# 1 110.8725 37.5905 24.5946 0.0000 0.0000 0.0000
# 2 37.5905 49.2817 14.9857 0.0000 0.0000 0.0000
# 3 24.5946 14.9857 94.1787 0.0000 0.0000 0.0000
# 4 0.0000 0.0000 0.0000 20.9316 0.0000 0.0000
# 5 0.0000 0.0000 0.0000 0.0000 16.6659 0.0000
# 6 0.0000 0.0000 0.0000 0.0000 0.0000 19.2201
#
#
#
# Elastic Compliance Matrix: (Units=1/GPa)
#
#
# Indices 1 2 3 4 5 6 
#
# 1 0.012459 -0.008947 -0.001830 0.000000 0.000000 0.000000
# 2 -0.008947 0.027748 -0.002079 0.000000 0.000000 0.000000
# 3 -0.001830 -0.002079 0.011427 0.000000 0.000000 0.000000
# 4 0.000000 0.000000 0.000000 0.047775 0.000000 0.000000
# 5 0.000000 0.000000 0.000000 0.000000 0.060003 0.000000
# 6 0.000000 0.000000 0.000000 0.000000 0.000000 0.052029
#
#
# Mechanical properties :
#
#
# Convention : Reuss Voigt Hill
#
# Bulk Modulus (GPa) = 38.57663 45.40830 41.99246
# Shear Modulus (GPa) = 20.34250 23.17433 21.75841
#
# Velocity S-wave (km/s) = 3.36993 3.59685 3.48524
# Velocity P-wave (km/s) = 6.05621 6.52683 6.29592
#
# Compressibility (1/GPa) = 0.02592243
#
# Stress axis : x y z
#
# Youngs Moduli (GPa) = 80.26608 36.03895 87.51364
#
# Poissons Ratio (x) = 0.32242 0.16015
# Poissons Ratio (y) = 0.71810 0.18193
# Poissons Ratio (z) = 0.14688 0.07492
#
# Static dielectric constant tensor:
#      x y z
#    x 1.627040 0.000000 0.000000 
#    y 0.000000 1.603250 0.000000 
#    z 0.000000 0.000000 1.638010 
# 
# From -- ./inp_files/13219.got.cif
#   From: 2010.05.17/outbox.cif.g08.bks.cpg/sg59_7_cif.got.tgz:13219.got - 2010.06.03 14:40:33.
