data_PCOD9447363
_publ_section_title
;
Structure prediction by ZEFSAII (Michael W. Deem and Ramdas Pophale) SiO2 
 PCOD9447363
Probable space group: P M M N
;
_chemical_formula_sum "Si O2"
_cell_formula_units_Z 64
_cell_length_a 8.367168
_cell_length_b 27.761739
_cell_length_c 17.835270
_cell_angle_alpha 90.000000
_cell_angle_beta 90.000000
_cell_angle_gamma 90.000000
_cell_volume 4142.903756
_symmetry_space_group_name_H-M "P M M N"
_symmetry_group_IT_number 59
_space_group.IT_coordinate_system_code '2'
_symmetry_cell_setting 'orthorhombic'
loop_
_space_group_symop_operation_xyz
x,y,z
1/2-x,1/2-y,z
1/2+x,-y,-z
-x,1/2+y,-z
-x,-y,-z
1/2+x,1/2+y,-z
1/2-x,y,z
x,1/2-y,z
loop_
_atom_site_type_symbol
_atom_site_label
_atom_site_fract_x
_atom_site_fract_y
_atom_site_fract_z
Si Si1 0.442707 0.612390 0.474724
Si Si2 0.059218 0.439121 0.661330
Si Si3 0.441544 0.446233 0.980129
Si Si4 0.942100 0.925045 0.859011
Si Si5 0.444288 0.541098 0.601791
Si Si6 0.941992 0.124528 0.282644
Si Si7 0.059458 0.965491 0.177050
Si Si8 0.054667 0.695137 0.588830
O O1 0.250000 0.612074 0.474795
O O2 0.501455 0.604519 0.390661
O O3 0.499148 0.566949 0.525683
O O4 0.493786 0.660035 0.520418
O O5 0.250000 0.440232 0.660021
O O6 0.995885 0.488321 0.621969
O O7 0.004553 0.442012 0.747062
O O8 0.250000 0.445526 0.975583
O O9 0.510114 0.436780 0.897918
O O10 0.500000 0.500000 0.000000
O O11 0.492030 0.416901 0.054460
O O12 0.750000 0.927196 0.858394
O O13 0.995936 0.884930 0.800346
O O14 0.999909 0.978683 0.832695
O O15 0.250000 0.539449 0.598971
O O16 0.488275 0.577632 0.668437
O O17 0.750000 0.125994 0.279906
O O18 0.995254 0.169860 0.332945
O O19 0.250000 0.967574 0.180724
O O20 0.250000 0.695188 0.588842
O O21 0.000292 0.750000 0.581865
#
# Coordination Sequence:
#
# PCOD9447363 Si02
#       8
#     8   8   8   8   8   8   8   8
#     4   9  17  29  43  59  81 107 141 178 212 255
#     4  11  19  27  40  58  84 113 143 177 213 252
#     4   9  17  28  40  56  80 112 147 179 209 243
#     4   9  17  27  39  58  84 110 140 175 209 245
#     4   8  15  26  38  55  79 109 140 172 208 244
#     4   9  15  25  43  63  82 108 144 177 208 251
#     4  10  19  29  40  57  81 114 150 180 212 246
#     4   8  15  29  48  66  84 108 139 178 220 256
#
# _framework density 15.448103
#
# number of rings (size 3 to 8) (size 9 to 14) (size 15 to 20)
#    0.000    2.875    1.250    3.750    0.000    2.500 
#    0.000    3.125    0.000    1.500    0.000    0.000 
#    0.000    1.000    0.000    9.750    0.000    2.750 
#
# Total GULP energy -356284.572535 kJ/mol
# GULP energy per Si atom -5566.946446 kJ/mol
# Density = 1.541294 g / cm^3
# Si number density = 15.448103 Si / 1000 Ang^3
#
#
#
# Elastic Constant Matrix: (Units=GPa)
#
#
# Indices 1 2 3 4 5 6 
#
# 1 14.1533 12.2670 19.3246 0.0000 0.0000 0.0000
# 2 12.2670 63.8879 60.4420 0.0000 0.0000 0.0000
# 3 19.3246 60.4420 151.5411 0.0000 0.0000 0.0000
# 4 0.0000 0.0000 0.0000 11.7057 0.0000 0.0000
# 5 0.0000 0.0000 0.0000 0.0000 23.5941 0.0000
# 6 0.0000 0.0000 0.0000 0.0000 0.0000 8.8296
#
#
#
# Elastic Compliance Matrix: (Units=1/GPa)
#
#
# Indices 1 2 3 4 5 6 
#
# 1 0.089554 -0.010264 -0.007326 0.000000 0.000000 0.000000
# 2 -0.010264 0.026314 -0.009187 0.000000 0.000000 0.000000
# 3 -0.007326 -0.009187 0.011197 0.000000 0.000000 0.000000
# 4 0.000000 0.000000 0.000000 0.085428 0.000000 0.000000
# 5 0.000000 0.000000 0.000000 0.000000 0.042383 0.000000
# 6 0.000000 0.000000 0.000000 0.000000 0.000000 0.113256
#
#
# Mechanical properties :
#
#
# Convention : Reuss Voigt Hill
#
# Bulk Modulus (GPa) = 13.60324 45.96104 29.78214
# Shear Modulus (GPa) = 11.20597 17.99579 14.60088
#
# Velocity S-wave (km/s) = 2.69624 3.41679 3.07768
# Velocity P-wave (km/s) = 4.30323 6.73665 5.65244
#
# Compressibility (1/GPa) = 0.07351188
#
# Stress axis : x y z
#
# Youngs Moduli (GPa) = 11.16644 38.00222 89.30854
#
# Poissons Ratio (x) = 0.39006 0.65429
# Poissons Ratio (y) = 0.11461 0.82044
# Poissons Ratio (z) = 0.08181 0.34911
#
# Static dielectric constant tensor:
#      x y z
#    x 1.538320 0.000000 0.000000 
#    y 0.000000 1.496900 0.000000 
#    z 0.000000 0.000000 1.551280 
# 
# From -- ./inp_files/26611.got.cif
#   From: 2010.05.17/outbox.cif.g08.bks.cpg/sg59_14_cif.got.tgz:26611.got - 2010.06.03 14:40:33.
