data_PCOD9447203
_publ_section_title
;
Structure prediction by ZEFSAII (Michael W. Deem and Ramdas Pophale) SiO2 
 PCOD9447203
Probable space group: P M M N
;
_chemical_formula_sum "Si O2"
_cell_formula_units_Z 48
_cell_length_a 14.505543
_cell_length_b 18.735353
_cell_length_c 7.786924
_cell_angle_alpha 90.000000
_cell_angle_beta 90.000000
_cell_angle_gamma 90.000000
_cell_volume 2116.224836
_symmetry_space_group_name_H-M "P M M N"
_symmetry_group_IT_number 59
_space_group.IT_coordinate_system_code '2'
_symmetry_cell_setting 'orthorhombic'
loop_
_space_group_symop_operation_xyz
x,y,z
1/2-x,1/2-y,z
1/2+x,-y,-z
-x,1/2+y,-z
-x,-y,-z
1/2+x,1/2+y,-z
1/2-x,y,z
x,1/2-y,z
loop_
_atom_site_type_symbol
_atom_site_label
_atom_site_fract_x
_atom_site_fract_y
_atom_site_fract_z
Si Si1 0.647370 0.085433 0.859594
Si Si2 0.361384 0.093329 0.654968
Si Si3 0.082934 0.056711 0.025570
Si Si4 0.637341 0.438190 0.483720
Si Si5 0.861482 0.667397 0.690956
Si Si6 0.137211 0.668736 0.815337
O O1 0.750000 0.115633 0.831336
O O2 0.656688 0.005233 0.930737
O O3 0.602009 0.080230 0.673234
O O4 0.603724 0.134398 0.006348
O O5 0.250000 0.093853 0.670186
O O6 0.399102 0.097104 0.847425
O O7 0.385572 0.149771 0.507155
O O8 0.390133 0.016262 0.579175
O O9 0.088389 0.112555 0.180963
O O10 0.000000 0.000000 0.000000
O O11 0.750000 0.439795 0.491884
O O12 0.750000 0.655791 0.708771
O O13 0.880239 0.750000 0.730749
O O14 0.109801 0.619815 0.656204
O O15 0.250000 0.666561 0.818838
O O16 0.108574 0.750000 0.796230
#
# Coordination Sequence:
#
# PCOD9447203 Si02
#       6
#     8   8   8   8   8   8
#     4  10  18  33  55  78 107 150 203 255 302 366
#     4  10  19  36  64  93 120 157 212 270 322 386
#     4  12  24  37  60  93 130 170 208 253 325 413
#     4   9  16  28  52  79 105 139 189 250 305 356
#     4  10  22  42  69  99 128 163 219 290 345 383
#     4   9  17  28  46  76 109 140 182 240 296 344
#
# _framework density 22.681899000000001
#
# number of rings (size 3 to 8) (size 9 to 14) (size 15 to 20)
#    0.000    2.000    3.333    1.500    0.000    2.000 
#    0.000    5.833    0.000    0.000    0.000    0.000 
#    0.000    0.000    0.000    0.000    0.000    0.000 
#
# Total GULP energy -268208.882698 kJ/mol
# GULP energy per Si atom -5587.685056 kJ/mol
# Density = 2.263027 g / cm^3
# Si number density = 22.681899 Si / 1000 Ang^3
#
#
#
# Elastic Constant Matrix: (Units=GPa)
#
#
# Indices 1 2 3 4 5 6 
#
# 1 74.2900 21.5110 39.7269 0.0000 0.0000 0.0000
# 2 21.5110 104.8930 23.3901 0.0000 0.0000 0.0000
# 3 39.7269 23.3901 147.8464 0.0000 0.0000 0.0000
# 4 0.0000 0.0000 0.0000 40.9774 0.0000 0.0000
# 5 0.0000 0.0000 0.0000 0.0000 23.5272 0.0000
# 6 0.0000 0.0000 0.0000 0.0000 0.0000 10.9596
#
#
#
# Elastic Compliance Matrix: (Units=1/GPa)
#
#
# Indices 1 2 3 4 5 6 
#
# 1 0.016307 -0.002454 -0.003994 0.000000 0.000000 0.000000
# 2 -0.002454 0.010251 -0.000963 0.000000 0.000000 0.000000
# 3 -0.003994 -0.000963 0.007989 0.000000 0.000000 0.000000
# 4 0.000000 0.000000 0.000000 0.024404 0.000000 0.000000
# 5 0.000000 0.000000 0.000000 0.000000 0.042504 0.000000
# 6 0.000000 0.000000 0.000000 0.000000 0.000000 0.091245
#
#
# Mechanical properties :
#
#
# Convention : Reuss Voigt Hill
#
# Bulk Modulus (GPa) = 50.68956 55.14283 52.91619
# Shear Modulus (GPa) = 23.35415 31.25293 27.30354
#
# Velocity S-wave (km/s) = 3.21228 3.71601 3.47329
# Velocity P-wave (km/s) = 6.01289 6.54032 6.28214
#
# Compressibility (1/GPa) = 0.01972793
#
# Stress axis : x y z
#
# Youngs Moduli (GPa) = 61.32423 97.54830 125.17010
#
# Poissons Ratio (x) = 0.23935 0.49987
# Poissons Ratio (y) = 0.15047 0.12048
# Poissons Ratio (z) = 0.24490 0.09389
#
# Static dielectric constant tensor:
#      x y z
#    x 2.035750 0.000000 0.000000 
#    y 0.000000 1.765560 0.000000 
#    z 0.000000 0.000000 1.822040 
# 
# From -- ./inp_files/16108.got.cif
#   From: 2010.05.17/outbox.cif.g08.bks.cpg/sg59_9_cif.got.tgz:16108.got - 2010.06.03 14:40:33.
