data_PCOD9447309
_publ_section_title
;
Structure prediction by ZEFSAII (Michael W. Deem and Ramdas Pophale) SiO2 
 PCOD9447309
Probable space group: P M M N
;
_chemical_formula_sum "Si O2"
_cell_formula_units_Z 32
_cell_length_a 9.971555
_cell_length_b 21.978773
_cell_length_c 6.822193
_cell_angle_alpha 90.000000
_cell_angle_beta 90.000000
_cell_angle_gamma 90.000000
_cell_volume 1495.169172
_symmetry_space_group_name_H-M "P M M N"
_symmetry_group_IT_number 59
_space_group.IT_coordinate_system_code '2'
_symmetry_cell_setting 'orthorhombic'
loop_
_space_group_symop_operation_xyz
x,y,z
1/2-x,1/2-y,z
1/2+x,-y,-z
-x,1/2+y,-z
-x,-y,-z
1/2+x,1/2+y,-z
1/2-x,y,z
x,1/2-y,z
loop_
_atom_site_type_symbol
_atom_site_label
_atom_site_fract_x
_atom_site_fract_y
_atom_site_fract_z
Si Si1 0.250000 0.889149 0.183491
Si Si2 0.250000 0.750000 0.223291
Si Si3 0.250000 0.565634 0.764385
Si Si4 0.526204 0.072744 0.508987
Si Si5 0.750000 0.830590 0.052208
Si Si6 0.250000 0.424382 0.662919
Si Si7 0.057872 0.250000 0.693775
Si Si8 0.750000 0.750000 0.674374
O O1 0.250000 0.817510 0.126863
O O2 0.121309 0.907388 0.312536
O O3 0.250000 0.929786 0.992798
O O4 0.397307 0.750000 0.325813
O O5 0.387040 0.593434 0.677413
O O6 0.250000 0.497019 0.683006
O O7 0.379101 0.097781 0.544200
O O8 0.500000 0.000000 0.500000
O O9 0.750000 0.900479 0.113325
O O10 0.620829 0.803936 0.170816
O O11 0.750000 0.806170 0.831187
O O12 0.126173 0.250000 0.479265
#
# Coordination Sequence:
#
# PCOD9447309 Si02
#       8
#     4   2   4   8   4   4   4   2
#     4  11  23  43  63  90 129 167 211 255 310 376
#     4  12  24  42  64  86 128 172 204 258 306 366
#     4   9  21  41  62  87 123 164 203 250 309 372
#     4   9  20  40  63  90 125 161 205 260 313 371
#     4   9  18  38  62  90 122 152 200 259 306 362
#     4  10  18  35  65  93 120 156 198 257 317 362
#     4   9  20  40  61  83 121 163 201 253 308 356
#     4   8  18  40  64  86 122 162 208 254 300 372
#
# _framework density 21.402259999999998
#
# number of rings (size 3 to 8) (size 9 to 14) (size 15 to 20)
#    0.000    2.750    0.000    2.250    0.000    4.000 
#    0.000   48.750    0.000    0.000    0.000    0.000 
#    0.000    0.000    0.000    0.000    0.000    0.000 
#
# Total GULP energy -178135.530183 kJ/mol
# GULP energy per Si atom -5566.735318 kJ/mol
# Density = 2.135355 g / cm^3
# Si number density = 21.402260 Si / 1000 Ang^3
#
#
#
# Elastic Constant Matrix: (Units=GPa)
#
#
# Indices 1 2 3 4 5 6 
#
# 1 205.8142 7.5168 47.4877 0.0000 0.0000 0.0000
# 2 7.5168 44.7562 -8.3109 0.0000 0.0000 0.0000
# 3 47.4877 -8.3109 88.7168 0.0000 0.0000 0.0000
# 4 0.0000 0.0000 0.0000 21.6002 0.0000 0.0000
# 5 0.0000 0.0000 0.0000 0.0000 -4.3776 0.0000
# 6 0.0000 0.0000 0.0000 0.0000 0.0000 8.6444
#
#
#
# Elastic Compliance Matrix: (Units=1/GPa)
#
#
# Indices 1 2 3 4 5 6 
#
# 1 0.005645 -0.001536 -0.003166 0.000000 0.000000 0.000000
# 2 -0.001536 0.023157 0.002991 0.000000 0.000000 0.000000
# 3 -0.003166 0.002991 0.013247 0.000000 0.000000 0.000000
# 4 0.000000 0.000000 0.000000 0.046296 0.000000 0.000000
# 5 0.000000 0.000000 0.000000 0.000000 -0.228437 0.000000
# 6 0.000000 0.000000 0.000000 0.000000 0.000000 0.115681
#
#
# Mechanical properties :
#
#
# Convention : Reuss Voigt Hill
#
# Bulk Modulus (GPa) = 25.88778 48.07493 36.98136
# Shear Modulus (GPa) = -616.17410 24.67965 -295.74722
#
# Velocity S-wave (km/s) = -16.98607 3.39947 -11.76797
# Velocity P-wave (km/s) = 19.30233 6.15791 12.93561
#
# Compressibility (1/GPa) = 0.03862826
#
# Stress axis : x y z
#
# Youngs Moduli (GPa) = 177.13985 43.18398 75.49145
#
# Poissons Ratio (x) = 0.06633 0.23898
# Poissons Ratio (y) = 0.27208 -0.22583
# Poissons Ratio (z) = 0.56076 -0.12918
#
# Static dielectric constant tensor:
#      x y z
#    x 1.817880 0.000000 0.000000 
#    y 0.000000 1.848790 0.000000 
#    z 0.000000 0.000000 1.701790 
# 
# From -- ./inp_files/1288.got.cif
#   From: 2010.05.17/outbox.cif.g08.bks.cpg/sg59_1_cif.got.tgz:1288.got - 2010.06.03 14:40:33.
