data_PCOD9447948
_publ_section_title
;
Structure prediction by ZEFSAII (Michael W. Deem and Ramdas Pophale) SiO2 
 PCOD9447948
Probable space group: P M M N
;
_chemical_formula_sum "Si O2"
_cell_formula_units_Z 40
_cell_length_a 19.538324
_cell_length_b 8.394771
_cell_length_c 13.611421
_cell_angle_alpha 90.000000
_cell_angle_beta 90.000000
_cell_angle_gamma 90.000000
_cell_volume 2232.541947
_symmetry_space_group_name_H-M "P M M N"
_symmetry_group_IT_number 59
_space_group.IT_coordinate_system_code '2'
_symmetry_cell_setting 'orthorhombic'
loop_
_space_group_symop_operation_xyz
x,y,z
1/2-x,1/2-y,z
1/2+x,-y,-z
-x,1/2+y,-z
-x,-y,-z
1/2+x,1/2+y,-z
1/2-x,y,z
x,1/2-y,z
loop_
_atom_site_type_symbol
_atom_site_label
_atom_site_fract_x
_atom_site_fract_y
_atom_site_fract_z
Si Si1 0.422537 0.943134 0.785463
Si Si2 0.828861 0.057667 0.394250
Si Si3 0.421575 0.942069 0.999987
Si Si4 0.920930 0.441050 0.785540
Si Si5 0.671296 0.559637 0.607641
O O1 0.423496 0.750000 0.783854
O O2 0.376276 0.998731 0.694966
O O3 0.394200 0.993686 0.893229
O O4 0.500646 0.001103 0.776045
O O5 0.750000 0.004114 0.382054
O O6 0.829008 0.250000 0.393116
O O7 0.852941 0.002190 0.501451
O O8 0.420108 0.750000 0.000342
O O9 0.393693 0.994700 0.106243
O O10 0.500000 0.000000 0.000000
O O11 0.920783 0.250000 0.783598
O O12 0.875418 0.503209 0.696761
O O13 0.750000 0.503215 0.620474
O O14 0.671472 0.750000 0.605213
#
# Coordination Sequence:
#
# PCOD9447948 Si02
#       5
#     8   8   8   8   8
#     4   9  17  31  51  74 100 128 159 197 239 284
#     4   9  18  33  52  72  95 125 160 198 241 287
#     4   8  15  28  46  70  98 127 157 190 233 280
#     4  10  19  31  50  75 100 127 161 199 237 281
#     4  10  21  36  52  69  93 127 163 199 242 289
#
# _framework density 17.916796000000001
#
# number of rings (size 3 to 8) (size 9 to 14) (size 15 to 20)
#    0.000    2.800    0.000    1.200    0.000    3.600 
#    0.000    1.000    0.000    3.600    0.000    2.800 
#    0.000    0.000    0.000    0.000    0.000    0.000 
#
# Total GULP energy -222775.432782 kJ/mol
# GULP energy per Si atom -5569.385820 kJ/mol
# Density = 1.787602 g / cm^3
# Si number density = 17.916796 Si / 1000 Ang^3
#
#
#
# Elastic Constant Matrix: (Units=GPa)
#
#
# Indices 1 2 3 4 5 6 
#
# 1 51.4170 10.6229 84.1603 0.0000 0.0000 0.0000
# 2 10.6229 12.3785 25.8544 0.0000 0.0000 0.0000
# 3 84.1603 25.8544 235.7436 0.0000 0.0000 0.0000
# 4 0.0000 0.0000 0.0000 16.5657 0.0000 0.0000
# 5 0.0000 0.0000 0.0000 0.0000 -35.5125 0.0000
# 6 0.0000 0.0000 0.0000 0.0000 0.0000 7.8446
#
#
#
# Elastic Compliance Matrix: (Units=1/GPa)
#
#
# Indices 1 2 3 4 5 6 
#
# 1 0.047240 -0.006895 -0.016108 0.000000 0.000000 0.000000
# 2 -0.006895 0.105795 -0.009141 0.000000 0.000000 0.000000
# 3 -0.016108 -0.009141 0.010995 0.000000 0.000000 0.000000
# 4 0.000000 0.000000 0.000000 0.060366 0.000000 0.000000
# 5 0.000000 0.000000 0.000000 0.000000 -0.028159 0.000000
# 6 0.000000 0.000000 0.000000 0.000000 0.000000 0.127477
#
#
# Mechanical properties :
#
#
# Convention : Reuss Voigt Hill
#
# Bulk Modulus (GPa) = 10.02600 60.09047 35.05824
# Shear Modulus (GPa) = 11.86943 9.70630 10.78787
#
# Velocity S-wave (km/s) = 2.57665 2.33006 2.45645
# Velocity P-wave (km/s) = 3.80266 6.39143 5.25883
#
# Compressibility (1/GPa) = 0.09974069
#
# Stress axis : x y z
#
# Youngs Moduli (GPa) = 21.16852 9.45224 90.94941
#
# Poissons Ratio (x) = 0.06517 1.46505
# Poissons Ratio (y) = 0.14596 0.83139
# Poissons Ratio (z) = 0.34099 0.08640
#
# Static dielectric constant tensor:
#      x y z
#    x 1.577530 0.000000 0.000000 
#    y 0.000000 1.609060 0.000000 
#    z 0.000000 0.000000 1.654430 
# 
# From -- ./inp_files/14049.got.cif
#   From: 2010.05.17/outbox.cif.g08.bks.cpg/sg59_8_cif.got.tgz:14049.got - 2010.06.03 14:40:33.
