data_PCOD9447169
_publ_section_title
;
Structure prediction by ZEFSAII (Michael W. Deem and Ramdas Pophale) SiO2 
 PCOD9447169
Probable space group: P M M N
;
_chemical_formula_sum "Si O2"
_cell_formula_units_Z 64
_cell_length_a 25.560169
_cell_length_b 8.541774
_cell_length_c 15.408438
_cell_angle_alpha 90.000000
_cell_angle_beta 90.000000
_cell_angle_gamma 90.000000
_cell_volume 3364.111741
_symmetry_space_group_name_H-M "P M M N"
_symmetry_group_IT_number 59
_space_group.IT_coordinate_system_code '2'
_symmetry_cell_setting 'orthorhombic'
loop_
_space_group_symop_operation_xyz
x,y,z
1/2-x,1/2-y,z
1/2+x,-y,-z
-x,1/2+y,-z
-x,-y,-z
1/2+x,1/2+y,-z
1/2-x,y,z
x,1/2-y,z
loop_
_atom_site_type_symbol
_atom_site_label
_atom_site_fract_x
_atom_site_fract_y
_atom_site_fract_z
Si Si1 0.809386 0.559298 0.054738
Si Si2 0.548372 0.070527 0.449386
Si Si3 0.807758 0.940943 0.357128
Si Si4 0.646738 0.931043 0.529733
Si Si5 0.109442 0.935041 0.285976
Si Si6 0.886361 0.938867 0.206422
Si Si7 0.189746 0.438968 0.144705
Si Si8 0.993609 0.427545 0.254400
O O1 0.750000 0.509843 0.077043
O O2 0.809133 0.750000 0.056482
O O3 0.852431 0.507548 0.123721
O O4 0.820340 0.513728 0.955239
O O5 0.561054 0.250000 0.476356
O O6 0.531371 0.074014 0.350337
O O7 0.500000 0.000000 0.500000
O O8 0.594582 0.953319 0.472582
O O9 0.750000 0.982030 0.323286
O O10 0.810706 0.750000 0.359797
O O11 0.812806 0.994748 0.457625
O O12 0.853626 0.994476 0.291848
O O13 0.658768 0.750000 0.547429
O O14 0.633118 0.008181 0.621622
O O15 0.105767 0.750000 0.288866
O O16 0.148975 0.989309 0.211185
O O17 0.051186 0.999486 0.265480
O O18 0.885689 0.750000 0.209467
O O19 0.946775 0.990254 0.201891
O O20 0.250000 0.481478 0.165584
O O21 0.186196 0.250000 0.149117
O O22 0.000262 0.250000 0.223330
#
# Coordination Sequence:
#
# PCOD9447169 Si02
#       8
#     8   8   8   8   8   8   8   8
#     4   8  15  31  60  93 117 143 184 232 280 334
#     4  11  21  33  53  76 104 143 191 238 279 325
#     4   9  18  31  50  79 113 148 185 225 270 326
#     4  11  21  34  53  78 110 147 189 232 280 334
#     4  12  25  39  58  83 112 147 193 241 287 335
#     4  10  18  32  57  87 117 147 185 231 278 329
#     4   9  19  39  65  89 114 145 183 229 283 341
#     4  11  23  37  54  79 115 153 191 231 281 339
#
# _framework density 19.024339000000001
#
# number of rings (size 3 to 8) (size 9 to 14) (size 15 to 20)
#    0.000    1.875    2.500    3.375    0.000    3.250 
#    0.000    2.500    0.000    4.875    0.000    0.000 
#    0.000    0.000    0.000    0.000    0.000    0.000 
#
# Total GULP energy -356727.267568 kJ/mol
# GULP energy per Si atom -5573.863556 kJ/mol
# Density = 1.898104 g / cm^3
# Si number density = 19.024339 Si / 1000 Ang^3
#
#
#
# Elastic Constant Matrix: (Units=GPa)
#
#
# Indices 1 2 3 4 5 6 
#
# 1 107.6998 26.4037 71.0731 0.0000 0.0000 0.0000
# 2 26.4037 41.9848 30.5157 0.0000 0.0000 0.0000
# 3 71.0731 30.5157 110.7888 0.0000 0.0000 0.0000
# 4 0.0000 0.0000 0.0000 12.9146 0.0000 0.0000
# 5 0.0000 0.0000 0.0000 0.0000 35.5270 0.0000
# 6 0.0000 0.0000 0.0000 0.0000 0.0000 23.5573
#
#
#
# Elastic Compliance Matrix: (Units=1/GPa)
#
#
# Indices 1 2 3 4 5 6 
#
# 1 0.016470 -0.003349 -0.009643 0.000000 0.000000 0.000000
# 2 -0.003349 0.030461 -0.006242 0.000000 0.000000 0.000000
# 3 -0.009643 -0.006242 0.016932 0.000000 0.000000 0.000000
# 4 0.000000 0.000000 0.000000 0.077432 0.000000 0.000000
# 5 0.000000 0.000000 0.000000 0.000000 0.028148 0.000000
# 6 0.000000 0.000000 0.000000 0.000000 0.000000 0.042450
#
#
# Mechanical properties :
#
#
# Convention : Reuss Voigt Hill
#
# Bulk Modulus (GPa) = 39.37827 57.38428 48.38127
# Shear Modulus (GPa) = 19.31809 23.23183 21.27496
#
# Velocity S-wave (km/s) = 3.19006 3.49831 3.34773
# Velocity P-wave (km/s) = 5.85768 6.82251 6.35842
#
# Compressibility (1/GPa) = 0.02539472
#
# Stress axis : x y z
#
# Youngs Moduli (GPa) = 60.71703 32.82897 59.06025
#
# Poissons Ratio (x) = 0.10993 0.56954
# Poissons Ratio (y) = 0.20332 0.36865
# Poissons Ratio (z) = 0.58552 0.20492
#
# Static dielectric constant tensor:
#      x y z
#    x 1.746500 0.000000 0.000000 
#    y 0.000000 1.691080 0.000000 
#    z 0.000000 0.000000 1.677290 
# 
# From -- ./inp_files/24745.got.cif
#   From: 2010.05.17/outbox.cif.g08.bks.cpg/sg59_13_cif.got.tgz:24745.got - 2010.06.03 14:40:33.
