data_PCOD9447821
_publ_section_title
;
Structure prediction by ZEFSAII (Michael W. Deem and Ramdas Pophale) SiO2 
 PCOD9447821
Probable space group: P M M N
;
_chemical_formula_sum "Si O2"
_cell_formula_units_Z 48
_cell_length_a 9.263133
_cell_length_b 32.979493
_cell_length_c 7.949567
_cell_angle_alpha 90.000000
_cell_angle_beta 90.000000
_cell_angle_gamma 90.000000
_cell_volume 2428.540489
_symmetry_space_group_name_H-M "P M M N"
_symmetry_group_IT_number 59
_space_group.IT_coordinate_system_code '2'
_symmetry_cell_setting 'orthorhombic'
loop_
_space_group_symop_operation_xyz
x,y,z
1/2-x,1/2-y,z
1/2+x,-y,-z
-x,1/2+y,-z
-x,-y,-z
1/2+x,1/2+y,-z
1/2-x,y,z
x,1/2-y,z
loop_
_atom_site_type_symbol
_atom_site_label
_atom_site_fract_x
_atom_site_fract_y
_atom_site_fract_z
Si Si1 0.423958 0.085471 0.319485
Si Si2 0.586053 0.250000 0.185830
Si Si3 0.077037 0.909967 0.320792
Si Si4 0.083330 0.750000 0.227305
Si Si5 0.588262 0.827779 0.816958
Si Si6 0.577368 0.497818 0.681240
Si Si7 0.913562 0.829462 0.218235
O O1 0.250000 0.086284 0.353218
O O2 0.515884 0.087234 0.489800
O O3 0.460403 0.126498 0.221369
O O4 0.454096 0.041501 0.235202
O O5 0.750000 0.250000 0.240080
O O6 0.509458 0.291064 0.244968
O O7 0.583290 0.250000 0.979377
O O8 0.250000 0.904717 0.316863
O O9 0.039030 0.954113 0.240506
O O10 0.998198 0.871117 0.245876
O O11 0.250000 0.750000 0.279825
O O12 0.000322 0.790485 0.284148
O O13 0.750000 0.822885 0.748143
O O14 0.595989 0.823715 0.017763
O O15 0.500000 0.500000 0.500000
O O16 0.750000 0.496141 0.654313
O O17 0.750000 0.831755 0.285786
#
# Coordination Sequence:
#
# PCOD9447821 Si02
#       7
#     8   4   8   4   8   8   8
#     4   9  17  32  52  72  94 124 161 201 241 284
#     4   9  17  29  48  71  96 125 156 190 234 285
#     4  10  19  31  48  72  99 127 159 198 240 283
#     4   9  17  31  50  71  94 123 158 196 236 281
#     4   9  18  32  51  72  95 124 160 197 234 279
#     4   8  15  28  47  68  92 123 159 195 235 282
#     4  10  19  32  50  72  97 127 160 194 233 282
#
# _framework density 19.764959000000001
#
# number of rings (size 3 to 8) (size 9 to 14) (size 15 to 20)
#    0.000    2.833    0.000    1.500    0.000    4.000 
#    0.000    1.667    0.000    3.000    0.000    0.000 
#    0.000    0.000    0.000    0.000    0.000    0.000 
#
# Total GULP energy -267276.669519 kJ/mol
# GULP energy per Si atom -5568.263948 kJ/mol
# Density = 1.971997 g / cm^3
# Si number density = 19.764959 Si / 1000 Ang^3
#
#
#
# Elastic Constant Matrix: (Units=GPa)
#
#
# Indices 1 2 3 4 5 6 
#
# 1 90.4286 98.3399 8.8167 0.0000 0.0000 0.0000
# 2 98.3399 238.7359 9.0180 0.0000 0.0000 0.0000
# 3 8.8167 9.0180 7.2984 0.0000 0.0000 0.0000
# 4 0.0000 0.0000 0.0000 27.5116 0.0000 0.0000
# 5 0.0000 0.0000 0.0000 0.0000 12.9049 0.0000
# 6 0.0000 0.0000 0.0000 0.0000 0.0000 -16.7213
#
#
#
# Elastic Compliance Matrix: (Units=1/GPa)
#
#
# Indices 1 2 3 4 5 6 
#
# 1 0.021655 -0.008320 -0.015879 0.000000 0.000000 0.000000
# 2 -0.008320 0.007591 0.000672 0.000000 0.000000 0.000000
# 3 -0.015879 0.000672 0.155368 0.000000 0.000000 0.000000
# 4 0.000000 0.000000 0.000000 0.036348 0.000000 0.000000
# 5 0.000000 0.000000 0.000000 0.000000 0.077490 0.000000
# 6 0.000000 0.000000 0.000000 0.000000 0.000000 -0.059804
#
#
# Mechanical properties :
#
#
# Convention : Reuss Voigt Hill
#
# Bulk Modulus (GPa) = 7.26959 63.20134 35.23546
# Shear Modulus (GPa) = 15.08043 19.42494 17.25268
#
# Velocity S-wave (km/s) = 2.76522 3.13836 2.95768
# Velocity P-wave (km/s) = 3.72576 6.72148 5.43413
#
# Compressibility (1/GPa) = 0.13755933
#
# Stress axis : x y z
#
# Youngs Moduli (GPa) = 46.17922 131.74196 6.43631
#
# Poissons Ratio (x) = 1.09612 0.10220
# Poissons Ratio (y) = 0.38422 -0.00433
# Poissons Ratio (z) = 0.73328 -0.08853
#
# Static dielectric constant tensor:
#      x y z
#    x 1.674100 0.000000 0.000000 
#    y 0.000000 1.749660 0.000000 
#    z 0.000000 0.000000 1.696410 
# 
# From -- ./inp_files/6351.got.cif
#   From: 2010.05.17/outbox.cif.g08.bks.cpg/sg59_4_cif.got.tgz:6351.got - 2010.06.03 14:40:33.
