data_PCOD9448790
_publ_section_title
;
Structure prediction by ZEFSAII (Michael W. Deem and Ramdas Pophale) SiO2 
 PCOD9448790
Probable space group: P M M N
;
_chemical_formula_sum "Si O2"
_cell_formula_units_Z 56
_cell_length_a 13.649893
_cell_length_b 28.194674
_cell_length_c 9.553673
_cell_angle_alpha 90.000000
_cell_angle_beta 90.000000
_cell_angle_gamma 90.000000
_cell_volume 3676.771975
_symmetry_space_group_name_H-M "P M M N"
_symmetry_group_IT_number 59
_space_group.IT_coordinate_system_code '2'
_symmetry_cell_setting 'orthorhombic'
loop_
_space_group_symop_operation_xyz
x,y,z
1/2-x,1/2-y,z
1/2+x,-y,-z
-x,1/2+y,-z
-x,-y,-z
1/2+x,1/2+y,-z
1/2-x,y,z
x,1/2-y,z
loop_
_atom_site_type_symbol
_atom_site_label
_atom_site_fract_x
_atom_site_fract_y
_atom_site_fract_z
Si Si1 0.867659 0.304885 0.268410
Si Si2 0.631583 0.392218 0.754263
Si Si3 0.361803 0.990487 0.641472
Si Si4 0.448668 0.608751 0.559665
Si Si5 0.868680 0.196805 0.944188
Si Si6 0.137030 0.445540 0.367335
Si Si7 0.464931 0.511748 0.155371
O O1 0.750000 0.311208 0.278858
O O2 0.888683 0.250000 0.303858
O O3 0.919321 0.342584 0.366857
O O4 0.896122 0.312327 0.105753
O O5 0.750000 0.393602 0.738889
O O6 0.581915 0.390598 0.602215
O O7 0.602600 0.345598 0.842240
O O8 0.594749 0.439441 0.832323
O O9 0.250000 0.996451 0.687636
O O10 0.388768 0.935205 0.627752
O O11 0.371826 0.014108 0.488224
O O12 0.439390 0.014079 0.745148
O O13 0.561534 0.595085 0.586817
O O14 0.750000 0.197891 0.942471
O O15 0.902187 0.250000 0.904443
O O16 0.250000 0.431015 0.359541
O O17 0.100622 0.470157 0.224673
O O18 0.500000 0.500000 0.000000
#
# Coordination Sequence:
#
# PCOD9448790 Si02
#       7
#     8   8   8   8   8   8   8
#     4   9  18  32  50  75 104 131 163 205 251 303
#     4  11  20  31  49  73 104 135 166 205 247 293
#     4  10  19  34  52  70  98 137 169 201 246 295
#     4  11  19  32  52  77  97 127 171 205 249 299
#     4   8  17  32  47  67  99 135 163 193 243 299
#     4  10  20  37  54  69 101 138 170 209 252 294
#     4  11  22  33  47  74 105 133 169 208 247 301
#
# _framework density 15.230751
#
# number of rings (size 3 to 8) (size 9 to 14) (size 15 to 20)
#    0.000    2.000    2.857    3.429    4.000    1.714 
#    0.000    1.429    0.000    0.429    0.000    0.000 
#    0.000    0.571    0.000    0.000    0.000    0.000 
#
# Total GULP energy -312288.340991 kJ/mol
# GULP energy per Si atom -5576.577518 kJ/mol
# Density = 1.519609 g / cm^3
# Si number density = 15.230751 Si / 1000 Ang^3
#
#
#
# Elastic Constant Matrix: (Units=GPa)
#
#
# Indices 1 2 3 4 5 6 
#
# 1 96.1127 46.4064 41.1432 0.0000 0.0000 0.0000
# 2 46.4064 106.0503 58.5400 0.0000 0.0000 0.0000
# 3 41.1432 58.5400 89.2478 0.0000 0.0000 0.0000
# 4 0.0000 0.0000 0.0000 28.3970 0.0000 0.0000
# 5 0.0000 0.0000 0.0000 0.0000 18.7513 0.0000
# 6 0.0000 0.0000 0.0000 0.0000 0.0000 22.1488
#
#
#
# Elastic Compliance Matrix: (Units=1/GPa)
#
#
# Indices 1 2 3 4 5 6 
#
# 1 0.013972 -0.004011 -0.003810 0.000000 0.000000 0.000000
# 2 -0.004011 0.015933 -0.008602 0.000000 0.000000 0.000000
# 3 -0.003810 -0.008602 0.018604 0.000000 0.000000 0.000000
# 4 0.000000 0.000000 0.000000 0.035215 0.000000 0.000000
# 5 0.000000 0.000000 0.000000 0.000000 0.053330 0.000000
# 6 0.000000 0.000000 0.000000 0.000000 0.000000 0.045149
#
#
# Mechanical properties :
#
#
# Convention : Reuss Voigt Hill
#
# Bulk Modulus (GPa) = 63.84652 64.84334 64.34493
# Shear Modulus (GPa) = 22.69954 23.54749 23.12352
#
# Velocity S-wave (km/s) = 3.86473 3.93625 3.90065
# Velocity P-wave (km/s) = 7.86926 7.95771 7.91361
#
# Compressibility (1/GPa) = 0.01566256
#
# Stress axis : x y z
#
# Youngs Moduli (GPa) = 71.57137 62.76394 53.75329
#
# Poissons Ratio (x) = 0.25172 0.20482
# Poissons Ratio (y) = 0.28705 0.46237
# Poissons Ratio (z) = 0.27272 0.53988
#
# Static dielectric constant tensor:
#      x y z
#    x 1.504000 0.000000 0.000000 
#    y 0.000000 1.497090 0.000000 
#    z 0.000000 0.000000 1.507360 
# 
# From -- ./inp_files/9717.got.cif
#   From: 2010.05.17/outbox.cif.g08.bks.cpg/sg59_5_cif.got.tgz:9717.got - 2010.06.03 14:40:33.
