data_PCOD9448154
_publ_section_title
;
Structure prediction by ZEFSAII (Michael W. Deem and Ramdas Pophale) SiO2 
 PCOD9448154
Probable space group: P M M N
;
_chemical_formula_sum "Si O2"
_cell_formula_units_Z 48
_cell_length_a 10.050684
_cell_length_b 13.838391
_cell_length_c 20.803667
_cell_angle_alpha 90.000000
_cell_angle_beta 90.000000
_cell_angle_gamma 90.000000
_cell_volume 2893.484162
_symmetry_space_group_name_H-M "P M M N"
_symmetry_group_IT_number 59
_space_group.IT_coordinate_system_code '2'
_symmetry_cell_setting 'orthorhombic'
loop_
_space_group_symop_operation_xyz
x,y,z
1/2-x,1/2-y,z
1/2+x,-y,-z
-x,1/2+y,-z
-x,-y,-z
1/2+x,1/2+y,-z
1/2-x,y,z
x,1/2-y,z
loop_
_atom_site_type_symbol
_atom_site_label
_atom_site_fract_x
_atom_site_fract_y
_atom_site_fract_z
Si Si1 0.098994 0.077476 0.471707
Si Si2 0.904666 0.136043 0.023980
Si Si3 0.092674 0.504491 0.098792
Si Si4 0.589008 0.250000 0.690400
Si Si5 0.894751 0.750000 0.427081
Si Si6 0.088795 0.954419 0.245107
Si Si7 0.088554 0.140735 0.327508
O O1 0.250000 0.039230 0.463741
O O2 0.101303 0.160313 0.524882
O O3 0.057596 0.118298 0.402091
O O4 0.000000 0.000000 0.500000
O O5 0.750000 0.117703 0.041495
O O6 0.926787 0.250000 0.022691
O O7 0.003755 0.082696 0.072351
O O8 0.924455 0.089976 0.953271
O O9 0.250000 0.479225 0.099696
O O10 0.052659 0.535128 0.170370
O O11 0.750000 0.250000 0.683761
O O12 0.514520 0.250000 0.622570
O O13 0.549787 0.149988 0.726235
O O14 0.750000 0.750000 0.393197
O O15 0.250000 0.955681 0.248347
O O16 0.042200 0.049419 0.284697
O O17 0.250000 0.142880 0.322631
O O18 0.042426 0.250000 0.310310
#
# Coordination Sequence:
#
# PCOD9448154 Si02
#       7
#     8   8   8   4   4   8   8
#     4  10  19  32  51  73  97 129 165 207 254 302
#     4   9  18  32  51  73 102 138 170 204 253 308
#     4   9  18  32  50  76 103 131 170 214 253 297
#     4  10  20  34  52  78 106 131 170 218 258 305
#     4  10  20  34  50  72 102 135 170 206 254 309
#     4   9  18  30  49  76 103 131 165 211 260 298
#     4   9  16  29  47  69  98 130 164 200 247 304
#
# _framework density 16.588996000000002
#
# number of rings (size 3 to 8) (size 9 to 14) (size 15 to 20)
#    0.000    2.667    0.833    1.000    1.167    3.000 
#    0.000    2.500    0.000    1.000    0.000    0.000 
#    0.000    0.000    0.000    0.000    0.000    0.000 
#
# Total GULP energy -267306.286121 kJ/mol
# GULP energy per Si atom -5568.880961 kJ/mol
# Density = 1.655124 g / cm^3
# Si number density = 16.588996 Si / 1000 Ang^3
#
#
#
# Elastic Constant Matrix: (Units=GPa)
#
#
# Indices 1 2 3 4 5 6 
#
# 1 35.8931 41.7449 34.1308 0.0000 0.0000 0.0000
# 2 41.7449 130.9166 55.7990 0.0000 0.0000 0.0000
# 3 34.1308 55.7990 113.8220 0.0000 0.0000 0.0000
# 4 0.0000 0.0000 0.0000 8.3511 0.0000 0.0000
# 5 0.0000 0.0000 0.0000 0.0000 23.2192 0.0000
# 6 0.0000 0.0000 0.0000 0.0000 0.0000 18.5944
#
#
#
# Elastic Compliance Matrix: (Units=1/GPa)
#
#
# Indices 1 2 3 4 5 6 
#
# 1 0.050975 -0.012312 -0.009250 0.000000 0.000000 0.000000
# 2 -0.012312 0.012630 -0.002500 0.000000 0.000000 0.000000
# 3 -0.009250 -0.002500 0.012785 0.000000 0.000000 0.000000
# 4 0.000000 0.000000 0.000000 0.119745 0.000000 0.000000
# 5 0.000000 0.000000 0.000000 0.000000 0.043068 0.000000
# 6 0.000000 0.000000 0.000000 0.000000 0.000000 0.053780
#
#
# Mechanical properties :
#
#
# Convention : Reuss Voigt Hill
#
# Bulk Modulus (GPa) = 35.37686 60.44233 47.90960
# Shear Modulus (GPa) = 14.26424 19.96341 17.11382
#
# Velocity S-wave (km/s) = 2.93552 3.47279 3.21540
# Velocity P-wave (km/s) = 5.73250 7.25222 6.53667
#
# Compressibility (1/GPa) = 0.02826706
#
# Stress axis : x y z
#
# Youngs Moduli (GPa) = 19.61732 79.17865 78.21853
#
# Poissons Ratio (x) = 0.97484 0.72351
# Poissons Ratio (y) = 0.24153 0.19551
# Poissons Ratio (z) = 0.18146 0.19791
#
# Static dielectric constant tensor:
#      x y z
#    x 1.554390 0.000000 0.000000 
#    y 0.000000 1.552960 0.000000 
#    z 0.000000 0.000000 1.542870 
# 
# From -- ./inp_files/30006.got.cif
#   From: 2010.05.17/outbox.cif.g08.bks.cpg/sg59_16_cif.got.tgz:30006.got - 2010.06.03 14:40:33.
