data_PCOD9448485
_publ_section_title
;
Structure prediction by ZEFSAII (Michael W. Deem and Ramdas Pophale) SiO2 
 PCOD9448485
Probable space group: P M M N
;
_chemical_formula_sum "Si O2"
_cell_formula_units_Z 64
_cell_length_a 25.614284
_cell_length_b 7.648224
_cell_length_c 15.534441
_cell_angle_alpha 90.000000
_cell_angle_beta 90.000000
_cell_angle_gamma 90.000000
_cell_volume 3043.255737
_symmetry_space_group_name_H-M "P M M N"
_symmetry_group_IT_number 59
_space_group.IT_coordinate_system_code '2'
_symmetry_cell_setting 'orthorhombic'
loop_
_space_group_symop_operation_xyz
x,y,z
1/2-x,1/2-y,z
1/2+x,-y,-z
-x,1/2+y,-z
-x,-y,-z
1/2+x,1/2+y,-z
1/2-x,y,z
x,1/2-y,z
loop_
_atom_site_type_symbol
_atom_site_label
_atom_site_fract_x
_atom_site_fract_y
_atom_site_fract_z
Si Si1 0.190589 0.961226 0.867252
Si Si2 0.807349 0.464368 0.643874
Si Si3 0.348992 0.949729 0.530481
Si Si4 0.887949 0.043860 0.787391
Si Si5 0.615819 0.458186 0.283674
Si Si6 0.995832 0.051976 0.747479
Si Si7 0.191079 0.043456 0.064416
Si Si8 0.453193 0.040926 0.436533
O O1 0.250000 0.020677 0.849959
O O2 0.190516 0.750000 0.864238
O O3 0.150455 0.025937 0.795356
O O4 0.177237 0.012203 0.964724
O O5 0.750000 0.511854 0.678156
O O6 0.809971 0.250000 0.642400
O O7 0.812528 0.526608 0.544768
O O8 0.853733 0.527151 0.706713
O O9 0.330943 0.750000 0.544989
O O10 0.363100 0.028610 0.623997
O O11 0.403284 0.952980 0.478803
O O12 0.895314 0.250000 0.770255
O O13 0.946799 0.970529 0.800109
O O14 0.851481 0.028612 0.870399
O O15 0.623523 0.250000 0.289170
O O16 0.554240 0.480067 0.264558
O O17 0.004074 0.250000 0.777249
O O18 0.969929 0.040381 0.653365
O O19 0.250000 0.971477 0.078106
O O20 0.193145 0.250000 0.079048
O O21 0.445734 0.250000 0.428330
O O22 0.500000 0.000000 0.500000
#
# Coordination Sequence:
#
# PCOD9448485 Si02
#       8
#     8   8   8   8   8   8   8   8
#     4   9  19  38  62  86 112 144 185 231 278 331
#     4   9  17  30  50  77 110 147 186 227 273 327
#     4  10  19  33  51  77 111 145 186 230 273 324
#     4  10  20  35  56  81 111 147 188 229 274 335
#     4  10  21  35  56  84 114 148 186 231 278 328
#     4  11  22  36  55  81 113 149 188 229 276 331
#     4  10  21  37  59  87 113 141 182 232 286 337
#     4  12  22  33  52  76 105 145 191 234 275 317
#
# _framework density 21.030110000000001
#
# number of rings (size 3 to 8) (size 9 to 14) (size 15 to 20)
#    0.000    1.875    2.500    2.250    0.000    3.250 
#    0.000    3.125    0.000    0.375    0.000    1.750 
#    0.000    0.000    0.000    0.000    0.000    0.000 
#
# Total GULP energy -356847.725739 kJ/mol
# GULP energy per Si atom -5575.745715 kJ/mol
# Density = 2.098224 g / cm^3
# Si number density = 21.030110 Si / 1000 Ang^3
#
#
#
# Elastic Constant Matrix: (Units=GPa)
#
#
# Indices 1 2 3 4 5 6 
#
# 1 90.8532 -1.0538 65.3373 0.0000 0.0000 0.0000
# 2 -1.0538 56.8836 -2.3786 0.0000 0.0000 0.0000
# 3 65.3373 -2.3786 115.5022 0.0000 0.0000 0.0000
# 4 0.0000 0.0000 0.0000 2.1661 0.0000 0.0000
# 5 0.0000 0.0000 0.0000 0.0000 40.4726 0.0000
# 6 0.0000 0.0000 0.0000 0.0000 0.0000 11.1331
#
#
#
# Elastic Compliance Matrix: (Units=1/GPa)
#
#
# Indices 1 2 3 4 5 6 
#
# 1 0.018556 -0.000095 -0.010499 0.000000 0.000000 0.000000
# 2 -0.000095 0.017595 0.000416 0.000000 0.000000 0.000000
# 3 -0.010499 0.000416 0.014605 0.000000 0.000000 0.000000
# 4 0.000000 0.000000 0.000000 0.461651 0.000000 0.000000
# 5 0.000000 0.000000 0.000000 0.000000 0.024708 0.000000
# 6 0.000000 0.000000 0.000000 0.000000 0.000000 0.089822
#
#
# Mechanical properties :
#
#
# Convention : Reuss Voigt Hill
#
# Bulk Modulus (GPa) = 32.89346 43.00545 37.94945
# Shear Modulus (GPa) = 7.60541 24.17664 15.89102
#
# Velocity S-wave (km/s) = 1.90376 3.39428 2.75186
# Velocity P-wave (km/s) = 4.52852 5.98794 5.30862
#
# Compressibility (1/GPa) = 0.03040118
#
# Stress axis : x y z
#
# Youngs Moduli (GPa) = 53.89164 56.83307 68.46850
#
# Poissons Ratio (x) = 0.00541 0.71882
# Poissons Ratio (y) = 0.00513 -0.02850
# Poissons Ratio (z) = 0.56579 -0.02366
#
# Static dielectric constant tensor:
#      x y z
#    x 1.867580 0.000000 0.000000 
#    y 0.000000 1.810110 0.000000 
#    z 0.000000 0.000000 1.792310 
# 
# From -- ./inp_files/24795.got.cif
#   From: 2010.05.17/outbox.cif.g08.bks.cpg/sg59_13_cif.got.tgz:24795.got - 2010.06.03 14:40:33.
