data_PCOD9448110
_publ_section_title
;
Structure prediction by ZEFSAII (Michael W. Deem and Ramdas Pophale) SiO2 
 PCOD9448110
Probable space group: P M M N
;
_chemical_formula_sum "Si O2"
_cell_formula_units_Z 64
_cell_length_a 25.350098
_cell_length_b 8.959800
_cell_length_c 16.305119
_cell_angle_alpha 90.000000
_cell_angle_beta 90.000000
_cell_angle_gamma 90.000000
_cell_volume 3703.411159
_symmetry_space_group_name_H-M "P M M N"
_symmetry_group_IT_number 59
_space_group.IT_coordinate_system_code '2'
_symmetry_cell_setting 'orthorhombic'
loop_
_space_group_symop_operation_xyz
x,y,z
1/2-x,1/2-y,z
1/2+x,-y,-z
-x,1/2+y,-z
-x,-y,-z
1/2+x,1/2+y,-z
1/2-x,y,z
x,1/2-y,z
loop_
_atom_site_type_symbol
_atom_site_label
_atom_site_fract_x
_atom_site_fract_y
_atom_site_fract_z
Si Si1 0.812862 0.417663 0.306519
Si Si2 0.917593 0.930105 0.041929
Si Si3 0.342308 0.071599 0.523653
Si Si4 0.188265 0.069918 0.864801
Si Si5 0.586549 0.072012 0.718753
Si Si6 0.471511 0.930132 0.116518
Si Si7 0.192278 0.070502 0.342361
Si Si8 0.051446 0.927898 0.463337
O O1 0.750000 0.405874 0.301021
O O2 0.835533 0.250000 0.306778
O O3 0.823812 0.499664 0.391855
O O4 0.827793 0.507383 0.224624
O O5 0.916934 0.750000 0.034198
O O6 0.859292 0.975860 0.073636
O O7 0.966669 0.969282 0.102790
O O8 0.936392 0.001193 0.956410
O O9 0.340395 0.250000 0.530883
O O10 0.312165 0.029812 0.439198
O O11 0.400216 0.010377 0.506237
O O12 0.250000 0.024835 0.883050
O O13 0.188393 0.250000 0.861909
O O14 0.594074 0.250000 0.725458
O O15 0.553126 0.021251 0.796993
O O16 0.556017 0.043630 0.633886
O O17 0.643680 0.998100 0.706859
O O18 0.468540 0.750000 0.111756
O O19 0.250000 0.024446 0.311957
O O20 0.188417 0.250000 0.338544
O O21 0.054106 0.750000 0.476269
O O22 0.000000 0.000000 0.500000
#
# Coordination Sequence:
#
# PCOD9448110 Si02
#       8
#     8   8   8   8   8   8   8   8
#     4  10  20  32  47  71 102 132 165 206 247 290
#     4   9  18  33  54  78 101 128 162 202 248 296
#     4  10  19  32  50  70  95 130 170 210 252 297
#     4   9  18  33  52  74 102 135 168 202 247 305
#     4   9  19  34  51  72 100 133 167 206 252 302
#     4   9  18  34  54  75  99 127 163 205 247 295
#     4   9  18  32  50  72  97 127 166 210 253 298
#     4  10  20  34  50  71 100 133 170 209 252 301
#
# _framework density 17.281365000000001
#
# number of rings (size 3 to 8) (size 9 to 14) (size 15 to 20)
#    0.000    2.625    0.000    1.500    0.000    4.500 
#    0.000    3.125    0.000    2.250    0.000    0.000 
#    0.000    0.000    0.000    0.000    0.000    0.000 
#
# Total GULP energy -356497.926160 kJ/mol
# GULP energy per Si atom -5570.280096 kJ/mol
# Density = 1.724203 g / cm^3
# Si number density = 17.281365 Si / 1000 Ang^3
#
#
#
# Elastic Constant Matrix: (Units=GPa)
#
#
# Indices 1 2 3 4 5 6 
#
# 1 108.7608 21.3683 47.3213 0.0000 0.0000 0.0000
# 2 21.3683 15.4022 16.1467 0.0000 0.0000 0.0000
# 3 47.3213 16.1467 57.8032 0.0000 0.0000 0.0000
# 4 0.0000 0.0000 0.0000 27.7219 0.0000 0.0000
# 5 0.0000 0.0000 0.0000 0.0000 16.6500 0.0000
# 6 0.0000 0.0000 0.0000 0.0000 0.0000 25.3112
#
#
#
# Elastic Compliance Matrix: (Units=1/GPa)
#
#
# Indices 1 2 3 4 5 6 
#
# 1 0.015644 -0.011705 -0.009537 0.000000 0.000000 0.000000
# 2 -0.011705 0.100570 -0.018511 0.000000 0.000000 0.000000
# 3 -0.009537 -0.018511 0.030279 0.000000 0.000000 0.000000
# 4 0.000000 0.000000 0.000000 0.036073 0.000000 0.000000
# 5 0.000000 0.000000 0.000000 0.000000 0.060060 0.000000
# 6 0.000000 0.000000 0.000000 0.000000 0.000000 0.039508
#
#
# Mechanical properties :
#
#
# Convention : Reuss Voigt Hill
#
# Bulk Modulus (GPa) = 14.92835 39.07097 26.99966
# Shear Modulus (GPa) = 13.02189 20.41194 16.71692
#
# Velocity S-wave (km/s) = 2.74801 3.44052 3.11358
# Velocity P-wave (km/s) = 4.32735 6.20006 5.34634
#
# Compressibility (1/GPa) = 0.06698664
#
# Stress axis : x y z
#
# Youngs Moduli (GPa) = 63.92279 9.94329 33.02661
#
# Poissons Ratio (x) = 0.11639 0.31499
# Poissons Ratio (y) = 0.74823 0.61134
# Poissons Ratio (z) = 0.60965 0.18406
#
# Static dielectric constant tensor:
#      x y z
#    x 1.585630 0.000000 0.000000 
#    y 0.000000 1.589980 0.000000 
#    z 0.000000 0.000000 1.576190 
# 
# From -- ./inp_files/24668.got.cif
#   From: 2010.05.17/outbox.cif.g08.bks.cpg/sg59_13_cif.got.tgz:24668.got - 2010.06.03 14:40:33.
