data_PCOD9448038
_publ_section_title
;
Structure prediction by ZEFSAII (Michael W. Deem and Ramdas Pophale) SiO2 
 PCOD9448038
Probable space group: P M M N
;
_chemical_formula_sum "Si O2"
_cell_formula_units_Z 56
_cell_length_a 20.262080
_cell_length_b 7.858445
_cell_length_c 18.207065
_cell_angle_alpha 90.000000
_cell_angle_beta 90.000000
_cell_angle_gamma 90.000000
_cell_volume 2899.082580
_symmetry_space_group_name_H-M "P M M N"
_symmetry_group_IT_number 59
_space_group.IT_coordinate_system_code '2'
_symmetry_cell_setting 'orthorhombic'
loop_
_space_group_symop_operation_xyz
x,y,z
1/2-x,1/2-y,z
1/2+x,-y,-z
-x,1/2+y,-z
-x,-y,-z
1/2+x,1/2+y,-z
1/2-x,y,z
x,1/2-y,z
loop_
_atom_site_type_symbol
_atom_site_label
_atom_site_fract_x
_atom_site_fract_y
_atom_site_fract_z
Si Si1 0.953977 0.455264 0.694897
Si Si2 0.826890 0.958759 0.977642
Si Si3 0.067026 0.048375 0.139946
Si Si4 0.103067 0.455374 0.722507
Si Si5 0.570603 0.455478 0.534093
Si Si6 0.177629 0.546277 0.580148
Si Si7 0.415813 0.453786 0.885435
O O1 0.953225 0.250000 0.694452
O O2 0.925783 0.508318 0.773707
O O3 0.923100 0.516140 0.618340
O O4 0.030577 0.510663 0.695312
O O5 0.750000 0.013260 0.977782
O O6 0.825547 0.750000 0.977948
O O7 0.870025 0.015813 0.048247
O O8 0.871113 0.014803 0.907949
O O9 0.065127 0.250000 0.131278
O O10 0.994750 0.987073 0.112026
O O11 0.103520 0.250000 0.724045
O O12 0.155344 0.513062 0.663160
O O13 0.109347 0.517238 0.806084
O O14 0.500000 0.500000 0.500000
O O15 0.574803 0.250000 0.536301
O O16 0.625211 0.522800 0.478077
O O17 0.250000 0.476255 0.566856
O O18 0.179239 0.750000 0.570738
O O19 0.409341 0.250000 0.885513
#
# Coordination Sequence:
#
# PCOD9448038 Si02
#       7
#     8   8   8   8   8   8   8
#     4   9  18  33  52  75 101 128 165 211 253 297
#     4   9  18  33  52  74 101 136 175 211 252 302
#     4  10  19  31  52  79 103 130 168 214 258 299
#     4   9  17  30  49  74  99 126 164 205 244 292
#     4  10  19  33  54  75  98 130 170 211 248 295
#     4  10  21  34  48  71 104 137 164 198 252 307
#     4   9  18  33  54  76 101 132 168 209 253 304
#
# _framework density 19.316454
#
# number of rings (size 3 to 8) (size 9 to 14) (size 15 to 20)
#    0.000    2.571    1.429    1.714    0.000    3.714 
#    0.000    2.857    0.000    4.714    0.000    0.000 
#    0.000    0.000    0.000    0.000    0.000    0.000 
#
# Total GULP energy -312221.555382 kJ/mol
# GULP energy per Si atom -5575.384918 kJ/mol
# Density = 1.927249 g / cm^3
# Si number density = 19.316454 Si / 1000 Ang^3
#
#
#
# Elastic Constant Matrix: (Units=GPa)
#
#
# Indices 1 2 3 4 5 6 
#
# 1 152.5800 4.7990 110.6611 0.0000 0.0000 0.0000
# 2 4.7990 14.2972 5.3354 0.0000 0.0000 0.0000
# 3 110.6611 5.3354 157.0291 0.0000 0.0000 0.0000
# 4 0.0000 0.0000 0.0000 -25.5791 0.0000 0.0000
# 5 0.0000 0.0000 0.0000 0.0000 21.0737 0.0000
# 6 0.0000 0.0000 0.0000 0.0000 0.0000 15.2754
#
#
#
# Elastic Compliance Matrix: (Units=1/GPa)
#
#
# Indices 1 2 3 4 5 6 
#
# 1 0.013419 -0.000988 -0.009423 0.000000 0.000000 0.000000
# 2 -0.000988 0.070915 -0.001713 0.000000 0.000000 0.000000
# 3 -0.009423 -0.001713 0.013067 0.000000 0.000000 0.000000
# 4 0.000000 0.000000 0.000000 -0.039094 0.000000 0.000000
# 5 0.000000 0.000000 0.000000 0.000000 0.047453 0.000000
# 6 0.000000 0.000000 0.000000 0.000000 0.000000 0.065465
#
#
# Mechanical properties :
#
#
# Convention : Reuss Voigt Hill
#
# Bulk Modulus (GPa) = 13.67011 62.83303 38.25157
# Shear Modulus (GPa) = 22.74202 15.69471 19.21836
#
# Velocity S-wave (km/s) = 3.43496 2.85354 3.15766
# Velocity P-wave (km/s) = 4.77747 6.59210 5.75673
#
# Compressibility (1/GPa) = 0.07315229
#
# Stress axis : x y z
#
# Youngs Moduli (GPa) = 74.51883 14.10147 76.52721
#
# Poissons Ratio (x) = 0.01393 0.72114
# Poissons Ratio (y) = 0.07361 0.13112
# Poissons Ratio (z) = 0.70222 0.02416
#
# Static dielectric constant tensor:
#      x y z
#    x 1.656990 0.000000 0.000000 
#    y 0.000000 1.698650 0.000000 
#    z 0.000000 0.000000 1.698560 
# 
# From -- ./inp_files/28097.got.cif
#   From: 2010.05.17/outbox.cif.g08.bks.cpg/sg59_15_cif.got.tgz:28097.got - 2010.06.03 14:40:33.
