data_PCOD9448124
_publ_section_title
;
Structure prediction by ZEFSAII (Michael W. Deem and Ramdas Pophale) SiO2 
 PCOD9448124
Probable space group: P M M N
;
_chemical_formula_sum "Si O2"
_cell_formula_units_Z 48
_cell_length_a 9.042562
_cell_length_b 33.249572
_cell_length_c 9.399504
_cell_angle_alpha 90.000000
_cell_angle_beta 90.000000
_cell_angle_gamma 90.000000
_cell_volume 2826.067245
_symmetry_space_group_name_H-M "P M M N"
_symmetry_group_IT_number 59
_space_group.IT_coordinate_system_code '2'
_symmetry_cell_setting 'orthorhombic'
loop_
_space_group_symop_operation_xyz
x,y,z
1/2-x,1/2-y,z
1/2+x,-y,-z
-x,1/2+y,-z
-x,-y,-z
1/2+x,1/2+y,-z
1/2-x,y,z
x,1/2-y,z
loop_
_atom_site_type_symbol
_atom_site_label
_atom_site_fract_x
_atom_site_fract_y
_atom_site_fract_z
Si Si1 0.918896 0.835470 0.634411
Si Si2 0.928155 0.128201 0.934765
Si Si3 0.927555 0.460512 0.434052
Si Si4 0.926567 0.379688 0.607353
Si Si5 0.079103 0.418216 0.181127
Si Si6 0.428558 0.204265 0.084916
O O1 0.750000 0.826326 0.596092
O O2 0.921103 0.876892 0.726264
O O3 0.008560 0.844857 0.492860
O O4 0.972011 0.803019 0.749663
O O5 0.750000 0.127324 0.945750
O O6 0.973572 0.122571 0.770932
O O7 0.989853 0.170750 0.992013
O O8 0.997341 0.093912 0.036097
O O9 0.750000 0.463938 0.426766
O O10 0.965293 0.422429 0.535386
O O11 0.000000 0.500000 0.500000
O O12 0.994225 0.450166 0.279137
O O13 0.750000 0.376571 0.604034
O O14 0.250000 0.429525 0.157571
O O15 0.250000 0.197566 0.077761
O O16 0.459356 0.250000 0.042273
#
# Coordination Sequence:
#
# PCOD9448124 Si02
#       6
#     8   8   8   8   8   8
#     4   8  15  28  48  70  91 119 157 196 232 276
#     4  10  19  32  50  73 100 130 163 198 240 291
#     4  10  19  33  52  74  99 128 163 205 250 292
#     4   9  19  33  49  70  98 128 158 196 241 290
#     4   9  17  31  50  72  96 126 163 199 237 285
#     4   9  18  33  51  72  98 127 161 201 242 285
#
# _framework density 16.984732999999999
#
# number of rings (size 3 to 8) (size 9 to 14) (size 15 to 20)
#    0.000    2.833    0.000    2.500    0.000    6.333 
#    0.000    1.667    0.000    3.000    0.000    0.000 
#    0.000    0.000    0.000    0.000    0.000    0.000 
#
# Total GULP energy -267410.537381 kJ/mol
# GULP energy per Si atom -5571.052862 kJ/mol
# Density = 1.694608 g / cm^3
# Si number density = 16.984733 Si / 1000 Ang^3
#
#
#
# Elastic Constant Matrix: (Units=GPa)
#
#
# Indices 1 2 3 4 5 6 
#
# 1 53.8282 26.4539 45.9736 0.0000 0.0000 0.0000
# 2 26.4539 44.6881 24.6250 0.0000 0.0000 0.0000
# 3 45.9736 24.6250 132.9258 0.0000 0.0000 0.0000
# 4 0.0000 0.0000 0.0000 13.5501 0.0000 0.0000
# 5 0.0000 0.0000 0.0000 0.0000 25.7626 0.0000
# 6 0.0000 0.0000 0.0000 0.0000 0.0000 19.9687
#
#
#
# Elastic Compliance Matrix: (Units=1/GPa)
#
#
# Indices 1 2 3 4 5 6 
#
# 1 0.033434 -0.014946 -0.008795 0.000000 0.000000 0.000000
# 2 -0.014946 0.031602 -0.000685 0.000000 0.000000 0.000000
# 3 -0.008795 -0.000685 0.010692 0.000000 0.000000 0.000000
# 4 0.000000 0.000000 0.000000 0.073800 0.000000 0.000000
# 5 0.000000 0.000000 0.000000 0.000000 0.038816 0.000000
# 6 0.000000 0.000000 0.000000 0.000000 0.000000 0.050078
#
#
# Mechanical properties :
#
#
# Convention : Reuss Voigt Hill
#
# Bulk Modulus (GPa) = 37.20706 47.28300 42.24503
# Shear Modulus (GPa) = 16.87862 20.81559 18.84710
#
# Velocity S-wave (km/s) = 3.15580 3.50458 3.33475
# Velocity P-wave (km/s) = 5.93570 6.65395 6.30506
#
# Compressibility (1/GPa) = 0.02687662
#
# Stress axis : x y z
#
# Youngs Moduli (GPa) = 29.90958 31.64330 93.53037
#
# Poissons Ratio (x) = 0.47293 0.82258
# Poissons Ratio (y) = 0.44702 0.06410
# Poissons Ratio (z) = 0.26305 0.02169
#
# Static dielectric constant tensor:
#      x y z
#    x 1.573820 0.000000 0.000000 
#    y 0.000000 1.572160 0.000000 
#    z 0.000000 0.000000 1.576150 
# 
# From -- ./inp_files/6325.got.cif
#   From: 2010.05.17/outbox.cif.g08.bks.cpg/sg59_4_cif.got.tgz:6325.got - 2010.06.03 14:40:33.
