data_PCOD9448020
_publ_section_title
;
Structure prediction by ZEFSAII (Michael W. Deem and Ramdas Pophale) SiO2 
 PCOD9448020
Probable space group: P M M N
;
_chemical_formula_sum "Si O2"
_cell_formula_units_Z 64
_cell_length_a 19.366500
_cell_length_b 8.883444
_cell_length_c 21.958217
_cell_angle_alpha 90.000000
_cell_angle_beta 90.000000
_cell_angle_gamma 90.000000
_cell_volume 3777.718403
_symmetry_space_group_name_H-M "P M M N"
_symmetry_group_IT_number 59
_space_group.IT_coordinate_system_code '2'
_symmetry_cell_setting 'orthorhombic'
loop_
_space_group_symop_operation_xyz
x,y,z
1/2-x,1/2-y,z
1/2+x,-y,-z
-x,1/2+y,-z
-x,-y,-z
1/2+x,1/2+y,-z
1/2-x,y,z
x,1/2-y,z
loop_
_atom_site_type_symbol
_atom_site_label
_atom_site_fract_x
_atom_site_fract_y
_atom_site_fract_z
Si Si1 0.077566 0.429885 0.352696
Si Si2 0.324874 0.068893 0.113043
Si Si3 0.630190 0.422311 0.764746
Si Si4 0.169395 0.929930 0.597867
Si Si5 0.573961 0.069653 0.518005
Si Si6 0.567324 0.930832 0.308365
Si Si7 0.972161 0.929534 0.938148
Si Si8 0.525097 0.921727 0.179932
O O1 0.076965 0.250000 0.354294
O O2 0.126654 0.490152 0.298787
O O3 0.096202 0.498527 0.417961
O O4 0.000463 0.489923 0.336682
O O5 0.250000 0.026931 0.086434
O O6 0.328326 0.250000 0.116801
O O7 0.393318 0.019123 0.076779
O O8 0.329595 0.003265 0.181089
O O9 0.652562 0.250000 0.756346
O O10 0.551231 0.419859 0.789706
O O11 0.250000 0.966689 0.592605
O O12 0.162872 0.750000 0.608486
O O13 0.127982 0.963288 0.535769
O O14 0.132100 0.017285 0.652359
O O15 0.567214 0.250000 0.524021
O O16 0.500000 0.000000 0.500000
O O17 0.557623 0.750000 0.311280
O O18 0.571966 0.972327 0.236710
O O19 0.972188 0.750000 0.942912
O O20 0.018177 0.979499 0.880246
O O21 0.000000 0.000000 0.000000
O O22 0.542680 0.750000 0.162904
#
# Coordination Sequence:
#
# PCOD9448020 Si02
#       8
#     8   8   8   8   8   8   8   8
#     4  11  20  31  50  75 102 133 170 216 262 309
#     4   9  18  33  52  75 104 139 178 216 259 315
#     4   9  17  30  48  73 102 131 165 208 255 305
#     4  10  22  38  54  74 102 136 172 215 271 330
#     4  11  21  34  53  76 102 134 177 225 268 321
#     4  10  19  32  53  78 102 129 166 214 263 311
#     4  10  19  31  51  78 108 142 176 215 258 303
#     4   8  16  30  48  73 102 128 160 205 250 296
#
# _framework density 16.941441999999999
#
# number of rings (size 3 to 8) (size 9 to 14) (size 15 to 20)
#    0.000    2.250    1.250    3.375    0.000    5.000 
#    0.000    0.625    0.000    3.000    0.000    1.750 
#    0.000    0.000    0.000    0.000    0.000    0.000 
#
# Total GULP energy -356884.756210 kJ/mol
# GULP energy per Si atom -5576.324316 kJ/mol
# Density = 1.690288 g / cm^3
# Si number density = 16.941442 Si / 1000 Ang^3
#
#
#
# Elastic Constant Matrix: (Units=GPa)
#
#
# Indices 1 2 3 4 5 6 
#
# 1 84.3816 36.1629 58.6498 0.0000 0.0000 0.0000
# 2 36.1629 65.4687 61.6563 0.0000 0.0000 0.0000
# 3 58.6498 61.6563 147.8895 0.0000 0.0000 0.0000
# 4 0.0000 0.0000 0.0000 32.8854 0.0000 0.0000
# 5 0.0000 0.0000 0.0000 0.0000 16.1632 0.0000
# 6 0.0000 0.0000 0.0000 0.0000 0.0000 14.8968
#
#
#
# Elastic Compliance Matrix: (Units=1/GPa)
#
#
# Indices 1 2 3 4 5 6 
#
# 1 0.017339 -0.005107 -0.004747 0.000000 0.000000 0.000000
# 2 -0.005107 0.026653 -0.009086 0.000000 0.000000 0.000000
# 3 -0.004747 -0.009086 0.012433 0.000000 0.000000 0.000000
# 4 0.000000 0.000000 0.000000 0.030409 0.000000 0.000000
# 5 0.000000 0.000000 0.000000 0.000000 0.061869 0.000000
# 6 0.000000 0.000000 0.000000 0.000000 0.000000 0.067128
#
#
# Mechanical properties :
#
#
# Convention : Reuss Voigt Hill
#
# Bulk Modulus (GPa) = 53.92741 67.85309 60.89025
# Shear Modulus (GPa) = 19.23873 22.20714 20.72294
#
# Velocity S-wave (km/s) = 3.37352 3.62445 3.50124
# Velocity P-wave (km/s) = 6.86112 7.59302 7.23633
#
# Compressibility (1/GPa) = 0.01854344
#
# Stress axis : x y z
#
# Youngs Moduli (GPa) = 57.67310 37.51974 80.43307
#
# Poissons Ratio (x) = 0.19160 0.38184
# Poissons Ratio (y) = 0.29452 0.73085
# Poissons Ratio (z) = 0.27379 0.34092
#
# Static dielectric constant tensor:
#      x y z
#    x 1.580680 0.000000 0.000000 
#    y 0.000000 1.570840 0.000000 
#    z 0.000000 0.000000 1.567010 
# 
# From -- ./inp_files/30651.got.cif
#   From: 2010.05.17/outbox.cif.g08.bks.cpg/sg59_16_cif.got.tgz:30651.got - 2010.06.03 14:40:33.
