data_PCOD9448720
_publ_section_title
;
Structure prediction by ZEFSAII (Michael W. Deem and Ramdas Pophale) SiO2 
 PCOD9448720
Probable space group: P M M N
;
_chemical_formula_sum "Si O2"
_cell_formula_units_Z 64
_cell_length_a 12.783872
_cell_length_b 27.453580
_cell_length_c 10.036671
_cell_angle_alpha 90.000000
_cell_angle_beta 90.000000
_cell_angle_gamma 90.000000
_cell_volume 3522.500693
_symmetry_space_group_name_H-M "P M M N"
_symmetry_group_IT_number 59
_space_group.IT_coordinate_system_code '2'
_symmetry_cell_setting 'orthorhombic'
loop_
_space_group_symop_operation_xyz
x,y,z
1/2-x,1/2-y,z
1/2+x,-y,-z
-x,1/2+y,-z
-x,-y,-z
1/2+x,1/2+y,-z
1/2-x,y,z
x,1/2-y,z
loop_
_atom_site_type_symbol
_atom_site_label
_atom_site_fract_x
_atom_site_fract_y
_atom_site_fract_z
Si Si1 0.626637 0.062935 0.291666
Si Si2 0.529701 0.630602 0.835357
Si Si3 0.509621 0.029377 0.796925
Si Si4 0.627795 0.691776 0.063697
Si Si5 0.130002 0.306262 0.382095
Si Si6 0.984047 0.806450 0.343503
Si Si7 0.125348 0.601493 0.405429
Si Si8 0.867879 0.954209 0.967752
O O1 0.750000 0.055083 0.271080
O O2 0.578572 0.101963 0.186849
O O3 0.611017 0.084150 0.440975
O O4 0.561226 0.013161 0.269831
O O5 0.555406 0.660014 0.703100
O O6 0.551593 0.666859 0.956793
O O7 0.614091 0.588214 0.861299
O O8 0.566454 0.063024 0.690206
O O9 0.436205 0.057470 0.901930
O O10 0.591765 0.002497 0.894329
O O11 0.750000 0.675236 0.052523
O O12 0.628954 0.750000 0.042787
O O13 0.578813 0.682534 0.208585
O O14 0.250000 0.320591 0.361139
O O15 0.119121 0.250000 0.339300
O O16 0.098089 0.309004 0.535432
O O17 0.022108 0.750000 0.337001
O O18 0.073286 0.846003 0.375324
O O19 0.250000 0.602207 0.379707
O O20 0.750000 0.959484 0.008843
#
# Coordination Sequence:
#
# PCOD9448720 Si02
#       8
#     8   8   8   8   8   8   8   8
#     4  10  22  40  60  82 115 153 194 247 298 346
#     4  11  20  34  56  84 115 149 193 237 289 350
#     4  10  21  37  59  82 112 151 196 240 288 352
#     4  10  20  35  57  85 120 158 193 239 297 350
#     4  10  19  33  55  82 114 150 189 235 286 341
#     4  10  21  38  58  85 119 154 193 236 285 346
#     4  11  22  39  61  84 113 152 197 245 296 347
#     4  10  20  34  54  83 116 149 186 235 292 350
#
# _framework density 18.16891
#
# number of rings (size 3 to 8) (size 9 to 14) (size 15 to 20)
#    0.000    1.750    1.250    3.750    0.000    2.750 
#    0.000    6.875    0.000    2.250    0.000    0.000 
#    0.000    0.000    0.000    0.000    0.000    0.000 
#
# Total GULP energy -357039.257994 kJ/mol
# GULP energy per Si atom -5578.738406 kJ/mol
# Density = 1.812756 g / cm^3
# Si number density = 18.168910 Si / 1000 Ang^3
#
#
#
# Elastic Constant Matrix: (Units=GPa)
#
#
# Indices 1 2 3 4 5 6 
#
# 1 67.2321 27.5414 9.9044 0.0000 0.0000 0.0000
# 2 27.5414 62.7464 21.4295 0.0000 0.0000 0.0000
# 3 9.9044 21.4295 72.0352 0.0000 0.0000 0.0000
# 4 0.0000 0.0000 0.0000 32.3870 0.0000 0.0000
# 5 0.0000 0.0000 0.0000 0.0000 24.3298 0.0000
# 6 0.0000 0.0000 0.0000 0.0000 0.0000 19.2148
#
#
#
# Elastic Compliance Matrix: (Units=1/GPa)
#
#
# Indices 1 2 3 4 5 6 
#
# 1 0.018136 -0.007913 -0.000140 0.000000 0.000000 0.000000
# 2 -0.007913 0.021192 -0.005216 0.000000 0.000000 0.000000
# 3 -0.000140 -0.005216 0.015453 0.000000 0.000000 0.000000
# 4 0.000000 0.000000 0.000000 0.030877 0.000000 0.000000
# 5 0.000000 0.000000 0.000000 0.000000 0.041102 0.000000
# 6 0.000000 0.000000 0.000000 0.000000 0.000000 0.052043
#
#
# Mechanical properties :
#
#
# Convention : Reuss Voigt Hill
#
# Bulk Modulus (GPa) = 35.40656 35.52940 35.46798
# Shear Modulus (GPa) = 23.28242 24.72888 24.00565
#
# Velocity S-wave (km/s) = 3.58361 3.69325 3.63884
# Velocity P-wave (km/s) = 6.05415 6.14689 6.10070
#
# Compressibility (1/GPa) = 0.02824336
#
# Stress axis : x y z
#
# Youngs Moduli (GPa) = 55.13942 47.18801 64.71196
#
# Poissons Ratio (x) = 0.37339 0.00904
# Poissons Ratio (y) = 0.43630 0.33756
# Poissons Ratio (z) = 0.00770 0.24615
#
# Static dielectric constant tensor:
#      x y z
#    x 1.600260 0.000000 0.000000 
#    y 0.000000 1.645580 0.000000 
#    z 0.000000 0.000000 1.619460 
# 
# From -- ./inp_files/8018.got.cif
#   From: 2010.05.17/outbox.cif.g08.bks.cpg/sg59_5_cif.got.tgz:8018.got - 2010.06.03 14:40:33.
