data_PCOD9448730
_publ_section_title
;
Structure prediction by ZEFSAII (Michael W. Deem and Ramdas Pophale) SiO2 
 PCOD9448730
Probable space group: P M M N
;
_chemical_formula_sum "Si O2"
_cell_formula_units_Z 56
_cell_length_a 19.697989
_cell_length_b 9.872443
_cell_length_c 14.450007
_cell_angle_alpha 90.000000
_cell_angle_beta 90.000000
_cell_angle_gamma 90.000000
_cell_volume 2810.053465
_symmetry_space_group_name_H-M "P M M N"
_symmetry_group_IT_number 59
_space_group.IT_coordinate_system_code '2'
_symmetry_cell_setting 'orthorhombic'
loop_
_space_group_symop_operation_xyz
x,y,z
1/2-x,1/2-y,z
1/2+x,-y,-z
-x,1/2+y,-z
-x,-y,-z
1/2+x,1/2+y,-z
1/2-x,y,z
x,1/2-y,z
loop_
_atom_site_type_symbol
_atom_site_label
_atom_site_fract_x
_atom_site_fract_y
_atom_site_fract_z
Si Si1 0.894080 0.475852 0.201574
Si Si2 0.828551 0.087049 0.537740
Si Si3 0.034384 0.599227 0.173519
Si Si4 0.085738 0.415138 0.332453
Si Si5 0.250000 0.402565 0.016080
Si Si6 0.443629 0.901068 0.602593
Si Si7 0.128639 0.600348 0.008172
Si Si8 0.750000 0.900586 0.207984
O O1 0.921621 0.395796 0.289825
O O2 0.820324 0.528223 0.231223
O O3 0.953404 0.585199 0.183210
O O4 0.885052 0.407797 0.101487
O O5 0.750000 0.065659 0.512552
O O6 0.835904 0.250000 0.556311
O O7 0.880533 0.044778 0.455850
O O8 0.850683 0.992208 0.623047
O O9 0.054319 0.750000 0.206954
O O10 0.069400 0.481079 0.233129
O O11 0.060819 0.586401 0.068782
O O12 0.089971 0.250000 0.330878
O O13 0.019154 0.461745 0.393029
O O14 0.250000 0.250000 0.053439
O O15 0.182634 0.487309 0.038069
O O16 0.250000 0.393885 0.904093
O O17 0.454355 0.750000 0.566491
O O18 0.157210 0.750000 0.027572
O O19 0.750000 0.750000 0.246534
#
# Coordination Sequence:
#
# PCOD9448730 Si02
#       8
#     8   8   8   8   4   8   8   4
#     4  10  19  33  55  84 120 156 192 235 281 333
#     4  10  21  38  61  87 116 148 187 231 287 352
#     4  10  21  37  58  84 115 155 202 243 288 342
#     4  10  21  39  61  85 115 149 191 243 293 341
#     4   9  19  35  53  75 106 147 192 239 293 346
#     4   9  19  35  57  86 116 149 188 230 280 342
#     4  10  20  35  56  84 117 155 200 245 286 335
#     4   9  18  31  47  71 108 151 188 223 275 332
#
# _framework density 19.928446999999998
#
# number of rings (size 3 to 8) (size 9 to 14) (size 15 to 20)
#    0.000    2.286    0.000    2.357    1.000    2.000 
#    1.286    4.286    0.000    0.000    0.000    0.000 
#    0.000    0.000    0.000    0.000    0.000    0.000 
#
# Total GULP energy -311754.142664 kJ/mol
# GULP energy per Si atom -5567.038262 kJ/mol
# Density = 1.988309 g / cm^3
# Si number density = 19.928447 Si / 1000 Ang^3
#
#
#
# Elastic Constant Matrix: (Units=GPa)
#
#
# Indices 1 2 3 4 5 6 
#
# 1 92.7076 33.2039 26.1811 0.0000 0.0000 0.0000
# 2 33.2039 98.3212 22.1724 0.0000 0.0000 0.0000
# 3 26.1811 22.1724 48.8315 0.0000 0.0000 0.0000
# 4 0.0000 0.0000 0.0000 20.0131 0.0000 0.0000
# 5 0.0000 0.0000 0.0000 0.0000 28.3501 0.0000
# 6 0.0000 0.0000 0.0000 0.0000 0.0000 105.0135
#
#
#
# Elastic Compliance Matrix: (Units=1/GPa)
#
#
# Indices 1 2 3 4 5 6 
#
# 1 0.013601 -0.003285 -0.005801 0.000000 0.000000 0.000000
# 2 -0.003285 0.012124 -0.003744 0.000000 0.000000 0.000000
# 3 -0.005801 -0.003744 0.025289 0.000000 0.000000 0.000000
# 4 0.000000 0.000000 0.000000 0.049967 0.000000 0.000000
# 5 0.000000 0.000000 0.000000 0.000000 0.035273 0.000000
# 6 0.000000 0.000000 0.000000 0.000000 0.000000 0.009523
#
#
# Mechanical properties :
#
#
# Convention : Reuss Voigt Hill
#
# Bulk Modulus (GPa) = 39.44018 44.77502 42.10760
# Shear Modulus (GPa) = 27.79496 41.22886 34.51191
#
# Velocity S-wave (km/s) = 3.73867 4.55339 4.16599
# Velocity P-wave (km/s) = 6.20248 7.08245 6.65702
#
# Compressibility (1/GPa) = 0.02535485
#
# Stress axis : x y z
#
# Youngs Moduli (GPa) = 73.52201 82.47788 39.54356
#
# Poissons Ratio (x) = 0.27095 0.22938
# Poissons Ratio (y) = 0.24153 0.14805
# Poissons Ratio (z) = 0.42648 0.30879
#
# Static dielectric constant tensor:
#      x y z
#    x 1.721480 0.000000 0.000000 
#    y 0.000000 1.714110 0.000000 
#    z 0.000000 0.000000 1.709660 
# 
# From -- ./inp_files/24350.got.cif
#   From: 2010.05.17/outbox.cif.g08.bks.cpg/sg59_13_cif.got.tgz:24350.got - 2010.06.03 14:40:33.
