data_PCOD9448438
_publ_section_title
;
Structure prediction by ZEFSAII (Michael W. Deem and Ramdas Pophale) SiO2 
 PCOD9448438
Probable space group: P M M N
;
_chemical_formula_sum "Si O2"
_cell_formula_units_Z 56
_cell_length_a 14.014192
_cell_length_b 14.762472
_cell_length_c 11.944551
_cell_angle_alpha 90.000000
_cell_angle_beta 90.000000
_cell_angle_gamma 90.000000
_cell_volume 2471.137887
_symmetry_space_group_name_H-M "P M M N"
_symmetry_group_IT_number 59
_space_group.IT_coordinate_system_code '2'
_symmetry_cell_setting 'orthorhombic'
loop_
_space_group_symop_operation_xyz
x,y,z
1/2-x,1/2-y,z
1/2+x,-y,-z
-x,1/2+y,-z
-x,-y,-z
1/2+x,1/2+y,-z
1/2-x,y,z
x,1/2-y,z
loop_
_atom_site_type_symbol
_atom_site_label
_atom_site_fract_x
_atom_site_fract_y
_atom_site_fract_z
Si Si1 0.135132 0.459397 0.568764
Si Si2 0.857241 0.916684 0.687812
Si Si3 0.358857 0.458660 0.981125
Si Si4 0.435772 0.352701 0.775827
Si Si5 0.498313 0.150443 0.138527
Si Si6 0.136205 0.646840 0.677583
Si Si7 0.855191 0.098657 0.839817
O O1 0.250000 0.450500 0.587483
O O2 0.117445 0.437371 0.439673
O O3 0.081176 0.391589 0.652005
O O4 0.107933 0.563035 0.598886
O O5 0.750000 0.879622 0.691444
O O6 0.929910 0.853013 0.752066
O O7 0.856675 0.010605 0.758041
O O8 0.250000 0.427006 0.006579
O O9 0.442253 0.411387 0.052636
O O10 0.360483 0.559715 0.033129
O O11 0.383156 0.425049 0.856988
O O12 0.398382 0.250000 0.788051
O O13 0.547565 0.351895 0.808730
O O14 0.505329 0.250000 0.089055
O O15 0.597114 0.126281 0.197979
O O16 0.250000 0.647572 0.679452
O O17 0.105805 0.750000 0.647174
O O18 0.750000 0.141341 0.825351
#
# Coordination Sequence:
#
# PCOD9448438 Si02
#       7
#     8   8   8   8   8   8   8
#     4  10  21  38  59  83 116 154 189 233 289 348
#     4   9  19  36  58  83 111 147 191 240 292 342
#     4  10  21  39  62  84 110 147 193 245 293 338
#     4  12  25  38  57  87 124 164 196 227 282 356
#     4  10  19  32  55  84 111 143 186 237 288 336
#     4   9  19  36  57  82 111 144 188 240 290 340
#     4   9  20  40  63  84 108 147 201 253 295 333
#
# _framework density 22.661625000000001
#
# number of rings (size 3 to 8) (size 9 to 14) (size 15 to 20)
#    0.000    2.143    0.000    4.286    0.000    6.000 
#    0.000    5.714    0.000    4.286    0.000    0.000 
#    0.000    0.000    0.000    0.000    0.000    0.000 
#
# Total GULP energy -312645.395365 kJ/mol
# GULP energy per Si atom -5582.953489 kJ/mol
# Density = 2.261005 g / cm^3
# Si number density = 22.661625 Si / 1000 Ang^3
#
#
#
# Elastic Constant Matrix: (Units=GPa)
#
#
# Indices 1 2 3 4 5 6 
#
# 1 85.1759 16.1881 1.9719 0.0000 0.0000 0.0000
# 2 16.1881 86.3402 11.5449 0.0000 0.0000 0.0000
# 3 1.9719 11.5449 108.8074 0.0000 0.0000 0.0000
# 4 0.0000 0.0000 0.0000 7.2777 0.0000 0.0000
# 5 0.0000 0.0000 0.0000 0.0000 28.3105 0.0000
# 6 0.0000 0.0000 0.0000 0.0000 0.0000 14.9893
#
#
#
# Elastic Compliance Matrix: (Units=1/GPa)
#
#
# Indices 1 2 3 4 5 6 
#
# 1 0.012174 -0.002285 0.000022 0.000000 0.000000 0.000000
# 2 -0.002285 0.012178 -0.001251 0.000000 0.000000 0.000000
# 3 0.000022 -0.001251 0.009323 0.000000 0.000000 0.000000
# 4 0.000000 0.000000 0.000000 0.137406 0.000000 0.000000
# 5 0.000000 0.000000 0.000000 0.000000 0.035323 0.000000
# 6 0.000000 0.000000 0.000000 0.000000 0.000000 0.066714
#
#
# Mechanical properties :
#
#
# Convention : Reuss Voigt Hill
#
# Bulk Modulus (GPa) = 37.52863 37.74813 37.63838
# Shear Modulus (GPa) = 17.29932 26.82340 22.06136
#
# Velocity S-wave (km/s) = 2.76592 3.44415 3.12350
# Velocity P-wave (km/s) = 5.17656 5.70173 5.44548
#
# Compressibility (1/GPa) = 0.02664632
#
# Stress axis : x y z
#
# Youngs Moduli (GPa) = 82.14039 82.11638 107.26324
#
# Poissons Ratio (x) = 0.18768 -0.00235
# Poissons Ratio (y) = 0.18773 0.13415
# Poissons Ratio (z) = -0.00180 0.10270
#
# Static dielectric constant tensor:
#      x y z
#    x 1.887770 0.000000 0.000000 
#    y 0.000000 1.849330 0.000000 
#    z 0.000000 0.000000 1.839470 
# 
# From -- ./inp_files/16932.got.cif
#   From: 2010.05.17/outbox.cif.g08.bks.cpg/sg59_9_cif.got.tgz:16932.got - 2010.06.03 14:40:33.
