data_PCOD9448960
_publ_section_title
;
Structure prediction by ZEFSAII (Michael W. Deem and Ramdas Pophale) SiO2 
 PCOD9448960
Probable space group: P M M N
;
_chemical_formula_sum "Si O2"
_cell_formula_units_Z 48
_cell_length_a 20.765161
_cell_length_b 14.943969
_cell_length_c 7.090404
_cell_angle_alpha 90.000000
_cell_angle_beta 90.000000
_cell_angle_gamma 90.000000
_cell_volume 2200.251076
_symmetry_space_group_name_H-M "P M M N"
_symmetry_group_IT_number 59
_space_group.IT_coordinate_system_code '2'
_symmetry_cell_setting 'orthorhombic'
loop_
_space_group_symop_operation_xyz
x,y,z
1/2-x,1/2-y,z
1/2+x,-y,-z
-x,1/2+y,-z
-x,-y,-z
1/2+x,1/2+y,-z
1/2-x,y,z
x,1/2-y,z
loop_
_atom_site_type_symbol
_atom_site_label
_atom_site_fract_x
_atom_site_fract_y
_atom_site_fract_z
Si Si1 0.098892 0.354052 0.214126
Si Si2 0.322915 0.984933 0.342442
Si Si3 0.047580 0.599895 0.677867
Si Si4 0.459087 0.070490 0.876234
Si Si5 0.819804 0.145944 0.292627
Si Si6 0.419434 0.845974 0.253298
O O1 0.115550 0.250000 0.225427
O O2 0.143172 0.418376 0.340881
O O3 0.023495 0.367207 0.269241
O O4 0.099302 0.391378 0.997864
O O5 0.250000 0.992815 0.274089
O O6 0.319577 0.928009 0.538445
O O7 0.369516 0.924665 0.212850
O O8 0.051936 0.491436 0.692894
O O9 0.109642 0.632561 0.799727
O O10 0.061950 0.638651 0.472517
O O11 0.511244 0.146573 0.841614
O O12 0.500000 0.000000 0.000000
O O13 0.750000 0.134686 0.192849
O O14 0.819749 0.250000 0.359714
O O15 0.389202 0.750000 0.222313
#
# Coordination Sequence:
#
# PCOD9448960 Si02
#       6
#     8   8   8   8   8   8
#     4  11  22  37  56  81 110 149 192 234 276 324
#     4  10  20  34  54  80 109 147 187 226 273 327
#     4  10  19  34  57  83 111 141 183 233 277 329
#     4  10  20  35  54  78 112 147 179 224 278 328
#     4   9  18  33  55  85 117 145 175 222 285 342
#     4  11  20  34  59  89 113 142 182 231 286 338
#
# _framework density 21.815691999999999
#
# number of rings (size 3 to 8) (size 9 to 14) (size 15 to 20)
#    0.000    1.833    3.333    4.000    2.333    1.333 
#    0.000    0.833    0.000    0.000    0.000    0.000 
#    0.000    0.000    0.000    0.000    0.000    0.000 
#
# Total GULP energy -267289.491839 kJ/mol
# GULP energy per Si atom -5568.531080 kJ/mol
# Density = 2.176604 g / cm^3
# Si number density = 21.815692 Si / 1000 Ang^3
#
#
#
# Elastic Constant Matrix: (Units=GPa)
#
#
# Indices 1 2 3 4 5 6 
#
# 1 90.9851 38.2824 -1.0749 0.0000 0.0000 0.0000
# 2 38.2824 180.8111 9.2342 0.0000 0.0000 0.0000
# 3 -1.0749 9.2342 29.6848 0.0000 0.0000 0.0000
# 4 0.0000 0.0000 0.0000 16.6459 0.0000 0.0000
# 5 0.0000 0.0000 0.0000 0.0000 16.0394 0.0000
# 6 0.0000 0.0000 0.0000 0.0000 0.0000 24.2314
#
#
#
# Elastic Compliance Matrix: (Units=1/GPa)
#
#
# Indices 1 2 3 4 5 6 
#
# 1 0.012112 -0.002628 0.001256 0.000000 0.000000 0.000000
# 2 -0.002628 0.006190 -0.002021 0.000000 0.000000 0.000000
# 3 0.001256 -0.002021 0.034361 0.000000 0.000000 0.000000
# 4 0.000000 0.000000 0.000000 0.060075 0.000000 0.000000
# 5 0.000000 0.000000 0.000000 0.000000 0.062346 0.000000
# 6 0.000000 0.000000 0.000000 0.000000 0.000000 0.041269
#
#
# Mechanical properties :
#
#
# Convention : Reuss Voigt Hill
#
# Bulk Modulus (GPa) = 21.79735 43.81827 32.80781
# Shear Modulus (GPa) = 20.97036 28.38598 24.67817
#
# Velocity S-wave (km/s) = 3.10377 3.61109 3.36700
# Velocity P-wave (km/s) = 4.78098 6.12502 5.49426
#
# Compressibility (1/GPa) = 0.04587713
#
# Stress axis : x y z
#
# Youngs Moduli (GPa) = 82.56548 161.54151 29.10243
#
# Poissons Ratio (x) = 0.42461 -0.03656
# Poissons Ratio (y) = 0.21702 0.05881
# Poissons Ratio (z) = -0.10372 0.32645
#
# Static dielectric constant tensor:
#      x y z
#    x 1.866820 0.000000 0.000000 
#    y 0.000000 1.844080 0.000000 
#    z 0.000000 0.000000 1.923670 
# 
# From -- ./inp_files/11283.got.cif
#   From: 2010.05.17/outbox.cif.g08.bks.cpg/sg59_6_cif.got.tgz:11283.got - 2010.06.03 14:40:33.
