data_PCOD9448141
_publ_section_title
;
Structure prediction by ZEFSAII (Michael W. Deem and Ramdas Pophale) SiO2 
 PCOD9448141
Probable space group: P M M N
;
_chemical_formula_sum "Si O2"
_cell_formula_units_Z 48
_cell_length_a 7.672523
_cell_length_b 16.685497
_cell_length_c 17.502335
_cell_angle_alpha 90.000000
_cell_angle_beta 90.000000
_cell_angle_gamma 90.000000
_cell_volume 2240.646468
_symmetry_space_group_name_H-M "P M M N"
_symmetry_group_IT_number 59
_space_group.IT_coordinate_system_code '2'
_symmetry_cell_setting 'orthorhombic'
loop_
_space_group_symop_operation_xyz
x,y,z
1/2-x,1/2-y,z
1/2+x,-y,-z
-x,1/2+y,-z
-x,-y,-z
1/2+x,1/2+y,-z
1/2-x,y,z
x,1/2-y,z
loop_
_atom_site_type_symbol
_atom_site_label
_atom_site_fract_x
_atom_site_fract_y
_atom_site_fract_z
Si Si1 0.545088 0.395123 0.667400
Si Si2 0.464968 0.750000 0.228792
Si Si3 0.544600 0.586063 0.963749
Si Si4 0.463926 0.073744 0.343509
Si Si5 0.457188 0.750000 0.054116
Si Si6 0.039333 0.341871 0.497156
Si Si7 0.536759 0.658834 0.809886
O O1 0.750000 0.401215 0.685161
O O2 0.474471 0.327999 0.724432
O O3 0.472755 0.484299 0.673469
O O4 0.526642 0.367752 0.579861
O O5 0.250000 0.750000 0.229915
O O6 0.523240 0.750000 0.141318
O O7 0.750000 0.583898 0.955360
O O8 0.472708 0.602118 0.878417
O O9 0.500000 0.500000 0.000000
O O10 0.505977 0.666731 0.012301
O O11 0.250000 0.073519 0.345424
O O12 0.520961 0.103856 0.426652
O O13 0.517357 0.130535 0.273948
O O14 0.250000 0.750000 0.057745
O O15 0.250000 0.345523 0.499891
O O16 0.989245 0.250000 0.482444
O O17 0.750000 0.657741 0.809592
O O18 0.483311 0.750000 0.825592
#
# Coordination Sequence:
#
# PCOD9448141 Si02
#       7
#     8   4   8   8   4   8   8
#     4  10  19  34  54  76 103 139 185 227 268 331
#     4   9  20  35  55  80 105 142 190 231 275 339
#     4  11  23  40  63  93 124 159 202 248 302 365
#     4   9  18  30  52  80 105 137 181 230 272 325
#     4  11  23  41  65  90 121 158 200 255 307 357
#     4  10  19  32  50  76 108 138 174 222 280 330
#     4   9  17  33  57  83 110 142 186 235 280 337
#
# _framework density 21.422391000000001
#
# number of rings (size 3 to 8) (size 9 to 14) (size 15 to 20)
#    0.000    2.167    1.667    1.750    2.333    2.000 
#    0.000    1.667    0.000    2.000    0.000    0.000 
#    0.000    0.000    0.000    0.000    0.000    0.000 
#
# Total GULP energy -268025.413365 kJ/mol
# GULP energy per Si atom -5583.862778 kJ/mol
# Density = 2.137363 g / cm^3
# Si number density = 21.422391 Si / 1000 Ang^3
#
#
#
# Elastic Constant Matrix: (Units=GPa)
#
#
# Indices 1 2 3 4 5 6 
#
# 1 34.8126 -4.1600 -12.4733 0.0000 0.0000 0.0000
# 2 -4.1600 91.2036 1.6748 0.0000 0.0000 0.0000
# 3 -12.4733 1.6748 83.5671 0.0000 0.0000 0.0000
# 4 0.0000 0.0000 0.0000 -8.7971 0.0000 0.0000
# 5 0.0000 0.0000 0.0000 0.0000 18.1829 0.0000
# 6 0.0000 0.0000 0.0000 0.0000 0.0000 15.3009
#
#
#
# Elastic Compliance Matrix: (Units=1/GPa)
#
#
# Indices 1 2 3 4 5 6 
#
# 1 0.030503 0.001308 0.004527 0.000000 0.000000 0.000000
# 2 0.001308 0.011025 -0.000026 0.000000 0.000000 0.000000
# 3 0.004527 -0.000026 0.012643 0.000000 0.000000 0.000000
# 4 0.000000 0.000000 0.000000 -0.113673 0.000000 0.000000
# 5 0.000000 0.000000 0.000000 0.000000 0.054997 0.000000
# 6 0.000000 0.000000 0.000000 0.000000 0.000000 0.065356
#
#
# Mechanical properties :
#
#
# Convention : Reuss Voigt Hill
#
# Bulk Modulus (GPa) = 15.20004 19.96292 17.58148
# Shear Modulus (GPa) = 70.26319 19.90679 45.08499
#
# Velocity S-wave (km/s) = 5.73325 3.05167 4.59254
# Velocity P-wave (km/s) = 7.13706 4.66432 6.02883
#
# Compressibility (1/GPa) = 0.06578930
#
# Stress axis : x y z
#
# Youngs Moduli (GPa) = 32.78315 90.70611 79.09758
#
# Poissons Ratio (x) = -0.11866 -0.35806
# Poissons Ratio (y) = -0.04289 0.00203
# Poissons Ratio (z) = -0.14840 0.00233
#
# Static dielectric constant tensor:
#      x y z
#    x 1.797930 0.000000 0.000000 
#    y 0.000000 1.741670 0.000000 
#    z 0.000000 0.000000 1.761190 
# 
# From -- ./inp_files/23696.got.cif
#   From: 2010.05.17/outbox.cif.g08.bks.cpg/sg59_12_cif.got.tgz:23696.got - 2010.06.03 14:40:33.
