data_PCOD9448104
_publ_section_title
;
Structure prediction by ZEFSAII (Michael W. Deem and Ramdas Pophale) SiO2 
 PCOD9448104
Probable space group: P M M N
;
_chemical_formula_sum "Si O2"
_cell_formula_units_Z 56
_cell_length_a 13.527727
_cell_length_b 12.580502
_cell_length_c 19.352312
_cell_angle_alpha 90.000000
_cell_angle_beta 90.000000
_cell_angle_gamma 90.000000
_cell_volume 3293.484763
_symmetry_space_group_name_H-M "P M M N"
_symmetry_group_IT_number 59
_space_group.IT_coordinate_system_code '2'
_symmetry_cell_setting 'orthorhombic'
loop_
_space_group_symop_operation_xyz
x,y,z
1/2-x,1/2-y,z
1/2+x,-y,-z
-x,1/2+y,-z
-x,-y,-z
1/2+x,1/2+y,-z
1/2-x,y,z
x,1/2-y,z
loop_
_atom_site_type_symbol
_atom_site_label
_atom_site_fract_x
_atom_site_fract_y
_atom_site_fract_z
Si Si1 0.131509 0.121913 0.503613
Si Si2 0.135579 0.013865 0.853849
Si Si3 0.059039 0.625940 0.134297
Si Si4 0.364189 0.622398 0.280888
Si Si5 0.501998 0.994970 0.612058
Si Si6 0.631770 0.128069 0.011876
Si Si7 0.135299 0.626398 0.716231
O O1 0.250000 0.100356 0.505291
O O2 0.118772 0.250000 0.503418
O O3 0.072866 0.068224 0.567507
O O4 0.077644 0.068163 0.437716
O O5 0.250000 0.047468 0.857449
O O6 0.112695 0.941033 0.920397
O O7 0.122339 0.943845 0.784964
O O8 0.056746 0.107734 0.853737
O O9 0.084974 0.750000 0.130085
O O10 0.113485 0.583918 0.202612
O O11 0.089017 0.581772 0.059473
O O12 0.250000 0.601750 0.297836
O O13 0.379925 0.750000 0.282329
O O14 0.435688 0.566572 0.335007
O O15 0.436573 0.913913 0.656708
O O16 0.750000 0.132002 0.003523
O O17 0.596481 0.250000 0.021897
O O18 0.250000 0.614769 0.694458
O O19 0.118376 0.750000 0.732474
#
# Coordination Sequence:
#
# PCOD9448104 Si02
#       7
#     8   8   8   8   8   8   8
#     4  10  22  38  56  80 108 138 170 206 254 312
#     4  10  19  32  49  73 104 137 175 216 258 306
#     4  10  19  32  49  73 104 137 175 216 258 306
#     4  10  20  34  53  78 106 136 173 217 260 303
#     4  11  20  36  58  79 106 136 172 213 254 308
#     4   9  17  30  50  74  99 133 176 218 258 298
#     4  10  20  34  53  78 106 136 173 217 260 303
#
# _framework density 17.003267999999998
#
# number of rings (size 3 to 8) (size 9 to 14) (size 15 to 20)
#    0.000    2.000    1.429    3.000    0.000    3.714 
#    0.000    0.000    0.000    6.857    0.000    0.000 
#    0.000    0.000    0.000    0.000    0.000    0.000 
#
# Total GULP energy -312204.184755 kJ/mol
# GULP energy per Si atom -5575.074728 kJ/mol
# Density = 1.696457 g / cm^3
# Si number density = 17.003268 Si / 1000 Ang^3
#
#
#
# Elastic Constant Matrix: (Units=GPa)
#
#
# Indices 1 2 3 4 5 6 
#
# 1 66.2091 11.5338 30.1563 0.0000 0.0000 0.0000
# 2 11.5338 15.3524 0.0123 0.0000 0.0000 0.0000
# 3 30.1563 0.0123 79.7471 0.0000 0.0000 0.0000
# 4 0.0000 0.0000 0.0000 15.3399 0.0000 0.0000
# 5 0.0000 0.0000 0.0000 0.0000 30.3195 0.0000
# 6 0.0000 0.0000 0.0000 0.0000 0.0000 29.8515
#
#
#
# Elastic Compliance Matrix: (Units=1/GPa)
#
#
# Indices 1 2 3 4 5 6 
#
# 1 0.021670 -0.016273 -0.008192 0.000000 0.000000 0.000000
# 2 -0.016273 0.077357 0.006142 0.000000 0.000000 0.000000
# 3 -0.008192 0.006142 0.015636 0.000000 0.000000 0.000000
# 4 0.000000 0.000000 0.000000 0.065189 0.000000 0.000000
# 5 0.000000 0.000000 0.000000 0.000000 0.032982 0.000000
# 6 0.000000 0.000000 0.000000 0.000000 0.000000 0.033499
#
#
# Mechanical properties :
#
#
# Convention : Reuss Voigt Hill
#
# Bulk Modulus (GPa) = 12.81783 27.19038 20.00411
# Shear Modulus (GPa) = 16.18200 23.07594 19.62897
#
# Velocity S-wave (km/s) = 3.08831 3.68794 3.40137
# Velocity P-wave (km/s) = 4.50241 5.84470 5.21691
#
# Compressibility (1/GPa) = 0.07801630
#
# Stress axis : x y z
#
# Youngs Moduli (GPa) = 46.14759 12.92712 63.95330
#
# Poissons Ratio (x) = 0.21036 0.52389
# Poissons Ratio (y) = 0.75096 -0.39278
# Poissons Ratio (z) = 0.37803 -0.07939
#
# Static dielectric constant tensor:
#      x y z
#    x 1.561680 0.000000 0.000000 
#    y 0.000000 1.552760 0.000000 
#    z 0.000000 0.000000 1.579230 
# 
# From -- ./inp_files/30066.got.cif
#   From: 2010.05.17/outbox.cif.g08.bks.cpg/sg59_16_cif.got.tgz:30066.got - 2010.06.03 14:40:33.
