data_PCOD9448823
_publ_section_title
;
Structure prediction by ZEFSAII (Michael W. Deem and Ramdas Pophale) SiO2 
 PCOD9448823
Probable space group: P M M N
;
_chemical_formula_sum "Si O2"
_cell_formula_units_Z 64
_cell_length_a 7.432650
_cell_length_b 26.572244
_cell_length_c 14.795164
_cell_angle_alpha 90.000000
_cell_angle_beta 90.000000
_cell_angle_gamma 90.000000
_cell_volume 2922.077282
_symmetry_space_group_name_H-M "P M M N"
_symmetry_group_IT_number 59
_space_group.IT_coordinate_system_code '2'
_symmetry_cell_setting 'orthorhombic'
loop_
_space_group_symop_operation_xyz
x,y,z
1/2-x,1/2-y,z
1/2+x,-y,-z
-x,1/2+y,-z
-x,-y,-z
1/2+x,1/2+y,-z
1/2-x,y,z
x,1/2-y,z
loop_
_atom_site_type_symbol
_atom_site_label
_atom_site_fract_x
_atom_site_fract_y
_atom_site_fract_z
Si Si1 0.970265 0.006479 0.711147
Si Si2 0.962393 0.902363 0.622771
Si Si3 0.035332 0.476259 0.097227
Si Si4 0.467224 0.599477 0.411094
Si Si5 0.462713 0.806742 0.300226
Si Si6 0.533442 0.807709 0.096046
Si Si7 0.530318 0.693202 0.733669
Si Si8 0.969738 0.861952 0.916007
O O1 0.750000 0.007466 0.708535
O O2 0.031144 0.052633 0.649294
O O3 0.031360 0.953071 0.669980
O O4 0.028169 0.007673 0.815847
O O5 0.750000 0.902106 0.642954
O O6 0.032160 0.850129 0.664626
O O7 0.986174 0.905470 0.515775
O O8 0.250000 0.473191 0.106736
O O9 0.968322 0.418838 0.100944
O O10 0.000000 0.500000 0.000000
O O11 0.250000 0.599839 0.405360
O O12 0.535318 0.651689 0.368423
O O13 0.250000 0.802927 0.317262
O O14 0.538151 0.750000 0.307023
O O15 0.483773 0.824631 0.196689
O O16 0.750000 0.806877 0.092061
O O17 0.470206 0.750000 0.085671
O O18 0.469773 0.841443 0.013064
O O19 0.750000 0.694416 0.731148
O O20 0.469028 0.750000 0.714989
O O21 0.478783 0.674479 0.833879
O O22 0.750000 0.862604 0.916880
#
# Coordination Sequence:
#
# PCOD9448823 Si02
#       8
#     8   8   8   8   8   8   8   8
#     4   9  18  35  55  73  99 134 169 201 242 299
#     4  10  19  34  54  77 101 126 162 212 256 290
#     4  10  20  34  52  76 105 136 166 202 247 293
#     4  10  21  35  53  73  95 131 172 206 246 301
#     4   9  19  35  51  69  97 133 169 203 244 296
#     4   9  17  29  48  74 100 126 160 202 243 285
#     4   9  16  28  50  78 104 132 166 202 247 305
#     4   9  16  29  49  73 103 134 163 199 246 298
#
# _framework density 21.902228999999998
#
# number of rings (size 3 to 8) (size 9 to 14) (size 15 to 20)
#    0.000    2.625    1.250    0.750    1.750    2.500 
#    0.000    1.250    0.000    0.750    0.000    0.000 
#    0.000    0.000    0.000    0.000    0.000    0.000 
#
# Total GULP energy -357452.798235 kJ/mol
# GULP energy per Si atom -5585.199972 kJ/mol
# Density = 2.185238 g / cm^3
# Si number density = 21.902229 Si / 1000 Ang^3
#
#
#
# Elastic Constant Matrix: (Units=GPa)
#
#
# Indices 1 2 3 4 5 6 
#
# 1 66.7011 3.3552 -11.2429 0.0000 0.0000 0.0000
# 2 3.3552 120.4303 72.2365 0.0000 0.0000 0.0000
# 3 -11.2429 72.2365 153.2278 0.0000 0.0000 0.0000
# 4 0.0000 0.0000 0.0000 24.5013 0.0000 0.0000
# 5 0.0000 0.0000 0.0000 0.0000 84.0011 0.0000
# 6 0.0000 0.0000 0.0000 0.0000 0.0000 -36.1952
#
#
#
# Elastic Compliance Matrix: (Units=1/GPa)
#
#
# Indices 1 2 3 4 5 6 
#
# 1 0.015383 -0.001541 0.001855 0.000000 0.000000 0.000000
# 2 -0.001541 0.011732 -0.005644 0.000000 0.000000 0.000000
# 3 0.001855 -0.005644 0.009323 0.000000 0.000000 0.000000
# 4 0.000000 0.000000 0.000000 0.040814 0.000000 0.000000
# 5 0.000000 0.000000 0.000000 0.000000 0.011905 0.000000
# 6 0.000000 0.000000 0.000000 0.000000 0.000000 -0.027628
#
#
# Mechanical properties :
#
#
# Convention : Reuss Voigt Hill
#
# Bulk Modulus (GPa) = 38.79349 52.11742 45.45545
# Shear Modulus (GPa) = 61.89609 32.86212 47.37911
#
# Velocity S-wave (km/s) = 5.32180 3.87770 4.65608
# Velocity P-wave (km/s) = 7.45068 6.62540 7.05013
#
# Compressibility (1/GPa) = 0.02577752
#
# Stress axis : x y z
#
# Youngs Moduli (GPa) = 65.00882 85.23850 107.26097
#
# Poissons Ratio (x) = 0.13139 -0.19901
# Poissons Ratio (y) = 0.10021 0.60536
# Poissons Ratio (z) = -0.12061 0.48107
#
# Static dielectric constant tensor:
#      x y z
#    x 1.843970 0.000000 0.000000 
#    y 0.000000 1.785780 0.000000 
#    z 0.000000 0.000000 1.755840 
# 
# From -- ./inp_files/16349.got.cif
#   From: 2010.05.17/outbox.cif.g08.bks.cpg/sg59_9_cif.got.tgz:16349.got - 2010.06.03 14:40:33.
