data_PCOD9448949
_publ_section_title
;
Structure prediction by ZEFSAII (Michael W. Deem and Ramdas Pophale) SiO2 
 PCOD9448949
Probable space group: P M M N
;
_chemical_formula_sum "Si O2"
_cell_formula_units_Z 48
_cell_length_a 17.700543
_cell_length_b 10.331383
_cell_length_c 14.919541
_cell_angle_alpha 90.000000
_cell_angle_beta 90.000000
_cell_angle_gamma 90.000000
_cell_volume 2728.352711
_symmetry_space_group_name_H-M "P M M N"
_symmetry_group_IT_number 59
_space_group.IT_coordinate_system_code '2'
_symmetry_cell_setting 'orthorhombic'
loop_
_space_group_symop_operation_xyz
x,y,z
1/2-x,1/2-y,z
1/2+x,-y,-z
-x,1/2+y,-z
-x,-y,-z
1/2+x,1/2+y,-z
1/2-x,y,z
x,1/2-y,z
loop_
_atom_site_type_symbol
_atom_site_label
_atom_site_fract_x
_atom_site_fract_y
_atom_site_fract_z
Si Si1 0.416101 0.750000 0.148959
Si Si2 0.988055 0.404072 0.417406
Si Si3 0.401560 0.977457 0.862072
Si Si4 0.832525 0.403471 0.319477
Si Si5 0.658607 0.750000 0.859038
Si Si6 0.925306 0.750000 0.050481
Si Si7 0.336512 0.750000 0.977609
Si Si8 0.062583 0.470038 0.229027
O O1 0.485075 0.750000 0.075426
O O2 0.420909 0.620466 0.208027
O O3 0.344312 0.750000 0.084364
O O4 0.997603 0.250000 0.437084
O O5 0.040408 0.440805 0.331892
O O6 0.000000 0.500000 0.500000
O O7 0.901999 0.426400 0.384967
O O8 0.349587 0.970475 0.774558
O O9 0.375273 0.875477 0.935321
O O10 0.486028 0.942185 0.828304
O O11 0.398460 0.119211 0.902669
O O12 0.750000 0.438594 0.354945
O O13 0.833409 0.250000 0.299939
O O14 0.750000 0.750000 0.871933
O O15 0.628864 0.623776 0.805103
O O16 0.609813 0.750000 0.951300
O O17 0.250000 0.750000 0.949140
#
# Coordination Sequence:
#
# PCOD9448949 Si02
#       8
#     4   8   8   8   4   4   4   8
#     4  10  22  36  57  81 112 149 192 246 278 320
#     4  10  21  38  65  89 109 140 183 229 278 348
#     4  10  19  34  57  81 111 147 187 239 286 334
#     4   9  17  33  57  85 114 141 173 222 286 340
#     4  12  24  38  55  77 117 166 200 229 272 331
#     4  10  22  36  52  80 112 152 201 234 274 324
#     4  12  22  32  52  82 111 147 197 241 274 317
#     4  10  21  40  59  82 111 148 192 232 287 343
#
# _framework density 17.593032999999998
#
# number of rings (size 3 to 8) (size 9 to 14) (size 15 to 20)
#    0.000    1.833    1.667    3.000    1.167    6.000 
#    1.500    0.833    0.000    0.000    0.000    0.000 
#    0.000    0.000    0.000    0.000    0.000    0.000 
#
# Total GULP energy -267767.567998 kJ/mol
# GULP energy per Si atom -5578.491000 kJ/mol
# Density = 1.755299 g / cm^3
# Si number density = 17.593033 Si / 1000 Ang^3
#
#
#
# Elastic Constant Matrix: (Units=GPa)
#
#
# Indices 1 2 3 4 5 6 
#
# 1 65.5392 55.4241 42.3404 0.0000 0.0000 0.0000
# 2 55.4241 124.3285 72.3755 0.0000 0.0000 0.0000
# 3 42.3404 72.3755 111.4281 0.0000 0.0000 0.0000
# 4 0.0000 0.0000 0.0000 31.3092 0.0000 0.0000
# 5 0.0000 0.0000 0.0000 0.0000 4.3423 0.0000
# 6 0.0000 0.0000 0.0000 0.0000 0.0000 29.1665
#
#
#
# Elastic Compliance Matrix: (Units=1/GPa)
#
#
# Indices 1 2 3 4 5 6 
#
# 1 0.025402 -0.009174 -0.003694 0.000000 0.000000 0.000000
# 2 -0.009174 0.016246 -0.007067 0.000000 0.000000 0.000000
# 3 -0.003694 -0.007067 0.014968 0.000000 0.000000 0.000000
# 4 0.000000 0.000000 0.000000 0.031940 0.000000 0.000000
# 5 0.000000 0.000000 0.000000 0.000000 0.230294 0.000000
# 6 0.000000 0.000000 0.000000 0.000000 0.000000 0.034286
#
#
# Mechanical properties :
#
#
# Convention : Reuss Voigt Hill
#
# Bulk Modulus (GPa) = 59.70752 71.28618 65.49685
# Shear Modulus (GPa) = 12.54430 21.70730 17.12580
#
# Velocity S-wave (km/s) = 2.67315 3.51644 3.12339
# Velocity P-wave (km/s) = 6.59845 7.55610 7.09345
#
# Compressibility (1/GPa) = 0.01674831
#
# Stress axis : x y z
#
# Youngs Moduli (GPa) = 39.36666 61.55179 66.80952
#
# Poissons Ratio (x) = 0.56466 0.24678
# Poissons Ratio (y) = 0.36114 0.47212
# Poissons Ratio (z) = 0.14541 0.43497
#
# Static dielectric constant tensor:
#      x y z
#    x 1.638790 0.000000 0.000000 
#    y 0.000000 1.591240 0.000000 
#    z 0.000000 0.000000 1.588910 
# 
# From -- ./inp_files/23803.got.cif
#   From: 2010.05.17/outbox.cif.g08.bks.cpg/sg59_12_cif.got.tgz:23803.got - 2010.06.03 14:40:33.
