data_PCOD9448303
_publ_section_title
;
Structure prediction by ZEFSAII (Michael W. Deem and Ramdas Pophale) SiO2 
 PCOD9448303
Probable space group: P M M N
;
_chemical_formula_sum "Si O2"
_cell_formula_units_Z 64
_cell_length_a 9.546317
_cell_length_b 19.419720
_cell_length_c 19.135604
_cell_angle_alpha 90.000000
_cell_angle_beta 90.000000
_cell_angle_gamma 90.000000
_cell_volume 3547.488452
_symmetry_space_group_name_H-M "P M M N"
_symmetry_group_IT_number 59
_space_group.IT_coordinate_system_code '2'
_symmetry_cell_setting 'orthorhombic'
loop_
_space_group_symop_operation_xyz
x,y,z
1/2-x,1/2-y,z
1/2+x,-y,-z
-x,1/2+y,-z
-x,-y,-z
1/2+x,1/2+y,-z
1/2-x,y,z
x,1/2-y,z
loop_
_atom_site_type_symbol
_atom_site_label
_atom_site_fract_x
_atom_site_fract_y
_atom_site_fract_z
Si Si1 0.083127 0.978741 0.387049
Si Si2 0.582750 0.059938 0.772048
Si Si3 0.591837 0.913321 0.845532
Si Si4 0.090656 0.667035 0.744729
Si Si5 0.414506 0.595552 0.526263
Si Si6 0.090481 0.068938 0.992738
Si Si7 0.419260 0.168177 0.864360
Si Si8 0.905925 0.829762 0.617702
O O1 0.250000 0.994618 0.385346
O O2 0.042105 0.959578 0.307955
O O3 0.067837 0.918266 0.444301
O O4 0.993352 0.038120 0.425811
O O5 0.750000 0.074825 0.772368
O O6 0.497184 0.123892 0.804260
O O7 0.562444 0.991928 0.820715
O O8 0.750000 0.897068 0.819093
O O9 0.475365 0.864500 0.813497
O O10 0.592535 0.903675 0.928307
O O11 0.250000 0.645051 0.732611
O O12 0.089437 0.750000 0.746758
O O13 0.989505 0.640349 0.683406
O O14 0.250000 0.596328 0.542241
O O15 0.496458 0.662366 0.550770
O O16 0.250000 0.049211 0.973545
O O17 0.045528 0.126364 0.936237
O O18 0.000000 0.000000 0.000000
O O19 0.250000 0.164745 0.855588
O O20 0.456300 0.250000 0.866418
O O21 0.750000 0.857538 0.607987
O O22 0.892307 0.750000 0.633844
#
# Coordination Sequence:
#
# PCOD9448303 Si02
#       8
#     8   8   8   8   8   8   8   8
#     4   9  19  34  53  78 110 142 174 222 274 325
#     4  10  20  36  57  82 109 141 185 228 272 325
#     4  10  20  33  55  84 111 143 181 222 271 330
#     4  10  21  35  51  77 112 146 182 225 273 326
#     4  10  19  32  52  79 107 138 178 222 274 326
#     4  10  20  36  58  84 111 143 183 227 274 327
#     4  10  22  39  58  82 113 148 185 229 280 330
#     4  10  20  34  52  72  99 139 181 220 267 323
#
# _framework density 18.040934
#
# number of rings (size 3 to 8) (size 9 to 14) (size 15 to 20)
#    0.000    2.125    1.250    1.875    0.000    5.250 
#    0.000    1.875    0.000    3.750    0.000    0.000 
#    0.000    0.000    0.000    0.000    0.000    0.000 
#
# Total GULP energy -356451.446002 kJ/mol
# GULP energy per Si atom -5569.553844 kJ/mol
# Density = 1.799987 g / cm^3
# Si number density = 18.040934 Si / 1000 Ang^3
#
#
#
# Elastic Constant Matrix: (Units=GPa)
#
#
# Indices 1 2 3 4 5 6 
#
# 1 70.6322 27.3847 35.5746 0.0000 0.0000 0.0000
# 2 27.3847 52.8525 41.1234 0.0000 0.0000 0.0000
# 3 35.5746 41.1234 115.9493 0.0000 0.0000 0.0000
# 4 0.0000 0.0000 0.0000 27.7131 0.0000 0.0000
# 5 0.0000 0.0000 0.0000 0.0000 26.4183 0.0000
# 6 0.0000 0.0000 0.0000 0.0000 0.0000 30.7807
#
#
#
# Elastic Compliance Matrix: (Units=1/GPa)
#
#
# Indices 1 2 3 4 5 6 
#
# 1 0.018512 -0.007144 -0.003146 0.000000 0.000000 0.000000
# 2 -0.007144 0.028889 -0.008054 0.000000 0.000000 0.000000
# 3 -0.003146 -0.008054 0.012446 0.000000 0.000000 0.000000
# 4 0.000000 0.000000 0.000000 0.036084 0.000000 0.000000
# 5 0.000000 0.000000 0.000000 0.000000 0.037852 0.000000
# 6 0.000000 0.000000 0.000000 0.000000 0.000000 0.032488
#
#
# Mechanical properties :
#
#
# Convention : Reuss Voigt Hill
#
# Bulk Modulus (GPa) = 43.17957 49.73328 46.45643
# Shear Modulus (GPa) = 23.73277 26.00587 24.86932
#
# Velocity S-wave (km/s) = 3.63091 3.80082 3.71684
# Velocity P-wave (km/s) = 6.44703 6.84751 6.65029
#
# Compressibility (1/GPa) = 0.02315910
#
# Stress axis : x y z
#
# Youngs Moduli (GPa) = 54.01866 34.61552 80.34580
#
# Poissons Ratio (x) = 0.24729 0.25277
# Poissons Ratio (y) = 0.38591 0.64711
# Poissons Ratio (z) = 0.16994 0.27880
#
# Static dielectric constant tensor:
#      x y z
#    x 1.632720 0.000000 0.000000 
#    y 0.000000 1.673490 0.000000 
#    z 0.000000 0.000000 1.645030 
# 
# From -- ./inp_files/26194.got.cif
#   From: 2010.05.17/outbox.cif.g08.bks.cpg/sg59_14_cif.got.tgz:26194.got - 2010.06.03 14:40:33.
