data_PCOD9448378
_publ_section_title
;
Structure prediction by ZEFSAII (Michael W. Deem and Ramdas Pophale) SiO2 
 PCOD9448378
Probable space group: P M M N
;
_chemical_formula_sum "Si O2"
_cell_formula_units_Z 48
_cell_length_a 13.852445
_cell_length_b 13.726378
_cell_length_c 13.061235
_cell_angle_alpha 90.000000
_cell_angle_beta 90.000000
_cell_angle_gamma 90.000000
_cell_volume 2483.514113
_symmetry_space_group_name_H-M "P M M N"
_symmetry_group_IT_number 59
_space_group.IT_coordinate_system_code '2'
_symmetry_cell_setting 'orthorhombic'
loop_
_space_group_symop_operation_xyz
x,y,z
1/2-x,1/2-y,z
1/2+x,-y,-z
-x,1/2+y,-z
-x,-y,-z
1/2+x,1/2+y,-z
1/2-x,y,z
x,1/2-y,z
loop_
_atom_site_type_symbol
_atom_site_label
_atom_site_fract_x
_atom_site_fract_y
_atom_site_fract_z
Si Si1 0.639707 0.364489 0.904102
Si Si2 0.448660 0.133869 0.007166
Si Si3 0.865780 0.638403 0.212713
Si Si4 0.968330 0.866535 0.589644
Si Si5 0.865117 0.984377 0.412568
Si Si6 0.363858 0.453762 0.213593
O O1 0.750000 0.383683 0.936573
O O2 0.629746 0.250000 0.881269
O O3 0.562115 0.388057 0.992035
O O4 0.621637 0.430434 0.804085
O O5 0.437454 0.250000 0.016776
O O6 0.403301 0.106107 0.897900
O O7 0.398318 0.087959 0.104568
O O8 0.750000 0.641642 0.208441
O O9 0.899983 0.750000 0.231281
O O10 0.891041 0.566539 0.304614
O O11 0.971951 0.750000 0.587037
O O12 0.900392 0.910621 0.500800
O O13 0.923588 0.904932 0.696234
O O14 0.072734 0.917348 0.576575
O O15 0.750000 0.999237 0.417827
O O16 0.250000 0.435604 0.229116
#
# Coordination Sequence:
#
# PCOD9448378 Si02
#       6
#     8   8   8   8   8   8
#     4   9  19  35  53  75 107 149 195 239 284 339
#     4  10  19  32  53  81 114 150 189 236 287 339
#     4   9  17  31  55  85 113 146 193 245 290 333
#     4  11  24  41  62  89 120 153 190 235 290 350
#     4  10  22  41  63  86 114 152 198 243 287 339
#     4  11  22  36  57  85 118 153 188 232 290 353
#
# _framework density 19.327452999999998
#
# number of rings (size 3 to 8) (size 9 to 14) (size 15 to 20)
#    0.000    2.000    0.000    3.500    0.000    4.000 
#    0.000    5.833    0.000    6.000    0.000    0.000 
#    0.000    0.000    0.000    0.000    0.000    0.000 
#
# Total GULP energy -268036.991744 kJ/mol
# GULP energy per Si atom -5584.103995 kJ/mol
# Density = 1.928346 g / cm^3
# Si number density = 19.327453 Si / 1000 Ang^3
#
#
#
# Elastic Constant Matrix: (Units=GPa)
#
#
# Indices 1 2 3 4 5 6 
#
# 1 97.4238 46.3040 32.6767 0.0000 0.0000 0.0000
# 2 46.3040 106.6523 41.3755 0.0000 0.0000 0.0000
# 3 32.6767 41.3755 96.8322 0.0000 0.0000 0.0000
# 4 0.0000 0.0000 0.0000 23.5081 0.0000 0.0000
# 5 0.0000 0.0000 0.0000 0.0000 24.1741 0.0000
# 6 0.0000 0.0000 0.0000 0.0000 0.0000 14.6559
#
#
#
# Elastic Compliance Matrix: (Units=1/GPa)
#
#
# Indices 1 2 3 4 5 6 
#
# 1 0.013398 -0.004870 -0.002440 0.000000 0.000000 0.000000
# 2 -0.004870 0.013010 -0.003915 0.000000 0.000000 0.000000
# 3 -0.002440 -0.003915 0.012824 0.000000 0.000000 0.000000
# 4 0.000000 0.000000 0.000000 0.042538 0.000000 0.000000
# 5 0.000000 0.000000 0.000000 0.000000 0.041367 0.000000
# 6 0.000000 0.000000 0.000000 0.000000 0.000000 0.068232
#
#
# Mechanical properties :
#
#
# Convention : Reuss Voigt Hill
#
# Bulk Modulus (GPa) = 59.59659 60.18008 59.88833
# Shear Modulus (GPa) = 22.78818 24.50444 23.64631
#
# Velocity S-wave (km/s) = 3.43747 3.56456 3.50159
# Velocity P-wave (km/s) = 6.83060 6.93874 6.88488
#
# Compressibility (1/GPa) = 0.01677948
#
# Stress axis : x y z
#
# Youngs Moduli (GPa) = 74.64071 76.86629 77.98093
#
# Poissons Ratio (x) = 0.37434 0.19029
# Poissons Ratio (y) = 0.36350 0.30533
# Poissons Ratio (z) = 0.18214 0.30097
#
# Static dielectric constant tensor:
#      x y z
#    x 1.703640 0.000000 0.000000 
#    y 0.000000 1.706360 0.000000 
#    z 0.000000 0.000000 1.636210 
# 
# From -- ./inp_files/16854.got.cif
#   From: 2010.05.17/outbox.cif.g08.bks.cpg/sg59_9_cif.got.tgz:16854.got - 2010.06.03 14:40:33.
