data_PCOD9448853
_publ_section_title
;
Structure prediction by ZEFSAII (Michael W. Deem and Ramdas Pophale) SiO2 
 PCOD9448853
Probable space group: P M M N
;
_chemical_formula_sum "Si O2"
_cell_formula_units_Z 64
_cell_length_a 18.061676
_cell_length_b 7.699966
_cell_length_c 22.405311
_cell_angle_alpha 90.000000
_cell_angle_beta 90.000000
_cell_angle_gamma 90.000000
_cell_volume 3116.002744
_symmetry_space_group_name_H-M "P M M N"
_symmetry_group_IT_number 59
_space_group.IT_coordinate_system_code '2'
_symmetry_cell_setting 'orthorhombic'
loop_
_space_group_symop_operation_xyz
x,y,z
1/2-x,1/2-y,z
1/2+x,-y,-z
-x,1/2+y,-z
-x,-y,-z
1/2+x,1/2+y,-z
1/2-x,y,z
x,1/2-y,z
loop_
_atom_site_type_symbol
_atom_site_label
_atom_site_fract_x
_atom_site_fract_y
_atom_site_fract_z
Si Si1 0.982382 0.544168 0.432234
Si Si2 0.560544 0.044707 0.894509
Si Si3 0.607415 0.451223 0.125032
Si Si4 0.052131 0.457022 0.311926
Si Si5 0.666549 0.037168 0.000009
Si Si6 0.329679 0.042779 0.620471
Si Si7 0.103300 0.539295 0.743349
Si Si8 0.165757 0.039337 0.216684
O O1 0.977477 0.750000 0.427868
O O2 0.902550 0.469774 0.411905
O O3 0.000000 0.500000 0.500000
O O4 0.041753 0.491191 0.381951
O O5 0.546750 0.250000 0.901233
O O6 0.481073 0.958325 0.884963
O O7 0.614060 0.015965 0.838146
O O8 0.605052 0.980119 0.952538
O O9 0.631065 0.250000 0.127658
O O10 0.646527 0.525233 0.066437
O O11 0.621858 0.526736 0.190647
O O12 0.051303 0.250000 0.304783
O O13 0.124647 0.520000 0.277324
O O14 0.978105 0.523137 0.278190
O O15 0.750000 0.985884 0.983053
O O16 0.664581 0.250000 0.999762
O O17 0.250000 0.971837 0.601515
O O18 0.328661 0.250000 0.610346
O O19 0.341769 0.012606 0.690786
O O20 0.100754 0.750000 0.745750
O O21 0.250000 0.976594 0.211228
O O22 0.167917 0.250000 0.216433
#
# Coordination Sequence:
#
# PCOD9448853 Si02
#       8
#     8   8   8   8   8   8   8   8
#     4  10  20  35  57  82 107 143 182 215 255 305
#     4  11  21  33  52  76 105 139 177 222 271 324
#     4  10  19  34  55  76 100 134 178 223 266 322
#     4   9  17  33  53  76 106 135 169 215 258 307
#     4   9  19  34  50  71 101 137 177 224 276 325
#     4   9  19  35  54  78 109 141 173 212 258 310
#     4   9  17  30  51  77 102 131 169 216 261 307
#     4  10  20  35  56  80 106 139 178 221 270 321
#
# _framework density 20.539134000000001
#
# number of rings (size 3 to 8) (size 9 to 14) (size 15 to 20)
#    0.000    2.375    1.250    1.500    0.000    3.000 
#    0.000    2.500    0.000    5.625    0.000    0.000 
#    0.000    0.000    0.000    0.000    0.000    0.000 
#
# Total GULP energy -357192.541928 kJ/mol
# GULP energy per Si atom -5581.133468 kJ/mol
# Density = 2.049239 g / cm^3
# Si number density = 20.539134 Si / 1000 Ang^3
#
#
#
# Elastic Constant Matrix: (Units=GPa)
#
#
# Indices 1 2 3 4 5 6 
#
# 1 42.7982 -8.3480 7.0175 0.0000 0.0000 0.0000
# 2 -8.3480 34.0158 -11.3728 0.0000 0.0000 0.0000
# 3 7.0175 -11.3728 114.5762 0.0000 0.0000 0.0000
# 4 0.0000 0.0000 0.0000 14.0961 0.0000 0.0000
# 5 0.0000 0.0000 0.0000 0.0000 12.8784 0.0000
# 6 0.0000 0.0000 0.0000 0.0000 0.0000 9.8269
#
#
#
# Elastic Compliance Matrix: (Units=1/GPa)
#
#
# Indices 1 2 3 4 5 6 
#
# 1 0.024638 0.005732 -0.000940 0.000000 0.000000 0.000000
# 2 0.005732 0.031741 0.002800 0.000000 0.000000 0.000000
# 3 -0.000940 0.002800 0.009063 0.000000 0.000000 0.000000
# 4 0.000000 0.000000 0.000000 0.070942 0.000000 0.000000
# 5 0.000000 0.000000 0.000000 0.000000 0.077650 0.000000
# 6 0.000000 0.000000 0.000000 0.000000 0.000000 0.101761
#
#
# Mechanical properties :
#
#
# Convention : Reuss Voigt Hill
#
# Bulk Modulus (GPa) = 12.40308 18.44262 15.42285
# Shear Modulus (GPa) = 15.26782 20.96650 18.11716
#
# Velocity S-wave (km/s) = 2.72941 3.19847 2.97321
# Velocity P-wave (km/s) = 3.99809 4.75805 4.39453
#
# Compressibility (1/GPa) = 0.08062515
#
# Stress axis : x y z
#
# Youngs Moduli (GPa) = 40.58821 31.50512 110.33546
#
# Poissons Ratio (x) = -0.18059 0.10372
# Poissons Ratio (y) = -0.23266 -0.30889
# Poissons Ratio (z) = 0.03815 -0.08820
#
# Static dielectric constant tensor:
#      x y z
#    x 1.733430 0.000000 0.000000 
#    y 0.000000 1.763420 0.000000 
#    z 0.000000 0.000000 1.648970 
# 
# From -- ./inp_files/30678.got.cif
#   From: 2010.05.17/outbox.cif.g08.bks.cpg/sg59_16_cif.got.tgz:30678.got - 2010.06.03 14:40:33.
