data_PCOD9448846
_publ_section_title
;
Structure prediction by ZEFSAII (Michael W. Deem and Ramdas Pophale) SiO2 
 PCOD9448846
Probable space group: P M M N
;
_chemical_formula_sum "Si O2"
_cell_formula_units_Z 64
_cell_length_a 24.303151
_cell_length_b 7.667171
_cell_length_c 15.205302
_cell_angle_alpha 90.000000
_cell_angle_beta 90.000000
_cell_angle_gamma 90.000000
_cell_volume 2833.301457
_symmetry_space_group_name_H-M "P M M N"
_symmetry_group_IT_number 59
_space_group.IT_coordinate_system_code '2'
_symmetry_cell_setting 'orthorhombic'
loop_
_space_group_symop_operation_xyz
x,y,z
1/2-x,1/2-y,z
1/2+x,-y,-z
-x,1/2+y,-z
-x,-y,-z
1/2+x,1/2+y,-z
1/2-x,y,z
x,1/2-y,z
loop_
_atom_site_type_symbol
_atom_site_label
_atom_site_fract_x
_atom_site_fract_y
_atom_site_fract_z
Si Si1 0.137905 0.452175 0.822422
Si Si2 0.024317 0.040342 0.404275
Si Si3 0.142809 0.459029 0.452719
Si Si4 0.308313 0.958439 0.277512
Si Si5 0.313888 0.463218 0.638411
Si Si6 0.399561 0.961597 0.145190
Si Si7 0.311945 0.952600 0.004014
Si Si8 0.982502 0.454909 0.216694
O O1 0.154240 0.250000 0.826508
O O2 0.156860 0.522043 0.727508
O O3 0.168777 0.539642 0.903353
O O4 0.071919 0.464587 0.825653
O O5 0.025749 0.250000 0.394746
O O6 0.086246 0.970836 0.412253
O O7 0.994080 0.974564 0.316151
O O8 0.000000 0.000000 0.500000
O O9 0.137496 0.250000 0.459877
O O10 0.187930 0.498449 0.379879
O O11 0.156766 0.525592 0.549489
O O12 0.250000 0.023319 0.240767
O O13 0.308775 0.750000 0.267543
O O14 0.361838 0.023628 0.226836
O O15 0.250000 0.513137 0.637869
O O16 0.315908 0.250000 0.637023
O O17 0.402794 0.750000 0.143719
O O18 0.461751 0.022400 0.160489
O O19 0.362924 0.022789 0.062121
O O20 0.250000 0.027430 0.014289
O O21 0.307628 0.750000 0.030919
O O22 0.970978 0.250000 0.223656
#
# Coordination Sequence:
#
# PCOD9448846 Si02
#       8
#     8   8   8   8   8   8   8   8
#     4  11  23  40  63  88 118 158 205 254 304 362
#     4  10  21  35  54  81 116 158 204 249 294 349
#     4  10  19  34  54  80 113 152 194 236 288 348
#     4  10  20  34  54  83 117 151 189 234 284 343
#     4   9  18  33  55  83 115 152 195 243 294 352
#     4  10  21  39  63  88 119 159 198 238 293 360
#     4  10  22  42  67  94 123 156 196 245 303 363
#     4  11  23  40  60  87 123 158 201 254 304 357
#
# _framework density 22.588488999999999
#
# number of rings (size 3 to 8) (size 9 to 14) (size 15 to 20)
#    0.000    1.875    1.250    2.625    0.000    6.500 
#    0.000    1.250    0.000    5.250    0.000    0.000 
#    0.000    0.000    0.000    0.000    0.000    0.000 
#
# Total GULP energy -357468.627119 kJ/mol
# GULP energy per Si atom -5585.447299 kJ/mol
# Density = 2.253708 g / cm^3
# Si number density = 22.588489 Si / 1000 Ang^3
#
#
#
# Elastic Constant Matrix: (Units=GPa)
#
#
# Indices 1 2 3 4 5 6 
#
# 1 75.0872 -12.4992 18.2007 0.0000 0.0000 0.0000
# 2 -12.4992 41.5693 -3.3056 0.0000 0.0000 0.0000
# 3 18.2007 -3.3056 106.0704 0.0000 0.0000 0.0000
# 4 0.0000 0.0000 0.0000 81.6120 0.0000 0.0000
# 5 0.0000 0.0000 0.0000 0.0000 40.5927 0.0000
# 6 0.0000 0.0000 0.0000 0.0000 0.0000 5.2626
#
#
#
# Elastic Compliance Matrix: (Units=1/GPa)
#
#
# Indices 1 2 3 4 5 6 
#
# 1 0.014592 0.004199 -0.002373 0.000000 0.000000 0.000000
# 2 0.004199 0.025324 0.000069 0.000000 0.000000 0.000000
# 3 -0.002373 0.000069 0.009837 0.000000 0.000000 0.000000
# 4 0.000000 0.000000 0.000000 0.012253 0.000000 0.000000
# 5 0.000000 0.000000 0.000000 0.000000 0.024635 0.000000
# 6 0.000000 0.000000 0.000000 0.000000 0.000000 0.190021
#
#
# Mechanical properties :
#
#
# Convention : Reuss Voigt Hill
#
# Bulk Modulus (GPa) = 18.67678 25.27987 21.97833
# Shear Modulus (GPa) = 17.19864 40.18221 28.69043
#
# Velocity S-wave (km/s) = 2.76232 4.22225 3.56776
# Velocity P-wave (km/s) = 4.29652 5.91487 5.16942
#
# Compressibility (1/GPa) = 0.05354241
#
# Stress axis : x y z
#
# Youngs Moduli (GPa) = 68.53068 39.48791 101.65676
#
# Poissons Ratio (x) = -0.16580 0.24123
# Poissons Ratio (y) = -0.28775 -0.00699
# Poissons Ratio (z) = 0.16262 -0.00271
#
# Static dielectric constant tensor:
#      x y z
#    x 1.838830 0.000000 0.000000 
#    y 0.000000 1.830390 0.000000 
#    z 0.000000 0.000000 1.850130 
# 
# From -- ./inp_files/24651.got.cif
#   From: 2010.05.17/outbox.cif.g08.bks.cpg/sg59_13_cif.got.tgz:24651.got - 2010.06.03 14:40:33.
