data_PCOD9448066
_publ_section_title
;
Structure prediction by ZEFSAII (Michael W. Deem and Ramdas Pophale) SiO2 
 PCOD9448066
Probable space group: P M M N
;
_chemical_formula_sum "Si O2"
_cell_formula_units_Z 40
_cell_length_a 14.137361
_cell_length_b 30.001647
_cell_length_c 5.278741
_cell_angle_alpha 90.000000
_cell_angle_beta 90.000000
_cell_angle_gamma 90.000000
_cell_volume 2238.946926
_symmetry_space_group_name_H-M "P M M N"
_symmetry_group_IT_number 59
_space_group.IT_coordinate_system_code '2'
_symmetry_cell_setting 'orthorhombic'
loop_
_space_group_symop_operation_xyz
x,y,z
1/2-x,1/2-y,z
1/2+x,-y,-z
-x,1/2+y,-z
-x,-y,-z
1/2+x,1/2+y,-z
1/2-x,y,z
x,1/2-y,z
loop_
_atom_site_type_symbol
_atom_site_label
_atom_site_fract_x
_atom_site_fract_y
_atom_site_fract_z
Si Si1 0.865394 0.698507 0.332570
Si Si2 0.640310 0.563209 0.140141
Si Si3 0.472978 0.948008 0.474338
Si Si4 0.860963 0.042325 0.033488
Si Si5 0.135811 0.147560 0.172266
O O1 0.750000 0.697484 0.332696
O O2 0.893228 0.750000 0.360685
O O3 0.895420 0.677865 0.065188
O O4 0.899632 0.668658 0.567376
O O5 0.750000 0.570009 0.214665
O O6 0.570172 0.572963 0.371359
O O7 0.628815 0.511838 0.055453
O O8 0.616924 0.597001 0.913966
O O9 0.420940 0.936737 0.735975
O O10 0.500000 0.000000 0.500000
O O11 0.401063 0.943783 0.238240
O O12 0.750000 0.052020 0.059533
O O13 0.250000 0.150365 0.185888
#
# Coordination Sequence:
#
# PCOD9448066 Si02
#       5
#     8   8   8   8   8
#     4   9  16  26  38  52  73 103 140 175 201 236
#     4   9  18  30  44  64  89 114 144 184 218 250
#     4  10  19  32  46  64  85 112 146 181 222 264
#     4  10  20  33  48  63  83 113 150 188 223 257
#     4   9  17  26  38  56  77 104 138 173 209 241
#
# _framework density 17.865542999999999
#
# number of rings (size 3 to 8) (size 9 to 14) (size 15 to 20)
#    0.000    2.600    0.000    3.600    0.000    8.000 
#    0.000   13.000    0.000    0.000    0.000    0.000 
#    0.000    0.000    0.000    0.000    0.000   70.000 
#
# Total GULP energy -223162.601716 kJ/mol
# GULP energy per Si atom -5579.065043 kJ/mol
# Density = 1.782488 g / cm^3
# Si number density = 17.865543 Si / 1000 Ang^3
#
#
#
# Elastic Constant Matrix: (Units=GPa)
#
#
# Indices 1 2 3 4 5 6 
#
# 1 77.9789 20.1781 36.5763 0.0000 0.0000 0.0000
# 2 20.1781 45.0270 20.6298 0.0000 0.0000 0.0000
# 3 36.5763 20.6298 115.1317 0.0000 0.0000 0.0000
# 4 0.0000 0.0000 0.0000 20.2958 0.0000 0.0000
# 5 0.0000 0.0000 0.0000 0.0000 15.7358 0.0000
# 6 0.0000 0.0000 0.0000 0.0000 0.0000 6.9954
#
#
#
# Elastic Compliance Matrix: (Units=1/GPa)
#
#
# Indices 1 2 3 4 5 6 
#
# 1 0.016163 -0.005328 -0.004180 0.000000 0.000000 0.000000
# 2 -0.005328 0.025952 -0.002957 0.000000 0.000000 0.000000
# 3 -0.004180 -0.002957 0.010544 0.000000 0.000000 0.000000
# 4 0.000000 0.000000 0.000000 0.049271 0.000000 0.000000
# 5 0.000000 0.000000 0.000000 0.000000 0.063549 0.000000
# 6 0.000000 0.000000 0.000000 0.000000 0.000000 0.142951
#
#
# Mechanical properties :
#
#
# Convention : Reuss Voigt Hill
#
# Bulk Modulus (GPa) = 36.06582 43.65622 39.86102
# Shear Modulus (GPa) = 14.59408 19.32229 16.95818
#
# Velocity S-wave (km/s) = 2.86122 3.29224 3.08427
# Velocity P-wave (km/s) = 5.58092 6.24026 5.91978
#
# Compressibility (1/GPa) = 0.02772709
#
# Stress axis : x y z
#
# Youngs Moduli (GPa) = 61.86782 38.53323 94.84367
#
# Poissons Ratio (x) = 0.20531 0.39647
# Poissons Ratio (y) = 0.32964 0.28049
# Poissons Ratio (z) = 0.25862 0.11396
#
# Static dielectric constant tensor:
#      x y z
#    x 1.622480 0.000000 0.000000 
#    y 0.000000 1.636230 0.000000 
#    z 0.000000 0.000000 1.666890 
# 
# From -- ./inp_files/2072.got.cif
#   From: 2010.05.17/outbox.cif.g08.bks.cpg/sg59_2_cif.got.tgz:2072.got - 2010.06.03 14:40:33.
