data_PCOD9448149
_publ_section_title
;
Structure prediction by ZEFSAII (Michael W. Deem and Ramdas Pophale) SiO2 
 PCOD9448149
Probable space group: P M M N
;
_chemical_formula_sum "Si O2"
_cell_formula_units_Z 64
_cell_length_a 8.806973
_cell_length_b 30.287500
_cell_length_c 15.287197
_cell_angle_alpha 90.000000
_cell_angle_beta 90.000000
_cell_angle_gamma 90.000000
_cell_volume 4077.725192
_symmetry_space_group_name_H-M "P M M N"
_symmetry_group_IT_number 59
_space_group.IT_coordinate_system_code '2'
_symmetry_cell_setting 'orthorhombic'
loop_
_space_group_symop_operation_xyz
x,y,z
1/2-x,1/2-y,z
1/2+x,-y,-z
-x,1/2+y,-z
-x,-y,-z
1/2+x,1/2+y,-z
1/2-x,y,z
x,1/2-y,z
loop_
_atom_site_type_symbol
_atom_site_label
_atom_site_fract_x
_atom_site_fract_y
_atom_site_fract_z
Si Si1 0.071269 0.614782 0.706280
Si Si2 0.067780 0.609020 0.035734
Si Si3 0.568038 0.466992 0.621823
Si Si4 0.567620 0.560788 0.866166
Si Si5 0.070077 0.434122 0.448640
Si Si6 0.934593 0.461996 0.821834
Si Si7 0.567728 0.799885 0.992436
Si Si8 0.429903 0.300894 0.215062
O O1 0.250000 0.607725 0.714864
O O2 0.984897 0.584248 0.777035
O O3 0.015003 0.601380 0.610436
O O4 0.026382 0.664468 0.730964
O O5 0.250000 0.609033 0.031693
O O6 0.017924 0.578369 0.116857
O O7 0.003687 0.586336 0.947888
O O8 0.008904 0.659108 0.040302
O O9 0.750000 0.460494 0.617036
O O10 0.538844 0.518065 0.596095
O O11 0.488250 0.437967 0.547643
O O12 0.515948 0.458739 0.720961
O O13 0.750000 0.563082 0.872060
O O14 0.519703 0.509442 0.861565
O O15 0.250000 0.426804 0.446106
O O16 0.750000 0.462476 0.820198
O O17 0.750000 0.802424 0.002266
O O18 0.520185 0.750000 0.017706
O O19 0.535941 0.805180 0.888516
O O20 0.250000 0.310363 0.225567
O O21 0.456201 0.250000 0.239282
#
# Coordination Sequence:
#
# PCOD9448149 Si02
#       8
#     8   8   8   8   8   8   8   8
#     4  12  22  31  48  75 102 130 165 204 243 291
#     4  11  21  32  48  74 100 128 167 207 246 289
#     4   9  17  33  51  69  95 128 164 204 245 285
#     4  11  20  34  49  65  97 140 174 200 236 286
#     4  10  19  32  51  72  96 127 162 201 245 294
#     4   9  19  34  50  68  98 136 169 203 246 291
#     4   9  18  33  51  69  93 128 165 200 245 296
#     4   9  18  33  52  71  95 129 164 199 244 298
#
# _framework density 15.695026
#
# number of rings (size 3 to 8) (size 9 to 14) (size 15 to 20)
#    0.000    2.000    2.500    3.375    0.000    1.000 
#    0.000    4.375    0.000    0.000    0.000    0.875 
#    0.000    5.000    0.000    0.000    0.000    0.000 
#
# Total GULP energy -357124.273331 kJ/mol
# GULP energy per Si atom -5580.066771 kJ/mol
# Density = 1.565930 g / cm^3
# Si number density = 15.695026 Si / 1000 Ang^3
#
#
#
# Elastic Constant Matrix: (Units=GPa)
#
#
# Indices 1 2 3 4 5 6 
#
# 1 35.9456 38.2685 19.7205 0.0000 0.0000 0.0000
# 2 38.2685 105.9673 49.4543 0.0000 0.0000 0.0000
# 3 19.7205 49.4543 73.6563 0.0000 0.0000 0.0000
# 4 0.0000 0.0000 0.0000 19.2934 0.0000 0.0000
# 5 0.0000 0.0000 0.0000 0.0000 20.0317 0.0000
# 6 0.0000 0.0000 0.0000 0.0000 0.0000 23.2689
#
#
#
# Elastic Compliance Matrix: (Units=1/GPa)
#
#
# Indices 1 2 3 4 5 6 
#
# 1 0.045337 -0.015594 -0.001668 0.000000 0.000000 0.000000
# 2 -0.015594 0.019107 -0.008654 0.000000 0.000000 0.000000
# 3 -0.001668 -0.008654 0.019834 0.000000 0.000000 0.000000
# 4 0.000000 0.000000 0.000000 0.051831 0.000000 0.000000
# 5 0.000000 0.000000 0.000000 0.000000 0.049921 0.000000
# 6 0.000000 0.000000 0.000000 0.000000 0.000000 0.042976
#
#
# Mechanical properties :
#
#
# Convention : Reuss Voigt Hill
#
# Bulk Modulus (GPa) = 30.82106 47.82844 39.32475
# Shear Modulus (GPa) = 17.14367 19.72720 18.43543
#
# Velocity S-wave (km/s) = 3.30858 3.54914 3.43097
# Velocity P-wave (km/s) = 5.85455 6.88004 6.38790
#
# Compressibility (1/GPa) = 0.03244535
#
# Stress axis : x y z
#
# Youngs Moduli (GPa) = 22.05709 52.33638 50.41970
#
# Poissons Ratio (x) = 0.81615 0.08410
# Poissons Ratio (y) = 0.34396 0.43632
# Poissons Ratio (z) = 0.03679 0.45291
#
# Static dielectric constant tensor:
#      x y z
#    x 1.526970 0.000000 0.000000 
#    y 0.000000 1.525550 0.000000 
#    z 0.000000 0.000000 1.506880 
# 
# From -- ./inp_files/21916.got.cif
#   From: 2010.05.17/outbox.cif.g08.bks.cpg/sg59_11_cif.got.tgz:21916.got - 2010.06.03 14:40:33.
