data_PCOD9448346
_publ_section_title
;
Structure prediction by ZEFSAII (Michael W. Deem and Ramdas Pophale) SiO2 
 PCOD9448346
Probable space group: P M M N
;
_chemical_formula_sum "Si O2"
_cell_formula_units_Z 64
_cell_length_a 19.879385
_cell_length_b 7.456155
_cell_length_c 18.072386
_cell_angle_alpha 90.000000
_cell_angle_beta 90.000000
_cell_angle_gamma 90.000000
_cell_volume 2678.757292
_symmetry_space_group_name_H-M "P M M N"
_symmetry_group_IT_number 59
_space_group.IT_coordinate_system_code '2'
_symmetry_cell_setting 'orthorhombic'
loop_
_space_group_symop_operation_xyz
x,y,z
1/2-x,1/2-y,z
1/2+x,-y,-z
-x,1/2+y,-z
-x,-y,-z
1/2+x,1/2+y,-z
1/2-x,y,z
x,1/2-y,z
loop_
_atom_site_type_symbol
_atom_site_label
_atom_site_fract_x
_atom_site_fract_y
_atom_site_fract_z
Si Si1 0.463893 0.967199 0.781243
Si Si2 0.325549 0.466647 0.994297
Si Si3 0.326655 0.033288 0.268741
Si Si4 0.386256 0.539878 0.429112
Si Si5 0.822535 0.041400 0.177680
Si Si6 0.972341 0.960826 0.384218
Si Si7 0.414586 0.031176 0.127937
Si Si8 0.675129 0.955787 0.421196
O O1 0.462427 0.750000 0.783477
O O2 0.388581 0.039271 0.786977
O O3 0.510664 0.025896 0.849127
O O4 0.491926 0.019941 0.701774
O O5 0.250000 0.513877 0.020956
O O6 0.328346 0.250000 0.990528
O O7 0.381872 0.530145 0.051448
O O8 0.332067 0.534863 0.910897
O O9 0.250000 0.972547 0.263042
O O10 0.327574 0.250000 0.267557
O O11 0.368625 0.975115 0.197278
O O12 0.357032 0.978262 0.347139
O O13 0.390024 0.750000 0.447072
O O14 0.462879 0.465431 0.428262
O O15 0.337940 0.456060 0.490449
O O16 0.750000 0.960172 0.195284
O O17 0.820066 0.250000 0.199700
O O18 0.967533 0.750000 0.402121
O O19 0.896452 0.036592 0.393186
O O20 0.413979 0.250000 0.125541
O O21 0.750000 0.033065 0.405208
O O22 0.677011 0.750000 0.394677
#
# Coordination Sequence:
#
# PCOD9448346 Si02
#       8
#     8   8   8   8   8   8   8   8
#     4  10  20  35  56  78 103 140 180 217 262 317
#     4   9  17  31  52  76 102 135 176 220 264 310
#     4  10  19  32  53  78 105 142 182 217 257 308
#     4  11  22  36  55  81 112 142 171 213 265 316
#     4   9  19  35  52  74 106 140 175 217 267 321
#     4  10  22  39  57  80 110 141 175 219 269 315
#     4   9  17  31  51  76 104 134 176 222 258 304
#     4  10  22  40  60  81 106 139 180 222 263 311
#
# _framework density 23.891676
#
# number of rings (size 3 to 8) (size 9 to 14) (size 15 to 20)
#    0.000    2.250    1.250    1.500    0.000    6.000 
#    0.000    1.250    0.000    1.500    0.000    0.000 
#    0.000    0.000    0.000    0.000    0.000    0.000 
#
# Total GULP energy -357542.055028 kJ/mol
# GULP energy per Si atom -5586.594610 kJ/mol
# Density = 2.383730 g / cm^3
# Si number density = 23.891676 Si / 1000 Ang^3
#
#
#
# Elastic Constant Matrix: (Units=GPa)
#
#
# Indices 1 2 3 4 5 6 
#
# 1 128.4066 11.0598 -3.1311 0.0000 0.0000 0.0000
# 2 11.0598 78.0885 -10.2240 0.0000 0.0000 0.0000
# 3 -3.1311 -10.2240 19.7503 0.0000 0.0000 0.0000
# 4 0.0000 0.0000 0.0000 7.2347 0.0000 0.0000
# 5 0.0000 0.0000 0.0000 0.0000 33.6871 0.0000
# 6 0.0000 0.0000 0.0000 0.0000 0.0000 -151.0248
#
#
#
# Elastic Compliance Matrix: (Units=1/GPa)
#
#
# Indices 1 2 3 4 5 6 
#
# 1 0.007894 -0.001024 0.000722 0.000000 0.000000 0.000000
# 2 -0.001024 0.013870 0.007018 0.000000 0.000000 0.000000
# 3 0.000722 0.007018 0.054379 0.000000 0.000000 0.000000
# 4 0.000000 0.000000 0.000000 0.138223 0.000000 0.000000
# 5 0.000000 0.000000 0.000000 0.000000 0.029685 0.000000
# 6 0.000000 0.000000 0.000000 0.000000 0.000000 -0.006621
#
#
# Mechanical properties :
#
#
# Convention : Reuss Voigt Hill
#
# Bulk Modulus (GPa) = 11.16395 24.62832 17.89614
# Shear Modulus (GPa) = 19.69622 -6.78457 6.45582
#
# Velocity S-wave (km/s) = 2.87435 -1.68697 1.64560
# Velocity P-wave (km/s) = 3.96216 2.55660 3.33428
#
# Compressibility (1/GPa) = 0.08957399
#
# Stress axis : x y z
#
# Youngs Moduli (GPa) = 126.68632 72.09932 18.38932
#
# Poissons Ratio (x) = 0.07379 -0.01327
# Poissons Ratio (y) = 0.12966 -0.12905
# Poissons Ratio (z) = -0.09141 -0.50597
#
# Static dielectric constant tensor:
#      x y z
#    x 1.943010 0.000000 0.000000 
#    y 0.000000 1.914890 0.000000 
#    z 0.000000 0.000000 1.857940 
# 
# From -- ./inp_files/28216.got.cif
#   From: 2010.05.17/outbox.cif.g08.bks.cpg/sg59_15_cif.got.tgz:28216.got - 2010.06.03 14:40:33.
