data_PCOD9448174
_publ_section_title
;
Structure prediction by ZEFSAII (Michael W. Deem and Ramdas Pophale) SiO2 
 PCOD9448174
Probable space group: P M M N
;
_chemical_formula_sum "Si O2"
_cell_formula_units_Z 56
_cell_length_a 9.251447
_cell_length_b 15.341125
_cell_length_c 19.134174
_cell_angle_alpha 90.000000
_cell_angle_beta 90.000000
_cell_angle_gamma 90.000000
_cell_volume 2715.667487
_symmetry_space_group_name_H-M "P M M N"
_symmetry_group_IT_number 59
_space_group.IT_coordinate_system_code '2'
_symmetry_cell_setting 'orthorhombic'
loop_
_space_group_symop_operation_xyz
x,y,z
1/2-x,1/2-y,z
1/2+x,-y,-z
-x,1/2+y,-z
-x,-y,-z
1/2+x,1/2+y,-z
1/2-x,y,z
x,1/2-y,z
loop_
_atom_site_type_symbol
_atom_site_label
_atom_site_fract_x
_atom_site_fract_y
_atom_site_fract_z
Si Si1 0.077118 0.604169 0.351767
Si Si2 0.589549 0.851801 0.213733
Si Si3 0.077371 0.917764 0.653657
Si Si4 0.414530 0.145607 0.212405
Si Si5 0.077322 0.906081 0.502493
Si Si6 0.584984 0.357106 0.919614
Si Si7 0.918036 0.856200 0.942980
O O1 0.250000 0.607030 0.342902
O O2 0.040282 0.640762 0.429365
O O3 0.999684 0.644579 0.285119
O O4 0.013855 0.506546 0.351781
O O5 0.750000 0.890407 0.222300
O O6 0.606131 0.750000 0.197277
O O7 0.503410 0.889072 0.147794
O O8 0.250000 0.933090 0.656975
O O9 0.047938 0.868187 0.579738
O O10 0.020589 0.875450 0.724451
O O11 0.250000 0.113028 0.226083
O O12 0.405457 0.250000 0.208076
O O13 0.461145 0.114758 0.135093
O O14 0.250000 0.920316 0.499227
O O15 0.000000 0.000000 0.500000
O O16 0.750000 0.385433 0.914564
O O17 0.584778 0.250000 0.919339
O O18 0.513454 0.386068 0.992149
O O19 0.750000 0.879285 0.953518
O O20 0.924857 0.750000 0.943557
#
# Coordination Sequence:
#
# PCOD9448174 Si02
#       7
#     8   8   8   8   8   8   8
#     4  10  19  33  53  73  95 125 162 201 241 287
#     4  10  20  33  49  71 100 130 160 197 241 286
#     4  10  19  32  51  74  99 126 160 200 242 289
#     4   9  18  32  49  71 100 132 165 200 239 283
#     4   8  16  30  48  70  93 121 158 199 239 281
#     4   9  16  26  43  68  95 123 158 197 235 279
#     4   8  14  26  44  65  91 124 160 197 235 275
#
# _framework density 20.621082000000001
#
# number of rings (size 3 to 8) (size 9 to 14) (size 15 to 20)
#    0.000    2.857    0.000    2.571    0.000    4.571 
#    0.000    2.143    0.000    5.143    0.000    0.000 
#    0.000    0.000    0.000    0.000    0.000    0.000 
#
# Total GULP energy -311989.001201 kJ/mol
# GULP energy per Si atom -5571.232164 kJ/mol
# Density = 2.057415 g / cm^3
# Si number density = 20.621082 Si / 1000 Ang^3
#
#
#
# Elastic Constant Matrix: (Units=GPa)
#
#
# Indices 1 2 3 4 5 6 
#
# 1 112.8903 5.3130 106.8339 0.0000 0.0000 0.0000
# 2 5.3130 20.4194 9.8715 0.0000 0.0000 0.0000
# 3 106.8339 9.8715 219.6057 0.0000 0.0000 0.0000
# 4 0.0000 0.0000 0.0000 17.9739 0.0000 0.0000
# 5 0.0000 0.0000 0.0000 0.0000 32.8415 0.0000
# 6 0.0000 0.0000 0.0000 0.0000 0.0000 14.0225
#
#
#
# Elastic Compliance Matrix: (Units=1/GPa)
#
#
# Indices 1 2 3 4 5 6 
#
# 1 0.016419 -0.000420 -0.007969 0.000000 0.000000 0.000000
# 2 -0.000420 0.050072 -0.002047 0.000000 0.000000 0.000000
# 3 -0.007969 -0.002047 0.008522 0.000000 0.000000 0.000000
# 4 0.000000 0.000000 0.000000 0.055636 0.000000 0.000000
# 5 0.000000 0.000000 0.000000 0.000000 0.030449 0.000000
# 6 0.000000 0.000000 0.000000 0.000000 0.000000 0.071314
#
#
# Mechanical properties :
#
#
# Convention : Reuss Voigt Hill
#
# Bulk Modulus (GPa) = 18.46963 66.32800 42.39881
# Shear Modulus (GPa) = 18.42773 28.36071 23.39422
#
# Velocity S-wave (km/s) = 2.99262 3.71256 3.37186
# Velocity P-wave (km/s) = 4.57352 7.11424 5.98037
#
# Compressibility (1/GPa) = 0.05414294
#
# Stress axis : x y z
#
# Youngs Moduli (GPa) = 60.90463 19.97137 117.34019
#
# Poissons Ratio (x) = 0.00838 0.93505
# Poissons Ratio (y) = 0.02557 0.24014
# Poissons Ratio (z) = 0.48533 0.04087
#
# Static dielectric constant tensor:
#      x y z
#    x 1.707960 0.000000 0.000000 
#    y 0.000000 1.791450 0.000000 
#    z 0.000000 0.000000 1.782430 
# 
# From -- ./inp_files/26014.got.cif
#   From: 2010.05.17/outbox.cif.g08.bks.cpg/sg59_14_cif.got.tgz:26014.got - 2010.06.03 14:40:33.
