data_PCOD9448880
_publ_section_title
;
Structure prediction by ZEFSAII (Michael W. Deem and Ramdas Pophale) SiO2 
 PCOD9448880
Probable space group: P M M N
;
_chemical_formula_sum "Si O2"
_cell_formula_units_Z 56
_cell_length_a 8.264800
_cell_length_b 21.245695
_cell_length_c 16.535163
_cell_angle_alpha 90.000000
_cell_angle_beta 90.000000
_cell_angle_gamma 90.000000
_cell_volume 2903.432752
_symmetry_space_group_name_H-M "P M M N"
_symmetry_group_IT_number 59
_space_group.IT_coordinate_system_code '2'
_symmetry_cell_setting 'orthorhombic'
loop_
_space_group_symop_operation_xyz
x,y,z
1/2-x,1/2-y,z
1/2+x,-y,-z
-x,1/2+y,-z
-x,-y,-z
1/2+x,1/2+y,-z
1/2-x,y,z
x,1/2-y,z
loop_
_atom_site_type_symbol
_atom_site_label
_atom_site_fract_x
_atom_site_fract_y
_atom_site_fract_z
Si Si1 0.442504 0.113025 0.213365
Si Si2 0.557726 0.444072 0.382617
Si Si3 0.554240 0.918846 0.445155
Si Si4 0.557124 0.364967 0.863206
Si Si5 0.948477 0.250000 0.974719
Si Si6 0.555234 0.678626 0.310513
Si Si7 0.053975 0.496902 0.092775
Si Si8 0.056935 0.750000 0.839239
O O1 0.250000 0.115350 0.205610
O O2 0.484297 0.084751 0.301432
O O3 0.504341 0.063547 0.144548
O O4 0.504480 0.184189 0.201291
O O5 0.750000 0.445845 0.371488
O O6 0.514557 0.408370 0.465520
O O7 0.500735 0.514840 0.405335
O O8 0.750000 0.920622 0.451380
O O9 0.503401 0.865687 0.383045
O O10 0.750000 0.367908 0.875088
O O11 0.496202 0.312964 0.927497
O O12 0.519779 0.340659 0.774324
O O13 0.495512 0.436282 0.871240
O O14 0.750000 0.250000 0.973320
O O15 0.002158 0.250000 0.067497
O O16 0.750000 0.673403 0.302709
O O17 0.513335 0.750000 0.328635
O O18 0.250000 0.495324 0.095568
O O19 0.000000 0.500000 0.000000
O O20 0.250000 0.750000 0.840968
#
# Coordination Sequence:
#
# PCOD9448880 Si02
#       8
#     8   8   8   8   4   8   8   4
#     4  11  23  40  59  85 118 153 191 240 300 352
#     4  10  20  36  60  86 110 146 194 239 285 343
#     4   9  19  36  57  82 115 150 186 234 288 341
#     4  10  19  34  55  81 113 151 189 229 280 337
#     4   9  18  33  55  80 109 148 191 233 280 331
#     4  10  20  34  52  80 114 148 185 225 278 339
#     4  10  22  37  57  85 117 151 193 241 289 342
#     4  11  23  41  63  82 107 148 197 245 288 347
#
# _framework density 19.287513000000001
#
# number of rings (size 3 to 8) (size 9 to 14) (size 15 to 20)
#    0.000    2.000    0.714    2.786    0.000    4.000 
#    1.286    1.429    0.000    0.000    0.000    0.000 
#    0.000    0.000    0.000    0.000    0.000    0.000 
#
# Total GULP energy -312563.477569 kJ/mol
# GULP energy per Si atom -5581.490671 kJ/mol
# Density = 1.924361 g / cm^3
# Si number density = 19.287513 Si / 1000 Ang^3
#
#
#
# Elastic Constant Matrix: (Units=GPa)
#
#
# Indices 1 2 3 4 5 6 
#
# 1 14.3686 22.7202 11.9397 0.0000 0.0000 0.0000
# 2 22.7202 126.5589 66.0083 0.0000 0.0000 0.0000
# 3 11.9397 66.0083 119.0298 0.0000 0.0000 0.0000
# 4 0.0000 0.0000 0.0000 38.2291 0.0000 0.0000
# 5 0.0000 0.0000 0.0000 0.0000 31.7288 0.0000
# 6 0.0000 0.0000 0.0000 0.0000 0.0000 16.2929
#
#
#
# Elastic Compliance Matrix: (Units=1/GPa)
#
#
# Indices 1 2 3 4 5 6 
#
# 1 0.097185 -0.017393 -0.000103 0.000000 0.000000 0.000000
# 2 -0.017393 0.014230 -0.006146 0.000000 0.000000 0.000000
# 3 -0.000103 -0.006146 0.011820 0.000000 0.000000 0.000000
# 4 0.000000 0.000000 0.000000 0.026158 0.000000 0.000000
# 5 0.000000 0.000000 0.000000 0.000000 0.031517 0.000000
# 6 0.000000 0.000000 0.000000 0.000000 0.000000 0.061377
#
#
# Mechanical properties :
#
#
# Convention : Reuss Voigt Hill
#
# Bulk Modulus (GPa) = 13.16668 51.25486 32.21077
# Shear Modulus (GPa) = 15.87866 27.86943 21.87405
#
# Velocity S-wave (km/s) = 2.87237 3.80537 3.37130
# Velocity P-wave (km/s) = 4.22398 6.77787 5.64719
#
# Compressibility (1/GPa) = 0.07594929
#
# Stress axis : x y z
#
# Youngs Moduli (GPa) = 10.28967 70.27572 84.60163
#
# Poissons Ratio (x) = 1.22232 0.00872
# Poissons Ratio (y) = 0.17897 0.52000
# Poissons Ratio (z) = 0.00106 0.43194
#
# Static dielectric constant tensor:
#      x y z
#    x 1.676900 0.000000 0.000000 
#    y 0.000000 1.687610 0.000000 
#    z 0.000000 0.000000 1.628720 
# 
# From -- ./inp_files/21095.got.cif
#   From: 2010.05.17/outbox.cif.g08.bks.cpg/sg59_11_cif.got.tgz:21095.got - 2010.06.03 14:40:33.
