data_PCOD9448840
_publ_section_title
;
Structure prediction by ZEFSAII (Michael W. Deem and Ramdas Pophale) SiO2 
 PCOD9448840
Probable space group: P M M N
;
_chemical_formula_sum "Si O2"
_cell_formula_units_Z 48
_cell_length_a 10.069793
_cell_length_b 29.550687
_cell_length_c 7.061455
_cell_angle_alpha 90.000000
_cell_angle_beta 90.000000
_cell_angle_gamma 90.000000
_cell_volume 2101.272229
_symmetry_space_group_name_H-M "P M M N"
_symmetry_group_IT_number 59
_space_group.IT_coordinate_system_code '2'
_symmetry_cell_setting 'orthorhombic'
loop_
_space_group_symop_operation_xyz
x,y,z
1/2-x,1/2-y,z
1/2+x,-y,-z
-x,1/2+y,-z
-x,-y,-z
1/2+x,1/2+y,-z
1/2-x,y,z
x,1/2-y,z
loop_
_atom_site_type_symbol
_atom_site_label
_atom_site_fract_x
_atom_site_fract_y
_atom_site_fract_z
Si Si1 0.038372 0.104953 0.042966
Si Si2 0.250000 0.931897 0.888294
Si Si3 0.906588 0.299525 0.662270
Si Si4 0.750000 0.966762 0.015172
Si Si5 0.250000 0.053495 0.527585
Si Si6 0.750000 0.047792 0.557594
Si Si7 0.097852 0.200799 0.026506
Si Si8 0.495354 0.393034 0.609097
O O1 0.124040 0.059607 0.072347
O O2 0.078972 0.152999 0.133100
O O3 0.062119 0.113245 0.819185
O O4 0.884114 0.095280 0.073215
O O5 0.250000 0.943457 0.667361
O O6 0.250000 0.979192 0.003418
O O7 0.750000 0.305214 0.702771
O O8 0.924852 0.250000 0.571163
O O9 0.953778 0.343744 0.549182
O O10 0.989894 0.298435 0.857561
O O11 0.750000 0.959062 0.245692
O O12 0.381076 0.082930 0.490278
O O13 0.250000 0.005981 0.419740
O O14 0.881431 0.072791 0.628882
O O15 0.250000 0.199685 0.952310
O O16 0.084399 0.250000 0.126424
#
# Coordination Sequence:
#
# PCOD9448840 Si02
#       8
#     8   4   8   4   4   4   8   8
#     4  10  19  34  54  79 102 135 170 210 255 310
#     4  11  23  33  50  73 109 137 173 213 252 297
#     4   9  17  28  47  79 108 130 160 206 258 308
#     4   9  18  35  52  76 103 134 169 215 256 301
#     4   9  20  33  54  78 103 128 175 221 256 299
#     4  11  21  37  50  73 105 141 173 215 254 299
#     4   9  17  29  50  79 107 131 162 212 265 306
#     4  10  19  34  56  76 101 135 171 211 259 308
#
# _framework density 22.843304
#
# number of rings (size 3 to 8) (size 9 to 14) (size 15 to 20)
#    0.000    2.333    1.667    1.500    7.000    0.000 
#    0.000    2.500    0.000    2.000    0.000    0.000 
#    0.000    0.000    0.000    0.000    0.000    0.000 
#
# Total GULP energy -267862.456530 kJ/mol
# GULP energy per Si atom -5580.467844 kJ/mol
# Density = 2.279131 g / cm^3
# Si number density = 22.843304 Si / 1000 Ang^3
#
#
#
# Elastic Constant Matrix: (Units=GPa)
#
#
# Indices 1 2 3 4 5 6 
#
# 1 131.8890 68.9806 -14.4426 0.0000 0.0000 0.0000
# 2 68.9806 218.5250 -8.2449 0.0000 0.0000 0.0000
# 3 -14.4426 -8.2449 52.0509 0.0000 0.0000 0.0000
# 4 0.0000 0.0000 0.0000 11.8148 0.0000 0.0000
# 5 0.0000 0.0000 0.0000 0.0000 0.0465 0.0000
# 6 0.0000 0.0000 0.0000 0.0000 0.0000 36.9659
#
#
#
# Elastic Compliance Matrix: (Units=1/GPa)
#
#
# Indices 1 2 3 4 5 6 
#
# 1 0.009311 -0.002859 0.002131 0.000000 0.000000 0.000000
# 2 -0.002859 0.005481 0.000075 0.000000 0.000000 0.000000
# 3 0.002131 0.000075 0.019815 0.000000 0.000000 0.000000
# 4 0.000000 0.000000 0.000000 0.084639 0.000000 0.000000
# 5 0.000000 0.000000 0.000000 0.000000 21.525168 0.000000
# 6 0.000000 0.000000 0.000000 0.000000 0.000000 0.027052
#
#
# Mechanical properties :
#
#
# Convention : Reuss Voigt Hill
#
# Bulk Modulus (GPa) = 30.02910 55.00566 42.51738
# Shear Modulus (GPa) = 0.23059 33.51022 16.87040
#
# Velocity S-wave (km/s) = 0.31806 3.83425 2.72053
# Velocity P-wave (km/s) = 3.64817 6.61315 5.34055
#
# Compressibility (1/GPa) = 0.03330103
#
# Stress axis : x y z
#
# Youngs Moduli (GPa) = 107.40481 182.43731 50.46670
#
# Poissons Ratio (x) = 0.52152 -0.10752
# Poissons Ratio (y) = 0.30703 -0.00379
# Poissons Ratio (z) = -0.22884 -0.01369
#
# Static dielectric constant tensor:
#      x y z
#    x 1.804600 0.000000 0.000000 
#    y 0.000000 1.921800 0.000000 
#    z 0.000000 0.000000 1.891750 
# 
# From -- ./inp_files/6471.got.cif
#   From: 2010.05.17/outbox.cif.g08.bks.cpg/sg59_4_cif.got.tgz:6471.got - 2010.06.03 14:40:33.
