data_PCOD9448498
_publ_section_title
;
Structure prediction by ZEFSAII (Michael W. Deem and Ramdas Pophale) SiO2 
 PCOD9448498
Probable space group: P M M N
;
_chemical_formula_sum "Si O2"
_cell_formula_units_Z 48
_cell_length_a 7.910129
_cell_length_b 15.290493
_cell_length_c 20.721061
_cell_angle_alpha 90.000000
_cell_angle_beta 90.000000
_cell_angle_gamma 90.000000
_cell_volume 2506.207606
_symmetry_space_group_name_H-M "P M M N"
_symmetry_group_IT_number 59
_space_group.IT_coordinate_system_code '2'
_symmetry_cell_setting 'orthorhombic'
loop_
_space_group_symop_operation_xyz
x,y,z
1/2-x,1/2-y,z
1/2+x,-y,-z
-x,1/2+y,-z
-x,-y,-z
1/2+x,1/2+y,-z
1/2-x,y,z
x,1/2-y,z
loop_
_atom_site_type_symbol
_atom_site_label
_atom_site_fract_x
_atom_site_fract_y
_atom_site_fract_z
Si Si1 0.554553 0.750000 0.553309
Si Si2 0.542619 0.250000 0.020138
Si Si3 0.548106 0.935558 0.556452
Si Si4 0.952477 0.056287 0.294791
Si Si5 0.545821 0.939217 0.180524
Si Si6 0.453731 0.558348 0.938125
Si Si7 0.956256 0.250000 0.299019
Si Si8 0.950638 0.250000 0.871132
O O1 0.750000 0.750000 0.531782
O O2 0.473975 0.841439 0.535503
O O3 0.542781 0.750000 0.630948
O O4 0.750000 0.250000 0.020669
O O5 0.487439 0.158677 0.052815
O O6 0.484580 0.250000 0.945260
O O7 0.750000 0.928195 0.559268
O O8 0.493883 0.955825 0.629702
O O9 0.500000 0.000000 0.500000
O O10 0.750000 0.055459 0.290460
O O11 0.004044 0.154612 0.271432
O O12 0.016838 0.980119 0.247964
O O13 0.750000 0.942309 0.180527
O O14 0.500347 0.839525 0.164504
O O15 0.484816 0.004798 0.124111
O O16 0.250000 0.562393 0.934139
O O17 0.500000 0.500000 0.000000
O O18 0.750000 0.250000 0.305650
O O19 0.750000 0.250000 0.876186
#
# Coordination Sequence:
#
# PCOD9448498 Si02
#       8
#     4   4   8   8   8   8   4   4
#     4   8  16  30  48  72 101 133 166 199 248 305
#     4   9  18  32  51  76 104 134 171 217 265 310
#     4  10  19  33  54  79 106 139 176 215 260 311
#     4   9  18  33  52  78 108 137 171 214 262 313
#     4  10  21  35  54  78 105 138 176 219 266 317
#     4  10  19  33  52  75 102 133 172 215 260 310
#     4   8  14  27  50  74  99 130 163 200 248 304
#     4  11  21  35  55  74 100 141 182 220 263 315
#
# _framework density 19.152445
#
# number of rings (size 3 to 8) (size 9 to 14) (size 15 to 20)
#    0.000    2.500    1.667    0.750    0.000    2.000 
#    0.000    4.583    0.000    2.000    0.000    3.500 
#    0.000    0.000    0.000    0.000    0.000    0.000 
#
# Total GULP energy -267371.661206 kJ/mol
# GULP energy per Si atom -5570.242942 kJ/mol
# Density = 1.910885 g / cm^3
# Si number density = 19.152445 Si / 1000 Ang^3
#
#
#
# Elastic Constant Matrix: (Units=GPa)
#
#
# Indices 1 2 3 4 5 6 
#
# 1 19.6450 11.7559 5.8734 0.0000 0.0000 0.0000
# 2 11.7559 218.6791 102.9193 0.0000 0.0000 0.0000
# 3 5.8734 102.9193 109.5955 0.0000 0.0000 0.0000
# 4 0.0000 0.0000 0.0000 34.3131 0.0000 0.0000
# 5 0.0000 0.0000 0.0000 0.0000 17.8128 0.0000
# 6 0.0000 0.0000 0.0000 0.0000 0.0000 12.8132
#
#
#
# Elastic Compliance Matrix: (Units=1/GPa)
#
#
# Indices 1 2 3 4 5 6 
#
# 1 0.052601 -0.002690 -0.000293 0.000000 0.000000 0.000000
# 2 -0.002690 0.008332 -0.007681 0.000000 0.000000 0.000000
# 3 -0.000293 -0.007681 0.016353 0.000000 0.000000 0.000000
# 4 0.000000 0.000000 0.000000 0.029143 0.000000 0.000000
# 5 0.000000 0.000000 0.000000 0.000000 0.056139 0.000000
# 6 0.000000 0.000000 0.000000 0.000000 0.000000 0.078044
#
#
# Mechanical properties :
#
#
# Convention : Reuss Voigt Hill
#
# Bulk Modulus (GPa) = 17.87013 65.44631 41.65822
# Shear Modulus (GPa) = 17.81939 28.14588 22.98264
#
# Velocity S-wave (km/s) = 3.05355 3.83766 3.46784
# Velocity P-wave (km/s) = 4.66722 7.34045 6.15082
#
# Compressibility (1/GPa) = 0.05595930
#
# Stress axis : x y z
#
# Youngs Moduli (GPa) = 19.01107 120.01468 61.15135
#
# Poissons Ratio (x) = 0.32283 0.01791
# Poissons Ratio (y) = 0.05114 0.46968
# Poissons Ratio (z) = 0.00557 0.92178
#
# Static dielectric constant tensor:
#      x y z
#    x 1.698610 0.000000 0.000000 
#    y 0.000000 1.739300 0.000000 
#    z 0.000000 0.000000 2.078180 
# 
# From -- ./inp_files/25643.got.cif
#   From: 2010.05.17/outbox.cif.g08.bks.cpg/sg59_13_cif.got.tgz:25643.got - 2010.06.03 14:40:33.
