data_PCOD9448832
_publ_section_title
;
Structure prediction by ZEFSAII (Michael W. Deem and Ramdas Pophale) SiO2 
 PCOD9448832
Probable space group: P M M N
;
_chemical_formula_sum "Si O2"
_cell_formula_units_Z 48
_cell_length_a 17.473071
_cell_length_b 7.459483
_cell_length_c 16.877843
_cell_angle_alpha 90.000000
_cell_angle_beta 90.000000
_cell_angle_gamma 90.000000
_cell_volume 2199.859341
_symmetry_space_group_name_H-M "P M M N"
_symmetry_group_IT_number 59
_space_group.IT_coordinate_system_code '2'
_symmetry_cell_setting 'orthorhombic'
loop_
_space_group_symop_operation_xyz
x,y,z
1/2-x,1/2-y,z
1/2+x,-y,-z
-x,1/2+y,-z
-x,-y,-z
1/2+x,1/2+y,-z
1/2-x,y,z
x,1/2-y,z
loop_
_atom_site_type_symbol
_atom_site_label
_atom_site_fract_x
_atom_site_fract_y
_atom_site_fract_z
Si Si1 0.418070 0.465517 0.956056
Si Si2 0.163477 0.532739 0.644536
Si Si3 0.605650 0.030206 0.695665
Si Si4 0.750000 0.542863 0.983964
Si Si5 0.911242 0.035937 0.517181
Si Si6 0.954163 0.958376 0.218537
Si Si7 0.750000 0.033079 0.799831
O O1 0.411226 0.250000 0.956905
O O2 0.429390 0.533475 0.866088
O O3 0.500000 0.500000 0.000000
O O4 0.334459 0.531390 0.988923
O O5 0.250000 0.477571 0.657276
O O6 0.159689 0.750000 0.643934
O O7 0.134599 0.467718 0.558868
O O8 0.111343 0.469185 0.716078
O O9 0.603610 0.250000 0.692543
O O10 0.609621 0.968250 0.604630
O O11 0.529201 0.965324 0.739181
O O12 0.676532 0.977822 0.749499
O O13 0.750000 0.750000 0.010891
O O14 0.750000 0.535344 0.888914
O O15 0.899330 0.250000 0.519279
O O16 0.000000 0.000000 0.500000
O O17 0.972051 0.750000 0.202582
O O18 0.750000 0.250000 0.804669
#
# Coordination Sequence:
#
# PCOD9448832 Si02
#       7
#     8   8   8   4   8   8   4
#     4  10  22  39  61  87 116 150 189 234 288 344
#     4  10  22  36  52  79 113 146 183 227 275 325
#     4   9  18  32  54  83 110 138 181 230 268 313
#     4  10  22  40  58  83 118 150 180 231 296 344
#     4  10  19  34  54  77 107 144 182 223 272 323
#     4  10  20  36  58  82 108 144 189 228 270 330
#     4  10  20  36  60  85 108 142 188 231 272 328
#
# _framework density 21.819576000000001
#
# number of rings (size 3 to 8) (size 9 to 14) (size 15 to 20)
#    0.000    2.167    1.667    1.000    2.333    3.000 
#    0.000    1.667    0.000    0.000    0.000    0.000 
#    0.000    0.000    0.000    0.000    0.000    0.000 
#
# Total GULP energy -267933.103055 kJ/mol
# GULP energy per Si atom -5581.939647 kJ/mol
# Density = 2.176991 g / cm^3
# Si number density = 21.819576 Si / 1000 Ang^3
#
#
#
# Elastic Constant Matrix: (Units=GPa)
#
#
# Indices 1 2 3 4 5 6 
#
# 1 190.0899 -7.0263 112.3408 0.0000 0.0000 0.0000
# 2 -7.0263 63.6030 -3.0722 0.0000 0.0000 0.0000
# 3 112.3408 -3.0722 216.0760 0.0000 0.0000 0.0000
# 4 0.0000 0.0000 0.0000 10.1935 0.0000 0.0000
# 5 0.0000 0.0000 0.0000 0.0000 12.2139 0.0000
# 6 0.0000 0.0000 0.0000 0.0000 0.0000 18.3189
#
#
#
# Elastic Compliance Matrix: (Units=1/GPa)
#
#
# Indices 1 2 3 4 5 6 
#
# 1 0.007621 0.000651 -0.003953 0.000000 0.000000 0.000000
# 2 0.000651 0.015789 -0.000114 0.000000 0.000000 0.000000
# 3 -0.003953 -0.000114 0.006682 0.000000 0.000000 0.000000
# 4 0.000000 0.000000 0.000000 0.098102 0.000000 0.000000
# 5 0.000000 0.000000 0.000000 0.000000 0.081874 0.000000
# 6 0.000000 0.000000 0.000000 0.000000 0.000000 0.054588
#
#
# Mechanical properties :
#
#
# Convention : Reuss Voigt Hill
#
# Bulk Modulus (GPa) = 42.99318 74.91706 58.95512
# Shear Modulus (GPa) = 17.90571 32.64703 25.27637
#
# Velocity S-wave (km/s) = 2.86776 3.87231 3.40726
# Velocity P-wave (km/s) = 5.54185 7.37579 6.52359
#
# Compressibility (1/GPa) = 0.02325950
#
# Stress axis : x y z
#
# Youngs Moduli (GPa) = 131.21865 63.33545 149.66549
#
# Poissons Ratio (x) = -0.04123 0.59162
# Poissons Ratio (y) = -0.08542 0.01705
# Poissons Ratio (z) = 0.51870 0.00722
#
# Static dielectric constant tensor:
#      x y z
#    x 1.668990 0.000000 0.000000 
#    y 0.000000 1.842030 0.000000 
#    z 0.000000 0.000000 1.765640 
# 
# From -- ./inp_files/23684.got.cif
#   From: 2010.05.17/outbox.cif.g08.bks.cpg/sg59_12_cif.got.tgz:23684.got - 2010.06.03 14:40:33.
