data_PCOD9448705
_publ_section_title
;
Structure prediction by ZEFSAII (Michael W. Deem and Ramdas Pophale) SiO2 
 PCOD9448705
Probable space group: P M M N
;
_chemical_formula_sum "Si O2"
_cell_formula_units_Z 64
_cell_length_a 7.496744
_cell_length_b 24.177693
_cell_length_c 15.203078
_cell_angle_alpha 90.000000
_cell_angle_beta 90.000000
_cell_angle_gamma 90.000000
_cell_volume 2755.618319
_symmetry_space_group_name_H-M "P M M N"
_symmetry_group_IT_number 59
_space_group.IT_coordinate_system_code '2'
_symmetry_cell_setting 'orthorhombic'
loop_
_space_group_symop_operation_xyz
x,y,z
1/2-x,1/2-y,z
1/2+x,-y,-z
-x,1/2+y,-z
-x,-y,-z
1/2+x,1/2+y,-z
1/2-x,y,z
x,1/2-y,z
loop_
_atom_site_type_symbol
_atom_site_label
_atom_site_fract_x
_atom_site_fract_y
_atom_site_fract_z
Si Si1 0.467779 0.101220 0.368110
Si Si2 0.456827 0.632115 0.943919
Si Si3 0.030884 0.986560 0.291344
Si Si4 0.040519 0.188911 0.507055
Si Si5 0.532105 0.313870 0.876990
Si Si6 0.034633 0.637543 0.310061
Si Si7 0.035089 0.309985 0.225212
Si Si8 0.054420 0.486294 0.099280
O O1 0.250000 0.099021 0.369961
O O2 0.527732 0.038585 0.350373
O O3 0.530109 0.136243 0.452550
O O4 0.523462 0.139606 0.286073
O O5 0.250000 0.615826 0.952752
O O6 0.471791 0.681118 0.874005
O O7 0.554610 0.580040 0.901317
O O8 0.526080 0.650669 0.038726
O O9 0.250000 0.988215 0.290505
O O10 0.965739 0.994694 0.190174
O O11 0.976848 0.925932 0.323012
O O12 0.250000 0.191869 0.484116
O O13 0.964716 0.250000 0.487812
O O14 0.024192 0.175608 0.609759
O O15 0.750000 0.314264 0.878999
O O16 0.476579 0.250000 0.884223
O O17 0.475112 0.339971 0.784699
O O18 0.250000 0.638262 0.309057
O O19 0.250000 0.310835 0.224960
O O20 0.978067 0.250000 0.259262
O O21 0.250000 0.511303 0.106182
O O22 0.000000 0.500000 0.000000
#
# Coordination Sequence:
#
# PCOD9448705 Si02
#       8
#     8   8   8   8   8   8   8   8
#     4   9  17  34  58  81 109 148 188 226 270 334
#     4  11  21  34  53  80 112 146 186 233 286 337
#     4   9  18  34  57  82 110 145 188 229 273 334
#     4  10  21  37  58  84 111 142 183 231 284 338
#     4   9  18  33  52  74 105 148 192 227 269 334
#     4  10  20  36  59  82 105 141 186 231 278 333
#     4  10  19  33  55  81 109 147 192 231 272 330
#     4  11  21  36  57  81 111 149 192 235 275 329
#
# _framework density 23.225276999999998
#
# number of rings (size 3 to 8) (size 9 to 14) (size 15 to 20)
#    0.000    2.125    1.250    2.625    0.000    5.500 
#    0.000    4.375    0.000    4.500    0.000    0.000 
#    0.000    0.000    0.000    0.000    0.000    0.000 
#
# Total GULP energy -357497.651425 kJ/mol
# GULP energy per Si atom -5585.900804 kJ/mol
# Density = 2.317242 g / cm^3
# Si number density = 23.225277 Si / 1000 Ang^3
#
#
#
# Elastic Constant Matrix: (Units=GPa)
#
#
# Indices 1 2 3 4 5 6 
#
# 1 59.6122 -4.0006 -9.3232 0.0000 0.0000 0.0000
# 2 -4.0006 89.4874 5.0076 0.0000 0.0000 0.0000
# 3 -9.3232 5.0076 87.7952 0.0000 0.0000 0.0000
# 4 0.0000 0.0000 0.0000 29.8699 0.0000 0.0000
# 5 0.0000 0.0000 0.0000 0.0000 -139.5735 0.0000
# 6 0.0000 0.0000 0.0000 0.0000 0.0000 6.8383
#
#
#
# Elastic Compliance Matrix: (Units=1/GPa)
#
#
# Indices 1 2 3 4 5 6 
#
# 1 0.017098 0.000665 0.001778 0.000000 0.000000 0.000000
# 2 0.000665 0.011236 -0.000570 0.000000 0.000000 0.000000
# 3 0.001778 -0.000570 0.011611 0.000000 0.000000 0.000000
# 4 0.000000 0.000000 0.000000 0.033479 0.000000 0.000000
# 5 0.000000 0.000000 0.000000 0.000000 -0.007165 0.000000
# 6 0.000000 0.000000 0.000000 0.000000 0.000000 0.146234
#
#
# Mechanical properties :
#
#
# Convention : Reuss Voigt Hill
#
# Bulk Modulus (GPa) = 22.88841 24.47361 23.68101
# Shear Modulus (GPa) = 22.39016 -4.22567 9.08225
#
# Velocity S-wave (km/s) = 3.10827 -1.35032 1.97964
# Velocity P-wave (km/s) = 4.77055 2.85117 3.92984
#
# Compressibility (1/GPa) = 0.04369024
#
# Stress axis : x y z
#
# Youngs Moduli (GPa) = 58.48725 88.99651 86.12186
#
# Poissons Ratio (x) = -0.05917 -0.15310
# Poissons Ratio (y) = -0.03889 0.04911
# Poissons Ratio (z) = -0.10397 0.05075
#
# Static dielectric constant tensor:
#      x y z
#    x 1.908600 0.000000 0.000000 
#    y 0.000000 1.908280 0.000000 
#    z 0.000000 0.000000 1.853790 
# 
# From -- ./inp_files/21594.got.cif
#   From: 2010.05.17/outbox.cif.g08.bks.cpg/sg59_11_cif.got.tgz:21594.got - 2010.06.03 14:40:33.
