data_PCOD9448100
_publ_section_title
;
Structure prediction by ZEFSAII (Michael W. Deem and Ramdas Pophale) SiO2 
 PCOD9448100
Probable space group: P M M N
;
_chemical_formula_sum "Si O2"
_cell_formula_units_Z 56
_cell_length_a 14.177579
_cell_length_b 7.917719
_cell_length_c 23.998973
_cell_angle_alpha 90.000000
_cell_angle_beta 90.000000
_cell_angle_gamma 90.000000
_cell_volume 2693.982794
_symmetry_space_group_name_H-M "P M M N"
_symmetry_group_IT_number 59
_space_group.IT_coordinate_system_code '2'
_symmetry_cell_setting 'orthorhombic'
loop_
_space_group_symop_operation_xyz
x,y,z
1/2-x,1/2-y,z
1/2+x,-y,-z
-x,1/2+y,-z
-x,-y,-z
1/2+x,1/2+y,-z
1/2-x,y,z
x,1/2-y,z
loop_
_atom_site_type_symbol
_atom_site_label
_atom_site_fract_x
_atom_site_fract_y
_atom_site_fract_z
Si Si1 0.750000 0.446650 0.320788
Si Si2 0.457560 0.049906 0.816099
Si Si3 0.954920 0.047692 0.312638
Si Si4 0.647571 0.550351 0.476633
Si Si5 0.456488 0.951187 0.420225
Si Si6 0.648108 0.448466 0.024082
Si Si7 0.750000 0.956024 0.191990
Si Si8 0.044593 0.448329 0.077427
O O1 0.750000 0.250000 0.337070
O O2 0.647309 0.521745 0.334915
O O3 0.750000 0.463986 0.253576
O O4 0.460913 0.250000 0.823082
O O5 0.350794 0.991767 0.832945
O O6 0.468983 0.010053 0.750789
O O7 0.535053 0.972153 0.856745
O O8 0.948368 0.250000 0.312216
O O9 0.035465 0.992520 0.355317
O O10 0.750000 0.478543 0.461096
O O11 0.649636 0.750000 0.464963
O O12 0.626446 0.525935 0.542236
O O13 0.555117 0.478471 0.446291
O O14 0.453501 0.750000 0.427514
O O15 0.750000 0.523992 0.038286
O O16 0.650747 0.250000 0.037787
O O17 0.555091 0.520542 0.053676
O O18 0.626701 0.466835 0.958198
O O19 0.750000 0.750000 0.196976
O O20 0.050047 0.250000 0.064901
#
# Coordination Sequence:
#
# PCOD9448100 Si02
#       8
#     4   8   8   8   8   8   4   8
#     4   8  16  28  42  64  94 130 168 202 241 290
#     4  10  19  32  49  72 103 138 173 211 254 304
#     4  10  19  32  49  72 103 138 173 211 254 304
#     4   9  19  36  55  75 102 137 174 214 258 303
#     4  10  20  33  52  79 106 135 172 213 257 307
#     4   9  19  36  55  75 102 137 174 214 258 303
#     4   8  16  28  42  64  94 130 168 202 241 290
#     4  10  20  33  52  79 106 135 172 213 257 307
#
# _framework density 20.787068000000001
#
# number of rings (size 3 to 8) (size 9 to 14) (size 15 to 20)
#    0.000    2.571    0.000    1.714    2.000    2.857 
#    0.000    0.000    0.000    0.857    0.000    0.000 
#    0.000    0.000    0.000    0.000    0.000    0.000 
#
# Total GULP energy -312285.360043 kJ/mol
# GULP energy per Si atom -5576.524286 kJ/mol
# Density = 2.073976 g / cm^3
# Si number density = 20.787068 Si / 1000 Ang^3
#
#
#
# Elastic Constant Matrix: (Units=GPa)
#
#
# Indices 1 2 3 4 5 6 
#
# 1 41.9623 -0.1101 -0.5105 0.0000 0.0000 0.0000
# 2 -0.1101 42.8358 -10.4131 0.0000 0.0000 0.0000
# 3 -0.5105 -10.4131 66.3517 0.0000 0.0000 0.0000
# 4 0.0000 0.0000 0.0000 24.8034 0.0000 0.0000
# 5 0.0000 0.0000 0.0000 0.0000 28.6244 0.0000
# 6 0.0000 0.0000 0.0000 0.0000 0.0000 12.9519
#
#
#
# Elastic Compliance Matrix: (Units=1/GPa)
#
#
# Indices 1 2 3 4 5 6 
#
# 1 0.023834 0.000110 0.000201 0.000000 0.000000 0.000000
# 2 0.000110 0.024271 0.003810 0.000000 0.000000 0.000000
# 3 0.000201 0.003810 0.015671 0.000000 0.000000 0.000000
# 4 0.000000 0.000000 0.000000 0.040317 0.000000 0.000000
# 5 0.000000 0.000000 0.000000 0.000000 0.034935 0.000000
# 6 0.000000 0.000000 0.000000 0.000000 0.000000 0.077208
#
#
# Mechanical properties :
#
#
# Convention : Reuss Voigt Hill
#
# Bulk Modulus (GPa) = 13.88561 14.34249 14.11405
# Shear Modulus (GPa) = 21.55163 24.08817 22.81990
#
# Velocity S-wave (km/s) = 3.22340 3.40782 3.31689
# Velocity P-wave (km/s) = 4.53301 4.73276 4.63396
#
# Compressibility (1/GPa) = 0.07201700
#
# Stress axis : x y z
#
# Youngs Moduli (GPa) = 41.95754 41.20072 63.81347
#
# Poissons Ratio (x) = -0.00453 -0.01280
# Poissons Ratio (y) = -0.00462 -0.24313
# Poissons Ratio (z) = -0.00842 -0.15697
#
# Static dielectric constant tensor:
#      x y z
#    x 1.782670 0.000000 0.000000 
#    y 0.000000 1.730780 0.000000 
#    z 0.000000 0.000000 1.796520 
# 
# From -- ./inp_files/30492.got.cif
#   From: 2010.05.17/outbox.cif.g08.bks.cpg/sg59_16_cif.got.tgz:30492.got - 2010.06.03 14:40:33.
