data_PCOD9448893
_publ_section_title
;
Structure prediction by ZEFSAII (Michael W. Deem and Ramdas Pophale) SiO2 
 PCOD9448893
Probable space group: P M M N
;
_chemical_formula_sum "Si O2"
_cell_formula_units_Z 48
_cell_length_a 16.209047
_cell_length_b 8.489669
_cell_length_c 19.659679
_cell_angle_alpha 90.000000
_cell_angle_beta 90.000000
_cell_angle_gamma 90.000000
_cell_volume 2705.357493
_symmetry_space_group_name_H-M "P M M N"
_symmetry_group_IT_number 59
_space_group.IT_coordinate_system_code '2'
_symmetry_cell_setting 'orthorhombic'
loop_
_space_group_symop_operation_xyz
x,y,z
1/2-x,1/2-y,z
1/2+x,-y,-z
-x,1/2+y,-z
-x,-y,-z
1/2+x,1/2+y,-z
1/2-x,y,z
x,1/2-y,z
loop_
_atom_site_type_symbol
_atom_site_label
_atom_site_fract_x
_atom_site_fract_y
_atom_site_fract_z
Si Si1 0.750000 0.430834 0.956641
Si Si2 0.001369 0.559736 0.662365
Si Si3 0.657848 0.558128 0.577900
Si Si4 0.750000 0.430395 0.791363
Si Si5 0.071202 0.560982 0.048568
Si Si6 0.657460 0.939861 0.419545
Si Si7 0.573380 0.937659 0.799326
O O1 0.750000 0.250000 0.981497
O O2 0.750000 0.426252 0.874193
O O3 0.661547 0.502639 0.974623
O O4 0.000234 0.750000 0.660831
O O5 0.920081 0.503280 0.621395
O O6 0.989758 0.510796 0.740738
O O7 0.084285 0.503234 0.626639
O O8 0.750000 0.506246 0.599984
O O9 0.658378 0.750000 0.580644
O O10 0.646379 0.513501 0.498736
O O11 0.750000 0.250000 0.767539
O O12 0.834724 0.516837 0.773562
O O13 0.074614 0.750000 0.046124
O O14 0.058733 0.512356 0.127003
O O15 0.000000 0.500000 0.000000
O O16 0.750000 0.990206 0.398683
O O17 0.655402 0.750000 0.417863
O O18 0.569878 0.750000 0.806844
#
# Coordination Sequence:
#
# PCOD9448893 Si02
#       7
#     4   8   8   4   8   8   8
#     4   7  14  29  49  73  99 129 160 191 240 297
#     4  10  20  31  50  76 102 134 171 213 258 305
#     4   8  15  29  49  73 102 134 168 206 255 310
#     4   9  17  31  49  71 103 139 168 201 252 303
#     4  10  19  34  56  79 106 139 173 212 257 306
#     4   9  18  33  52  71  94 132 176 217 262 309
#     4  10  20  32  49  77 107 137 175 210 254 315
#
# _framework density 17.742573
#
# number of rings (size 3 to 8) (size 9 to 14) (size 15 to 20)
#    0.000    2.833    0.000    3.750    1.167    1.667 
#    0.000    1.250    1.833    1.000    0.000    0.000 
#    0.000    0.000    0.000    0.000    0.000    0.000 
#
# Total GULP energy -267513.733084 kJ/mol
# GULP energy per Si atom -5573.202773 kJ/mol
# Density = 1.770219 g / cm^3
# Si number density = 17.742573 Si / 1000 Ang^3
#
#
#
# Elastic Constant Matrix: (Units=GPa)
#
#
# Indices 1 2 3 4 5 6 
#
# 1 159.7917 22.5456 88.1909 0.0000 0.0000 0.0000
# 2 22.5456 24.3794 20.8668 0.0000 0.0000 0.0000
# 3 88.1909 20.8668 88.4518 0.0000 0.0000 0.0000
# 4 0.0000 0.0000 0.0000 18.4971 0.0000 0.0000
# 5 0.0000 0.0000 0.0000 0.0000 25.7214 0.0000
# 6 0.0000 0.0000 0.0000 0.0000 0.0000 28.2302
#
#
#
# Elastic Compliance Matrix: (Units=1/GPa)
#
#
# Indices 1 2 3 4 5 6 
#
# 1 0.013946 -0.001247 -0.013611 0.000000 0.000000 0.000000
# 2 -0.001247 0.051508 -0.010908 0.000000 0.000000 0.000000
# 3 -0.013611 -0.010908 0.027449 0.000000 0.000000 0.000000
# 4 0.000000 0.000000 0.000000 0.054062 0.000000 0.000000
# 5 0.000000 0.000000 0.000000 0.000000 0.038878 0.000000
# 6 0.000000 0.000000 0.000000 0.000000 0.000000 0.035423
#
#
# Mechanical properties :
#
#
# Convention : Reuss Voigt Hill
#
# Bulk Modulus (GPa) = 24.17095 59.53660 41.85377
# Shear Modulus (GPa) = 17.44663 23.89104 20.66884
#
# Velocity S-wave (km/s) = 3.13920 3.67350 3.41681
# Velocity P-wave (km/s) = 5.17611 7.18481 6.26153
#
# Compressibility (1/GPa) = 0.04137198
#
# Stress axis : x y z
#
# Youngs Moduli (GPa) = 71.70529 19.41452 36.43097
#
# Poissons Ratio (x) = 0.02422 0.49585
# Poissons Ratio (y) = 0.08945 0.39737
# Poissons Ratio (z) = 0.97595 0.21176
#
# Static dielectric constant tensor:
#      x y z
#    x 1.622920 0.000000 0.000000 
#    y 0.000000 1.613260 0.000000 
#    z 0.000000 0.000000 1.597090 
# 
# From -- ./inp_files/27446.got.cif
#   From: 2010.05.17/outbox.cif.g08.bks.cpg/sg59_14_cif.got.tgz:27446.got - 2010.06.03 14:40:33.
