data_PCOD9448317
_publ_section_title
;
Structure prediction by ZEFSAII (Michael W. Deem and Ramdas Pophale) SiO2 
 PCOD9448317
Probable space group: P M M N
;
_chemical_formula_sum "Si O2"
_cell_formula_units_Z 56
_cell_length_a 8.667021
_cell_length_b 23.485988
_cell_length_c 15.804172
_cell_angle_alpha 90.000000
_cell_angle_beta 90.000000
_cell_angle_gamma 90.000000
_cell_volume 3216.995334
_symmetry_space_group_name_H-M "P M M N"
_symmetry_group_IT_number 59
_space_group.IT_coordinate_system_code '2'
_symmetry_cell_setting 'orthorhombic'
loop_
_space_group_symop_operation_xyz
x,y,z
1/2-x,1/2-y,z
1/2+x,-y,-z
-x,1/2+y,-z
-x,-y,-z
1/2+x,1/2+y,-z
1/2-x,y,z
x,1/2-y,z
loop_
_atom_site_type_symbol
_atom_site_label
_atom_site_fract_x
_atom_site_fract_y
_atom_site_fract_z
Si Si1 0.064530 0.579428 0.673666
Si Si2 0.064935 0.937978 0.980281
Si Si3 0.066791 0.250000 0.888517
Si Si4 0.936951 0.451469 0.695533
Si Si5 0.933387 0.862478 0.834498
Si Si6 0.564468 0.369787 0.849035
Si Si7 0.566117 0.250000 0.079009
Si Si8 0.935333 0.063453 0.510686
O O1 0.250000 0.581112 0.680352
O O2 0.017635 0.593909 0.576499
O O3 0.008815 0.514726 0.693684
O O4 0.990762 0.621466 0.741367
O O5 0.250000 0.939501 0.970678
O O6 0.988004 0.912920 0.896600
O O7 0.027667 0.897127 0.059709
O O8 0.000000 0.000000 0.000000
O O9 0.250000 0.250000 0.893104
O O10 0.008695 0.192428 0.844095
O O11 0.000212 0.250000 0.984039
O O12 0.750000 0.458013 0.698610
O O13 0.984509 0.413468 0.775399
O O14 0.978952 0.420416 0.606531
O O15 0.750000 0.857319 0.836666
O O16 0.009192 0.805571 0.871444
O O17 0.750000 0.364216 0.844122
O O18 0.750000 0.250000 0.072978
O O19 0.750000 0.061601 0.509090
O O20 0.000000 0.000000 0.500000
#
# Coordination Sequence:
#
# PCOD9448317 Si02
#       8
#     8   8   4   8   8   8   4   8
#     4  10  19  32  52  81 114 147 180 221 273 323
#     4  11  22  35  53  79 112 146 176 215 266 321
#     4  12  24  38  58  79 102 137 182 225 266 316
#     4   9  17  32  54  82 112 144 181 221 268 324
#     4  12  24  38  56  79 107 142 183 226 269 321
#     4  10  21  36  55  76 105 142 179 220 266 313
#     4  12  24  42  62  79 102 135 180 229 276 326
#     4   8  15  28  49  77 110 143 178 218 264 321
#
# _framework density 17.407547999999998
#
# number of rings (size 3 to 8) (size 9 to 14) (size 15 to 20)
#    0.000    1.714    1.429    4.286    0.000    2.857 
#    0.000    0.000    0.000    0.857    0.000    3.000 
#    0.000    0.000    0.000    0.000    0.000    0.000 
#
# Total GULP energy -312534.064105 kJ/mol
# GULP energy per Si atom -5580.965430 kJ/mol
# Density = 1.736793 g / cm^3
# Si number density = 17.407548 Si / 1000 Ang^3
#
#
#
# Elastic Constant Matrix: (Units=GPa)
#
#
# Indices 1 2 3 4 5 6 
#
# 1 40.5315 4.4478 5.8538 0.0000 0.0000 0.0000
# 2 4.4478 42.3801 -17.7757 0.0000 0.0000 0.0000
# 3 5.8538 -17.7757 66.6535 0.0000 0.0000 0.0000
# 4 0.0000 0.0000 0.0000 14.5009 0.0000 0.0000
# 5 0.0000 0.0000 0.0000 0.0000 19.2184 0.0000
# 6 0.0000 0.0000 0.0000 0.0000 0.0000 29.0850
#
#
#
# Elastic Compliance Matrix: (Units=1/GPa)
#
#
# Indices 1 2 3 4 5 6 
#
# 1 0.025603 -0.004087 -0.003339 0.000000 0.000000 0.000000
# 2 -0.004087 0.027220 0.007618 0.000000 0.000000 0.000000
# 3 -0.003339 0.007618 0.017328 0.000000 0.000000 0.000000
# 4 0.000000 0.000000 0.000000 0.068961 0.000000 0.000000
# 5 0.000000 0.000000 0.000000 0.000000 0.052033 0.000000
# 6 0.000000 0.000000 0.000000 0.000000 0.000000 0.034382
#
#
# Mechanical properties :
#
#
# Convention : Reuss Voigt Hill
#
# Bulk Modulus (GPa) = 14.17720 14.95744 14.56732
# Shear Modulus (GPa) = 20.10817 23.03014 21.56916
#
# Velocity S-wave (km/s) = 3.40242 3.64125 3.52386
# Velocity P-wave (km/s) = 4.85770 5.12732 4.99433
#
# Compressibility (1/GPa) = 0.07053577
#
# Stress axis : x y z
#
# Youngs Moduli (GPa) = 39.05813 36.73729 57.71049
#
# Poissons Ratio (x) = 0.15016 0.19267
# Poissons Ratio (y) = 0.15964 -0.43966
# Poissons Ratio (z) = 0.13040 -0.27988
#
# Static dielectric constant tensor:
#      x y z
#    x 1.579220 0.000000 0.000000 
#    y 0.000000 1.555000 0.000000 
#    z 0.000000 0.000000 1.600580 
# 
# From -- ./inp_files/21165.got.cif
#   From: 2010.05.17/outbox.cif.g08.bks.cpg/sg59_11_cif.got.tgz:21165.got - 2010.06.03 14:40:33.
