data_PCOD9448121
_publ_section_title
;
Structure prediction by ZEFSAII (Michael W. Deem and Ramdas Pophale) SiO2 
 PCOD9448121
Probable space group: P M M N
;
_chemical_formula_sum "Si O2"
_cell_formula_units_Z 64
_cell_length_a 20.639956
_cell_length_b 8.703788
_cell_length_c 21.606908
_cell_angle_alpha 90.000000
_cell_angle_beta 90.000000
_cell_angle_gamma 90.000000
_cell_volume 3881.590302
_symmetry_space_group_name_H-M "P M M N"
_symmetry_group_IT_number 59
_space_group.IT_coordinate_system_code '2'
_symmetry_cell_setting 'orthorhombic'
loop_
_space_group_symop_operation_xyz
x,y,z
1/2-x,1/2-y,z
1/2+x,-y,-z
-x,1/2+y,-z
-x,-y,-z
1/2+x,1/2+y,-z
1/2-x,y,z
x,1/2-y,z
loop_
_atom_site_type_symbol
_atom_site_label
_atom_site_fract_x
_atom_site_fract_y
_atom_site_fract_z
Si Si1 0.457116 0.064406 0.825337
Si Si2 0.955029 0.568482 0.447593
Si Si3 0.178392 0.923626 0.691814
Si Si4 0.823533 0.066026 0.124644
Si Si5 0.545729 0.929583 0.308182
Si Si6 0.677117 0.565322 0.986590
Si Si7 0.462574 0.065247 0.060035
Si Si8 0.820688 0.424649 0.457155
O O1 0.456341 0.250000 0.826337
O O2 0.481438 0.010442 0.757117
O O3 0.384051 0.005602 0.839059
O O4 0.503120 0.002465 0.879451
O O5 0.963676 0.750000 0.444679
O O6 0.967306 0.505120 0.377245
O O7 0.881894 0.530120 0.468124
O O8 0.000000 0.500000 0.500000
O O9 0.250000 0.961711 0.715162
O O10 0.161366 0.750000 0.713568
O O11 0.182967 0.915166 0.617392
O O12 0.122476 0.044910 0.702527
O O13 0.750000 0.019417 0.143218
O O14 0.827402 0.250000 0.128966
O O15 0.830525 0.014603 0.053192
O O16 0.530227 0.750000 0.311355
O O17 0.750000 0.527627 0.962989
O O18 0.675073 0.750000 0.996041
O O19 0.613922 0.525480 0.946211
O O20 0.468600 0.250000 0.060289
O O21 0.500000 0.000000 0.000000
O O22 0.750000 0.477499 0.479402
O O23 0.831916 0.250000 0.479634
#
# Coordination Sequence:
#
# PCOD9448121 Si02
#       8
#     8   8   8   8   8   8   8   8
#     4  11  22  35  49  67  96 134 169 204 245 292
#     4  10  19  32  50  72  97 126 162 205 249 296
#     4   8  14  25  42  63  88 120 156 193 231 272
#     4  10  20  32  47  69  97 130 169 208 242 280
#     4   9  20  34  46  64  92 126 164 201 240 288
#     4   9  18  33  52  72  95 125 160 199 245 294
#     4  11  21  33  52  76 100 127 161 203 246 291
#     4   8  14  26  44  67  95 125 156 190 231 281
#
# _framework density 16.488088000000001
#
# number of rings (size 3 to 8) (size 9 to 14) (size 15 to 20)
#    0.000    2.500    1.250    2.250    0.000    3.750 
#    0.000    5.000    0.000    0.000    0.000    0.875 
#    0.000    5.000    0.000    0.000    0.000    0.000 
#
# Total GULP energy -356299.259075 kJ/mol
# GULP energy per Si atom -5567.175923 kJ/mol
# Density = 1.645056 g / cm^3
# Si number density = 16.488088 Si / 1000 Ang^3
#
#
#
# Elastic Constant Matrix: (Units=GPa)
#
#
# Indices 1 2 3 4 5 6 
#
# 1 97.0381 29.9874 64.8188 0.0000 0.0000 0.0000
# 2 29.9874 29.8305 27.1180 0.0000 0.0000 0.0000
# 3 64.8188 27.1180 108.3267 0.0000 0.0000 0.0000
# 4 0.0000 0.0000 0.0000 14.8059 0.0000 0.0000
# 5 0.0000 0.0000 0.0000 0.0000 10.5421 0.0000
# 6 0.0000 0.0000 0.0000 0.0000 0.0000 24.5508
#
#
#
# Elastic Compliance Matrix: (Units=1/GPa)
#
#
# Indices 1 2 3 4 5 6 
#
# 1 0.019986 -0.011936 -0.008971 0.000000 0.000000 0.000000
# 2 -0.011936 0.050528 -0.005507 0.000000 0.000000 0.000000
# 3 -0.008971 -0.005507 0.015978 0.000000 0.000000 0.000000
# 4 0.000000 0.000000 0.000000 0.067541 0.000000 0.000000
# 5 0.000000 0.000000 0.000000 0.000000 0.094858 0.000000
# 6 0.000000 0.000000 0.000000 0.000000 0.000000 0.040732
#
#
# Mechanical properties :
#
#
# Convention : Reuss Voigt Hill
#
# Bulk Modulus (GPa) = 29.70534 53.22708 41.46621
# Shear Modulus (GPa) = 14.13745 17.53116 15.83431
#
# Velocity S-wave (km/s) = 2.93137 3.26431 3.10231
# Velocity P-wave (km/s) = 5.43255 6.82348 6.16735
#
# Compressibility (1/GPa) = 0.03366398
#
# Stress axis : x y z
#
# Youngs Moduli (GPa) = 50.03467 19.79117 62.58689
#
# Poissons Ratio (x) = 0.23623 0.56147
# Poissons Ratio (y) = 0.59721 0.34465
# Poissons Ratio (z) = 0.44886 0.10899
#
# Static dielectric constant tensor:
#      x y z
#    x 1.581550 0.000000 0.000000 
#    y 0.000000 1.567170 0.000000 
#    z 0.000000 0.000000 1.578940 
# 
# From -- ./inp_files/30963.got.cif
#   From: 2010.05.17/outbox.cif.g08.bks.cpg/sg59_16_cif.got.tgz:30963.got - 2010.06.03 14:40:33.
