data_PCOD9448749
_publ_section_title
;
Structure prediction by ZEFSAII (Michael W. Deem and Ramdas Pophale) SiO2 
 PCOD9448749
Probable space group: P M M N
;
_chemical_formula_sum "Si O2"
_cell_formula_units_Z 64
_cell_length_a 17.589081
_cell_length_b 14.124698
_cell_length_c 14.856373
_cell_angle_alpha 90.000000
_cell_angle_beta 90.000000
_cell_angle_gamma 90.000000
_cell_volume 3690.924101
_symmetry_space_group_name_H-M "P M M N"
_symmetry_group_IT_number 59
_space_group.IT_coordinate_system_code '2'
_symmetry_cell_setting 'orthorhombic'
loop_
_space_group_symop_operation_xyz
x,y,z
1/2-x,1/2-y,z
1/2+x,-y,-z
-x,1/2+y,-z
-x,-y,-z
1/2+x,1/2+y,-z
1/2-x,y,z
x,1/2-y,z
loop_
_atom_site_type_symbol
_atom_site_label
_atom_site_fract_x
_atom_site_fract_y
_atom_site_fract_z
Si Si1 0.592066 0.525514 0.811328
Si Si2 0.158979 0.856478 0.292982
Si Si3 0.160847 0.639255 0.835751
Si Si4 0.660570 0.480646 0.535659
Si Si5 0.611382 0.140602 0.369840
Si Si6 0.071109 0.360035 0.370682
Si Si7 0.840017 0.637956 0.982316
Si Si8 0.445561 0.488130 0.914373
O O1 0.634562 0.429642 0.783708
O O2 0.593320 0.595954 0.726178
O O3 0.630525 0.578955 0.895572
O O4 0.505566 0.494243 0.833171
O O5 0.250000 0.851373 0.293192
O O6 0.128686 0.750000 0.282973
O O7 0.136564 0.904142 0.387985
O O8 0.250000 0.620313 0.846550
O O9 0.146589 0.750000 0.852681
O O10 0.137140 0.620880 0.732241
O O11 0.110974 0.575626 0.901010
O O12 0.750000 0.501185 0.548276
O O13 0.647113 0.432094 0.439974
O O14 0.611653 0.574182 0.555395
O O15 0.634039 0.250000 0.390091
O O16 0.520188 0.134442 0.377237
O O17 0.093155 0.250000 0.376776
O O18 0.750000 0.620821 0.996409
O O19 0.850971 0.750000 0.967616
O O20 0.891876 0.601409 0.065269
O O21 0.500000 0.500000 0.000000
#
# Coordination Sequence:
#
# PCOD9448749 Si02
#       8
#     8   8   8   8   8   8   8   8
#     4  10  19  34  55  79 105 139 178 221 270 321
#     4   9  18  32  50  74 107 142 177 221 269 318
#     4  10  20  35  58  86 112 139 176 224 275 322
#     4  10  20  33  51  78 112 149 185 221 265 317
#     4  10  19  33  56  83 110 143 183 225 271 318
#     4  10  20  34  54  80 112 145 182 227 267 313
#     4  10  21  36  54  75 101 136 178 220 262 319
#     4  10  21  35  54  77 105 137 170 216 273 328
#
# _framework density 17.339831
#
# number of rings (size 3 to 8) (size 9 to 14) (size 15 to 20)
#    0.000    2.125    1.250    2.250    0.000    4.500 
#    0.000    1.875    0.000    7.500    0.000    0.000 
#    0.000    0.000    0.000    0.000    0.000    0.000 
#
# Total GULP energy -356843.055074 kJ/mol
# GULP energy per Si atom -5575.672736 kJ/mol
# Density = 1.730036 g / cm^3
# Si number density = 17.339831 Si / 1000 Ang^3
#
#
#
# Elastic Constant Matrix: (Units=GPa)
#
#
# Indices 1 2 3 4 5 6 
#
# 1 59.5973 51.8403 21.9810 0.0000 0.0000 0.0000
# 2 51.8403 121.4523 43.9882 0.0000 0.0000 0.0000
# 3 21.9810 43.9882 48.6363 0.0000 0.0000 0.0000
# 4 0.0000 0.0000 0.0000 28.5348 0.0000 0.0000
# 5 0.0000 0.0000 0.0000 0.0000 22.2310 0.0000
# 6 0.0000 0.0000 0.0000 0.0000 0.0000 25.9731
#
#
#
# Elastic Compliance Matrix: (Units=1/GPa)
#
#
# Indices 1 2 3 4 5 6 
#
# 1 0.026914 -0.010532 -0.002638 0.000000 0.000000 0.000000
# 2 -0.010532 0.016366 -0.010042 0.000000 0.000000 0.000000
# 3 -0.002638 -0.010042 0.030835 0.000000 0.000000 0.000000
# 4 0.000000 0.000000 0.000000 0.035045 0.000000 0.000000
# 5 0.000000 0.000000 0.000000 0.000000 0.044982 0.000000
# 6 0.000000 0.000000 0.000000 0.000000 0.000000 0.038501
#
#
# Mechanical properties :
#
#
# Convention : Reuss Voigt Hill
#
# Bulk Modulus (GPa) = 36.11307 51.70054 43.90681
# Shear Modulus (GPa) = 20.13702 22.80622 21.47162
#
# Velocity S-wave (km/s) = 3.41151 3.63057 3.52274
# Velocity P-wave (km/s) = 6.03239 6.88880 6.47477
#
# Compressibility (1/GPa) = 0.02769080
#
# Stress axis : x y z
#
# Youngs Moduli (GPa) = 37.15588 61.10062 32.43023
#
# Poissons Ratio (x) = 0.64354 0.08554
# Poissons Ratio (y) = 0.39134 0.32567
# Poissons Ratio (z) = 0.09801 0.61359
#
# Static dielectric constant tensor:
#      x y z
#    x 1.590750 0.000000 0.000000 
#    y 0.000000 1.575830 0.000000 
#    z 0.000000 0.000000 1.590470 
# 
# From -- ./inp_files/23956.got.cif
#   From: 2010.05.17/outbox.cif.g08.bks.cpg/sg59_12_cif.got.tgz:23956.got - 2010.06.03 14:40:33.
