data_PCOD9448319
_publ_section_title
;
Structure prediction by ZEFSAII (Michael W. Deem and Ramdas Pophale) SiO2 
 PCOD9448319
Probable space group: P M M N
;
_chemical_formula_sum "Si O2"
_cell_formula_units_Z 56
_cell_length_a 10.660428
_cell_length_b 21.260776
_cell_length_c 14.062543
_cell_angle_alpha 90.000000
_cell_angle_beta 90.000000
_cell_angle_gamma 90.000000
_cell_volume 3187.260911
_symmetry_space_group_name_H-M "P M M N"
_symmetry_group_IT_number 59
_space_group.IT_coordinate_system_code '2'
_symmetry_cell_setting 'orthorhombic'
loop_
_space_group_symop_operation_xyz
x,y,z
1/2-x,1/2-y,z
1/2+x,-y,-z
-x,1/2+y,-z
-x,-y,-z
1/2+x,1/2+y,-z
1/2-x,y,z
x,1/2-y,z
loop_
_atom_site_type_symbol
_atom_site_label
_atom_site_fract_x
_atom_site_fract_y
_atom_site_fract_z
Si Si1 0.898441 0.681250 0.770798
Si Si2 0.002495 0.558184 0.867791
Si Si3 0.606433 0.871285 0.365993
Si Si4 0.111099 0.981318 0.675344
Si Si5 0.396266 0.103749 0.412324
Si Si6 0.895255 0.071288 0.920172
Si Si7 0.601545 0.322716 0.771254
O O1 0.750000 0.684953 0.784725
O O2 0.954082 0.750000 0.790835
O O3 0.918412 0.660414 0.661645
O O4 0.944707 0.623565 0.833743
O O5 0.101073 0.540698 0.784992
O O6 0.914946 0.496273 0.870010
O O7 0.045498 0.567439 0.975655
O O8 0.750000 0.848828 0.346229
O O9 0.599074 0.943677 0.331031
O O10 0.589587 0.874615 0.479586
O O11 0.495254 0.833826 0.314886
O O12 0.250000 0.964474 0.637599
O O13 0.997499 0.948864 0.617819
O O14 0.250000 0.082637 0.399846
O O15 0.750000 0.082539 0.935138
O O16 0.939694 0.128059 0.852983
O O17 0.750000 0.335257 0.748058
O O18 0.594094 0.250000 0.802153
#
# Coordination Sequence:
#
# PCOD9448319 Si02
#       7
#     8   8   8   8   8   8   8
#     4   9  18  33  52  77 108 139 177 223 266 317
#     4  10  19  33  55  80 105 141 175 222 276 328
#     4  10  20  35  54  80 111 145 184 228 275 322
#     4  10  19  32  52  82 116 143 175 227 278 322
#     4   9  19  33  53  79 109 147 186 221 268 325
#     4  10  20  35  55  78 103 138 182 226 272 329
#     4  10  22  39  56  77 108 145 185 228 275 328
#
# _framework density 17.569944
#
# number of rings (size 3 to 8) (size 9 to 14) (size 15 to 20)
#    0.000    2.286    1.429    1.286    0.000    3.143 
#    0.000    2.143    0.000   10.286    0.000    0.000 
#    0.000    0.000    0.000    0.000    0.000    0.000 
#
# Total GULP energy -311865.875928 kJ/mol
# GULP energy per Si atom -5569.033499 kJ/mol
# Density = 1.752995 g / cm^3
# Si number density = 17.569944 Si / 1000 Ang^3
#
#
#
# Elastic Constant Matrix: (Units=GPa)
#
#
# Indices 1 2 3 4 5 6 
#
# 1 59.1767 30.5116 37.0871 0.0000 0.0000 0.0000
# 2 30.5116 115.6051 45.8780 0.0000 0.0000 0.0000
# 3 37.0871 45.8780 88.3260 0.0000 0.0000 0.0000
# 4 0.0000 0.0000 0.0000 37.9689 0.0000 0.0000
# 5 0.0000 0.0000 0.0000 0.0000 12.8289 0.0000
# 6 0.0000 0.0000 0.0000 0.0000 0.0000 23.8536
#
#
#
# Elastic Compliance Matrix: (Units=1/GPa)
#
#
# Indices 1 2 3 4 5 6 
#
# 1 0.023682 -0.002902 -0.008436 0.000000 0.000000 0.000000
# 2 -0.002902 0.011252 -0.004626 0.000000 0.000000 0.000000
# 3 -0.008436 -0.004626 0.017267 0.000000 0.000000 0.000000
# 4 0.000000 0.000000 0.000000 0.026337 0.000000 0.000000
# 5 0.000000 0.000000 0.000000 0.000000 0.077949 0.000000
# 6 0.000000 0.000000 0.000000 0.000000 0.000000 0.041922
#
#
# Mechanical properties :
#
#
# Convention : Reuss Voigt Hill
#
# Bulk Modulus (GPa) = 49.32956 54.45125 51.89041
# Shear Modulus (GPa) = 21.08849 24.90568 22.99709
#
# Velocity S-wave (km/s) = 3.46823 3.76908 3.62178
# Velocity P-wave (km/s) = 6.64645 7.07104 6.86203
#
# Compressibility (1/GPa) = 0.02027182
#
# Stress axis : x y z
#
# Youngs Moduli (GPa) = 42.22571 88.87384 57.91502
#
# Poissons Ratio (x) = 0.25796 0.48859
# Poissons Ratio (y) = 0.12256 0.26790
# Poissons Ratio (z) = 0.35623 0.41110
#
# Static dielectric constant tensor:
#      x y z
#    x 1.617910 0.000000 0.000000 
#    y 0.000000 1.614460 0.000000 
#    z 0.000000 0.000000 1.605600 
# 
# From -- ./inp_files/21060.got.cif
#   From: 2010.05.17/outbox.cif.g08.bks.cpg/sg59_11_cif.got.tgz:21060.got - 2010.06.03 14:40:33.
