data_PCOD9448399
_publ_section_title
;
Structure prediction by ZEFSAII (Michael W. Deem and Ramdas Pophale) SiO2 
 PCOD9448399
Probable space group: P M M N
;
_chemical_formula_sum "Si O2"
_cell_formula_units_Z 64
_cell_length_a 7.932370
_cell_length_b 16.283968
_cell_length_c 24.494500
_cell_angle_alpha 90.000000
_cell_angle_beta 90.000000
_cell_angle_gamma 90.000000
_cell_volume 3163.965814
_symmetry_space_group_name_H-M "P M M N"
_symmetry_group_IT_number 59
_space_group.IT_coordinate_system_code '2'
_symmetry_cell_setting 'orthorhombic'
loop_
_space_group_symop_operation_xyz
x,y,z
1/2-x,1/2-y,z
1/2+x,-y,-z
-x,1/2+y,-z
-x,-y,-z
1/2+x,1/2+y,-z
1/2-x,y,z
x,1/2-y,z
loop_
_atom_site_type_symbol
_atom_site_label
_atom_site_fract_x
_atom_site_fract_y
_atom_site_fract_z
Si Si1 0.543637 0.338728 0.076401
Si Si2 0.546699 0.592083 0.561278
Si Si3 0.953508 0.841129 0.677462
Si Si4 0.046426 0.494208 0.740221
Si Si5 0.049715 0.901932 0.441901
Si Si6 0.949641 0.839033 0.327979
Si Si7 0.951282 0.997262 0.136715
Si Si8 0.549577 0.083836 0.968788
O O1 0.750000 0.341259 0.077080
O O2 0.490410 0.250000 0.097663
O O3 0.483353 0.416970 0.110906
O O4 0.491858 0.349110 0.012897
O O5 0.750000 0.591596 0.561601
O O6 0.488679 0.638301 0.615611
O O7 0.490886 0.627023 0.503009
O O8 0.488412 0.496817 0.563123
O O9 0.750000 0.839495 0.676419
O O10 0.012791 0.750000 0.694011
O O11 0.003345 0.916988 0.715588
O O12 0.250000 0.489470 0.740568
O O13 0.980855 0.419508 0.702641
O O14 0.984009 0.484533 0.802298
O O15 0.250000 0.901921 0.434703
O O16 0.972598 0.851478 0.392526
O O17 0.750000 0.837167 0.316600
O O18 0.020925 0.750000 0.311692
O O19 0.750000 0.005755 0.140525
O O20 0.983802 0.925959 0.092450
O O21 0.750000 0.089106 0.965023
O O22 0.500000 0.000000 0.000000
#
# Coordination Sequence:
#
# PCOD9448399 Si02
#       8
#     8   8   8   8   8   8   8   8
#     4   8  14  26  46  72 101 131 163 200 243 294
#     4   9  18  33  52  77 109 141 170 206 262 328
#     4  10  21  37  56  78 107 143 178 213 262 324
#     4  10  21  37  56  77 104 139 183 231 269 312
#     4  10  19  32  54  81 106 133 171 220 270 323
#     4  10  21  37  56  76 101 138 181 225 279 334
#     4   9  18  32  51  74 100 134 173 211 256 306
#     4   9  16  28  48  72  98 130 165 202 243 292
#
# _framework density 20.227779000000002
#
# number of rings (size 3 to 8) (size 9 to 14) (size 15 to 20)
#    0.000    2.625    1.250    1.500    0.000    3.000 
#    0.000    3.125    0.000   10.125    0.000    0.000 
#    0.000    0.000    0.000    0.000    0.000    0.000 
#
# Total GULP energy -356792.518939 kJ/mol
# GULP energy per Si atom -5574.883108 kJ/mol
# Density = 2.018174 g / cm^3
# Si number density = 20.227779 Si / 1000 Ang^3
#
#
#
# Elastic Constant Matrix: (Units=GPa)
#
#
# Indices 1 2 3 4 5 6 
#
# 1 14.5051 8.9993 6.5588 0.0000 0.0000 0.0000
# 2 8.9993 83.7978 38.9695 0.0000 0.0000 0.0000
# 3 6.5588 38.9695 123.6782 0.0000 0.0000 0.0000
# 4 0.0000 0.0000 0.0000 2.9507 0.0000 0.0000
# 5 0.0000 0.0000 0.0000 0.0000 19.2897 0.0000
# 6 0.0000 0.0000 0.0000 0.0000 0.0000 12.9912
#
#
#
# Elastic Compliance Matrix: (Units=1/GPa)
#
#
# Indices 1 2 3 4 5 6 
#
# 1 0.074155 -0.007188 -0.001668 0.000000 0.000000 0.000000
# 2 -0.007188 0.014679 -0.004244 0.000000 0.000000 0.000000
# 3 -0.001668 -0.004244 0.009511 0.000000 0.000000 0.000000
# 4 0.000000 0.000000 0.000000 0.338903 0.000000 0.000000
# 5 0.000000 0.000000 0.000000 0.000000 0.051841 0.000000
# 6 0.000000 0.000000 0.000000 0.000000 0.000000 0.076975
#
#
# Mechanical properties :
#
#
# Convention : Reuss Voigt Hill
#
# Bulk Modulus (GPa) = 13.86083 36.78183 25.32133
# Shear Modulus (GPa) = 8.11276 18.20987 13.16131
#
# Velocity S-wave (km/s) = 2.00485 3.00366 2.55356
# Velocity P-wave (km/s) = 3.49664 5.50023 4.60863
#
# Compressibility (1/GPa) = 0.07214576
#
# Stress axis : x y z
#
# Youngs Moduli (GPa) = 13.48522 68.12411 105.13951
#
# Poissons Ratio (x) = 0.48969 0.17533
# Poissons Ratio (y) = 0.09694 0.44621
# Poissons Ratio (z) = 0.02249 0.28912
#
# Static dielectric constant tensor:
#      x y z
#    x 1.729510 0.000000 0.000000 
#    y 0.000000 1.740180 0.000000 
#    z 0.000000 0.000000 1.720740 
# 
# From -- ./inp_files/31418.got.cif
#   From: 2010.05.17/outbox.cif.g08.bks.cpg/sg59_16_cif.got.tgz:31418.got - 2010.06.03 14:40:33.
