data_PCOD9448618
_publ_section_title
;
Structure prediction by ZEFSAII (Michael W. Deem and Ramdas Pophale) SiO2 
 PCOD9448618
Probable space group: P M M N
;
_chemical_formula_sum "Si O2"
_cell_formula_units_Z 64
_cell_length_a 19.683982
_cell_length_b 8.977973
_cell_length_c 20.692714
_cell_angle_alpha 90.000000
_cell_angle_beta 90.000000
_cell_angle_gamma 90.000000
_cell_volume 3656.863161
_symmetry_space_group_name_H-M "P M M N"
_symmetry_group_IT_number 59
_space_group.IT_coordinate_system_code '2'
_symmetry_cell_setting 'orthorhombic'
loop_
_space_group_symop_operation_xyz
x,y,z
1/2-x,1/2-y,z
1/2+x,-y,-z
-x,1/2+y,-z
-x,-y,-z
1/2+x,1/2+y,-z
1/2-x,y,z
x,1/2-y,z
loop_
_atom_site_type_symbol
_atom_site_label
_atom_site_fract_x
_atom_site_fract_y
_atom_site_fract_z
Si Si1 0.170623 0.429529 0.341680
Si Si2 0.332491 0.578884 0.475746
Si Si3 0.899728 0.424999 0.040563
Si Si4 0.055115 0.073081 0.087636
Si Si5 0.329917 0.424402 0.843868
Si Si6 0.063054 0.068875 0.235027
Si Si7 0.088646 0.928617 0.728035
Si Si8 0.830241 0.928105 0.389757
O O1 0.250000 0.467986 0.331421
O O2 0.166681 0.250000 0.347466
O O3 0.146627 0.501204 0.409031
O O4 0.123623 0.477945 0.282190
O O5 0.250000 0.577781 0.474943
O O6 0.355107 0.750000 0.478665
O O7 0.351923 0.491087 0.540425
O O8 0.883991 0.250000 0.041565
O O9 0.848696 0.516056 0.085372
O O10 0.974951 0.445064 0.071916
O O11 0.904940 0.486255 0.967979
O O12 0.069668 0.250000 0.082847
O O13 0.069153 0.020556 0.160516
O O14 0.250000 0.440708 0.831327
O O15 0.347552 0.250000 0.838246
O O16 0.371844 0.517891 0.791742
O O17 0.063338 0.250000 0.233033
O O18 0.989901 0.025208 0.263645
O O19 0.091526 0.750000 0.723298
O O20 0.125130 0.000740 0.666577
O O21 0.750000 0.965540 0.380049
O O22 0.835850 0.750000 0.388777
#
# Coordination Sequence:
#
# PCOD9448618 Si02
#       8
#     8   8   8   8   8   8   8   8
#     4   9  17  32  56  81 103 132 170 213 263 317
#     4   9  17  31  52  77 104 135 173 216 261 312
#     4  10  19  33  54  79 103 135 178 220 264 311
#     4   9  17  33  54  76 105 138 173 216 262 311
#     4  11  23  37  53  76 108 144 181 223 269 317
#     4   9  18  34  54  78 108 140 175 216 260 313
#     4  11  21  35  53  76 106 142 181 219 263 314
#     4  10  20  34  52  76 106 139 177 220 263 310
#
# _framework density 17.501338000000001
#
# number of rings (size 3 to 8) (size 9 to 14) (size 15 to 20)
#    0.000    2.250    1.250    2.250    0.000    5.250 
#    0.000    3.125    0.000    2.250    0.000    0.000 
#    0.000    0.000    0.000    0.000    0.000    0.000 
#
# Total GULP energy -357092.962200 kJ/mol
# GULP energy per Si atom -5579.577534 kJ/mol
# Density = 1.746150 g / cm^3
# Si number density = 17.501338 Si / 1000 Ang^3
#
#
#
# Elastic Constant Matrix: (Units=GPa)
#
#
# Indices 1 2 3 4 5 6 
#
# 1 59.1024 32.5775 60.2238 0.0000 0.0000 0.0000
# 2 32.5775 48.1348 42.7092 0.0000 0.0000 0.0000
# 3 60.2238 42.7092 167.3351 0.0000 0.0000 0.0000
# 4 0.0000 0.0000 0.0000 31.3199 0.0000 0.0000
# 5 0.0000 0.0000 0.0000 0.0000 29.3818 0.0000
# 6 0.0000 0.0000 0.0000 0.0000 0.0000 13.0971
#
#
#
# Elastic Compliance Matrix: (Units=1/GPa)
#
#
# Indices 1 2 3 4 5 6 
#
# 1 0.033925 -0.015677 -0.008208 0.000000 0.000000 0.000000
# 2 -0.015677 0.034102 -0.003062 0.000000 0.000000 0.000000
# 3 -0.008208 -0.003062 0.009712 0.000000 0.000000 0.000000
# 4 0.000000 0.000000 0.000000 0.031929 0.000000 0.000000
# 5 0.000000 0.000000 0.000000 0.000000 0.034035 0.000000
# 6 0.000000 0.000000 0.000000 0.000000 0.000000 0.076353
#
#
# Mechanical properties :
#
#
# Convention : Reuss Voigt Hill
#
# Bulk Modulus (GPa) = 41.93900 60.62148 51.28024
# Shear Modulus (GPa) = 17.73693 24.03055 20.88374
#
# Velocity S-wave (km/s) = 3.18694 3.70951 3.45811
# Velocity P-wave (km/s) = 6.12842 7.28428 6.73120
#
# Compressibility (1/GPa) = 0.02384415
#
# Stress axis : x y z
#
# Youngs Moduli (GPa) = 29.47658 29.32386 102.96960
#
# Poissons Ratio (x) = 0.45972 0.84520
# Poissons Ratio (y) = 0.46212 0.31525
# Poissons Ratio (z) = 0.24195 0.08978
#
# Static dielectric constant tensor:
#      x y z
#    x 1.582240 0.000000 0.000000 
#    y 0.000000 1.589730 0.000000 
#    z 0.000000 0.000000 1.583710 
# 
# From -- ./inp_files/28197.got.cif
#   From: 2010.05.17/outbox.cif.g08.bks.cpg/sg59_15_cif.got.tgz:28197.got - 2010.06.03 14:40:33.
