data_PCOD9448367
_publ_section_title
;
Structure prediction by ZEFSAII (Michael W. Deem and Ramdas Pophale) SiO2 
 PCOD9448367
Probable space group: P M M N
;
_chemical_formula_sum "Si O2"
_cell_formula_units_Z 64
_cell_length_a 8.515523
_cell_length_b 18.492989
_cell_length_c 22.309055
_cell_angle_alpha 90.000000
_cell_angle_beta 90.000000
_cell_angle_gamma 90.000000
_cell_volume 3513.173610
_symmetry_space_group_name_H-M "P M M N"
_symmetry_group_IT_number 59
_space_group.IT_coordinate_system_code '2'
_symmetry_cell_setting 'orthorhombic'
loop_
_space_group_symop_operation_xyz
x,y,z
1/2-x,1/2-y,z
1/2+x,-y,-z
-x,1/2+y,-z
-x,-y,-z
1/2+x,1/2+y,-z
1/2-x,y,z
x,1/2-y,z
loop_
_atom_site_type_symbol
_atom_site_label
_atom_site_fract_x
_atom_site_fract_y
_atom_site_fract_z
Si Si1 0.561949 0.914322 0.375801
Si Si2 0.437952 0.977352 0.064480
Si Si3 0.559962 0.166685 0.273698
Si Si4 0.437866 0.953395 0.817154
Si Si5 0.941053 0.170193 0.874944
Si Si6 0.061962 0.904225 0.246845
Si Si7 0.561441 0.922575 0.612615
Si Si8 0.441526 0.332940 0.504211
O O1 0.750000 0.912863 0.374075
O O2 0.498211 0.885694 0.312553
O O3 0.507918 0.867896 0.432962
O O4 0.507092 0.997054 0.383126
O O5 0.250000 0.976319 0.063487
O O6 0.493925 0.896982 0.084340
O O7 0.491997 0.030534 0.117688
O O8 0.500000 0.000000 0.000000
O O9 0.750000 0.164889 0.277708
O O10 0.509403 0.250000 0.272164
O O11 0.515067 0.121310 0.214551
O O12 0.492278 0.125086 0.331006
O O13 0.250000 0.955847 0.821375
O O14 0.494039 0.018374 0.773876
O O15 0.750000 0.170720 0.877503
O O16 0.997216 0.250000 0.891839
O O17 0.982944 0.150800 0.806285
O O18 0.250000 0.909759 0.247717
O O19 0.750000 0.927640 0.612686
O O20 0.509445 0.882300 0.551756
O O21 0.250000 0.332456 0.504033
O O22 0.493745 0.250000 0.497706
#
# Coordination Sequence:
#
# PCOD9448367 Si02
#       8
#     8   8   8   8   8   8   8   8
#     4  11  21  34  54  77 105 141 179 223 274 332
#     4  10  20  35  58  84 112 148 188 227 266 317
#     4  10  21  36  55  81 111 142 178 224 278 332
#     4  10  19  34  56  79 109 144 177 218 266 321
#     4   8  16  32  54  80 109 141 178 222 269 315
#     4  10  19  32  53  80 108 138 176 221 268 321
#     4  11  21  35  57  79 103 138 183 230 277 331
#     4   9  20  37  53  73 103 139 180 228 282 335
#
# _framework density 18.217148000000002
#
# number of rings (size 3 to 8) (size 9 to 14) (size 15 to 20)
#    0.000    2.125    1.250    3.375    0.000    1.750 
#    0.000    2.500    0.000   21.000    0.000    0.000 
#    0.000    0.000    0.000    0.000    0.000    0.000 
#
# Total GULP energy -357237.760699 kJ/mol
# GULP energy per Si atom -5581.840011 kJ/mol
# Density = 1.817569 g / cm^3
# Si number density = 18.217148 Si / 1000 Ang^3
#
#
#
# Elastic Constant Matrix: (Units=GPa)
#
#
# Indices 1 2 3 4 5 6 
#
# 1 30.3183 12.6481 24.4169 0.0000 0.0000 0.0000
# 2 12.6481 75.3484 47.2545 0.0000 0.0000 0.0000
# 3 24.4169 47.2545 152.4029 0.0000 0.0000 0.0000
# 4 0.0000 0.0000 0.0000 16.7699 0.0000 0.0000
# 5 0.0000 0.0000 0.0000 0.0000 27.8824 0.0000
# 6 0.0000 0.0000 0.0000 0.0000 0.0000 14.9030
#
#
#
# Elastic Compliance Matrix: (Units=1/GPa)
#
#
# Indices 1 2 3 4 5 6 
#
# 1 0.038489 -0.003220 -0.005168 0.000000 0.000000 0.000000
# 2 -0.003220 0.016745 -0.004676 0.000000 0.000000 0.000000
# 3 -0.005168 -0.004676 0.008839 0.000000 0.000000 0.000000
# 4 0.000000 0.000000 0.000000 0.059631 0.000000 0.000000
# 5 0.000000 0.000000 0.000000 0.000000 0.035865 0.000000
# 6 0.000000 0.000000 0.000000 0.000000 0.000000 0.067100
#
#
# Mechanical properties :
#
#
# Convention : Reuss Voigt Hill
#
# Bulk Modulus (GPa) = 26.35379 47.41204 36.88292
# Shear Modulus (GPa) = 18.83632 23.49442 21.16537
#
# Velocity S-wave (km/s) = 3.21906 3.59512 3.41227
# Velocity P-wave (km/s) = 5.32112 6.58147 5.98456
#
# Compressibility (1/GPa) = 0.03794521
#
# Stress axis : x y z
#
# Youngs Moduli (GPa) = 25.98172 59.72033 113.12946
#
# Poissons Ratio (x) = 0.19228 0.58466
# Poissons Ratio (y) = 0.08365 0.52900
# Poissons Ratio (z) = 0.13428 0.27926
#
# Static dielectric constant tensor:
#      x y z
#    x 1.625200 0.000000 0.000000 
#    y 0.000000 1.619190 0.000000 
#    z 0.000000 0.000000 1.612330 
# 
# From -- ./inp_files/29489.got.cif
#   From: 2010.05.17/outbox.cif.g08.bks.cpg/sg59_15_cif.got.tgz:29489.got - 2010.06.03 14:40:33.
