data_PCOD9448006
_publ_section_title
;
Structure prediction by ZEFSAII (Michael W. Deem and Ramdas Pophale) SiO2 
 PCOD9448006
Probable space group: P M M N
;
_chemical_formula_sum "Si O2"
_cell_formula_units_Z 48
_cell_length_a 9.394113
_cell_length_b 7.707916
_cell_length_c 35.894244
_cell_angle_alpha 90.000000
_cell_angle_beta 90.000000
_cell_angle_gamma 90.000000
_cell_volume 2599.067531
_symmetry_space_group_name_H-M "P M M N"
_symmetry_group_IT_number 59
_space_group.IT_coordinate_system_code '2'
_symmetry_cell_setting 'orthorhombic'
loop_
_space_group_symop_operation_xyz
x,y,z
1/2-x,1/2-y,z
1/2+x,-y,-z
-x,1/2+y,-z
-x,-y,-z
1/2+x,1/2+y,-z
1/2-x,y,z
x,1/2-y,z
loop_
_atom_site_type_symbol
_atom_site_label
_atom_site_fract_x
_atom_site_fract_y
_atom_site_fract_z
Si Si1 0.920491 0.450749 0.038000
Si Si2 0.579133 0.453332 0.236543
Si Si3 0.422979 0.250000 0.905329
Si Si4 0.411155 0.041010 0.536831
Si Si5 0.576768 0.750000 0.179587
Si Si6 0.912375 0.042289 0.607391
Si Si7 0.412715 0.041548 0.310114
O O1 0.750000 0.470897 0.032526
O O2 0.948362 0.250000 0.047160
O O3 0.964701 0.581090 0.070860
O O4 0.000000 0.500000 0.000000
O O5 0.750000 0.464463 0.240594
O O6 0.543907 0.250000 0.229837
O O7 0.535128 0.579449 0.202975
O O8 0.505818 0.513204 0.274915
O O9 0.250000 0.250000 0.903805
O O10 0.474901 0.250000 0.862899
O O11 0.250000 0.974844 0.534063
O O12 0.404308 0.250000 0.539722
O O13 0.491305 0.975159 0.573778
O O14 0.500000 0.000000 0.500000
O O15 0.750000 0.750000 0.178362
O O16 0.750000 0.973864 0.605118
O O17 0.904562 0.250000 0.603359
O O18 0.968010 0.006829 0.648950
O O19 0.250000 0.975777 0.307189
O O20 0.408281 0.250000 0.308878
#
# Coordination Sequence:
#
# PCOD9448006 Si02
#       7
#     8   8   4   8   4   8   8
#     4  10  19  31  51  77 104 138 177 219 270 322
#     4   9  18  32  50  73 100 130 167 212 258 304
#     4   9  18  32  49  75 107 135 175 223 263 315
#     4  10  21  36  53  74 100 132 168 205 249 300
#     4   9  18  32  51  75 103 137 175 215 261 311
#     4   9  18  32  49  70  97 127 161 202 246 294
#     4   9  18  32  50  73 100 130 163 202 250 301
#
# _framework density 18.468160000000001
#
# number of rings (size 3 to 8) (size 9 to 14) (size 15 to 20)
#    0.000    2.667    0.833    0.500    1.167    3.000 
#    0.000    5.000    0.000    2.000    0.000    2.333 
#    0.000    0.000    0.000    0.000    0.000    0.000 
#
# Total GULP energy -267675.620130 kJ/mol
# GULP energy per Si atom -5576.575419 kJ/mol
# Density = 1.842613 g / cm^3
# Si number density = 18.468160 Si / 1000 Ang^3
#
#
#
# Elastic Constant Matrix: (Units=GPa)
#
#
# Indices 1 2 3 4 5 6 
#
# 1 47.1451 32.3692 65.8068 0.0000 0.0000 0.0000
# 2 32.3692 84.3806 68.6822 0.0000 0.0000 0.0000
# 3 65.8068 68.6822 212.7808 0.0000 0.0000 0.0000
# 4 0.0000 0.0000 0.0000 29.3100 0.0000 0.0000
# 5 0.0000 0.0000 0.0000 0.0000 27.5263 0.0000
# 6 0.0000 0.0000 0.0000 0.0000 0.0000 14.2570
#
#
#
# Elastic Compliance Matrix: (Units=1/GPa)
#
#
# Indices 1 2 3 4 5 6 
#
# 1 0.040318 -0.007212 -0.010141 0.000000 0.000000 0.000000
# 2 -0.007212 0.017364 -0.003375 0.000000 0.000000 0.000000
# 3 -0.010141 -0.003375 0.008925 0.000000 0.000000 0.000000
# 4 0.000000 0.000000 0.000000 0.034118 0.000000 0.000000
# 5 0.000000 0.000000 0.000000 0.000000 0.036329 0.000000
# 6 0.000000 0.000000 0.000000 0.000000 0.000000 0.070141
#
#
# Mechanical properties :
#
#
# Convention : Reuss Voigt Hill
#
# Bulk Modulus (GPa) = 39.75745 75.33588 57.54666
# Shear Modulus (GPa) = 19.45254 26.04854 22.75054
#
# Velocity S-wave (km/s) = 3.24898 3.75968 3.51362
# Velocity P-wave (km/s) = 5.97066 7.72837 6.90567
#
# Compressibility (1/GPa) = 0.02515252
#
# Stress axis : x y z
#
# Youngs Moduli (GPa) = 24.80254 57.58932 112.04041
#
# Poissons Ratio (x) = 0.41533 1.13625
# Poissons Ratio (y) = 0.17887 0.37808
# Poissons Ratio (z) = 0.25153 0.19434
#
# Static dielectric constant tensor:
#      x y z
#    x 1.636570 0.000000 0.000000 
#    y 0.000000 1.663310 0.000000 
#    z 0.000000 0.000000 1.611170 
# 
# From -- ./inp_files/33029.got.cif
#   From: 2010.05.17/outbox.cif.g08.bks.cpg/sg59_17_cif.got.tgz:33029.got - 2010.06.03 14:40:33.
