data_PCOD9448118
_publ_section_title
;
Structure prediction by ZEFSAII (Michael W. Deem and Ramdas Pophale) SiO2 
 PCOD9448118
Probable space group: P M M N
;
_chemical_formula_sum "Si O2"
_cell_formula_units_Z 56
_cell_length_a 22.050347
_cell_length_b 9.044883
_cell_length_c 17.272462
_cell_angle_alpha 90.000000
_cell_angle_beta 90.000000
_cell_angle_gamma 90.000000
_cell_volume 3444.868335
_symmetry_space_group_name_H-M "P M M N"
_symmetry_group_IT_number 59
_space_group.IT_coordinate_system_code '2'
_symmetry_cell_setting 'orthorhombic'
loop_
_space_group_symop_operation_xyz
x,y,z
1/2-x,1/2-y,z
1/2+x,-y,-z
-x,1/2+y,-z
-x,-y,-z
1/2+x,1/2+y,-z
1/2-x,y,z
x,1/2-y,z
loop_
_atom_site_type_symbol
_atom_site_label
_atom_site_fract_x
_atom_site_fract_y
_atom_site_fract_z
Si Si1 0.589933 0.926301 0.480032
Si Si2 0.818049 0.429547 0.038749
Si Si3 0.442322 0.928022 0.043522
Si Si4 0.493288 0.572455 0.207149
Si Si5 0.530291 0.426980 0.618632
Si Si6 0.876290 0.426470 0.200075
Si Si7 0.821810 0.923003 0.349962
O O1 0.588386 0.750000 0.491753
O O2 0.533949 0.964860 0.422384
O O3 0.649365 0.967241 0.431923
O O4 0.579834 0.003402 0.561915
O O5 0.750000 0.481586 0.017682
O O6 0.816906 0.250000 0.033755
O O7 0.833737 0.468269 0.127638
O O8 0.876910 0.477874 0.989310
O O9 0.446203 0.750000 0.032341
O O10 0.449694 0.959199 0.134842
O O11 0.500000 0.000000 0.000000
O O12 0.502154 0.750000 0.210612
O O13 0.470434 0.524371 0.292070
O O14 0.557675 0.497514 0.190270
O O15 0.536033 0.250000 0.617384
O O16 0.881795 0.250000 0.200588
O O17 0.848946 0.483876 0.280057
O O18 0.750000 0.934938 0.350906
O O19 0.838853 0.750000 0.337563
#
# Coordination Sequence:
#
# PCOD9448118 Si02
#       7
#     8   8   8   8   8   8   8
#     4   9  17  30  47  68  92 122 159 193 232 282
#     4   9  18  32  48  70 101 133 165 202 244 293
#     4  10  19  32  52  74  98 131 167 207 250 296
#     4  10  19  32  50  72 101 131 162 203 250 298
#     4   9  17  30  47  67  93 122 153 196 243 283
#     4  11  20  30  48  73 102 133 165 201 245 293
#     4  10  20  34  50  69  99 135 165 195 237 293
#
# _framework density 16.256063999999999
#
# number of rings (size 3 to 8) (size 9 to 14) (size 15 to 20)
#    0.000    2.286    2.857    0.857    0.000    2.000 
#    0.000    0.000    0.000    2.143    0.000    2.000 
#    0.000    0.000    0.000    0.000    0.000    0.000 
#
# Total GULP energy -312116.843415 kJ/mol
# GULP energy per Si atom -5573.515061 kJ/mol
# Density = 1.621906 g / cm^3
# Si number density = 16.256064 Si / 1000 Ang^3
#
#
#
# Elastic Constant Matrix: (Units=GPa)
#
#
# Indices 1 2 3 4 5 6 
#
# 1 96.5188 22.7931 58.3433 0.0000 0.0000 0.0000
# 2 22.7931 11.0637 28.6465 0.0000 0.0000 0.0000
# 3 58.3433 28.6465 113.0233 0.0000 0.0000 0.0000
# 4 0.0000 0.0000 0.0000 18.8037 0.0000 0.0000
# 5 0.0000 0.0000 0.0000 0.0000 22.4169 0.0000
# 6 0.0000 0.0000 0.0000 0.0000 0.0000 16.6228
#
#
#
# Elastic Compliance Matrix: (Units=1/GPa)
#
#
# Indices 1 2 3 4 5 6 
#
# 1 0.020182 -0.042484 0.000350 0.000000 0.000000 0.000000
# 2 -0.042484 0.352381 -0.067383 0.000000 0.000000 0.000000
# 3 0.000350 -0.067383 0.025746 0.000000 0.000000 0.000000
# 4 0.000000 0.000000 0.000000 0.053181 0.000000 0.000000
# 5 0.000000 0.000000 0.000000 0.000000 0.044609 0.000000
# 6 0.000000 0.000000 0.000000 0.000000 0.000000 0.060158
#
#
# Mechanical properties :
#
#
# Convention : Reuss Voigt Hill
#
# Bulk Modulus (GPa) = 5.57805 48.90795 27.24300
# Shear Modulus (GPa) = 5.98767 18.95687 12.47227
#
# Velocity S-wave (km/s) = 1.92129 3.41859 2.77291
# Velocity P-wave (km/s) = 2.89147 6.76266 5.20068
#
# Compressibility (1/GPa) = 0.17927428
#
# Stress axis : x y z
#
# Youngs Moduli (GPa) = 49.54935 2.83784 38.84141
#
# Poissons Ratio (x) = 0.12056 -0.01359
# Poissons Ratio (y) = 2.10506 2.61724
# Poissons Ratio (z) = -0.01734 0.19122
#
# Static dielectric constant tensor:
#      x y z
#    x 1.542680 0.000000 0.000000 
#    y 0.000000 1.548940 0.000000 
#    z 0.000000 0.000000 1.552560 
# 
# From -- ./inp_files/26095.got.cif
#   From: 2010.05.17/outbox.cif.g08.bks.cpg/sg59_14_cif.got.tgz:26095.got - 2010.06.03 14:40:33.
