data_PCOD9448992
_publ_section_title
;
Structure prediction by ZEFSAII (Michael W. Deem and Ramdas Pophale) SiO2 
 PCOD9448992
Probable space group: P M M N
;
_chemical_formula_sum "Si O2"
_cell_formula_units_Z 48
_cell_length_a 7.665582
_cell_length_b 16.580343
_cell_length_c 17.449935
_cell_angle_alpha 90.000000
_cell_angle_beta 90.000000
_cell_angle_gamma 90.000000
_cell_volume 2217.851470
_symmetry_space_group_name_H-M "P M M N"
_symmetry_group_IT_number 59
_space_group.IT_coordinate_system_code '2'
_symmetry_cell_setting 'orthorhombic'
loop_
_space_group_symop_operation_xyz
x,y,z
1/2-x,1/2-y,z
1/2+x,-y,-z
-x,1/2+y,-z
-x,-y,-z
1/2+x,1/2+y,-z
1/2-x,y,z
x,1/2-y,z
loop_
_atom_site_type_symbol
_atom_site_label
_atom_site_fract_x
_atom_site_fract_y
_atom_site_fract_z
Si Si1 0.958948 0.087476 0.817704
Si Si2 0.457128 0.339808 0.331612
Si Si3 0.457173 0.250000 0.910058
Si Si4 0.956885 0.093845 0.497733
Si Si5 0.536853 0.911253 0.825436
Si Si6 0.963874 0.750000 0.915229
Si Si7 0.463205 0.657874 0.339680
O O1 0.750000 0.080907 0.812593
O O2 0.023397 0.103120 0.730860
O O3 0.993364 0.167844 0.866332
O O4 0.022513 0.001037 0.849139
O O5 0.250000 0.334308 0.319593
O O6 0.531723 0.250000 0.323382
O O7 0.481530 0.370134 0.417577
O O8 0.518832 0.396595 0.262851
O O9 0.250000 0.250000 0.914587
O O10 0.524374 0.250000 0.997032
O O11 0.750000 0.105081 0.498784
O O12 0.026388 0.133211 0.576071
O O13 0.000000 0.000000 0.500000
O O14 0.750000 0.911042 0.829581
O O15 0.480242 0.832614 0.873125
O O16 0.750000 0.750000 0.913379
O O17 0.250000 0.653906 0.341060
O O18 0.511211 0.750000 0.323163
#
# Coordination Sequence:
#
# PCOD9448992 Si02
#       7
#     8   8   4   8   8   4   8
#     4  10  19  35  61  84 106 142 193 236 269 321
#     4  10  19  34  58  85 112 143 186 234 280 334
#     4  11  23  37  55  82 117 148 178 227 293 345
#     4  11  22  35  52  77 111 149 191 234 280 329
#     4   9  17  33  59  87 111 147 193 229 267 333
#     4   9  18  35  57  84 117 148 180 225 279 341
#     4   9  17  32  54  76 100 137 184 227 265 319
#
# _framework density 21.642568000000001
#
# number of rings (size 3 to 8) (size 9 to 14) (size 15 to 20)
#    0.000    2.167    1.667    2.250    0.000    4.333 
#    0.000    4.167    0.000    3.000    0.000    0.000 
#    0.000    0.000    0.000    0.000    0.000    0.000 
#
# Total GULP energy -267961.272742 kJ/mol
# GULP energy per Si atom -5582.526515 kJ/mol
# Density = 2.159331 g / cm^3
# Si number density = 21.642568 Si / 1000 Ang^3
#
#
#
# Elastic Constant Matrix: (Units=GPa)
#
#
# Indices 1 2 3 4 5 6 
#
# 1 33.3915 0.8285 -0.6472 0.0000 0.0000 0.0000
# 2 0.8285 197.6055 83.4834 0.0000 0.0000 0.0000
# 3 -0.6472 83.4834 144.9183 0.0000 0.0000 0.0000
# 4 0.0000 0.0000 0.0000 10.3676 0.0000 0.0000
# 5 0.0000 0.0000 0.0000 0.0000 11.7787 0.0000
# 6 0.0000 0.0000 0.0000 0.0000 0.0000 5.3078
#
#
#
# Elastic Compliance Matrix: (Units=1/GPa)
#
#
# Indices 1 2 3 4 5 6 
#
# 1 0.029959 -0.000241 0.000272 0.000000 0.000000 0.000000
# 2 -0.000241 0.006690 -0.003855 0.000000 0.000000 0.000000
# 3 0.000272 -0.003855 0.009123 0.000000 0.000000 0.000000
# 4 0.000000 0.000000 0.000000 0.096454 0.000000 0.000000
# 5 0.000000 0.000000 0.000000 0.000000 0.084899 0.000000
# 6 0.000000 0.000000 0.000000 0.000000 0.000000 0.188403
#
#
# Mechanical properties :
#
#
# Convention : Reuss Voigt Hill
#
# Bulk Modulus (GPa) = 26.22951 60.36052 43.29502
# Shear Modulus (GPa) = 11.47096 24.97418 18.22257
#
# Velocity S-wave (km/s) = 2.30471 3.40065 2.90483
# Velocity P-wave (km/s) = 4.38497 6.58555 5.59453
#
# Compressibility (1/GPa) = 0.03812499
#
# Stress axis : x y z
#
# Youngs Moduli (GPa) = 33.37892 149.46983 109.61884
#
# Poissons Ratio (x) = 0.03598 -0.02987
# Poissons Ratio (y) = 0.00804 0.42260
# Poissons Ratio (z) = -0.00909 0.57623
#
# Static dielectric constant tensor:
#      x y z
#    x 1.818350 0.000000 0.000000 
#    y 0.000000 1.746250 0.000000 
#    z 0.000000 0.000000 1.787320 
# 
# From -- ./inp_files/25531.got.cif
#   From: 2010.05.17/outbox.cif.g08.bks.cpg/sg59_13_cif.got.tgz:25531.got - 2010.06.03 14:40:33.
