data_PCOD9448240
_publ_section_title
;
Structure prediction by ZEFSAII (Michael W. Deem and Ramdas Pophale) SiO2 
 PCOD9448240
Probable space group: P M M N
;
_chemical_formula_sum "Si O2"
_cell_formula_units_Z 64
_cell_length_a 30.104487
_cell_length_b 8.819581
_cell_length_c 15.110657
_cell_angle_alpha 90.000000
_cell_angle_beta 90.000000
_cell_angle_gamma 90.000000
_cell_volume 4012.014849
_symmetry_space_group_name_H-M "P M M N"
_symmetry_group_IT_number 59
_space_group.IT_coordinate_system_code '2'
_symmetry_cell_setting 'orthorhombic'
loop_
_space_group_symop_operation_xyz
x,y,z
1/2-x,1/2-y,z
1/2+x,-y,-z
-x,1/2+y,-z
-x,-y,-z
1/2+x,1/2+y,-z
1/2-x,y,z
x,1/2-y,z
loop_
_atom_site_type_symbol
_atom_site_label
_atom_site_fract_x
_atom_site_fract_y
_atom_site_fract_z
Si Si1 0.301077 0.426579 0.805392
Si Si2 0.433611 0.430383 0.548800
Si Si3 0.120506 0.570078 0.701695
Si Si4 0.536216 0.432462 0.829158
Si Si5 0.968338 0.068684 0.622807
Si Si6 0.800645 0.069092 0.001475
Si Si7 0.558986 0.431520 0.129204
Si Si8 0.391733 0.068876 0.040923
O O1 0.250000 0.439244 0.776125
O O2 0.310228 0.250000 0.825733
O O3 0.335164 0.487863 0.733869
O O4 0.305666 0.521487 0.895714
O O5 0.428256 0.250000 0.551967
O O6 0.396846 0.510307 0.608331
O O7 0.481159 0.469128 0.594208
O O8 0.437047 0.487203 0.448245
O O9 0.127062 0.750000 0.699736
O O10 0.083636 0.537340 0.777706
O O11 0.535656 0.250000 0.837759
O O12 0.538714 0.471576 0.724969
O O13 0.490187 0.498980 0.867221
O O14 0.577249 0.501746 0.882323
O O15 0.963219 0.250000 0.613594
O O16 0.750000 0.026646 0.975265
O O17 0.805177 0.250000 0.993593
O O18 0.841003 0.987862 0.951924
O O19 0.556794 0.250000 0.116536
O O20 0.587624 0.504429 0.050568
O O21 0.393467 0.250000 0.040086
#
# Coordination Sequence:
#
# PCOD9448240 Si02
#       8
#     8   8   8   8   8   8   8   8
#     4  10  20  33  51  75 103 134 169 211 257 306
#     4  10  19  32  52  75 101 131 167 210 254 300
#     4  11  21  32  51  75 104 139 174 211 251 305
#     4  11  22  37  54  72 102 139 178 219 258 303
#     4   9  19  34  51  73  99 131 168 209 255 300
#     4  10  20  35  54  75 100 131 169 212 258 306
#     4  11  22  35  50  72 103 140 180 215 252 300
#     4  12  24  36  52  74 103 138 176 215 257 308
#
# _framework density 15.952085
#
# number of rings (size 3 to 8) (size 9 to 14) (size 15 to 20)
#    0.000    1.500    2.500    3.750    0.000    4.000 
#    0.000    0.000    0.000    0.000    0.000    0.875 
#    0.000    1.000    0.000    0.000    0.000    0.000 
#
# Total GULP energy -357460.751122 kJ/mol
# GULP energy per Si atom -5585.324236 kJ/mol
# Density = 1.591578 g / cm^3
# Si number density = 15.952085 Si / 1000 Ang^3
#
#
#
# Elastic Constant Matrix: (Units=GPa)
#
#
# Indices 1 2 3 4 5 6 
#
# 1 103.4094 48.9504 40.2712 0.0000 0.0000 0.0000
# 2 48.9504 65.6742 33.9071 0.0000 0.0000 0.0000
# 3 40.2712 33.9071 60.9751 0.0000 0.0000 0.0000
# 4 0.0000 0.0000 0.0000 23.0936 0.0000 0.0000
# 5 0.0000 0.0000 0.0000 0.0000 20.6408 0.0000
# 6 0.0000 0.0000 0.0000 0.0000 0.0000 27.9916
#
#
#
# Elastic Compliance Matrix: (Units=1/GPa)
#
#
# Indices 1 2 3 4 5 6 
#
# 1 0.016195 -0.009186 -0.005588 0.000000 0.000000 0.000000
# 2 -0.009186 0.026569 -0.008708 0.000000 0.000000 0.000000
# 3 -0.005588 -0.008708 0.024933 0.000000 0.000000 0.000000
# 4 0.000000 0.000000 0.000000 0.043302 0.000000 0.000000
# 5 0.000000 0.000000 0.000000 0.000000 0.048448 0.000000
# 6 0.000000 0.000000 0.000000 0.000000 0.000000 0.035725
#
#
# Mechanical properties :
#
#
# Convention : Reuss Voigt Hill
#
# Bulk Modulus (GPa) = 48.23021 52.92401 50.57711
# Shear Modulus (GPa) = 20.07666 21.47385 20.77525
#
# Velocity S-wave (km/s) = 3.55147 3.67297 3.61273
# Velocity P-wave (km/s) = 6.86420 7.15797 7.01262
#
# Compressibility (1/GPa) = 0.02073389
#
# Stress axis : x y z
#
# Youngs Moduli (GPa) = 61.74911 37.63767 40.10772
#
# Poissons Ratio (x) = 0.34573 0.22411
# Poissons Ratio (y) = 0.56721 0.34925
# Poissons Ratio (z) = 0.34504 0.32774
#
# Static dielectric constant tensor:
#      x y z
#    x 1.530480 0.000000 0.000000 
#    y 0.000000 1.528520 0.000000 
#    z 0.000000 0.000000 1.513060 
# 
# From -- ./inp_files/25046.got.cif
#   From: 2010.05.17/outbox.cif.g08.bks.cpg/sg59_13_cif.got.tgz:25046.got - 2010.06.03 14:40:33.
