data_PCOD9448177
_publ_section_title
;
Structure prediction by ZEFSAII (Michael W. Deem and Ramdas Pophale) SiO2 
 PCOD9448177
Probable space group: P M M N
;
_chemical_formula_sum "Si O2"
_cell_formula_units_Z 56
_cell_length_a 13.727557
_cell_length_b 10.382337
_cell_length_c 21.380745
_cell_angle_alpha 90.000000
_cell_angle_beta 90.000000
_cell_angle_gamma 90.000000
_cell_volume 3047.271929
_symmetry_space_group_name_H-M "P M M N"
_symmetry_group_IT_number 59
_space_group.IT_coordinate_system_code '2'
_symmetry_cell_setting 'orthorhombic'
loop_
_space_group_symop_operation_xyz
x,y,z
1/2-x,1/2-y,z
1/2+x,-y,-z
-x,1/2+y,-z
-x,-y,-z
1/2+x,1/2+y,-z
1/2-x,y,z
x,1/2-y,z
loop_
_atom_site_type_symbol
_atom_site_label
_atom_site_fract_x
_atom_site_fract_y
_atom_site_fract_z
Si Si1 0.049222 0.598375 0.727766
Si Si2 0.363812 0.110537 0.819872
Si Si3 0.134654 0.599152 0.459262
Si Si4 0.476829 0.599473 0.588812
Si Si5 0.642632 0.594571 0.790953
Si Si6 0.360693 0.970841 0.947477
Si Si7 0.423827 0.104909 0.072968
O O1 0.066618 0.750000 0.742203
O O2 0.098220 0.506365 0.778163
O O3 0.073481 0.574353 0.655667
O O4 0.934669 0.569600 0.737116
O O5 0.250000 0.118455 0.805566
O O6 0.410059 0.250000 0.806421
O O7 0.370064 0.079353 0.893618
O O8 0.250000 0.572487 0.453715
O O9 0.118349 0.750000 0.441464
O O10 0.065782 0.499059 0.422456
O O11 0.098062 0.586725 0.531248
O O12 0.509951 0.750000 0.590220
O O13 0.750000 0.543135 0.779543
O O14 0.647588 0.750000 0.795006
O O15 0.602692 0.551324 0.858636
O O16 0.250000 0.917166 0.941536
O O17 0.459001 0.890773 0.934735
O O18 0.376501 0.025105 0.016955
O O19 0.385570 0.250000 0.068698
#
# Coordination Sequence:
#
# PCOD9448177 Si02
#       7
#     8   8   8   8   8   8   8
#     4  10  20  35  54  80 109 140 179 221 262 307
#     4  10  21  36  53  75 106 143 180 219 267 323
#     4   9  18  34  55  79 108 142 179 217 261 314
#     4   9  19  34  54  80 111 143 177 219 264 310
#     4   9  17  30  49  73 101 132 169 216 266 315
#     4  10  20  33  51  74  99 133 176 221 269 323
#     4  10  19  32  51  74  99 130 172 223 275 323
#
# _framework density 18.377094
#
# number of rings (size 3 to 8) (size 9 to 14) (size 15 to 20)
#    0.000    2.429    1.429    0.857    0.000    4.000 
#    0.000    4.286    0.000    0.429    0.000    0.000 
#    0.000    0.000    0.000    0.000    0.000    0.000 
#
# Total GULP energy -311772.942446 kJ/mol
# GULP energy per Si atom -5567.373972 kJ/mol
# Density = 1.833527 g / cm^3
# Si number density = 18.377094 Si / 1000 Ang^3
#
#
#
# Elastic Constant Matrix: (Units=GPa)
#
#
# Indices 1 2 3 4 5 6 
#
# 1 58.6929 10.4909 -11.6678 0.0000 0.0000 0.0000
# 2 10.4909 56.6697 17.0744 0.0000 0.0000 0.0000
# 3 -11.6678 17.0744 59.5824 0.0000 0.0000 0.0000
# 4 0.0000 0.0000 0.0000 7.8453 0.0000 0.0000
# 5 0.0000 0.0000 0.0000 0.0000 8.4423 0.0000
# 6 0.0000 0.0000 0.0000 0.0000 0.0000 17.3337
#
#
#
# Elastic Compliance Matrix: (Units=1/GPa)
#
#
# Indices 1 2 3 4 5 6 
#
# 1 0.018971 -0.005069 0.005168 0.000000 0.000000 0.000000
# 2 -0.005069 0.020668 -0.006915 0.000000 0.000000 0.000000
# 3 0.005168 -0.006915 0.019777 0.000000 0.000000 0.000000
# 4 0.000000 0.000000 0.000000 0.127466 0.000000 0.000000
# 5 0.000000 0.000000 0.000000 0.000000 0.118451 0.000000
# 6 0.000000 0.000000 0.000000 0.000000 0.000000 0.057691
#
#
# Mechanical properties :
#
#
# Convention : Reuss Voigt Hill
#
# Bulk Modulus (GPa) = 21.84223 22.97111 22.40667
# Shear Modulus (GPa) = 12.75774 17.32742 15.04258
#
# Velocity S-wave (km/s) = 2.63766 3.07397 2.86414
# Velocity P-wave (km/s) = 4.60301 5.01259 4.81216
#
# Compressibility (1/GPa) = 0.04578286
#
# Stress axis : x y z
#
# Youngs Moduli (GPa) = 52.71160 48.38377 50.56330
#
# Poissons Ratio (x) = 0.24526 -0.26129
# Poissons Ratio (y) = 0.26719 0.34967
# Poissons Ratio (z) = -0.27239 0.33460
#
# Static dielectric constant tensor:
#      x y z
#    x 1.654120 0.000000 0.000000 
#    y 0.000000 1.645850 0.000000 
#    z 0.000000 0.000000 1.617150 
# 
# From -- ./inp_files/30089.got.cif
#   From: 2010.05.17/outbox.cif.g08.bks.cpg/sg59_16_cif.got.tgz:30089.got - 2010.06.03 14:40:33.
