data_PCOD9448237
_publ_section_title
;
Structure prediction by ZEFSAII (Michael W. Deem and Ramdas Pophale) SiO2 
 PCOD9448237
Probable space group: P M M N
;
_chemical_formula_sum "Si O2"
_cell_formula_units_Z 64
_cell_length_a 8.643075
_cell_length_b 18.139916
_cell_length_c 23.432400
_cell_angle_alpha 90.000000
_cell_angle_beta 90.000000
_cell_angle_gamma 90.000000
_cell_volume 3673.840738
_symmetry_space_group_name_H-M "P M M N"
_symmetry_group_IT_number 59
_space_group.IT_coordinate_system_code '2'
_symmetry_cell_setting 'orthorhombic'
loop_
_space_group_symop_operation_xyz
x,y,z
1/2-x,1/2-y,z
1/2+x,-y,-z
-x,1/2+y,-z
-x,-y,-z
1/2+x,1/2+y,-z
1/2-x,y,z
x,1/2-y,z
loop_
_atom_site_type_symbol
_atom_site_label
_atom_site_fract_x
_atom_site_fract_y
_atom_site_fract_z
Si Si1 0.563400 0.665919 0.955168
Si Si2 0.435106 0.988915 0.243440
Si Si3 0.933389 0.040380 0.125139
Si Si4 0.934924 0.621754 0.082145
Si Si5 0.936158 0.169721 0.798161
Si Si6 0.564525 0.064494 0.540653
Si Si7 0.564941 0.471066 0.363943
Si Si8 0.061771 0.666882 0.557784
O O1 0.750000 0.658176 0.953791
O O2 0.523929 0.750000 0.941143
O O3 0.490989 0.609017 0.911191
O O4 0.513540 0.648783 0.020191
O O5 0.250000 0.988749 0.248666
O O6 0.490306 0.903829 0.234581
O O7 0.483514 0.030956 0.185850
O O8 0.507535 0.024474 0.299508
O O9 0.750000 0.044456 0.134734
O O10 0.964946 0.965286 0.089834
O O11 0.750000 0.634133 0.086520
O O12 0.013833 0.660379 0.136026
O O13 0.750000 0.168836 0.795661
O O14 0.990387 0.250000 0.777122
O O15 0.750000 0.061080 0.543146
O O16 0.520943 0.138325 0.506016
O O17 0.500000 0.000000 0.500000
O O18 0.497545 0.042537 0.601803
O O19 0.750000 0.471814 0.366315
O O20 0.511728 0.396482 0.397273
O O21 0.250000 0.667930 0.560260
O O22 0.006741 0.750000 0.568976
#
# Coordination Sequence:
#
# PCOD9448237 Si02
#       8
#     8   8   8   8   8   8   8   8
#     4  10  20  33  49  71 100 131 162 200 250 305
#     4  10  20  35  54  72  96 132 170 207 247 294
#     4  10  20  34  52  73  97 127 166 208 249 299
#     4   9  18  32  51  74  98 126 159 197 249 310
#     4   9  18  32  50  73  98 124 159 204 251 299
#     4   9  16  28  49  74 100 129 158 192 236 286
#     4  10  19  32  52  75 100 131 169 209 244 288
#     4   8  15  29  50  76 102 128 161 201 242 281
#
# _framework density 17.420461
#
# number of rings (size 3 to 8) (size 9 to 14) (size 15 to 20)
#    0.000    2.625    0.000    3.000    0.000    2.500 
#    0.000    1.250    0.000   19.500    0.000    0.000 
#    0.000    0.000    0.000    0.000    0.000    0.000 
#
# Total GULP energy -356690.203538 kJ/mol
# GULP energy per Si atom -5573.284430 kJ/mol
# Density = 1.738081 g / cm^3
# Si number density = 17.420461 Si / 1000 Ang^3
#
#
#
# Elastic Constant Matrix: (Units=GPa)
#
#
# Indices 1 2 3 4 5 6 
#
# 1 27.0355 25.4424 14.9647 0.0000 0.0000 0.0000
# 2 25.4424 102.2075 40.3359 0.0000 0.0000 0.0000
# 3 14.9647 40.3359 57.9703 0.0000 0.0000 0.0000
# 4 0.0000 0.0000 0.0000 14.7546 0.0000 0.0000
# 5 0.0000 0.0000 0.0000 0.0000 30.8940 0.0000
# 6 0.0000 0.0000 0.0000 0.0000 0.0000 17.4600
#
#
#
# Elastic Compliance Matrix: (Units=1/GPa)
#
#
# Indices 1 2 3 4 5 6 
#
# 1 0.049688 -0.010073 -0.005818 0.000000 0.000000 0.000000
# 2 -0.010073 0.015530 -0.008205 0.000000 0.000000 0.000000
# 3 -0.005818 -0.008205 0.024461 0.000000 0.000000 0.000000
# 4 0.000000 0.000000 0.000000 0.067775 0.000000 0.000000
# 5 0.000000 0.000000 0.000000 0.000000 0.032369 0.000000
# 6 0.000000 0.000000 0.000000 0.000000 0.000000 0.057274
#
#
# Mechanical properties :
#
#
# Convention : Reuss Voigt Hill
#
# Bulk Modulus (GPa) = 24.10404 38.74437 31.42420
# Shear Modulus (GPa) = 16.17505 19.71975 17.94740
#
# Velocity S-wave (km/s) = 3.05045 3.36815 3.21323
# Velocity P-wave (km/s) = 5.12578 6.11678 5.64308
#
# Compressibility (1/GPa) = 0.04148682
#
# Stress axis : x y z
#
# Youngs Moduli (GPa) = 20.12556 64.39313 40.88073
#
# Poissons Ratio (x) = 0.64861 0.23785
# Poissons Ratio (y) = 0.20272 0.33544
# Poissons Ratio (z) = 0.11709 0.52837
#
# Static dielectric constant tensor:
#      x y z
#    x 1.591530 0.000000 0.000000 
#    y 0.000000 1.612750 0.000000 
#    z 0.000000 0.000000 1.564320 
# 
# From -- ./inp_files/29428.got.cif
#   From: 2010.05.17/outbox.cif.g08.bks.cpg/sg59_15_cif.got.tgz:29428.got - 2010.06.03 14:40:33.
