data_PCOD9448315
_publ_section_title
;
Structure prediction by ZEFSAII (Michael W. Deem and Ramdas Pophale) SiO2 
 PCOD9448315
Probable space group: P M M N
;
_chemical_formula_sum "Si O2"
_cell_formula_units_Z 48
_cell_length_a 15.273507
_cell_length_b 9.372422
_cell_length_c 17.643165
_cell_angle_alpha 90.000000
_cell_angle_beta 90.000000
_cell_angle_gamma 90.000000
_cell_volume 2525.614712
_symmetry_space_group_name_H-M "P M M N"
_symmetry_group_IT_number 59
_space_group.IT_coordinate_system_code '2'
_symmetry_cell_setting 'orthorhombic'
loop_
_space_group_symop_operation_xyz
x,y,z
1/2-x,1/2-y,z
1/2+x,-y,-z
-x,1/2+y,-z
-x,-y,-z
1/2+x,1/2+y,-z
1/2-x,y,z
x,1/2-y,z
loop_
_atom_site_type_symbol
_atom_site_label
_atom_site_fract_x
_atom_site_fract_y
_atom_site_fract_z
Si Si1 0.643918 0.914936 0.638699
Si Si2 0.857175 0.086635 0.490942
Si Si3 0.397880 0.081960 0.189723
Si Si4 0.750000 0.421793 0.902060
Si Si5 0.356278 0.085842 0.657716
Si Si6 0.098194 0.918650 0.809791
Si Si7 0.250000 0.922850 0.923278
O O1 0.750000 0.921173 0.643251
O O2 0.619769 0.750000 0.624005
O O3 0.608723 0.956388 0.721172
O O4 0.615159 0.012748 0.569180
O O5 0.750000 0.085852 0.491052
O O6 0.885964 0.250000 0.486009
O O7 0.885230 0.997175 0.417687
O O8 0.372735 0.250000 0.184401
O O9 0.498087 0.066556 0.165208
O O10 0.333542 0.986231 0.140902
O O11 0.750000 0.250000 0.898549
O O12 0.750000 0.469485 0.989853
O O13 0.250000 0.084872 0.657859
O O14 0.385225 0.250000 0.656648
O O15 0.386228 0.005325 0.733076
O O16 0.114117 0.750000 0.794125
O O17 0.165295 0.966295 0.874775
O O18 0.250000 0.750000 0.925473
#
# Coordination Sequence:
#
# PCOD9448315 Si02
#       7
#     8   8   8   4   8   8   4
#     4   9  16  30  51  74 107 144 182 233 287 332
#     4   9  17  28  47  77 109 145 193 235 276 333
#     4  10  21  38  60  87 115 150 193 236 286 342
#     4  11  23  39  61  86 117 152 185 229 288 347
#     4  10  19  32  52  80 115 151 190 236 288 336
#     4  10  20  37  62  85 113 152 193 236 284 342
#     4   9  20  39  61  88 117 148 185 231 288 343
#
# _framework density 19.005274
#
# number of rings (size 3 to 8) (size 9 to 14) (size 15 to 20)
#    0.000    2.333    1.667    1.250    0.000    4.667 
#    0.000    2.500    0.000    0.000    0.000    0.000 
#    0.000    0.000    0.000    0.000    0.000    0.000 
#
# Total GULP energy -268067.708022 kJ/mol
# GULP energy per Si atom -5584.743917 kJ/mol
# Density = 1.896202 g / cm^3
# Si number density = 19.005274 Si / 1000 Ang^3
#
#
#
# Elastic Constant Matrix: (Units=GPa)
#
#
# Indices 1 2 3 4 5 6 
#
# 1 59.3996 50.7301 55.9602 0.0000 0.0000 0.0000
# 2 50.7301 107.1663 90.5330 0.0000 0.0000 0.0000
# 3 55.9602 90.5330 162.8923 0.0000 0.0000 0.0000
# 4 0.0000 0.0000 0.0000 17.2081 0.0000 0.0000
# 5 0.0000 0.0000 0.0000 0.0000 -13.8344 0.0000
# 6 0.0000 0.0000 0.0000 0.0000 0.0000 12.3735
#
#
#
# Elastic Compliance Matrix: (Units=1/GPa)
#
#
# Indices 1 2 3 4 5 6 
#
# 1 0.029942 -0.010338 -0.004541 0.000000 0.000000 0.000000
# 2 -0.010338 0.021160 -0.008209 0.000000 0.000000 0.000000
# 3 -0.004541 -0.008209 0.012261 0.000000 0.000000 0.000000
# 4 0.000000 0.000000 0.000000 0.058112 0.000000 0.000000
# 5 0.000000 0.000000 0.000000 0.000000 -0.072284 0.000000
# 6 0.000000 0.000000 0.000000 0.000000 0.000000 0.080818
#
#
# Mechanical properties :
#
#
# Convention : Reuss Voigt Hill
#
# Bulk Modulus (GPa) = 58.17929 80.43387 69.30658
# Shear Modulus (GPa) = 27.48557 11.96508 19.72532
#
# Velocity S-wave (km/s) = 3.80703 2.51184 3.22512
# Velocity P-wave (km/s) = 7.07130 7.12925 7.10033
#
# Compressibility (1/GPa) = 0.01718825
#
# Stress axis : x y z
#
# Youngs Moduli (GPa) = 33.39793 47.25967 81.55813
#
# Poissons Ratio (x) = 0.48857 0.37032
# Poissons Ratio (y) = 0.34527 0.66949
# Poissons Ratio (z) = 0.15165 0.38794
#
# Static dielectric constant tensor:
#      x y z
#    x 1.683610 0.000000 0.000000 
#    y 0.000000 1.642320 0.000000 
#    z 0.000000 0.000000 1.620760 
# 
# From -- ./inp_files/27476.got.cif
#   From: 2010.05.17/outbox.cif.g08.bks.cpg/sg59_14_cif.got.tgz:27476.got - 2010.06.03 14:40:33.
