data_PCOD9448411
_publ_section_title
;
Structure prediction by ZEFSAII (Michael W. Deem and Ramdas Pophale) SiO2 
 PCOD9448411
Probable space group: P M M N
;
_chemical_formula_sum "Si O2"
_cell_formula_units_Z 64
_cell_length_a 18.255433
_cell_length_b 8.663657
_cell_length_c 22.186705
_cell_angle_alpha 90.000000
_cell_angle_beta 90.000000
_cell_angle_gamma 90.000000
_cell_volume 3509.022858
_symmetry_space_group_name_H-M "P M M N"
_symmetry_group_IT_number 59
_space_group.IT_coordinate_system_code '2'
_symmetry_cell_setting 'orthorhombic'
loop_
_space_group_symop_operation_xyz
x,y,z
1/2-x,1/2-y,z
1/2+x,-y,-z
-x,1/2+y,-z
-x,-y,-z
1/2+x,1/2+y,-z
1/2-x,y,z
x,1/2-y,z
loop_
_atom_site_type_symbol
_atom_site_label
_atom_site_fract_x
_atom_site_fract_y
_atom_site_fract_z
Si Si1 0.595745 0.935033 0.625557
Si Si2 0.834013 0.063775 0.274277
Si Si3 0.332113 0.065374 0.123900
Si Si4 0.334189 0.936152 0.494169
Si Si5 0.894285 0.434665 0.755148
Si Si6 0.549906 0.564773 0.186893
Si Si7 0.926893 0.062009 0.390616
Si Si8 0.524228 0.434895 0.936092
O O1 0.597030 0.750000 0.628985
O O2 0.511194 0.986501 0.615298
O O3 0.642603 0.991814 0.569119
O O4 0.622177 0.003791 0.688900
O O5 0.750000 0.010332 0.275122
O O6 0.833447 0.250000 0.275526
O O7 0.878771 0.010775 0.333427
O O8 0.879012 0.009409 0.216219
O O9 0.250000 0.022456 0.104898
O O10 0.339063 0.250000 0.122217
O O11 0.345957 0.008057 0.192060
O O12 0.395402 0.992031 0.083209
O O13 0.250000 0.973870 0.509318
O O14 0.339388 0.750000 0.489688
O O15 0.388459 0.988151 0.547476
O O16 0.887533 0.250000 0.757525
O O17 0.978494 0.475639 0.772708
O O18 0.557090 0.750000 0.187886
O O19 0.529519 0.516645 0.118885
O O20 0.926343 0.250000 0.390499
O O21 0.524210 0.250000 0.937616
O O22 0.500000 0.500000 0.000000
#
# Coordination Sequence:
#
# PCOD9448411 Si02
#       8
#     8   8   8   8   8   8   8   8
#     4  11  21  34  55  80 106 138 178 229 282 332
#     4  10  19  32  54  82 109 139 179 225 272 326
#     4  10  21  37  59  88 120 152 188 234 286 334
#     4  10  21  37  54  72 101 141 181 225 278 334
#     4  10  20  35  56  81 109 144 184 225 274 334
#     4   9  19  35  54  79 111 142 176 220 269 322
#     4   9  18  34  55  78 102 136 181 225 273 330
#     4  10  21  38  61  88 117 155 197 235 277 326
#
# _framework density 18.238695
#
# number of rings (size 3 to 8) (size 9 to 14) (size 15 to 20)
#    0.000    2.125    1.250    3.000    0.000    6.000 
#    0.000    1.875    0.000    2.250    0.000    0.000 
#    0.000    0.000    0.000    0.000    0.000    0.000 
#
# Total GULP energy -357331.059330 kJ/mol
# GULP energy per Si atom -5583.297802 kJ/mol
# Density = 1.819718 g / cm^3
# Si number density = 18.238695 Si / 1000 Ang^3
#
#
#
# Elastic Constant Matrix: (Units=GPa)
#
#
# Indices 1 2 3 4 5 6 
#
# 1 49.4897 14.8015 21.6119 0.0000 0.0000 0.0000
# 2 14.8015 22.6473 20.5910 0.0000 0.0000 0.0000
# 3 21.6119 20.5910 122.7093 0.0000 0.0000 0.0000
# 4 0.0000 0.0000 0.0000 27.2555 0.0000 0.0000
# 5 0.0000 0.0000 0.0000 0.0000 18.0100 0.0000
# 6 0.0000 0.0000 0.0000 0.0000 0.0000 23.7581
#
#
#
# Elastic Compliance Matrix: (Units=1/GPa)
#
#
# Indices 1 2 3 4 5 6 
#
# 1 0.025526 -0.014863 -0.002002 0.000000 0.000000 0.000000
# 2 -0.014863 0.060759 -0.007578 0.000000 0.000000 0.000000
# 3 -0.002002 -0.007578 0.009773 0.000000 0.000000 0.000000
# 4 0.000000 0.000000 0.000000 0.036690 0.000000 0.000000
# 5 0.000000 0.000000 0.000000 0.000000 0.055525 0.000000
# 6 0.000000 0.000000 0.000000 0.000000 0.000000 0.042091
#
#
# Mechanical properties :
#
#
# Convention : Reuss Voigt Hill
#
# Bulk Modulus (GPa) = 21.19833 34.31724 27.75779
# Shear Modulus (GPa) = 16.95075 22.99420 19.97247
#
# Velocity S-wave (km/s) = 3.05189 3.55454 3.31276
# Velocity P-wave (km/s) = 4.90578 5.97518 5.46669
#
# Compressibility (1/GPa) = 0.04717352
#
# Stress axis : x y z
#
# Youngs Moduli (GPa) = 39.17650 16.45846 102.31785
#
# Poissons Ratio (x) = 0.24462 0.20480
# Poissons Ratio (y) = 0.58227 0.77535
# Poissons Ratio (z) = 0.07842 0.12472
#
# Static dielectric constant tensor:
#      x y z
#    x 1.621420 0.000000 0.000000 
#    y 0.000000 1.613740 0.000000 
#    z 0.000000 0.000000 1.601860 
# 
# From -- ./inp_files/30729.got.cif
#   From: 2010.05.17/outbox.cif.g08.bks.cpg/sg59_16_cif.got.tgz:30729.got - 2010.06.03 14:40:33.
