data_PCOD9448921
_publ_section_title
;
Structure prediction by ZEFSAII (Michael W. Deem and Ramdas Pophale) SiO2 
 PCOD9448921
Probable space group: P M M N
;
_chemical_formula_sum "Si O2"
_cell_formula_units_Z 48
_cell_length_a 8.573089
_cell_length_b 16.018859
_cell_length_c 19.370774
_cell_angle_alpha 90.000000
_cell_angle_beta 90.000000
_cell_angle_gamma 90.000000
_cell_volume 2660.209777
_symmetry_space_group_name_H-M "P M M N"
_symmetry_group_IT_number 59
_space_group.IT_coordinate_system_code '2'
_symmetry_cell_setting 'orthorhombic'
loop_
_space_group_symop_operation_xyz
x,y,z
1/2-x,1/2-y,z
1/2+x,-y,-z
-x,1/2+y,-z
-x,-y,-z
1/2+x,1/2+y,-z
1/2-x,y,z
x,1/2-y,z
loop_
_atom_site_type_symbol
_atom_site_label
_atom_site_fract_x
_atom_site_fract_y
_atom_site_fract_z
Si Si1 0.934124 0.750000 0.804006
Si Si2 0.066251 0.844952 0.431696
Si Si3 0.438559 0.930935 0.948201
Si Si4 0.067764 0.750000 0.953913
Si Si5 0.066638 0.492593 0.659146
Si Si6 0.065022 0.435944 0.207474
Si Si7 0.435205 0.155081 0.415899
O O1 0.750000 0.750000 0.825269
O O2 0.960458 0.839026 0.768688
O O3 0.042664 0.750000 0.871276
O O4 0.250000 0.852765 0.448113
O O5 0.039195 0.750000 0.406166
O O6 0.970889 0.854786 0.502675
O O7 0.018914 0.915912 0.378013
O O8 0.250000 0.930691 0.945750
O O9 0.496051 0.839856 0.975110
O O10 0.502205 0.942907 0.870510
O O11 0.500000 0.000000 0.000000
O O12 0.250000 0.750000 0.971172
O O13 0.250000 0.480150 0.652785
O O14 0.017431 0.503855 0.738597
O O15 0.018387 0.579230 0.622354
O O16 0.250000 0.450525 0.207883
O O17 0.250000 0.149142 0.403148
O O18 0.485372 0.250000 0.396976
#
# Coordination Sequence:
#
# PCOD9448921 Si02
#       7
#     4   8   8   4   8   8   8
#     4   8  16  30  50  74 104 138 171 210 261 318
#     4  10  21  39  61  81 104 140 187 234 279 328
#     4  10  19  34  56  82 111 145 181 223 270 323
#     4   8  16  30  50  76 106 138 173 208 255 314
#     4  12  24  36  54  81 114 148 183 226 276 331
#     4  10  20  35  54  80 111 145 183 224 272 328
#     4  10  21  37  57  82 113 147 184 227 274 325
#
# _framework density 18.043690999999999
#
# number of rings (size 3 to 8) (size 9 to 14) (size 15 to 20)
#    0.000    2.000    0.000    4.000    1.167    3.333 
#    0.000    0.000    1.833    0.000    0.000    0.000 
#    0.000    0.000    0.000    0.000    0.000    0.000 
#
# Total GULP energy -267821.407120 kJ/mol
# GULP energy per Si atom -5579.612648 kJ/mol
# Density = 1.800262 g / cm^3
# Si number density = 18.043691 Si / 1000 Ang^3
#
#
#
# Elastic Constant Matrix: (Units=GPa)
#
#
# Indices 1 2 3 4 5 6 
#
# 1 38.1317 10.2965 0.5182 0.0000 0.0000 0.0000
# 2 10.2965 100.6206 46.3260 0.0000 0.0000 0.0000
# 3 0.5182 46.3260 59.9020 0.0000 0.0000 0.0000
# 4 0.0000 0.0000 0.0000 27.9411 0.0000 0.0000
# 5 0.0000 0.0000 0.0000 0.0000 29.4701 0.0000
# 6 0.0000 0.0000 0.0000 0.0000 0.0000 22.2074
#
#
#
# Elastic Compliance Matrix: (Units=1/GPa)
#
#
# Indices 1 2 3 4 5 6 
#
# 1 0.027311 -0.004171 0.002989 0.000000 0.000000 0.000000
# 2 -0.004171 0.016071 -0.012392 0.000000 0.000000 0.000000
# 3 0.002989 -0.012392 0.026252 0.000000 0.000000 0.000000
# 4 0.000000 0.000000 0.000000 0.035790 0.000000 0.000000
# 5 0.000000 0.000000 0.000000 0.000000 0.033933 0.000000
# 6 0.000000 0.000000 0.000000 0.000000 0.000000 0.045030
#
#
# Mechanical properties :
#
#
# Convention : Reuss Voigt Hill
#
# Bulk Modulus (GPa) = 23.53760 34.77063 29.15411
# Shear Modulus (GPa) = 22.15380 25.35797 23.75589
#
# Velocity S-wave (km/s) = 3.50778 3.75289 3.63240
# Velocity P-wave (km/s) = 5.42947 6.17179 5.81249
#
# Compressibility (1/GPa) = 0.04248522
#
# Stress axis : x y z
#
# Youngs Moduli (GPa) = 36.61590 62.22540 38.09254
#
# Poissons Ratio (x) = 0.25954 -0.11388
# Poissons Ratio (y) = 0.15273 0.47206
# Poissons Ratio (z) = -0.10946 0.77112
#
# Static dielectric constant tensor:
#      x y z
#    x 1.609560 0.000000 0.000000 
#    y 0.000000 1.637900 0.000000 
#    z 0.000000 0.000000 1.592140 
# 
# From -- ./inp_files/25515.got.cif
#   From: 2010.05.17/outbox.cif.g08.bks.cpg/sg59_13_cif.got.tgz:25515.got - 2010.06.03 14:40:33.
