data_PCOD9448099
_publ_section_title
;
Structure prediction by ZEFSAII (Michael W. Deem and Ramdas Pophale) SiO2 
 PCOD9448099
Probable space group: P M M N
;
_chemical_formula_sum "Si O2"
_cell_formula_units_Z 64
_cell_length_a 18.860319
_cell_length_b 7.467855
_cell_length_c 20.640765
_cell_angle_alpha 90.000000
_cell_angle_beta 90.000000
_cell_angle_gamma 90.000000
_cell_volume 2907.171820
_symmetry_space_group_name_H-M "P M M N"
_symmetry_group_IT_number 59
_space_group.IT_coordinate_system_code '2'
_symmetry_cell_setting 'orthorhombic'
loop_
_space_group_symop_operation_xyz
x,y,z
1/2-x,1/2-y,z
1/2+x,-y,-z
-x,1/2+y,-z
-x,-y,-z
1/2+x,1/2+y,-z
1/2-x,y,z
x,1/2-y,z
loop_
_atom_site_type_symbol
_atom_site_label
_atom_site_fract_x
_atom_site_fract_y
_atom_site_fract_z
Si Si1 0.909784 0.545193 0.641082
Si Si2 0.671359 0.032755 0.298506
Si Si3 0.669795 0.969824 0.518566
Si Si4 0.061169 0.043452 0.590165
Si Si5 0.668308 0.968094 0.895847
Si Si6 0.594734 0.463153 0.172678
Si Si7 0.169566 0.464293 0.959865
Si Si8 0.060473 0.029736 0.215024
O O1 0.887117 0.750000 0.651672
O O2 0.854061 0.468758 0.589871
O O3 0.920595 0.466922 0.712573
O O4 0.986387 0.545530 0.605913
O O5 0.750000 0.972244 0.317354
O O6 0.670735 0.250000 0.301073
O O7 0.651883 0.974325 0.225687
O O8 0.610768 0.967764 0.346623
O O9 0.750000 0.024439 0.502201
O O10 0.668664 0.750000 0.517260
O O11 0.610206 0.029918 0.467501
O O12 0.044893 0.250000 0.575487
O O13 0.750000 0.021088 0.885842
O O14 0.666667 0.750000 0.895322
O O15 0.617184 0.027017 0.838619
O O16 0.646956 0.026842 0.968481
O O17 0.591585 0.250000 0.180179
O O18 0.618546 0.496008 0.099623
O O19 0.517410 0.530896 0.192826
O O20 0.250000 0.530657 0.947066
O O21 0.173819 0.250000 0.963921
O O22 0.059222 0.250000 0.216561
#
# Coordination Sequence:
#
# PCOD9448099 Si02
#       8
#     8   8   8   8   8   8   8   8
#     4  10  19  35  57  77 104 139 174 214 257 308
#     4  10  20  34  52  74 102 138 177 213 252 301
#     4   9  19  34  53  80 108 133 169 219 266 303
#     4  11  21  34  53  77 108 141 171 210 258 310
#     4   8  15  29  49  74 102 130 164 209 257 301
#     4  10  19  32  49  72 103 133 166 209 254 301
#     4   9  18  32  49  71 101 134 168 207 251 302
#     4   9  17  30  50  74 100 131 167 209 252 296
#
# _framework density 22.014523000000001
#
# number of rings (size 3 to 8) (size 9 to 14) (size 15 to 20)
#    0.000    2.500    1.250    2.250    0.000    3.000 
#    0.000    3.125    0.000    2.625    0.000    0.000 
#    0.000    0.000    0.000    0.000    0.000    0.000 
#
# Total GULP energy -357414.546795 kJ/mol
# GULP energy per Si atom -5584.602294 kJ/mol
# Density = 2.196442 g / cm^3
# Si number density = 22.014523 Si / 1000 Ang^3
#
#
#
# Elastic Constant Matrix: (Units=GPa)
#
#
# Indices 1 2 3 4 5 6 
#
# 1 31.8108 -8.6219 33.1318 0.0000 0.0000 0.0000
# 2 -8.6219 61.2670 -5.3113 0.0000 0.0000 0.0000
# 3 33.1318 -5.3113 141.3462 0.0000 0.0000 0.0000
# 4 0.0000 0.0000 0.0000 7.8068 0.0000 0.0000
# 5 0.0000 0.0000 0.0000 0.0000 48.0589 0.0000
# 6 0.0000 0.0000 0.0000 0.0000 0.0000 1.1677
#
#
#
# Elastic Compliance Matrix: (Units=1/GPa)
#
#
# Indices 1 2 3 4 5 6 
#
# 1 0.043190 0.005217 -0.009928 0.000000 0.000000 0.000000
# 2 0.005217 0.017006 -0.000584 0.000000 0.000000 0.000000
# 3 -0.009928 -0.000584 0.009380 0.000000 0.000000 0.000000
# 4 0.000000 0.000000 0.000000 0.128093 0.000000 0.000000
# 5 0.000000 0.000000 0.000000 0.000000 0.020808 0.000000
# 6 0.000000 0.000000 0.000000 0.000000 0.000000 0.856386
#
#
# Mechanical properties :
#
#
# Convention : Reuss Voigt Hill
#
# Bulk Modulus (GPa) = 16.95293 30.31349 23.63321
# Shear Modulus (GPa) = 4.52442 25.75504 15.13973
#
# Velocity S-wave (km/s) = 1.43515 3.42411 2.62528
# Velocity P-wave (km/s) = 3.23477 5.42516 4.46632
#
# Compressibility (1/GPa) = 0.05898684
#
# Stress axis : x y z
#
# Youngs Moduli (GPa) = 23.15348 58.80421 106.61006
#
# Poissons Ratio (x) = -0.30680 1.05840
# Poissons Ratio (y) = -0.12080 0.06226
# Poissons Ratio (z) = 0.22986 0.03434
#
# Static dielectric constant tensor:
#      x y z
#    x 1.764110 0.000000 0.000000 
#    y 0.000000 1.875120 0.000000 
#    z 0.000000 0.000000 1.798000 
# 
# From -- ./inp_files/30815.got.cif
#   From: 2010.05.17/outbox.cif.g08.bks.cpg/sg59_16_cif.got.tgz:30815.got - 2010.06.03 14:40:33.
