data_PCOD9448970
_publ_section_title
;
Structure prediction by ZEFSAII (Michael W. Deem and Ramdas Pophale) SiO2 
 PCOD9448970
Probable space group: P M M N
;
_chemical_formula_sum "Si O2"
_cell_formula_units_Z 64
_cell_length_a 18.107647
_cell_length_b 8.752036
_cell_length_c 21.986225
_cell_angle_alpha 90.000000
_cell_angle_beta 90.000000
_cell_angle_gamma 90.000000
_cell_volume 3484.350080
_symmetry_space_group_name_H-M "P M M N"
_symmetry_group_IT_number 59
_space_group.IT_coordinate_system_code '2'
_symmetry_cell_setting 'orthorhombic'
loop_
_space_group_symop_operation_xyz
x,y,z
1/2-x,1/2-y,z
1/2+x,-y,-z
-x,1/2+y,-z
-x,-y,-z
1/2+x,1/2+y,-z
1/2-x,y,z
x,1/2-y,z
loop_
_atom_site_type_symbol
_atom_site_label
_atom_site_fract_x
_atom_site_fract_y
_atom_site_fract_z
Si Si1 0.022915 0.931964 0.564257
Si Si2 0.546946 0.566966 0.690722
Si Si3 0.164601 0.432479 0.000265
Si Si4 0.433386 0.932978 0.107120
Si Si5 0.902701 0.068351 0.119562
Si Si6 0.832743 0.933240 0.377114
Si Si7 0.098467 0.431990 0.751707
Si Si8 0.335446 0.933823 0.225306
O O1 0.021834 0.750000 0.560385
O O2 0.969681 0.976927 0.620803
O O3 0.103940 0.987822 0.583897
O O4 0.000000 0.000000 0.500000
O O5 0.540845 0.750000 0.695939
O O6 0.482293 0.490184 0.730928
O O7 0.623943 0.510152 0.717658
O O8 0.250000 0.468602 0.014643
O O9 0.154640 0.250000 0.004266
O O10 0.144784 0.488817 0.932891
O O11 0.109971 0.514473 0.047228
O O12 0.444278 0.750000 0.106691
O O13 0.382382 0.973547 0.165098
O O14 0.512489 0.013596 0.111627
O O15 0.898234 0.250000 0.113902
O O16 0.878965 0.014478 0.186580
O O17 0.750000 0.981149 0.392911
O O18 0.838808 0.750000 0.384825
O O19 0.849494 0.964425 0.306029
O O20 0.095636 0.250000 0.761722
O O21 0.250000 0.979107 0.219211
O O22 0.338442 0.750000 0.231701
#
# Coordination Sequence:
#
# PCOD9448970 Si02
#       8
#     8   8   8   8   8   8   8   8
#     4  10  21  37  59  87 117 155 199 239 283 336
#     4  10  20  35  56  83 114 147 187 233 280 334
#     4  11  25  43  60  80 110 149 192 239 293 350
#     4  11  22  39  62  85 112 148 191 237 288 345
#     4  12  24  38  59  86 115 149 192 239 287 342
#     4   9  19  36  59  87 119 154 192 237 288 341
#     4  10  19  34  57  84 114 150 189 230 282 341
#     4  10  21  36  57  85 115 149 188 232 285 343
#
# _framework density 18.367846
#
# number of rings (size 3 to 8) (size 9 to 14) (size 15 to 20)
#    0.000    1.625    1.250    3.750    0.000    5.000 
#    0.000    1.875    0.000    0.750    0.000    0.000 
#    0.000    0.000    0.000    0.000    0.000    0.000 
#
# Total GULP energy -357665.379714 kJ/mol
# GULP energy per Si atom -5588.521558 kJ/mol
# Density = 1.832604 g / cm^3
# Si number density = 18.367846 Si / 1000 Ang^3
#
#
#
# Elastic Constant Matrix: (Units=GPa)
#
#
# Indices 1 2 3 4 5 6 
#
# 1 34.8049 6.1743 4.2334 0.0000 0.0000 0.0000
# 2 6.1743 26.8322 11.6716 0.0000 0.0000 0.0000
# 3 4.2334 11.6716 94.8539 0.0000 0.0000 0.0000
# 4 0.0000 0.0000 0.0000 35.2332 0.0000 0.0000
# 5 0.0000 0.0000 0.0000 0.0000 16.2381 0.0000
# 6 0.0000 0.0000 0.0000 0.0000 0.0000 24.0068
#
#
#
# Elastic Compliance Matrix: (Units=1/GPa)
#
#
# Indices 1 2 3 4 5 6 
#
# 1 0.029978 -0.006673 -0.000517 0.000000 0.000000 0.000000
# 2 -0.006673 0.040862 -0.004730 0.000000 0.000000 0.000000
# 3 -0.000517 -0.004730 0.011148 0.000000 0.000000 0.000000
# 4 0.000000 0.000000 0.000000 0.028382 0.000000 0.000000
# 5 0.000000 0.000000 0.000000 0.000000 0.061584 0.000000
# 6 0.000000 0.000000 0.000000 0.000000 0.000000 0.041655
#
#
# Mechanical properties :
#
#
# Convention : Reuss Voigt Hill
#
# Bulk Modulus (GPa) = 17.19778 22.29440 19.74609
# Shear Modulus (GPa) = 19.46800 24.05639 21.76219
#
# Velocity S-wave (km/s) = 3.25914 3.62291 3.44582
# Velocity P-wave (km/s) = 4.85241 5.44653 5.15803
#
# Compressibility (1/GPa) = 0.05814705
#
# Stress axis : x y z
#
# Youngs Moduli (GPa) = 33.35745 24.47269 89.70510
#
# Poissons Ratio (x) = 0.16332 0.04636
# Poissons Ratio (y) = 0.22261 0.42432
# Poissons Ratio (z) = 0.01724 0.11576
#
# Static dielectric constant tensor:
#      x y z
#    x 1.616490 0.000000 0.000000 
#    y 0.000000 1.612990 0.000000 
#    z 0.000000 0.000000 1.623450 
# 
# From -- ./inp_files/29534.got.cif
#   From: 2010.05.17/outbox.cif.g08.bks.cpg/sg59_15_cif.got.tgz:29534.got - 2010.06.03 14:40:33.
