data_PCOD9448858
_publ_section_title
;
Structure prediction by ZEFSAII (Michael W. Deem and Ramdas Pophale) SiO2 
 PCOD9448858
Probable space group: P M M N
;
_chemical_formula_sum "Si O2"
_cell_formula_units_Z 56
_cell_length_a 7.578730
_cell_length_b 21.404044
_cell_length_c 16.587537
_cell_angle_alpha 90.000000
_cell_angle_beta 90.000000
_cell_angle_gamma 90.000000
_cell_volume 2690.755117
_symmetry_space_group_name_H-M "P M M N"
_symmetry_group_IT_number 59
_space_group.IT_coordinate_system_code '2'
_symmetry_cell_setting 'orthorhombic'
loop_
_space_group_symop_operation_xyz
x,y,z
1/2-x,1/2-y,z
1/2+x,-y,-z
-x,1/2+y,-z
-x,-y,-z
1/2+x,1/2+y,-z
1/2-x,y,z
x,1/2-y,z
loop_
_atom_site_type_symbol
_atom_site_label
_atom_site_fract_x
_atom_site_fract_y
_atom_site_fract_z
Si Si1 0.038076 0.496601 0.905136
Si Si2 0.464266 0.076983 0.434701
Si Si3 0.042704 0.060957 0.614473
Si Si4 0.463709 0.320247 0.310492
Si Si5 0.038772 0.111442 0.785129
Si Si6 0.040523 0.750000 0.154894
Si Si7 0.032808 0.750000 0.970534
Si Si8 0.956386 0.132790 0.133697
O O1 0.250000 0.495311 0.895921
O O2 0.972029 0.435820 0.855636
O O3 0.968594 0.562954 0.871957
O O4 0.000000 0.500000 0.000000
O O5 0.250000 0.074481 0.437287
O O6 0.529979 0.080858 0.526835
O O7 0.521721 0.134877 0.381666
O O8 0.524555 0.013848 0.390404
O O9 0.250000 0.077101 0.613616
O O10 0.969341 0.089463 0.697293
O O11 0.250000 0.321178 0.308519
O O12 0.523130 0.250000 0.323371
O O13 0.527257 0.343763 0.224368
O O14 0.250000 0.103368 0.782820
O O15 0.008110 0.184442 0.803212
O O16 0.250000 0.750000 0.149710
O O17 0.973069 0.750000 0.062828
O O18 0.250000 0.750000 0.967910
O O19 0.971795 0.687257 0.924520
O O20 0.750000 0.127308 0.112086
#
# Coordination Sequence:
#
# PCOD9448858 Si02
#       8
#     8   8   8   8   8   4   4   8
#     4  10  21  35  54  80 111 141 178 227 271 318
#     4   9  18  33  54  81 109 139 174 216 263 311
#     4   9  18  35  58  81 104 138 180 217 262 316
#     4  10  20  33  48  75 112 141 171 212 260 313
#     4  10  21  38  56  80 110 142 182 227 273 323
#     4  11  23  39  59  78 101 138 182 229 277 325
#     4   9  18  33  53  76 103 138 180 221 261 311
#     4  10  19  34  55  78 105 141 181 217 258 315
#
# _framework density 20.812000999999999
#
# number of rings (size 3 to 8) (size 9 to 14) (size 15 to 20)
#    0.000    2.286    0.714    1.929    0.000    4.571 
#    1.286    1.429    0.000    0.000    0.000    0.000 
#    0.000    0.000    0.000    0.000    0.000    0.000 
#
# Total GULP energy -312531.510846 kJ/mol
# GULP energy per Si atom -5580.919837 kJ/mol
# Density = 2.076463 g / cm^3
# Si number density = 20.812001 Si / 1000 Ang^3
#
#
#
# Elastic Constant Matrix: (Units=GPa)
#
#
# Indices 1 2 3 4 5 6 
#
# 1 44.6655 -5.8384 -3.2362 0.0000 0.0000 0.0000
# 2 -5.8384 182.7082 125.8229 0.0000 0.0000 0.0000
# 3 -3.2362 125.8229 158.9753 0.0000 0.0000 0.0000
# 4 0.0000 0.0000 0.0000 37.5904 0.0000 0.0000
# 5 0.0000 0.0000 0.0000 0.0000 15.6892 0.0000
# 6 0.0000 0.0000 0.0000 0.0000 0.0000 -20.5574
#
#
#
# Elastic Compliance Matrix: (Units=1/GPa)
#
#
# Indices 1 2 3 4 5 6 
#
# 1 0.022487 0.000886 -0.000244 0.000000 0.000000 0.000000
# 2 0.000886 0.012065 -0.009531 0.000000 0.000000 0.000000
# 3 -0.000244 -0.009531 0.013829 0.000000 0.000000 0.000000
# 4 0.000000 0.000000 0.000000 0.026603 0.000000 0.000000
# 5 0.000000 0.000000 0.000000 0.000000 0.063738 0.000000
# 6 0.000000 0.000000 0.000000 0.000000 0.000000 -0.048644
#
#
# Mechanical properties :
#
#
# Convention : Reuss Voigt Hill
#
# Bulk Modulus (GPa) = 32.67554 68.87174 50.77364
# Shear Modulus (GPa) = 42.35296 24.51781 33.43538
#
# Velocity S-wave (km/s) = 4.51602 3.43601 4.01252
# Velocity P-wave (km/s) = 6.55187 6.99326 6.77616
#
# Compressibility (1/GPa) = 0.03060394
#
# Stress axis : x y z
#
# Youngs Moduli (GPa) = 44.47043 82.88332 72.31286
#
# Poissons Ratio (x) = -0.07348 0.01763
# Poissons Ratio (y) = -0.03942 0.68922
# Poissons Ratio (z) = 0.01084 0.78997
#
# Static dielectric constant tensor:
#      x y z
#    x 1.787320 0.000000 0.000000 
#    y 0.000000 1.898330 0.000000 
#    z 0.000000 0.000000 1.729420 
# 
# From -- ./inp_files/21154.got.cif
#   From: 2010.05.17/outbox.cif.g08.bks.cpg/sg59_11_cif.got.tgz:21154.got - 2010.06.03 14:40:33.
