data_PCOD9448432
_publ_section_title
;
Structure prediction by ZEFSAII (Michael W. Deem and Ramdas Pophale) SiO2 
 PCOD9448432
Probable space group: P M M N
;
_chemical_formula_sum "Si O2"
_cell_formula_units_Z 48
_cell_length_a 18.857861
_cell_length_b 9.301435
_cell_length_c 15.039534
_cell_angle_alpha 90.000000
_cell_angle_beta 90.000000
_cell_angle_gamma 90.000000
_cell_volume 2638.011993
_symmetry_space_group_name_H-M "P M M N"
_symmetry_group_IT_number 59
_space_group.IT_coordinate_system_code '2'
_symmetry_cell_setting 'orthorhombic'
loop_
_space_group_symop_operation_xyz
x,y,z
1/2-x,1/2-y,z
1/2+x,-y,-z
-x,1/2+y,-z
-x,-y,-z
1/2+x,1/2+y,-z
1/2-x,y,z
x,1/2-y,z
loop_
_atom_site_type_symbol
_atom_site_label
_atom_site_fract_x
_atom_site_fract_y
_atom_site_fract_z
Si Si1 0.901482 0.918758 0.951267
Si Si2 0.939635 0.079914 0.122166
Si Si3 0.332088 0.082024 0.229159
Si Si4 0.423396 0.078775 0.692305
Si Si5 0.667848 0.577642 0.473960
Si Si6 0.420910 0.921246 0.374814
O O1 0.899409 0.750000 0.975314
O O2 0.844122 0.947130 0.875023
O O3 0.977648 0.945744 0.903798
O O4 0.896995 0.012544 0.039605
O O5 0.928967 0.250000 0.128183
O O6 0.922550 0.005130 0.215260
O O7 0.250000 0.066305 0.253649
O O8 0.352572 0.250000 0.243872
O O9 0.380146 0.979780 0.288226
O O10 0.424295 0.250000 0.710523
O O11 0.358831 0.046973 0.625853
O O12 0.496276 0.044316 0.639609
O O13 0.750000 0.537375 0.487450
O O14 0.661808 0.750000 0.487627
O O15 0.616271 0.498666 0.542533
O O16 0.413886 0.750000 0.383081
#
# Coordination Sequence:
#
# PCOD9448432 Si02
#       6
#     8   8   8   8   8   8
#     4   9  18  33  52  77 108 141 178 220 264 316
#     4  10  19  32  55  82 106 138 178 223 270 314
#     4  10  20  35  55  79 110 148 186 223 267 323
#     4  10  21  37  57  82 109 141 182 227 271 321
#     4  10  22  40  59  78 105 144 186 225 268 322
#     4  11  22  35  55  83 112 141 176 224 279 328
#
# _framework density 18.195520999999999
#
# number of rings (size 3 to 8) (size 9 to 14) (size 15 to 20)
#    0.000    2.000    1.667    2.000    0.000    5.333 
#    0.000    0.833    0.000    5.000    0.000    0.000 
#    0.000    0.000    0.000    0.000    0.000    0.000 
#
# Total GULP energy -267981.810323 kJ/mol
# GULP energy per Si atom -5582.954382 kJ/mol
# Density = 1.815411 g / cm^3
# Si number density = 18.195521 Si / 1000 Ang^3
#
#
#
# Elastic Constant Matrix: (Units=GPa)
#
#
# Indices 1 2 3 4 5 6 
#
# 1 26.9845 13.0215 13.2418 0.0000 0.0000 0.0000
# 2 13.0215 34.3032 46.7951 0.0000 0.0000 0.0000
# 3 13.2418 46.7951 110.4689 0.0000 0.0000 0.0000
# 4 0.0000 0.0000 0.0000 39.1501 0.0000 0.0000
# 5 0.0000 0.0000 0.0000 0.0000 9.8697 0.0000
# 6 0.0000 0.0000 0.0000 0.0000 0.0000 18.0621
#
#
#
# Elastic Compliance Matrix: (Units=1/GPa)
#
#
# Indices 1 2 3 4 5 6 
#
# 1 0.046290 -0.023694 0.004488 0.000000 0.000000 0.000000
# 2 -0.023694 0.081186 -0.031551 0.000000 0.000000 0.000000
# 3 0.004488 -0.031551 0.021879 0.000000 0.000000 0.000000
# 4 0.000000 0.000000 0.000000 0.025543 0.000000 0.000000
# 5 0.000000 0.000000 0.000000 0.000000 0.101320 0.000000
# 6 0.000000 0.000000 0.000000 0.000000 0.000000 0.055365
#
#
# Mechanical properties :
#
#
# Convention : Reuss Voigt Hill
#
# Bulk Modulus (GPa) = 20.90213 35.31925 28.11069
# Shear Modulus (GPa) = 11.13479 19.99627 15.56553
#
# Velocity S-wave (km/s) = 2.47645 3.31866 2.92800
# Velocity P-wave (km/s) = 4.43729 5.84276 5.18784
#
# Compressibility (1/GPa) = 0.04784201
#
# Stress axis : x y z
#
# Youngs Moduli (GPa) = 21.60312 12.31735 45.70527
#
# Poissons Ratio (x) = 0.29185 -0.20514
# Poissons Ratio (y) = 0.51187 1.44203
# Poissons Ratio (z) = -0.09696 0.38862
#
# Static dielectric constant tensor:
#      x y z
#    x 1.617790 0.000000 0.000000 
#    y 0.000000 1.607080 0.000000 
#    z 0.000000 0.000000 1.614570 
# 
# From -- ./inp_files/20421.got.cif
#   From: 2010.05.17/outbox.cif.g08.bks.cpg/sg59_11_cif.got.tgz:20421.got - 2010.06.03 14:40:33.
