data_PCOD9448269
_publ_section_title
;
Structure prediction by ZEFSAII (Michael W. Deem and Ramdas Pophale) SiO2 
 PCOD9448269
Probable space group: P M M N
;
_chemical_formula_sum "Si O2"
_cell_formula_units_Z 48
_cell_length_a 8.737118
_cell_length_b 32.215629
_cell_length_c 9.857231
_cell_angle_alpha 90.000000
_cell_angle_beta 90.000000
_cell_angle_gamma 90.000000
_cell_volume 2774.532080
_symmetry_space_group_name_H-M "P M M N"
_symmetry_group_IT_number 59
_space_group.IT_coordinate_system_code '2'
_symmetry_cell_setting 'orthorhombic'
loop_
_space_group_symop_operation_xyz
x,y,z
1/2-x,1/2-y,z
1/2+x,-y,-z
-x,1/2+y,-z
-x,-y,-z
1/2+x,1/2+y,-z
1/2-x,y,z
x,1/2-y,z
loop_
_atom_site_type_symbol
_atom_site_label
_atom_site_fract_x
_atom_site_fract_y
_atom_site_fract_z
Si Si1 0.066860 0.049656 0.854876
Si Si2 0.930092 0.704306 0.337365
Si Si3 0.933205 0.046163 0.154468
Si Si4 0.565196 0.884923 0.648283
Si Si5 0.430792 0.205468 0.333778
Si Si6 0.431583 0.882210 0.345752
O O1 0.250000 0.054530 0.855489
O O2 0.992723 0.082597 0.754286
O O3 0.031106 0.002066 0.813362
O O4 0.002852 0.055167 0.006542
O O5 0.750000 0.699700 0.304865
O O6 0.981539 0.750000 0.288963
O O7 0.940829 0.705234 0.501889
O O8 0.020076 0.663575 0.293149
O O9 0.750000 0.050385 0.149550
O O10 0.002566 0.077577 0.262964
O O11 0.750000 0.884815 0.647660
O O12 0.510177 0.839946 0.706700
O O13 0.507457 0.887985 0.493778
O O14 0.250000 0.206145 0.300038
O O15 0.497255 0.250000 0.287139
O O16 0.250000 0.884419 0.359238
#
# Coordination Sequence:
#
# PCOD9448269 Si02
#       6
#     8   8   8   8   8   8
#     4  10  21  38  57  74  97 133 172 207 253 316
#     4   8  14  27  47  70  99 135 171 205 246 301
#     4  10  21  37  56  77 100 128 166 213 261 308
#     4  10  19  32  52  77 105 137 171 208 253 304
#     4   7  11  22  42  68  96 127 164 201 235 280
#     4  11  21  32  50  78 109 136 168 215 260 294
#
# _framework density 17.300215000000001
#
# number of rings (size 3 to 8) (size 9 to 14) (size 15 to 20)
#    0.000    2.667    0.000    5.000    0.000    3.000 
#    0.000    0.000    0.000    2.500    0.000    2.333 
#    0.000    0.000    0.000    0.000    0.000    0.000 
#
# Total GULP energy -267401.576430 kJ/mol
# GULP energy per Si atom -5570.866176 kJ/mol
# Density = 1.726084 g / cm^3
# Si number density = 17.300215 Si / 1000 Ang^3
#
#
#
# Elastic Constant Matrix: (Units=GPa)
#
#
# Indices 1 2 3 4 5 6 
#
# 1 57.2709 54.3812 20.5355 0.0000 0.0000 0.0000
# 2 54.3812 164.9621 66.9547 0.0000 0.0000 0.0000
# 3 20.5355 66.9547 39.7606 0.0000 0.0000 0.0000
# 4 0.0000 0.0000 0.0000 -14.9091 0.0000 0.0000
# 5 0.0000 0.0000 0.0000 0.0000 24.8812 0.0000
# 6 0.0000 0.0000 0.0000 0.0000 0.0000 26.7545
#
#
#
# Elastic Compliance Matrix: (Units=1/GPa)
#
#
# Indices 1 2 3 4 5 6 
#
# 1 0.025539 -0.009685 0.003118 0.000000 0.000000 0.000000
# 2 -0.009685 0.022825 -0.033433 0.000000 0.000000 0.000000
# 3 0.003118 -0.033433 0.079840 0.000000 0.000000 0.000000
# 4 0.000000 0.000000 0.000000 -0.067073 0.000000 0.000000
# 5 0.000000 0.000000 0.000000 0.000000 0.040191 0.000000
# 6 0.000000 0.000000 0.000000 0.000000 0.000000 0.037377
#
#
# Mechanical properties :
#
#
# Convention : Reuss Voigt Hill
#
# Bulk Modulus (GPa) = 20.74520 60.63736 40.69128
# Shear Modulus (GPa) = 21.29784 15.35347 18.32565
#
# Velocity S-wave (km/s) = 3.51247 2.98228 3.25818
# Velocity P-wave (km/s) = 5.33547 6.85455 6.14215
#
# Compressibility (1/GPa) = 0.04820393
#
# Stress axis : x y z
#
# Youngs Moduli (GPa) = 39.15597 43.81239 12.52505
#
# Poissons Ratio (x) = 0.42432 -0.03906
# Poissons Ratio (y) = 0.37922 0.41876
# Poissons Ratio (z) = -0.12211 1.46480
#
# Static dielectric constant tensor:
#      x y z
#    x 1.541060 0.000000 0.000000 
#    y 0.000000 1.634560 0.000000 
#    z 0.000000 0.000000 1.546510 
# 
# From -- ./inp_files/6304.got.cif
#   From: 2010.05.17/outbox.cif.g08.bks.cpg/sg59_4_cif.got.tgz:6304.got - 2010.06.03 14:40:33.
