data_PCOD9448071
_publ_section_title
;
Structure prediction by ZEFSAII (Michael W. Deem and Ramdas Pophale) SiO2 
 PCOD9448071
Probable space group: P M M N
;
_chemical_formula_sum "Si O2"
_cell_formula_units_Z 32
_cell_length_a 10.769016
_cell_length_b 16.324248
_cell_length_c 9.412758
_cell_angle_alpha 90.000000
_cell_angle_beta 90.000000
_cell_angle_gamma 90.000000
_cell_volume 1654.726033
_symmetry_space_group_name_H-M "P M M N"
_symmetry_group_IT_number 59
_space_group.IT_coordinate_system_code '2'
_symmetry_cell_setting 'orthorhombic'
loop_
_space_group_symop_operation_xyz
x,y,z
1/2-x,1/2-y,z
1/2+x,-y,-z
-x,1/2+y,-z
-x,-y,-z
1/2+x,1/2+y,-z
1/2-x,y,z
x,1/2-y,z
loop_
_atom_site_type_symbol
_atom_site_label
_atom_site_fract_x
_atom_site_fract_y
_atom_site_fract_z
Si Si1 0.250000 0.157302 0.588740
Si Si2 0.515009 0.149878 0.613252
Si Si3 0.750000 0.074462 0.113289
Si Si4 0.250000 0.650781 0.576212
Si Si5 0.750000 0.619343 0.082877
Si Si6 0.474965 0.846451 0.057181
O O1 0.250000 0.250000 0.530843
O O2 0.382632 0.118324 0.555018
O O3 0.250000 0.161358 0.761392
O O4 0.507322 0.250000 0.615699
O O5 0.629195 0.127668 0.514799
O O6 0.532373 0.125575 0.777664
O O7 0.750000 0.108675 0.272117
O O8 0.750000 0.977030 0.109775
O O9 0.626585 0.106590 0.034233
O O10 0.250000 0.750000 0.593478
O O11 0.881053 0.642341 0.011695
O O12 0.445270 0.750000 0.052082
#
# Coordination Sequence:
#
# PCOD9448071 Si02
#       6
#     4   8   4   4   4   8
#     4   8  14  30  54  75  91 125 181 227 249 287
#     4   8  15  29  53  75  93 125 177 222 248 286
#     4  12  23  33  49  81 117 140 162 210 274 324
#     4  10  19  32  47  72 107 138 164 204 260 316
#     4  10  20  35  54  78 107 137 171 221 271 307
#     4  10  19  36  59  79  98 136 187 224 250 300
#
# _framework density 19.338546999999998
#
# number of rings (size 3 to 8) (size 9 to 14) (size 15 to 20)
#    0.000    2.500    0.000    5.250    0.000    2.000 
#    0.000    6.250    0.000    3.000    0.000    0.000 
#    0.000    0.000    0.000    0.000    0.000    0.000 
#
# Total GULP energy -178473.271281 kJ/mol
# GULP energy per Si atom -5577.289728 kJ/mol
# Density = 1.929453 g / cm^3
# Si number density = 19.338547 Si / 1000 Ang^3
#
#
#
# Elastic Constant Matrix: (Units=GPa)
#
#
# Indices 1 2 3 4 5 6 
#
# 1 161.9636 8.8229 62.4764 0.0000 0.0000 0.0000
# 2 8.8229 56.4433 14.7925 0.0000 0.0000 0.0000
# 3 62.4764 14.7925 75.8177 0.0000 0.0000 0.0000
# 4 0.0000 0.0000 0.0000 5.9707 0.0000 0.0000
# 5 0.0000 0.0000 0.0000 0.0000 -13.7699 0.0000
# 6 0.0000 0.0000 0.0000 0.0000 0.0000 17.7870
#
#
#
# Elastic Compliance Matrix: (Units=1/GPa)
#
#
# Indices 1 2 3 4 5 6 
#
# 1 0.009069 0.000570 -0.007584 0.000000 0.000000 0.000000
# 2 0.000570 0.018707 -0.004120 0.000000 0.000000 0.000000
# 3 -0.007584 -0.004120 0.020243 0.000000 0.000000 0.000000
# 4 0.000000 0.000000 0.000000 0.167483 0.000000 0.000000
# 5 0.000000 0.000000 0.000000 0.000000 -0.072622 0.000000
# 6 0.000000 0.000000 0.000000 0.000000 0.000000 0.056221
#
#
# Mechanical properties :
#
#
# Convention : Reuss Voigt Hill
#
# Bulk Modulus (GPa) = 38.83265 51.82312 45.32789
# Shear Modulus (GPa) = 21.74363 15.87309 18.80836
#
# Velocity S-wave (km/s) = 3.35680 2.86807 3.12201
# Velocity P-wave (km/s) = 5.92859 6.15010 6.04036
#
# Compressibility (1/GPa) = 0.02575153
#
# Stress axis : x y z
#
# Youngs Moduli (GPa) = 110.26920 53.45463 49.39998
#
# Poissons Ratio (x) = -0.03047 0.37466
# Poissons Ratio (y) = -0.06286 0.20351
# Poissons Ratio (z) = 0.83630 0.22022
#
# Static dielectric constant tensor:
#      x y z
#    x 1.719100 0.000000 0.000000 
#    y 0.000000 1.656610 0.000000 
#    z 0.000000 0.000000 1.629270 
# 
# From -- ./inp_files/7063.got.cif
#   From: 2010.05.17/outbox.cif.g08.bks.cpg/sg59_4_cif.got.tgz:7063.got - 2010.06.03 14:40:33.
