data_PCOD9448044
_publ_section_title
;
Structure prediction by ZEFSAII (Michael W. Deem and Ramdas Pophale) SiO2 
 PCOD9448044
Probable space group: P M M N
;
_chemical_formula_sum "Si O2"
_cell_formula_units_Z 64
_cell_length_a 8.855272
_cell_length_b 21.158065
_cell_length_c 19.990616
_cell_angle_alpha 90.000000
_cell_angle_beta 90.000000
_cell_angle_gamma 90.000000
_cell_volume 3745.450221
_symmetry_space_group_name_H-M "P M M N"
_symmetry_group_IT_number 59
_space_group.IT_coordinate_system_code '2'
_symmetry_cell_setting 'orthorhombic'
loop_
_space_group_symop_operation_xyz
x,y,z
1/2-x,1/2-y,z
1/2+x,-y,-z
-x,1/2+y,-z
-x,-y,-z
1/2+x,1/2+y,-z
1/2-x,y,z
x,1/2-y,z
loop_
_atom_site_type_symbol
_atom_site_label
_atom_site_fract_x
_atom_site_fract_y
_atom_site_fract_z
Si Si1 0.070636 0.132008 0.173778
Si Si2 0.429927 0.438882 0.963662
Si Si3 0.070926 0.485405 0.672177
Si Si4 0.070200 0.493607 0.823005
Si Si5 0.430320 0.376001 0.323602
Si Si6 0.931150 0.820876 0.534203
Si Si7 0.929460 0.059582 0.539571
Si Si8 0.930200 0.320856 0.039826
O O1 0.250000 0.138183 0.164039
O O2 0.033161 0.151005 0.250208
O O3 0.985563 0.168938 0.115799
O O4 0.021846 0.058482 0.168147
O O5 0.250000 0.439601 0.973575
O O6 0.461466 0.447654 0.884773
O O7 0.500000 0.500000 0.000000
O O8 0.496846 0.375658 0.995303
O O9 0.250000 0.480970 0.660416
O O10 0.038482 0.467010 0.749123
O O11 0.018680 0.558419 0.666754
O O12 0.983929 0.446653 0.615953
O O13 0.250000 0.509371 0.825005
O O14 0.250000 0.390191 0.323175
O O15 0.460772 0.332020 0.386875
O O16 0.750000 0.826880 0.525014
O O17 0.976601 0.750000 0.514914
O O18 0.011677 0.876126 0.493601
O O19 0.750000 0.055474 0.535265
O O20 0.000000 0.000000 0.500000
O O21 0.750000 0.327397 0.037696
O O22 0.971736 0.250000 0.017923
#
# Coordination Sequence:
#
# PCOD9448044 Si02
#       8
#     8   8   8   8   8   8   8   8
#     4  10  19  31  52  80 109 144 185 225 266 319
#     4  11  21  35  58  85 110 141 180 226 273 325
#     4  10  19  33  55  82 110 142 177 222 274 325
#     4   9  19  34  54  81 113 141 174 220 274 329
#     4   9  18  32  51  78 111 145 182 221 266 322
#     4  10  21  37  56  79 110 147 183 223 273 327
#     4  12  23  36  56  82 110 143 185 231 273 320
#     4  11  24  39  53  74 109 151 190 230 276 325
#
# _framework density 17.087398
#
# number of rings (size 3 to 8) (size 9 to 14) (size 15 to 20)
#    0.000    1.750    2.500    2.625    0.000    3.250 
#    0.000    1.250    0.000    0.750    0.000    1.750 
#    0.000    0.000    0.000    0.000    0.000    0.000 
#
# Total GULP energy -357323.985659 kJ/mol
# GULP energy per Si atom -5583.187276 kJ/mol
# Density = 1.704851 g / cm^3
# Si number density = 17.087398 Si / 1000 Ang^3
#
#
#
# Elastic Constant Matrix: (Units=GPa)
#
#
# Indices 1 2 3 4 5 6 
#
# 1 65.7925 56.6468 52.2448 0.0000 0.0000 0.0000
# 2 56.6468 119.3977 69.9664 0.0000 0.0000 0.0000
# 3 52.2448 69.9664 110.9092 0.0000 0.0000 0.0000
# 4 0.0000 0.0000 0.0000 19.5317 0.0000 0.0000
# 5 0.0000 0.0000 0.0000 0.0000 26.2094 0.0000
# 6 0.0000 0.0000 0.0000 0.0000 0.0000 23.1696
#
#
#
# Elastic Compliance Matrix: (Units=1/GPa)
#
#
# Indices 1 2 3 4 5 6 
#
# 1 0.029651 -0.009333 -0.008080 0.000000 0.000000 0.000000
# 2 -0.009333 0.016225 -0.005839 0.000000 0.000000 0.000000
# 3 -0.008080 -0.005839 0.016506 0.000000 0.000000 0.000000
# 4 0.000000 0.000000 0.000000 0.051199 0.000000 0.000000
# 5 0.000000 0.000000 0.000000 0.000000 0.038154 0.000000
# 6 0.000000 0.000000 0.000000 0.000000 0.000000 0.043160
#
#
# Mechanical properties :
#
#
# Convention : Reuss Voigt Hill
#
# Bulk Modulus (GPa) = 62.97858 72.64617 67.81237
# Shear Modulus (GPa) = 20.26831 21.59824 20.93327
#
# Velocity S-wave (km/s) = 3.44780 3.55912 3.50390
# Velocity P-wave (km/s) = 7.26543 7.71340 7.49276
#
# Compressibility (1/GPa) = 0.01587841
#
# Stress axis : x y z
#
# Youngs Moduli (GPa) = 33.72596 61.63386 60.58419
#
# Poissons Ratio (x) = 0.57521 0.48951
# Poissons Ratio (y) = 0.31476 0.35375
# Poissons Ratio (z) = 0.27250 0.35988
#
# Static dielectric constant tensor:
#      x y z
#    x 1.571750 0.000000 0.000000 
#    y 0.000000 1.550160 0.000000 
#    z 0.000000 0.000000 1.600020 
# 
# From -- ./inp_files/29581.got.cif
#   From: 2010.05.17/outbox.cif.g08.bks.cpg/sg59_15_cif.got.tgz:29581.got - 2010.06.03 14:40:33.
