data_PCOD9448255
_publ_section_title
;
Structure prediction by ZEFSAII (Michael W. Deem and Ramdas Pophale) SiO2 
 PCOD9448255
Probable space group: P M M N
;
_chemical_formula_sum "Si O2"
_cell_formula_units_Z 64
_cell_length_a 10.173333
_cell_length_b 25.038899
_cell_length_c 13.214246
_cell_angle_alpha 90.000000
_cell_angle_beta 90.000000
_cell_angle_gamma 90.000000
_cell_volume 3366.052429
_symmetry_space_group_name_H-M "P M M N"
_symmetry_group_IT_number 59
_space_group.IT_coordinate_system_code '2'
_symmetry_cell_setting 'orthorhombic'
loop_
_space_group_symop_operation_xyz
x,y,z
1/2-x,1/2-y,z
1/2+x,-y,-z
-x,1/2+y,-z
-x,-y,-z
1/2+x,1/2+y,-z
1/2-x,y,z
x,1/2-y,z
loop_
_atom_site_type_symbol
_atom_site_label
_atom_site_fract_x
_atom_site_fract_y
_atom_site_fract_z
Si Si1 0.597629 0.097905 0.044990
Si Si2 0.404480 0.924939 0.184651
Si Si3 0.590879 0.308324 0.737602
Si Si4 0.394802 0.186115 0.339197
Si Si5 0.603248 0.041348 0.459700
Si Si6 0.595556 0.479974 0.232244
Si Si7 0.095167 0.186796 0.105163
Si Si8 0.099041 0.839638 0.487410
O O1 0.750000 0.115114 0.058059
O O2 0.565021 0.058265 0.137389
O O3 0.501317 0.148441 0.044854
O O4 0.588632 0.069268 0.936736
O O5 0.250000 0.931021 0.215178
O O6 0.447922 0.864125 0.210642
O O7 0.499199 0.969237 0.232318
O O8 0.750000 0.307564 0.745003
O O9 0.543382 0.250000 0.775322
O O10 0.558438 0.313852 0.618573
O O11 0.250000 0.164092 0.366280
O O12 0.384848 0.250000 0.337250
O O13 0.424867 0.171537 0.223440
O O14 0.503960 0.173013 0.420612
O O15 0.750000 0.019156 0.470572
O O16 0.582053 0.050339 0.339599
O O17 0.596800 0.096341 0.520716
O O18 0.500000 0.000000 0.500000
O O19 0.750000 0.495720 0.222801
O O20 0.250000 0.178673 0.082398
O O21 0.067478 0.250000 0.092680
O O22 0.250000 0.823648 0.509102
#
# Coordination Sequence:
#
# PCOD9448255 Si02
#       8
#     8   8   8   8   8   8   8   8
#     4  10  21  36  56  82 107 137 182 232 280 328
#     4  10  21  37  58  81 104 137 183 228 272 328
#     4   9  18  33  53  78 108 140 176 221 269 317
#     4   9  18  32  49  72 103 135 167 206 252 304
#     4  10  21  35  52  76 106 139 174 214 260 315
#     4  10  21  37  55  79 113 144 175 226 284 330
#     4   9  19  35  53  76 109 146 180 217 268 329
#     4  10  19  32  52  76 102 135 174 212 254 307
#
# _framework density 19.013369000000001
#
# number of rings (size 3 to 8) (size 9 to 14) (size 15 to 20)
#    0.000    2.375    0.000    3.000    0.000    6.000 
#    0.000    3.125    0.000    1.125    0.000    0.000 
#    0.000    0.000    0.000    0.000    0.000    0.000 
#
# Total GULP energy -356914.211474 kJ/mol
# GULP energy per Si atom -5576.784554 kJ/mol
# Density = 1.897009 g / cm^3
# Si number density = 19.013369 Si / 1000 Ang^3
#
#
#
# Elastic Constant Matrix: (Units=GPa)
#
#
# Indices 1 2 3 4 5 6 
#
# 1 34.7380 25.3633 13.6052 0.0000 0.0000 0.0000
# 2 25.3633 76.0186 10.5528 0.0000 0.0000 0.0000
# 3 13.6052 10.5528 32.1863 0.0000 0.0000 0.0000
# 4 0.0000 0.0000 0.0000 24.0867 0.0000 0.0000
# 5 0.0000 0.0000 0.0000 0.0000 23.2680 0.0000
# 6 0.0000 0.0000 0.0000 0.0000 0.0000 34.3845
#
#
#
# Elastic Compliance Matrix: (Units=1/GPa)
#
#
# Indices 1 2 3 4 5 6 
#
# 1 0.043544 -0.012544 -0.014293 0.000000 0.000000 0.000000
# 2 -0.012544 0.017396 -0.000401 0.000000 0.000000 0.000000
# 3 -0.014293 -0.000401 0.037242 0.000000 0.000000 0.000000
# 4 0.000000 0.000000 0.000000 0.041517 0.000000 0.000000
# 5 0.000000 0.000000 0.000000 0.000000 0.042978 0.000000
# 6 0.000000 0.000000 0.000000 0.000000 0.000000 0.029083
#
#
# Mechanical properties :
#
#
# Convention : Reuss Voigt Hill
#
# Bulk Modulus (GPa) = 22.88066 26.88730 24.88398
# Shear Modulus (GPa) = 17.80602 22.57593 20.19098
#
# Velocity S-wave (km/s) = 3.06355 3.44956 3.26227
# Velocity P-wave (km/s) = 4.95720 5.48069 5.22551
#
# Compressibility (1/GPa) = 0.04370504
#
# Stress axis : x y z
#
# Youngs Moduli (GPa) = 22.96544 57.48569 26.85109
#
# Poissons Ratio (x) = 0.72110 0.38379
# Poissons Ratio (y) = 0.28808 0.01077
# Poissons Ratio (z) = 0.32825 0.02305
#
# Static dielectric constant tensor:
#      x y z
#    x 1.641500 0.000000 0.000000 
#    y 0.000000 1.662640 0.000000 
#    z 0.000000 0.000000 1.669250 
# 
# From -- ./inp_files/21618.got.cif
#   From: 2010.05.17/outbox.cif.g08.bks.cpg/sg59_11_cif.got.tgz:21618.got - 2010.06.03 14:40:33.
