data_PCOD9448023
_publ_section_title
;
Structure prediction by ZEFSAII (Michael W. Deem and Ramdas Pophale) SiO2 
 PCOD9448023
Probable space group: P M M N
;
_chemical_formula_sum "Si O2"
_cell_formula_units_Z 48
_cell_length_a 24.334731
_cell_length_b 7.432953
_cell_length_c 10.071531
_cell_angle_alpha 90.000000
_cell_angle_beta 90.000000
_cell_angle_gamma 90.000000
_cell_volume 1821.727567
_symmetry_space_group_name_H-M "P M M N"
_symmetry_group_IT_number 59
_space_group.IT_coordinate_system_code '2'
_symmetry_cell_setting 'orthorhombic'
loop_
_space_group_symop_operation_xyz
x,y,z
1/2-x,1/2-y,z
1/2+x,-y,-z
-x,1/2+y,-z
-x,-y,-z
1/2+x,1/2+y,-z
1/2-x,y,z
x,1/2-y,z
loop_
_atom_site_type_symbol
_atom_site_label
_atom_site_fract_x
_atom_site_fract_y
_atom_site_fract_z
Si Si1 0.343952 0.968442 0.416108
Si Si2 0.690428 0.467329 0.879534
Si Si3 0.428375 0.455912 0.056043
Si Si4 0.809205 0.541912 0.296327
Si Si5 0.460823 0.546822 0.347517
Si Si6 0.430852 0.028898 0.765129
O O1 0.345106 0.750000 0.420290
O O2 0.317569 0.017965 0.275272
O O3 0.407282 0.036377 0.415993
O O4 0.312263 0.035211 0.543683
O O5 0.750000 0.527636 0.926763
O O6 0.688426 0.250000 0.886391
O O7 0.637961 0.539260 0.955644
O O8 0.444587 0.250000 0.073972
O O9 0.442481 0.555232 0.191823
O O10 0.448641 0.524241 0.914266
O O11 0.750000 0.462531 0.254639
O O12 0.809524 0.750000 0.253827
O O13 0.868843 0.463694 0.258209
O O14 0.466604 0.750000 0.396056
O O15 0.521934 0.467454 0.337277
O O16 0.430603 0.250000 0.761526
#
# Coordination Sequence:
#
# PCOD9448023 Si02
#       6
#     8   8   8   8   8   8
#     4   9  18  33  53  75  98 127 165 209 255 299
#     4   9  18  33  52  73 101 138 174 209 254 306
#     4  10  19  31  51  79 106 131 165 212 258 299
#     4  10  21  36  53  73 100 135 171 206 247 298
#     4   9  18  35  56  75 100 134 168 205 253 307
#     4   9  19  35  53  73 101 138 172 202 246 303
#
# _framework density 26.348616
#
# number of rings (size 3 to 8) (size 9 to 14) (size 15 to 20)
#    0.000    2.667    0.000    2.500    0.000    5.333 
#    0.000    5.000    0.000    0.000    0.000    0.000 
#    0.000    0.000    0.000    0.000    0.000    0.000 
#
# Total GULP energy -268448.925758 kJ/mol
# GULP energy per Si atom -5592.685953 kJ/mol
# Density = 2.628864 g / cm^3
# Si number density = 26.348616 Si / 1000 Ang^3
#
#
#
# Elastic Constant Matrix: (Units=GPa)
#
#
# Indices 1 2 3 4 5 6 
#
# 1 207.9095 18.1604 16.6430 0.0000 0.0000 0.0000
# 2 18.1604 102.5972 8.0098 0.0000 0.0000 0.0000
# 3 16.6430 8.0098 66.7658 0.0000 0.0000 0.0000
# 4 0.0000 0.0000 0.0000 16.9232 0.0000 0.0000
# 5 0.0000 0.0000 0.0000 0.0000 22.4449 0.0000
# 6 0.0000 0.0000 0.0000 0.0000 0.0000 8.7959
#
#
#
# Elastic Compliance Matrix: (Units=1/GPa)
#
#
# Indices 1 2 3 4 5 6 
#
# 1 0.004970 -0.000790 -0.001144 0.000000 0.000000 0.000000
# 2 -0.000790 0.009965 -0.000998 0.000000 0.000000 0.000000
# 3 -0.001144 -0.000998 0.015383 0.000000 0.000000 0.000000
# 4 0.000000 0.000000 0.000000 0.059090 0.000000 0.000000
# 5 0.000000 0.000000 0.000000 0.000000 0.044554 0.000000
# 6 0.000000 0.000000 0.000000 0.000000 0.000000 0.113690
#
#
# Mechanical properties :
#
#
# Convention : Reuss Voigt Hill
#
# Bulk Modulus (GPa) = 40.89685 51.43321 46.16503
# Shear Modulus (GPa) = 19.10816 31.93009 25.51912
#
# Velocity S-wave (km/s) = 2.69589 3.48491 3.11548
# Velocity P-wave (km/s) = 5.02449 5.97959 5.52273
#
# Compressibility (1/GPa) = 0.02445176
#
# Stress axis : x y z
#
# Youngs Moduli (GPa) = 201.19028 100.35406 65.00803
#
# Poissons Ratio (x) = 0.07933 0.07438
# Poissons Ratio (y) = 0.15904 0.06490
# Poissons Ratio (z) = 0.23019 0.10019
#
# Static dielectric constant tensor:
#      x y z
#    x 2.120930 0.000000 0.000000 
#    y 0.000000 1.976280 0.000000 
#    z 0.000000 0.000000 2.016630 
# 
# From -- ./inp_files/18589.got.cif
#   From: 2010.05.17/outbox.cif.g08.bks.cpg/sg59_10_cif.got.tgz:18589.got - 2010.06.03 14:40:33.
