data_PCOD9448871
_publ_section_title
;
Structure prediction by ZEFSAII (Michael W. Deem and Ramdas Pophale) SiO2 
 PCOD9448871
Probable space group: P M M N
;
_chemical_formula_sum "Si O2"
_cell_formula_units_Z 64
_cell_length_a 8.776631
_cell_length_b 20.324320
_cell_length_c 20.773353
_cell_angle_alpha 90.000000
_cell_angle_beta 90.000000
_cell_angle_gamma 90.000000
_cell_volume 3705.531118
_symmetry_space_group_name_H-M "P M M N"
_symmetry_group_IT_number 59
_space_group.IT_coordinate_system_code '2'
_symmetry_cell_setting 'orthorhombic'
loop_
_space_group_symop_operation_xyz
x,y,z
1/2-x,1/2-y,z
1/2+x,-y,-z
-x,1/2+y,-z
-x,-y,-z
1/2+x,1/2+y,-z
1/2-x,y,z
x,1/2-y,z
loop_
_atom_site_type_symbol
_atom_site_label
_atom_site_fract_x
_atom_site_fract_y
_atom_site_fract_z
Si Si1 0.931571 0.407037 0.449561
Si Si2 0.432379 0.325726 0.334743
Si Si3 0.434141 0.824981 0.170895
Si Si4 0.933732 0.087454 0.946656
Si Si5 0.933008 0.558828 0.418015
Si Si6 0.433791 0.945267 0.913285
Si Si7 0.933902 0.075816 0.229848
Si Si8 0.566253 0.572512 0.272250
O O1 0.750000 0.400231 0.446840
O O2 0.970407 0.481116 0.425200
O O3 0.007556 0.355509 0.401741
O O4 0.989237 0.404030 0.522796
O O5 0.250000 0.328246 0.334454
O O6 0.481159 0.250000 0.327099
O O7 0.495421 0.371473 0.277780
O O8 0.250000 0.825539 0.173215
O O9 0.486178 0.750000 0.179076
O O10 0.480626 0.854886 0.101606
O O11 0.495759 0.873584 0.225456
O O12 0.750000 0.083037 0.944872
O O13 0.978968 0.093131 0.021657
O O14 0.000608 0.018697 0.920910
O O15 0.750000 0.564513 0.424109
O O16 0.978137 0.581558 0.346835
O O17 0.250000 0.950184 0.912371
O O18 0.480058 0.915600 0.844736
O O19 0.750000 0.080185 0.234654
O O20 0.976889 0.001467 0.250613
O O21 0.750000 0.576157 0.268326
#
# Coordination Sequence:
#
# PCOD9448871 Si02
#       8
#     8   8   8   8   8   8   8   8
#     4  10  19  34  56  82 108 137 174 217 262 314
#     4  11  24  39  55  78 110 147 183 220 268 326
#     4  10  21  35  50  73 108 145 182 223 267 321
#     4   9  17  30  49  75 104 138 175 215 268 319
#     4   9  18  33  53  80 110 136 169 217 267 313
#     4   9  17  30  51  78 106 132 171 224 269 313
#     4  10  19  34  55  81 109 138 178 228 273 319
#     4  10  19  34  55  80 109 139 177 223 268 318
#
# _framework density 17.271477000000001
#
# number of rings (size 3 to 8) (size 9 to 14) (size 15 to 20)
#    0.000    2.250    2.500    0.750    0.000    3.250 
#    0.000    1.250    0.000    3.000    0.000    0.000 
#    0.000    0.000    0.000    0.000    0.000    0.000 
#
# Total GULP energy -356988.218849 kJ/mol
# GULP energy per Si atom -5577.940920 kJ/mol
# Density = 1.723217 g / cm^3
# Si number density = 17.271477 Si / 1000 Ang^3
#
#
#
# Elastic Constant Matrix: (Units=GPa)
#
#
# Indices 1 2 3 4 5 6 
#
# 1 13.7660 32.8670 37.8984 0.0000 0.0000 0.0000
# 2 32.8670 127.8087 93.4075 0.0000 0.0000 0.0000
# 3 37.8984 93.4075 176.5579 0.0000 0.0000 0.0000
# 4 0.0000 0.0000 0.0000 23.1127 0.0000 0.0000
# 5 0.0000 0.0000 0.0000 0.0000 25.8037 0.0000
# 6 0.0000 0.0000 0.0000 0.0000 0.0000 20.9819
#
#
#
# Elastic Compliance Matrix: (Units=1/GPa)
#
#
# Indices 1 2 3 4 5 6 
#
# 1 0.282844 -0.046245 -0.036247 0.000000 0.000000 0.000000
# 2 -0.046245 0.020317 -0.000822 0.000000 0.000000 0.000000
# 3 -0.036247 -0.000822 0.013879 0.000000 0.000000 0.000000
# 4 0.000000 0.000000 0.000000 0.043266 0.000000 0.000000
# 5 0.000000 0.000000 0.000000 0.000000 0.038754 0.000000
# 6 0.000000 0.000000 0.000000 0.000000 0.000000 0.047660
#
#
# Mechanical properties :
#
#
# Convention : Reuss Voigt Hill
#
# Bulk Modulus (GPa) = 6.64838 71.83092 39.23965
# Shear Modulus (GPa) = 7.53593 24.24363 15.88978
#
# Velocity S-wave (km/s) = 2.09110 3.75064 3.03644
# Velocity P-wave (km/s) = 3.11255 7.77406 5.92131
#
# Compressibility (1/GPa) = 0.15041258
#
# Stress axis : x y z
#
# Youngs Moduli (GPa) = 3.53551 49.21887 72.04895
#
# Poissons Ratio (x) = 2.27611 2.61157
# Poissons Ratio (y) = 0.16350 0.05925
# Poissons Ratio (z) = 0.12815 0.04048
#
# Static dielectric constant tensor:
#      x y z
#    x 1.584780 0.000000 0.000000 
#    y 0.000000 1.555780 0.000000 
#    z 0.000000 0.000000 1.600430 
# 
# From -- ./inp_files/29378.got.cif
#   From: 2010.05.17/outbox.cif.g08.bks.cpg/sg59_15_cif.got.tgz:29378.got - 2010.06.03 14:40:33.
