data_PCOD9448434
_publ_section_title
;
Structure prediction by ZEFSAII (Michael W. Deem and Ramdas Pophale) SiO2 
 PCOD9448434
Probable space group: P M M N
;
_chemical_formula_sum "Si O2"
_cell_formula_units_Z 56
_cell_length_a 9.015167
_cell_length_b 15.187910
_cell_length_c 22.144726
_cell_angle_alpha 90.000000
_cell_angle_beta 90.000000
_cell_angle_gamma 90.000000
_cell_volume 3032.090098
_symmetry_space_group_name_H-M "P M M N"
_symmetry_group_IT_number 59
_space_group.IT_coordinate_system_code '2'
_symmetry_cell_setting 'orthorhombic'
loop_
_space_group_symop_operation_xyz
x,y,z
1/2-x,1/2-y,z
1/2+x,-y,-z
-x,1/2+y,-z
-x,-y,-z
1/2+x,1/2+y,-z
1/2-x,y,z
x,1/2-y,z
loop_
_atom_site_type_symbol
_atom_site_label
_atom_site_fract_x
_atom_site_fract_y
_atom_site_fract_z
Si Si1 0.928819 0.510540 0.090441
Si Si2 0.572976 0.506178 0.230175
Si Si3 0.928998 0.146671 0.000923
Si Si4 0.073265 0.347914 0.301536
Si Si5 0.073695 0.413614 0.434444
Si Si6 0.080462 0.850141 0.311680
Si Si7 0.424980 0.396607 0.567054
O O1 0.750000 0.519457 0.086921
O O2 0.974041 0.509489 0.160300
O O3 0.001475 0.592461 0.054976
O O4 0.967346 0.417620 0.057571
O O5 0.750000 0.505313 0.231990
O O6 0.510585 0.420685 0.263562
O O7 0.512747 0.588325 0.268000
O O8 0.750000 0.146476 0.995550
O O9 0.975026 0.250000 0.005444
O O10 0.250000 0.357739 0.292540
O O11 0.028451 0.250000 0.283540
O O12 0.047425 0.360904 0.373184
O O13 0.250000 0.437860 0.435865
O O14 0.043909 0.366431 0.498365
O O15 0.974285 0.501076 0.431800
O O16 0.250000 0.882478 0.313496
O O17 0.078138 0.750000 0.290107
O O18 0.015121 0.853142 0.379106
O O19 0.250000 0.387237 0.578441
#
# Coordination Sequence:
#
# PCOD9448434 Si02
#       7
#     8   8   8   8   8   8   8
#     4   9  20  37  57  84 117 150 183 225 275 320
#     4  11  23  39  59  83 113 150 191 234 279 328
#     4   9  18  35  60  88 117 149 184 220 262 319
#     4  10  21  37  57  81 111 149 189 229 279 338
#     4   9  18  33  54  79 110 145 180 226 286 345
#     4  11  24  40  57  78 108 148 191 237 290 344
#     4  10  19  32  55  83 108 138 182 234 287 343
#
# _framework density 18.469109
#
# number of rings (size 3 to 8) (size 9 to 14) (size 15 to 20)
#    0.000    2.143    1.429    1.286    0.000    5.143 
#    0.000    5.714    0.000    0.000    0.000    0.000 
#    0.000    0.000    0.000    0.000    0.000    0.000 
#
# Total GULP energy -312451.447877 kJ/mol
# GULP energy per Si atom -5579.490141 kJ/mol
# Density = 1.842707 g / cm^3
# Si number density = 18.469109 Si / 1000 Ang^3
#
#
#
# Elastic Constant Matrix: (Units=GPa)
#
#
# Indices 1 2 3 4 5 6 
#
# 1 28.3959 29.7997 38.1801 0.0000 0.0000 0.0000
# 2 29.7997 116.2303 60.3767 0.0000 0.0000 0.0000
# 3 38.1801 60.3767 138.5485 0.0000 0.0000 0.0000
# 4 0.0000 0.0000 0.0000 -79.2333 0.0000 0.0000
# 5 0.0000 0.0000 0.0000 0.0000 24.6769 0.0000
# 6 0.0000 0.0000 0.0000 0.0000 0.0000 4.9117
#
#
#
# Elastic Compliance Matrix: (Units=1/GPa)
#
#
# Indices 1 2 3 4 5 6 
#
# 1 0.062703 -0.009178 -0.013280 0.000000 0.000000 0.000000
# 2 -0.009178 0.012464 -0.002903 0.000000 0.000000 0.000000
# 3 -0.013280 -0.002903 0.012142 0.000000 0.000000 0.000000
# 4 0.000000 0.000000 0.000000 -0.012621 0.000000 0.000000
# 5 0.000000 0.000000 0.000000 0.000000 0.040524 0.000000
# 6 0.000000 0.000000 0.000000 0.000000 0.000000 0.203596
#
#
# Mechanical properties :
#
#
# Convention : Reuss Voigt Hill
#
# Bulk Modulus (GPa) = 27.33029 59.98753 43.65891
# Shear Modulus (GPa) = 13.09841 0.39228 6.74534
#
# Velocity S-wave (km/s) = 2.66598 0.46136 1.91315
# Velocity P-wave (km/s) = 4.93017 5.73012 5.34513
#
# Compressibility (1/GPa) = 0.03658944
#
# Stress axis : x y z
#
# Youngs Moduli (GPa) = 15.94810 80.22809 82.35798
#
# Poissons Ratio (x) = 0.73633 1.09369
# Poissons Ratio (y) = 0.14637 0.23905
# Poissons Ratio (z) = 0.21179 0.23287
#
# Static dielectric constant tensor:
#      x y z
#    x 1.621760 0.000000 0.000000 
#    y 0.000000 1.636040 0.000000 
#    z 0.000000 0.000000 1.634020 
# 
# From -- ./inp_files/29030.got.cif
#   From: 2010.05.17/outbox.cif.g08.bks.cpg/sg59_15_cif.got.tgz:29030.got - 2010.06.03 14:40:33.
