data_PCOD9448932
_publ_section_title
;
Structure prediction by ZEFSAII (Michael W. Deem and Ramdas Pophale) SiO2 
 PCOD9448932
Probable space group: P M M N
;
_chemical_formula_sum "Si O2"
_cell_formula_units_Z 64
_cell_length_a 7.961310
_cell_length_b 25.853068
_cell_length_c 14.827153
_cell_angle_alpha 90.000000
_cell_angle_beta 90.000000
_cell_angle_gamma 90.000000
_cell_volume 3051.788221
_symmetry_space_group_name_H-M "P M M N"
_symmetry_group_IT_number 59
_space_group.IT_coordinate_system_code '2'
_symmetry_cell_setting 'orthorhombic'
loop_
_space_group_symop_operation_xyz
x,y,z
1/2-x,1/2-y,z
1/2+x,-y,-z
-x,1/2+y,-z
-x,-y,-z
1/2+x,1/2+y,-z
1/2-x,y,z
x,1/2-y,z
loop_
_atom_site_type_symbol
_atom_site_label
_atom_site_fract_x
_atom_site_fract_y
_atom_site_fract_z
Si Si1 0.439783 0.333644 0.506560
Si Si2 0.452099 0.808224 0.289268
Si Si3 0.047927 0.941773 0.971070
Si Si4 0.446953 0.694308 0.685539
Si Si5 0.061321 0.943296 0.474215
Si Si6 0.946715 0.521151 0.295486
Si Si7 0.546115 0.100648 0.844195
Si Si8 0.955898 0.412029 0.229087
O O1 0.250000 0.315479 0.499225
O O2 0.503116 0.321139 0.607015
O O3 0.539445 0.310771 0.422562
O O4 0.450657 0.395589 0.495534
O O5 0.250000 0.808159 0.283862
O O6 0.512627 0.750000 0.269195
O O7 0.512083 0.851069 0.217176
O O8 0.250000 0.940946 0.966273
O O9 0.986359 0.924490 0.872549
O O10 0.997080 0.902439 0.051049
O O11 0.000000 0.000000 0.000000
O O12 0.250000 0.695107 0.709007
O O13 0.520953 0.750000 0.712407
O O14 0.517200 0.642394 0.731433
O O15 0.250000 0.934304 0.506716
O O16 0.052719 0.945821 0.366044
O O17 0.000000 0.000000 0.500000
O O18 0.750000 0.523677 0.321135
O O19 0.001708 0.461722 0.289752
O O20 0.972394 0.548809 0.200524
O O21 0.750000 0.098619 0.839644
O O22 0.750000 0.411766 0.229435
#
# Coordination Sequence:
#
# PCOD9448932 Si02
#       8
#     8   8   8   8   8   8   8   8
#     4  12  24  38  58  85 114 150 196 244 294 342
#     4  10  21  38  58  81 113 155 196 238 291 348
#     4  10  19  34  56  84 115 148 187 236 293 348
#     4  10  21  39  61  82 110 154 200 243 292 344
#     4  12  24  38  55  81 118 156 195 237 289 347
#     4  11  20  33  55  82 115 153 188 230 289 346
#     4  10  20  34  55  82 114 149 188 236 288 347
#     4   9  19  35  56  84 116 147 187 236 287 347
#
# _framework density 20.971312000000001
#
# number of rings (size 3 to 8) (size 9 to 14) (size 15 to 20)
#    0.000    1.500    2.500    3.750    0.000    3.000 
#    0.000    1.875    0.000    3.750    0.000    0.000 
#    0.000    3.000    0.000    0.000    0.000    0.000 
#
# Total GULP energy -357495.240297 kJ/mol
# GULP energy per Si atom -5585.863130 kJ/mol
# Density = 2.092358 g / cm^3
# Si number density = 20.971312 Si / 1000 Ang^3
#
#
#
# Elastic Constant Matrix: (Units=GPa)
#
#
# Indices 1 2 3 4 5 6 
#
# 1 31.0110 4.5234 -3.4151 0.0000 0.0000 0.0000
# 2 4.5234 158.8109 38.5055 0.0000 0.0000 0.0000
# 3 -3.4151 38.5055 82.8413 0.0000 0.0000 0.0000
# 4 0.0000 0.0000 0.0000 12.9853 0.0000 0.0000
# 5 0.0000 0.0000 0.0000 0.0000 12.4463 0.0000
# 6 0.0000 0.0000 0.0000 0.0000 0.0000 12.5909
#
#
#
# Elastic Compliance Matrix: (Units=1/GPa)
#
#
# Indices 1 2 3 4 5 6 
#
# 1 0.032674 -0.001417 0.002006 0.000000 0.000000 0.000000
# 2 -0.001417 0.007158 -0.003386 0.000000 0.000000 0.000000
# 3 0.002006 -0.003386 0.013728 0.000000 0.000000 0.000000
# 4 0.000000 0.000000 0.000000 0.077010 0.000000 0.000000
# 5 0.000000 0.000000 0.000000 0.000000 0.080345 0.000000
# 6 0.000000 0.000000 0.000000 0.000000 0.000000 0.079423
#
#
# Mechanical properties :
#
#
# Convention : Reuss Voigt Hill
#
# Bulk Modulus (GPa) = 20.84808 39.09898 29.97353
# Shear Modulus (GPa) = 16.02975 23.14113 19.58544
#
# Velocity S-wave (km/s) = 2.76772 3.32545 3.05932
# Velocity P-wave (km/s) = 4.49182 5.78181 5.17715
#
# Compressibility (1/GPa) = 0.04796605
#
# Stress axis : x y z
#
# Youngs Moduli (GPa) = 30.60518 139.70352 72.84607
#
# Poissons Ratio (x) = 0.19795 -0.14610
# Poissons Ratio (y) = 0.04337 0.24662
# Poissons Ratio (z) = -0.06138 0.47297
#
# Static dielectric constant tensor:
#      x y z
#    x 1.764780 0.000000 0.000000 
#    y 0.000000 1.770510 0.000000 
#    z 0.000000 0.000000 1.798900 
# 
# From -- ./inp_files/21587.got.cif
#   From: 2010.05.17/outbox.cif.g08.bks.cpg/sg59_11_cif.got.tgz:21587.got - 2010.06.03 14:40:33.
