data_PCOD9448146
_publ_section_title
;
Structure prediction by ZEFSAII (Michael W. Deem and Ramdas Pophale) SiO2 
 PCOD9448146
Probable space group: P M M N
;
_chemical_formula_sum "Si O2"
_cell_formula_units_Z 48
_cell_length_a 7.474534
_cell_length_b 18.475314
_cell_length_c 16.049101
_cell_angle_alpha 90.000000
_cell_angle_beta 90.000000
_cell_angle_gamma 90.000000
_cell_volume 2216.290374
_symmetry_space_group_name_H-M "P M M N"
_symmetry_group_IT_number 59
_space_group.IT_coordinate_system_code '2'
_symmetry_cell_setting 'orthorhombic'
loop_
_space_group_symop_operation_xyz
x,y,z
1/2-x,1/2-y,z
1/2+x,-y,-z
-x,1/2+y,-z
-x,-y,-z
1/2+x,1/2+y,-z
1/2-x,y,z
x,1/2-y,z
loop_
_atom_site_type_symbol
_atom_site_label
_atom_site_fract_x
_atom_site_fract_y
_atom_site_fract_z
Si Si1 0.535234 0.333898 0.972549
Si Si2 0.030517 0.431490 0.638267
Si Si3 0.038500 0.167652 0.790229
Si Si4 0.535800 0.830395 0.509449
Si Si5 0.536355 0.091998 0.321944
Si Si6 0.968437 0.334791 0.154012
O O1 0.750000 0.333564 0.974139
O O2 0.473657 0.250000 0.970342
O O3 0.474802 0.362934 0.062421
O O4 0.483591 0.364877 0.882942
O O5 0.250000 0.432927 0.637262
O O6 0.970972 0.383242 0.716870
O O7 0.970109 0.391762 0.554070
O O8 0.968229 0.513572 0.649694
O O9 0.250000 0.173982 0.776059
O O10 0.964166 0.250000 0.788302
O O11 0.750000 0.828220 0.499793
O O12 0.467472 0.750000 0.489427
O O13 0.497131 0.851669 0.604134
O O14 0.750000 0.085236 0.312676
O O15 0.467195 0.120379 0.233315
O O16 0.750000 0.335886 0.154947
O O17 0.018841 0.250000 0.161422
#
# Coordination Sequence:
#
# PCOD9448146 Si02
#       6
#     8   8   8   8   8   8
#     4   8  14  26  44  65  89 117 150 189 232 274
#     4   9  18  32  49  69  94 125 156 187 231 282
#     4   9  16  28  47  68  90 120 159 196 227 269
#     4  10  20  34  51  70  94 124 155 188 231 282
#     4  10  19  32  51  72  94 121 156 196 231 270
#     4   8  14  26  45  67  90 118 151 186 228 277
#
# _framework density 21.657812
#
# number of rings (size 3 to 8) (size 9 to 14) (size 15 to 20)
#    0.000    3.000    0.000    2.500    0.000    3.000 
#    0.000    3.333    0.000    5.000    0.000    0.000 
#    0.000    0.000    0.000    0.000    0.000    0.000 
#
# Total GULP energy -267760.099520 kJ/mol
# GULP energy per Si atom -5578.335407 kJ/mol
# Density = 2.160852 g / cm^3
# Si number density = 21.657812 Si / 1000 Ang^3
#
#
#
# Elastic Constant Matrix: (Units=GPa)
#
#
# Indices 1 2 3 4 5 6 
#
# 1 58.8817 -2.3019 -10.8053 0.0000 0.0000 0.0000
# 2 -2.3019 41.8656 -7.4836 0.0000 0.0000 0.0000
# 3 -10.8053 -7.4836 84.0460 0.0000 0.0000 0.0000
# 4 0.0000 0.0000 0.0000 -29.2440 0.0000 0.0000
# 5 0.0000 0.0000 0.0000 0.0000 19.4026 0.0000
# 6 0.0000 0.0000 0.0000 0.0000 0.0000 2.9054
#
#
#
# Elastic Compliance Matrix: (Units=1/GPa)
#
#
# Indices 1 2 3 4 5 6 
#
# 1 0.017472 0.001384 0.002370 0.000000 0.000000 0.000000
# 2 0.001384 0.024382 0.002349 0.000000 0.000000 0.000000
# 3 0.002370 0.002349 0.012412 0.000000 0.000000 0.000000
# 4 0.000000 0.000000 0.000000 -0.034195 0.000000 0.000000
# 5 0.000000 0.000000 0.000000 0.000000 0.051540 0.000000
# 6 0.000000 0.000000 0.000000 0.000000 0.000000 0.344192
#
#
# Mechanical properties :
#
#
# Convention : Reuss Voigt Hill
#
# Bulk Modulus (GPa) = 15.04399 15.95685 15.50042
# Shear Modulus (GPa) = 11.74387 12.30507 12.02447
#
# Velocity S-wave (km/s) = 2.33114 2.38619 2.35883
# Velocity P-wave (km/s) = 3.76921 3.86983 3.81985
#
# Compressibility (1/GPa) = 0.06647171
#
# Stress axis : x y z
#
# Youngs Moduli (GPa) = 57.23388 41.01392 80.56694
#
# Poissons Ratio (x) = -0.05677 -0.19091
# Poissons Ratio (y) = -0.07923 -0.18925
# Poissons Ratio (z) = -0.13562 -0.09634
#
# Static dielectric constant tensor:
#      x y z
#    x 1.830020 0.000000 0.000000 
#    y 0.000000 1.764620 0.000000 
#    z 0.000000 0.000000 1.789220 
# 
# From -- ./inp_files/15754.got.cif
#   From: 2010.05.17/outbox.cif.g08.bks.cpg/sg59_8_cif.got.tgz:15754.got - 2010.06.03 14:40:33.
