data_PCOD9448987
_publ_section_title
;
Structure prediction by ZEFSAII (Michael W. Deem and Ramdas Pophale) SiO2 
 PCOD9448987
Probable space group: P M M N
;
_chemical_formula_sum "Si O2"
_cell_formula_units_Z 48
_cell_length_a 7.830789
_cell_length_b 15.720209
_cell_length_c 19.539859
_cell_angle_alpha 90.000000
_cell_angle_beta 90.000000
_cell_angle_gamma 90.000000
_cell_volume 2405.388683
_symmetry_space_group_name_H-M "P M M N"
_symmetry_group_IT_number 59
_space_group.IT_coordinate_system_code '2'
_symmetry_cell_setting 'orthorhombic'
loop_
_space_group_symop_operation_xyz
x,y,z
1/2-x,1/2-y,z
1/2+x,-y,-z
-x,1/2+y,-z
-x,-y,-z
1/2+x,1/2+y,-z
1/2-x,y,z
x,1/2-y,z
loop_
_atom_site_type_symbol
_atom_site_label
_atom_site_fract_x
_atom_site_fract_y
_atom_site_fract_z
Si Si1 0.044331 0.250000 0.921077
Si Si2 0.455954 0.096457 0.827255
Si Si3 0.040742 0.904320 0.825376
Si Si4 0.455518 0.750000 0.920156
Si Si5 0.452572 0.998740 0.420757
Si Si6 0.456022 0.653915 0.326391
Si Si7 0.455140 0.845418 0.674587
O O1 0.250000 0.250000 0.915033
O O2 0.980458 0.333759 0.881249
O O3 0.001440 0.250000 0.000601
O O4 0.250000 0.094715 0.831548
O O5 0.501060 0.125461 0.750622
O O6 0.517056 0.000351 0.839703
O O7 0.250000 0.904514 0.825352
O O8 0.983928 0.834142 0.880068
O O9 0.985034 0.876639 0.749286
O O10 0.250000 0.750000 0.915026
O O11 0.250000 0.992668 0.416636
O O12 0.503311 0.084924 0.382098
O O13 0.500000 0.000000 0.500000
O O14 0.523028 0.917090 0.379168
O O15 0.250000 0.656303 0.331825
O O16 0.519589 0.750000 0.338594
O O17 0.250000 0.841001 0.678731
O O18 0.518977 0.750000 0.660170
#
# Coordination Sequence:
#
# PCOD9448987 Si02
#       7
#     4   8   8   4   8   8   8
#     4  10  22  36  50  80 117 146 181 234 289 332
#     4  10  19  34  58  82 108 144 187 231 278 337
#     4   9  17  32  57  84 107 140 189 232 272 332
#     4  10  20  36  56  80 111 150 189 228 275 336
#     4  11  24  40  58  85 120 154 189 236 289 342
#     4  10  21  37  58  84 113 144 186 236 283 334
#     4  10  19  35  62  89 113 147 192 239 287 341
#
# _framework density 19.955193999999999
#
# number of rings (size 3 to 8) (size 9 to 14) (size 15 to 20)
#    0.000    2.000    3.333    0.500    0.000    3.000 
#    0.000    3.333    0.000    0.000    0.000    0.000 
#    0.000    0.000    0.000    0.000    0.000    0.000 
#
# Total GULP energy -268061.685752 kJ/mol
# GULP energy per Si atom -5584.618453 kJ/mol
# Density = 1.990978 g / cm^3
# Si number density = 19.955194 Si / 1000 Ang^3
#
#
#
# Elastic Constant Matrix: (Units=GPa)
#
#
# Indices 1 2 3 4 5 6 
#
# 1 22.2785 14.6633 0.2480 0.0000 0.0000 0.0000
# 2 14.6633 257.4438 136.1995 0.0000 0.0000 0.0000
# 3 0.2480 136.1995 196.3725 0.0000 0.0000 0.0000
# 4 0.0000 0.0000 0.0000 37.0810 0.0000 0.0000
# 5 0.0000 0.0000 0.0000 0.0000 27.7714 0.0000
# 6 0.0000 0.0000 0.0000 0.0000 0.0000 15.8598
#
#
#
# Elastic Compliance Matrix: (Units=1/GPa)
#
#
# Indices 1 2 3 4 5 6 
#
# 1 0.047642 -0.004236 0.002878 0.000000 0.000000 0.000000
# 2 -0.004236 0.006512 -0.004512 0.000000 0.000000 0.000000
# 3 0.002878 -0.004512 0.008218 0.000000 0.000000 0.000000
# 4 0.000000 0.000000 0.000000 0.026968 0.000000 0.000000
# 5 0.000000 0.000000 0.000000 0.000000 0.036008 0.000000
# 6 0.000000 0.000000 0.000000 0.000000 0.000000 0.063053
#
#
# Mechanical properties :
#
#
# Convention : Reuss Voigt Hill
#
# Bulk Modulus (GPa) = 19.74986 86.47959 53.11472
# Shear Modulus (GPa) = 23.03947 37.80804 30.42375
#
# Velocity S-wave (km/s) = 3.40157 4.35748 3.90885
# Velocity P-wave (km/s) = 5.03450 8.29143 6.85908
#
# Compressibility (1/GPa) = 0.05063327
#
# Stress axis : x y z
#
# Youngs Moduli (GPa) = 20.98966 153.55276 121.68690
#
# Poissons Ratio (x) = 0.65047 -0.35021
# Poissons Ratio (y) = 0.08892 0.54899
# Poissons Ratio (z) = -0.06041 0.69276
#
# Static dielectric constant tensor:
#      x y z
#    x 1.736730 0.000000 0.000000 
#    y 0.000000 1.719940 0.000000 
#    z 0.000000 0.000000 1.606550 
# 
# From -- ./inp_files/25541.got.cif
#   From: 2010.05.17/outbox.cif.g08.bks.cpg/sg59_13_cif.got.tgz:25541.got - 2010.06.03 14:40:33.
