data_PCOD9448250
_publ_section_title
;
Structure prediction by ZEFSAII (Michael W. Deem and Ramdas Pophale) SiO2 
 PCOD9448250
Probable space group: P M M N
;
_chemical_formula_sum "Si O2"
_cell_formula_units_Z 64
_cell_length_a 19.610625
_cell_length_b 9.453601
_cell_length_c 20.491876
_cell_angle_alpha 90.000000
_cell_angle_beta 90.000000
_cell_angle_gamma 90.000000
_cell_volume 3799.009878
_symmetry_space_group_name_H-M "P M M N"
_symmetry_group_IT_number 59
_space_group.IT_coordinate_system_code '2'
_symmetry_cell_setting 'orthorhombic'
loop_
_space_group_symop_operation_xyz
x,y,z
1/2-x,1/2-y,z
1/2+x,-y,-z
-x,1/2+y,-z
-x,-y,-z
1/2+x,1/2+y,-z
1/2-x,y,z
x,1/2-y,z
loop_
_atom_site_type_symbol
_atom_site_label
_atom_site_fract_x
_atom_site_fract_y
_atom_site_fract_z
Si Si1 0.170089 0.417990 0.343281
Si Si2 0.332865 0.587695 0.472026
Si Si3 0.899959 0.415599 0.035410
Si Si4 0.055130 0.083884 0.086845
Si Si5 0.329002 0.416454 0.853233
Si Si6 0.056529 0.080608 0.237775
Si Si7 0.079362 0.080439 0.727848
Si Si8 0.830443 0.918681 0.398506
O O1 0.250000 0.448991 0.330802
O O2 0.165050 0.250000 0.357487
O O3 0.146703 0.505784 0.406452
O O4 0.122869 0.449093 0.281346
O O5 0.250000 0.587962 0.471720
O O6 0.356203 0.750000 0.472417
O O7 0.352487 0.504382 0.537444
O O8 0.885313 0.250000 0.028826
O O9 0.848607 0.492354 0.084182
O O10 0.975207 0.430441 0.068120
O O11 0.904249 0.491472 0.965534
O O12 0.072797 0.250000 0.080021
O O13 0.065168 0.040417 0.161833
O O14 0.250000 0.434523 0.835460
O O15 0.340329 0.250000 0.867612
O O16 0.376392 0.454822 0.792064
O O17 0.044380 0.250000 0.238884
O O18 0.991592 0.000906 0.267327
O O19 0.068251 0.250000 0.727843
O O20 0.123564 0.045604 0.663828
O O21 0.750000 0.947923 0.385526
O O22 0.835812 0.750000 0.410596
#
# Coordination Sequence:
#
# PCOD9448250 Si02
#       8
#     8   8   8   8   8   8   8   8
#     4   9  18  34  56  78  99 128 166 208 257 313
#     4   9  17  30  50  76 103 131 167 211 256 304
#     4  10  19  32  52  76 101 132 172 215 255 300
#     4   9  18  33  52  74 102 133 167 209 256 306
#     4  10  20  34  52  75 106 142 177 214 257 306
#     4  10  20  35  54  77 105 135 169 212 259 308
#     4  10  20  33  51  76 105 137 175 214 254 304
#     4   9  17  31  51  74 102 137 175 213 252 298
#
# _framework density 16.846495000000001
#
# number of rings (size 3 to 8) (size 9 to 14) (size 15 to 20)
#    0.000    2.500    1.250    1.125    0.000    5.250 
#    0.000    1.250    0.000    4.500    0.000    0.000 
#    0.000    0.000    0.000    0.000    0.000    0.000 
#
# Total GULP energy -356912.999940 kJ/mol
# GULP energy per Si atom -5576.765624 kJ/mol
# Density = 1.680815 g / cm^3
# Si number density = 16.846495 Si / 1000 Ang^3
#
#
#
# Elastic Constant Matrix: (Units=GPa)
#
#
# Indices 1 2 3 4 5 6 
#
# 1 64.3079 43.5262 58.2209 0.0000 0.0000 0.0000
# 2 43.5262 52.9726 67.0154 0.0000 0.0000 0.0000
# 3 58.2209 67.0154 156.9580 0.0000 0.0000 0.0000
# 4 0.0000 0.0000 0.0000 21.9614 0.0000 0.0000
# 5 0.0000 0.0000 0.0000 0.0000 25.4268 0.0000
# 6 0.0000 0.0000 0.0000 0.0000 0.0000 24.0088
#
#
#
# Elastic Compliance Matrix: (Units=1/GPa)
#
#
# Indices 1 2 3 4 5 6 
#
# 1 0.035204 -0.026979 -0.001539 0.000000 0.000000 0.000000
# 2 -0.026979 0.061727 -0.016348 0.000000 0.000000 0.000000
# 3 -0.001539 -0.016348 0.013922 0.000000 0.000000 0.000000
# 4 0.000000 0.000000 0.000000 0.045534 0.000000 0.000000
# 5 0.000000 0.000000 0.000000 0.000000 0.039329 0.000000
# 6 0.000000 0.000000 0.000000 0.000000 0.000000 0.041651
#
#
# Mechanical properties :
#
#
# Convention : Reuss Voigt Hill
#
# Bulk Modulus (GPa) = 47.34600 67.97373 57.65987
# Shear Modulus (GPa) = 14.96374 21.31112 18.13743
#
# Velocity S-wave (km/s) = 2.98357 3.56057 3.28476
# Velocity P-wave (km/s) = 6.32727 7.57232 6.97762
#
# Compressibility (1/GPa) = 0.02112111
#
# Stress axis : x y z
#
# Youngs Moduli (GPa) = 28.40562 16.20032 71.82815
#
# Poissons Ratio (x) = 0.43707 0.11057
# Poissons Ratio (y) = 0.76635 1.17424
# Poissons Ratio (z) = 0.04373 0.26484
#
# Static dielectric constant tensor:
#      x y z
#    x 1.550210 0.000000 0.000000 
#    y 0.000000 1.561990 0.000000 
#    z 0.000000 0.000000 1.550960 
# 
# From -- ./inp_files/28198.got.cif
#   From: 2010.05.17/outbox.cif.g08.bks.cpg/sg59_15_cif.got.tgz:28198.got - 2010.06.03 14:40:33.
