data_PCOD9448570
_publ_section_title
;
Structure prediction by ZEFSAII (Michael W. Deem and Ramdas Pophale) SiO2 
 PCOD9448570
Probable space group: P M M N
;
_chemical_formula_sum "Si O2"
_cell_formula_units_Z 56
_cell_length_a 23.274623
_cell_length_b 8.662439
_cell_length_c 15.701072
_cell_angle_alpha 90.000000
_cell_angle_beta 90.000000
_cell_angle_gamma 90.000000
_cell_volume 3165.571662
_symmetry_space_group_name_H-M "P M M N"
_symmetry_group_IT_number 59
_space_group.IT_coordinate_system_code '2'
_symmetry_cell_setting 'orthorhombic'
loop_
_space_group_symop_operation_xyz
x,y,z
1/2-x,1/2-y,z
1/2+x,-y,-z
-x,1/2+y,-z
-x,-y,-z
1/2+x,1/2+y,-z
1/2-x,y,z
x,1/2-y,z
loop_
_atom_site_type_symbol
_atom_site_label
_atom_site_fract_x
_atom_site_fract_y
_atom_site_fract_z
Si Si1 0.548732 0.563814 0.699880
Si Si2 0.063230 0.066282 0.986599
Si Si3 0.867581 0.066025 0.165286
Si Si4 0.750000 0.566647 0.877682
Si Si5 0.580354 0.564241 0.328318
Si Si6 0.627239 0.434298 0.850564
Si Si7 0.936189 0.935381 0.513458
Si Si8 0.750000 0.066000 0.067215
O O1 0.546236 0.750000 0.706773
O O2 0.483529 0.499973 0.694002
O O3 0.583949 0.496282 0.778600
O O4 0.579583 0.519838 0.609869
O O5 0.063126 0.250000 0.994476
O O6 0.085706 0.015398 0.894606
O O7 0.104541 0.994809 0.058405
O O8 0.000000 0.000000 0.000000
O O9 0.876315 0.250000 0.163369
O O10 0.806217 0.031744 0.122823
O O11 0.875951 0.004214 0.260079
O O12 0.750000 0.750000 0.868126
O O13 0.691722 0.496881 0.838869
O O14 0.750000 0.522779 0.978055
O O15 0.578757 0.750000 0.322460
O O16 0.595378 0.518916 0.426104
O O17 0.627273 0.250000 0.851122
O O18 0.938440 0.750000 0.513314
O O19 0.000000 0.000000 0.500000
O O20 0.750000 0.250000 0.047429
#
# Coordination Sequence:
#
# PCOD9448570 Si02
#       8
#     8   8   8   4   8   8   8   4
#     4  10  19  34  55  82 112 145 185 227 273 327
#     4  12  24  38  55  79 109 144 180 221 272 328
#     4  11  22  37  56  79 107 142 181 226 274 322
#     4  12  24  40  62  83 104 139 188 231 272 324
#     4  10  19  33  53  82 115 147 181 222 275 331
#     4  12  24  39  57  80 111 145 181 227 276 325
#     4   8  16  30  51  77 109 144 180 222 269 323
#     4  10  22  40  60  77 104 141 184 229 274 318
#
# _framework density 17.690328999999998
#
# number of rings (size 3 to 8) (size 9 to 14) (size 15 to 20)
#    0.000    1.429    1.429    5.357    0.000    1.714 
#    0.000    0.000    0.000    0.857    0.000    5.000 
#    0.000    0.000    0.000    0.000    0.000    0.000 
#
# Total GULP energy -312685.242779 kJ/mol
# GULP energy per Si atom -5583.665050 kJ/mol
# Density = 1.765006 g / cm^3
# Si number density = 17.690329 Si / 1000 Ang^3
#
#
#
# Elastic Constant Matrix: (Units=GPa)
#
#
# Indices 1 2 3 4 5 6 
#
# 1 39.7896 17.2833 -15.9028 0.0000 0.0000 0.0000
# 2 17.2833 90.1647 16.7298 0.0000 0.0000 0.0000
# 3 -15.9028 16.7298 72.2117 0.0000 0.0000 0.0000
# 4 0.0000 0.0000 0.0000 23.9829 0.0000 0.0000
# 5 0.0000 0.0000 0.0000 0.0000 11.8780 0.0000
# 6 0.0000 0.0000 0.0000 0.0000 0.0000 20.9772
#
#
#
# Elastic Compliance Matrix: (Units=1/GPa)
#
#
# Indices 1 2 3 4 5 6 
#
# 1 0.032059 -0.007790 0.008865 0.000000 0.000000 0.000000
# 2 -0.007790 0.013482 -0.004839 0.000000 0.000000 0.000000
# 3 0.008865 -0.004839 0.016922 0.000000 0.000000 0.000000
# 4 0.000000 0.000000 0.000000 0.041696 0.000000 0.000000
# 5 0.000000 0.000000 0.000000 0.000000 0.084189 0.000000
# 6 0.000000 0.000000 0.000000 0.000000 0.000000 0.047671
#
#
# Mechanical properties :
#
#
# Convention : Reuss Voigt Hill
#
# Bulk Modulus (GPa) = 18.20361 26.48741 22.34551
# Shear Modulus (GPa) = 19.09425 23.63799 21.36612
#
# Velocity S-wave (km/s) = 3.28893 3.65939 3.47909
# Velocity P-wave (km/s) = 4.97345 5.73238 5.36635
#
# Compressibility (1/GPa) = 0.05493414
#
# Stress axis : x y z
#
# Youngs Moduli (GPa) = 31.19245 74.17331 59.09622
#
# Poissons Ratio (x) = 0.57782 -0.52389
# Poissons Ratio (y) = 0.24299 0.28597
# Poissons Ratio (z) = -0.27652 0.35893
#
# Static dielectric constant tensor:
#      x y z
#    x 1.577380 0.000000 0.000000 
#    y 0.000000 1.590990 0.000000 
#    z 0.000000 0.000000 1.624790 
# 
# From -- ./inp_files/24337.got.cif
#   From: 2010.05.17/outbox.cif.g08.bks.cpg/sg59_13_cif.got.tgz:24337.got - 2010.06.03 14:40:33.
