data_PCOD9448231
_publ_section_title
;
Structure prediction by ZEFSAII (Michael W. Deem and Ramdas Pophale) SiO2 
 PCOD9448231
Probable space group: P M M N
;
_chemical_formula_sum "Si O2"
_cell_formula_units_Z 64
_cell_length_a 7.678765
_cell_length_b 18.111018
_cell_length_c 22.409646
_cell_angle_alpha 90.000000
_cell_angle_beta 90.000000
_cell_angle_gamma 90.000000
_cell_volume 3116.515097
_symmetry_space_group_name_H-M "P M M N"
_symmetry_group_IT_number 59
_space_group.IT_coordinate_system_code '2'
_symmetry_cell_setting 'orthorhombic'
loop_
_space_group_symop_operation_xyz
x,y,z
1/2-x,1/2-y,z
1/2+x,-y,-z
-x,1/2+y,-z
-x,-y,-z
1/2+x,1/2+y,-z
1/2-x,y,z
x,1/2-y,z
loop_
_atom_site_type_symbol
_atom_site_label
_atom_site_fract_x
_atom_site_fract_y
_atom_site_fract_z
Si Si1 0.039732 0.897373 0.124818
Si Si2 0.542306 0.831216 0.999533
Si Si3 0.537148 0.665544 0.783048
Si Si4 0.537145 0.934792 0.895578
Si Si5 0.953389 0.669433 0.383028
Si Si6 0.551596 0.487526 0.567830
Si Si7 0.039472 0.611046 0.256796
Si Si8 0.037226 0.452746 0.310064
O O1 0.250000 0.899228 0.127338
O O2 0.980205 0.870764 0.190051
O O3 0.989471 0.848638 0.068493
O O4 0.977799 0.981335 0.113332
O O5 0.750000 0.828965 0.990121
O O6 0.472705 0.750000 0.983708
O O7 0.476276 0.896304 0.956662
O O8 0.750000 0.666833 0.783100
O O9 0.477828 0.750000 0.785170
O O10 0.485849 0.617871 0.840773
O O11 0.480437 0.620221 0.724527
O O12 0.750000 0.937625 0.895664
O O13 0.750000 0.667362 0.398695
O O14 0.024795 0.750000 0.399378
O O15 0.037088 0.598344 0.413814
O O16 0.970291 0.658357 0.311815
O O17 0.500000 0.500000 0.500000
O O18 0.750000 0.510485 0.569771
O O19 0.467782 0.532613 0.623075
O O20 0.250000 0.616613 0.259141
O O21 0.993378 0.525840 0.271702
O O22 0.250000 0.451160 0.311112
#
# Coordination Sequence:
#
# PCOD9448231 Si02
#       8
#     8   8   8   8   8   8   8   8
#     4  10  19  32  52  73  95 129 172 215 257 312
#     4  10  21  34  46  66  98 131 165 211 263 311
#     4   9  14  22  43  73 100 125 157 202 257 308
#     4   9  16  29  48  69  95 127 166 209 255 309
#     4  10  21  36  55  81 111 140 176 224 271 314
#     4  10  20  35  57  81 110 148 187 220 257 308
#     4   9  17  31  51  73  99 132 169 211 260 315
#     4   8  14  27  45  69 100 130 162 204 250 298
#
# _framework density 20.535757
#
# number of rings (size 3 to 8) (size 9 to 14) (size 15 to 20)
#    0.000    2.625    1.250    2.250    0.000    3.750 
#    0.000    3.125    0.000    2.250    0.000    0.000 
#    0.000    9.500    0.000    0.000    0.000    0.000 
#
# Total GULP energy -357054.995501 kJ/mol
# GULP energy per Si atom -5578.984305 kJ/mol
# Density = 2.048902 g / cm^3
# Si number density = 20.535757 Si / 1000 Ang^3
#
#
#
# Elastic Constant Matrix: (Units=GPa)
#
#
# Indices 1 2 3 4 5 6 
#
# 1 27.8476 -12.3546 -5.7400 0.0000 0.0000 0.0000
# 2 -12.3546 44.3097 1.0774 0.0000 0.0000 0.0000
# 3 -5.7400 1.0774 109.7168 0.0000 0.0000 0.0000
# 4 0.0000 0.0000 0.0000 13.3821 0.0000 0.0000
# 5 0.0000 0.0000 0.0000 0.0000 19.3973 0.0000
# 6 0.0000 0.0000 0.0000 0.0000 0.0000 8.5509
#
#
#
# Elastic Compliance Matrix: (Units=1/GPa)
#
#
# Indices 1 2 3 4 5 6 
#
# 1 0.041437 0.011504 0.002055 0.000000 0.000000 0.000000
# 2 0.011504 0.025767 0.000349 0.000000 0.000000 0.000000
# 3 0.002055 0.000349 0.009218 0.000000 0.000000 0.000000
# 4 0.000000 0.000000 0.000000 0.074727 0.000000 0.000000
# 5 0.000000 0.000000 0.000000 0.000000 0.051554 0.000000
# 6 0.000000 0.000000 0.000000 0.000000 0.000000 0.116947
#
#
# Mechanical properties :
#
#
# Convention : Reuss Voigt Hill
#
# Bulk Modulus (GPa) = 9.59350 16.42664 13.01007
# Shear Modulus (GPa) = 15.31011 21.52547 18.41779
#
# Velocity S-wave (km/s) = 2.73341 3.24110 2.99802
# Velocity P-wave (km/s) = 3.82672 4.69283 4.28173
#
# Compressibility (1/GPa) = 0.10423727
#
# Stress axis : x y z
#
# Youngs Moduli (GPa) = 24.13312 38.80872 108.47810
#
# Poissons Ratio (x) = -0.44644 -0.22291
# Poissons Ratio (y) = -0.27762 -0.03784
# Poissons Ratio (z) = -0.04959 -0.01354
#
# Static dielectric constant tensor:
#      x y z
#    x 1.788680 0.000000 0.000000 
#    y 0.000000 1.717820 0.000000 
#    z 0.000000 0.000000 1.755280 
# 
# From -- ./inp_files/29475.got.cif
#   From: 2010.05.17/outbox.cif.g08.bks.cpg/sg59_15_cif.got.tgz:29475.got - 2010.06.03 14:40:33.
