data_PCOD9448872
_publ_section_title
;
Structure prediction by ZEFSAII (Michael W. Deem and Ramdas Pophale) SiO2 
 PCOD9448872
Probable space group: P M M N
;
_chemical_formula_sum "Si O2"
_cell_formula_units_Z 56
_cell_length_a 23.083197
_cell_length_b 11.695565
_cell_length_c 12.208478
_cell_angle_alpha 90.000000
_cell_angle_beta 90.000000
_cell_angle_gamma 90.000000
_cell_volume 3295.935392
_symmetry_space_group_name_H-M "P M M N"
_symmetry_group_IT_number 59
_space_group.IT_coordinate_system_code '2'
_symmetry_cell_setting 'orthorhombic'
loop_
_space_group_symop_operation_xyz
x,y,z
1/2-x,1/2-y,z
1/2+x,-y,-z
-x,1/2+y,-z
-x,-y,-z
1/2+x,1/2+y,-z
1/2-x,y,z
x,1/2-y,z
loop_
_atom_site_type_symbol
_atom_site_label
_atom_site_fract_x
_atom_site_fract_y
_atom_site_fract_z
Si Si1 0.315885 0.887517 0.537542
Si Si2 0.001697 0.612363 0.418574
Si Si3 0.879468 0.555834 0.324129
Si Si4 0.372395 0.883725 0.315756
Si Si5 0.680629 0.968281 0.858982
Si Si6 0.818015 0.612760 0.103240
Si Si7 0.319090 0.250000 0.534821
Si Si8 0.319788 0.250000 0.286566
O O1 0.250000 0.922698 0.564094
O O2 0.317776 0.750000 0.536570
O O3 0.333144 0.931354 0.416096
O O4 0.362443 0.934431 0.623583
O O5 0.000270 0.750000 0.457317
O O6 0.945277 0.593013 0.343617
O O7 0.000000 0.500000 0.500000
O O8 0.061416 0.599757 0.352099
O O9 0.857908 0.567606 0.200537
O O10 0.841710 0.641849 0.398540
O O11 0.360868 0.750000 0.313183
O O12 0.354684 0.932599 0.199181
O O13 0.750000 0.987108 0.848794
O O14 0.664441 0.859398 0.784672
O O15 0.668796 0.942382 0.985593
O O16 0.750000 0.590606 0.128776
O O17 0.824342 0.750000 0.094545
O O18 0.250000 0.250000 0.532961
O O19 0.342302 0.250000 0.410409
O O20 0.250000 0.250000 0.294098
#
# Coordination Sequence:
#
# PCOD9448872 Si02
#       8
#     8   8   8   8   8   8   4   4
#     4  10  20  34  54  82 116 150 183 229 294 358
#     4  11  23  40  59  83 117 158 201 243 294 355
#     4  12  21  35  57  84 113 152 191 232 287 354
#     4  10  21  37  56  78 109 152 194 241 287 338
#     4  10  19  34  55  80 110 147 187 234 289 345
#     4  10  19  34  55  82 117 150 181 228 295 356
#     4  11  20  29  51  89 119 136 170 230 291 349
#     4   9  18  29  47  79 115 140 171 226 289 341
#
# _framework density 16.990625000000001
#
# number of rings (size 3 to 8) (size 9 to 14) (size 15 to 20)
#    0.000    1.571    3.571    2.571    0.000    2.000 
#    0.000    1.429    0.000    0.857    0.000    0.000 
#    0.000    0.000    0.000    0.000    0.000    0.000 
#
# Total GULP energy -312154.569907 kJ/mol
# GULP energy per Si atom -5574.188748 kJ/mol
# Density = 1.695195 g / cm^3
# Si number density = 16.990625 Si / 1000 Ang^3
#
#
#
# Elastic Constant Matrix: (Units=GPa)
#
#
# Indices 1 2 3 4 5 6 
#
# 1 50.8218 30.2068 34.0445 0.0000 0.0000 0.0000
# 2 30.2068 56.8162 37.6835 0.0000 0.0000 0.0000
# 3 34.0445 37.6835 119.4376 0.0000 0.0000 0.0000
# 4 0.0000 0.0000 0.0000 19.1869 0.0000 0.0000
# 5 0.0000 0.0000 0.0000 0.0000 20.5873 0.0000
# 6 0.0000 0.0000 0.0000 0.0000 0.0000 25.0733
#
#
#
# Elastic Compliance Matrix: (Units=1/GPa)
#
#
# Indices 1 2 3 4 5 6 
#
# 1 0.030596 -0.013256 -0.004539 0.000000 0.000000 0.000000
# 2 -0.013256 0.028002 -0.005056 0.000000 0.000000 0.000000
# 3 -0.004539 -0.005056 0.011262 0.000000 0.000000 0.000000
# 4 0.000000 0.000000 0.000000 0.052119 0.000000 0.000000
# 5 0.000000 0.000000 0.000000 0.000000 0.048574 0.000000
# 6 0.000000 0.000000 0.000000 0.000000 0.000000 0.039883
#
#
# Mechanical properties :
#
#
# Convention : Reuss Voigt Hill
#
# Bulk Modulus (GPa) = 41.39563 47.88280 44.63921
# Shear Modulus (GPa) = 18.92577 21.31222 20.11900
#
# Velocity S-wave (km/s) = 3.34113 3.54553 3.44484
# Velocity P-wave (km/s) = 6.26904 6.70851 6.49249
#
# Compressibility (1/GPa) = 0.02415714
#
# Stress axis : x y z
#
# Youngs Moduli (GPa) = 32.68399 35.71174 88.79781
#
# Poissons Ratio (x) = 0.47341 0.40302
# Poissons Ratio (y) = 0.43327 0.44898
# Poissons Ratio (z) = 0.14834 0.18057
#
# Static dielectric constant tensor:
#      x y z
#    x 1.572550 0.000000 0.000000 
#    y 0.000000 1.573510 0.000000 
#    z 0.000000 0.000000 1.558550 
# 
# From -- ./inp_files/18727.got.cif
#   From: 2010.05.17/outbox.cif.g08.bks.cpg/sg59_10_cif.got.tgz:18727.got - 2010.06.03 14:40:33.
