data_PCOD9448270
_publ_section_title
;
Structure prediction by ZEFSAII (Michael W. Deem and Ramdas Pophale) SiO2 
 PCOD9448270
Probable space group: P M M N
;
_chemical_formula_sum "Si O2"
_cell_formula_units_Z 64
_cell_length_a 8.851153
_cell_length_b 19.449862
_cell_length_c 21.953540
_cell_angle_alpha 90.000000
_cell_angle_beta 90.000000
_cell_angle_gamma 90.000000
_cell_volume 3779.383235
_symmetry_space_group_name_H-M "P M M N"
_symmetry_group_IT_number 59
_space_group.IT_coordinate_system_code '2'
_symmetry_cell_setting 'orthorhombic'
loop_
_space_group_symop_operation_xyz
x,y,z
1/2-x,1/2-y,z
1/2+x,-y,-z
-x,1/2+y,-z
-x,-y,-z
1/2+x,1/2+y,-z
1/2-x,y,z
x,1/2-y,z
loop_
_atom_site_type_symbol
_atom_site_label
_atom_site_fract_x
_atom_site_fract_y
_atom_site_fract_z
Si Si1 0.431227 0.330252 0.472556
Si Si2 0.929861 0.330895 0.603607
Si Si3 0.578242 0.861654 0.773302
Si Si4 0.067941 0.973427 0.937161
Si Si5 0.430080 0.057281 0.691643
Si Si6 0.422953 0.978732 0.184771
Si Si7 0.933030 0.586473 0.647334
Si Si8 0.930622 0.323444 0.104919
O O1 0.250000 0.335865 0.481171
O O2 0.463782 0.250000 0.458139
O O3 0.513188 0.347834 0.535527
O O4 0.474232 0.379424 0.416712
O O5 0.750000 0.340968 0.607572
O O6 0.962849 0.250000 0.613658
O O7 0.012038 0.379114 0.651930
O O8 0.750000 0.835365 0.777291
O O9 0.526837 0.862579 0.703406
O O10 0.475920 0.827520 0.824176
O O11 0.581271 0.942276 0.791642
O O12 0.250000 0.975255 0.938283
O O13 0.008217 0.017321 0.879566
O O14 0.016150 0.894158 0.925902
O O15 0.000000 0.000000 0.000000
O O16 0.250000 0.054421 0.693459
O O17 0.494820 0.060541 0.760424
O O18 0.492760 0.987108 0.660658
O O19 0.250000 0.955535 0.177162
O O20 0.750000 0.578419 0.649818
O O21 0.750000 0.324013 0.100114
O O22 0.987128 0.250000 0.080159
#
# Coordination Sequence:
#
# PCOD9448270 Si02
#       8
#     8   8   8   8   8   8   8   8
#     4   9  18  33  51  70  95 129 169 213 259 306
#     4  10  21  37  55  73  95 126 165 209 260 316
#     4   8  15  27  44  67  94 125 159 195 236 283
#     4  10  19  32  52  77 105 137 172 207 246 295
#     4  11  21  33  53  78 102 129 163 207 254 299
#     4   9  17  32  52  74 101 128 158 198 242 290
#     4   9  18  32  49  71 101 134 167 204 248 299
#     4   9  18  31  46  67  97 132 168 205 243 285
#
# _framework density 16.933979000000001
#
# number of rings (size 3 to 8) (size 9 to 14) (size 15 to 20)
#    0.000    2.625    0.000    3.000    0.000    6.000 
#    0.000    1.250    0.000    2.250    0.000    1.750 
#    0.000    0.000    0.000    0.000    0.000    0.000 
#
# Total GULP energy -356706.641146 kJ/mol
# GULP energy per Si atom -5573.541268 kJ/mol
# Density = 1.689544 g / cm^3
# Si number density = 16.933979 Si / 1000 Ang^3
#
#
#
# Elastic Constant Matrix: (Units=GPa)
#
#
# Indices 1 2 3 4 5 6 
#
# 1 63.1557 37.8339 58.2754 0.0000 0.0000 0.0000
# 2 37.8339 68.9119 68.5053 0.0000 0.0000 0.0000
# 3 58.2754 68.5053 149.6953 0.0000 0.0000 0.0000
# 4 0.0000 0.0000 0.0000 9.7140 0.0000 0.0000
# 5 0.0000 0.0000 0.0000 0.0000 30.4328 0.0000
# 6 0.0000 0.0000 0.0000 0.0000 0.0000 17.2787
#
#
#
# Elastic Compliance Matrix: (Units=1/GPa)
#
#
# Indices 1 2 3 4 5 6 
#
# 1 0.026917 -0.008001 -0.006817 0.000000 0.000000 0.000000
# 2 -0.008001 0.029001 -0.010157 0.000000 0.000000 0.000000
# 3 -0.006817 -0.010157 0.013982 0.000000 0.000000 0.000000
# 4 0.000000 0.000000 0.000000 0.102945 0.000000 0.000000
# 5 0.000000 0.000000 0.000000 0.000000 0.032859 0.000000
# 6 0.000000 0.000000 0.000000 0.000000 0.000000 0.057875
#
#
# Mechanical properties :
#
#
# Convention : Reuss Voigt Hill
#
# Bulk Modulus (GPa) = 50.12508 67.88800 59.00654
# Shear Modulus (GPa) = 15.61619 19.29498 17.45559
#
# Velocity S-wave (km/s) = 3.04004 3.37920 3.21409
# Velocity P-wave (km/s) = 6.47974 7.44326 6.97815
#
# Compressibility (1/GPa) = 0.01995009
#
# Stress axis : x y z
#
# Youngs Moduli (GPa) = 37.15063 34.48129 71.51894
#
# Poissons Ratio (x) = 0.27589 0.48756
# Poissons Ratio (y) = 0.29725 0.72642
# Poissons Ratio (z) = 0.25326 0.35023
#
# Static dielectric constant tensor:
#      x y z
#    x 1.572560 0.000000 0.000000 
#    y 0.000000 1.582810 0.000000 
#    z 0.000000 0.000000 1.557810 
# 
# From -- ./inp_files/29508.got.cif
#   From: 2010.05.17/outbox.cif.g08.bks.cpg/sg59_15_cif.got.tgz:29508.got - 2010.06.03 14:40:33.
