data_PCOD9448175
_publ_section_title
;
Structure prediction by ZEFSAII (Michael W. Deem and Ramdas Pophale) SiO2 
 PCOD9448175
Probable space group: P M M N
;
_chemical_formula_sum "Si O2"
_cell_formula_units_Z 40
_cell_length_a 27.190417
_cell_length_b 8.225242
_cell_length_c 9.817091
_cell_angle_alpha 90.000000
_cell_angle_beta 90.000000
_cell_angle_gamma 90.000000
_cell_volume 2195.570411
_symmetry_space_group_name_H-M "P M M N"
_symmetry_group_IT_number 59
_space_group.IT_coordinate_system_code '2'
_symmetry_cell_setting 'orthorhombic'
loop_
_space_group_symop_operation_xyz
x,y,z
1/2-x,1/2-y,z
1/2+x,-y,-z
-x,1/2+y,-z
-x,-y,-z
1/2+x,1/2+y,-z
1/2-x,y,z
x,1/2-y,z
loop_
_atom_site_type_symbol
_atom_site_label
_atom_site_fract_x
_atom_site_fract_y
_atom_site_fract_z
Si Si1 0.946570 0.055620 0.656520
Si Si2 0.856669 0.944848 0.841461
Si Si3 0.642454 0.054214 0.154491
Si Si4 0.750000 0.052718 0.138191
Si Si5 0.445660 0.946270 0.656211
Si Si6 0.250000 0.441673 0.172973
O O1 0.946984 0.250000 0.654794
O O2 0.940218 0.996569 0.500260
O O3 0.902191 0.998357 0.750414
O O4 0.000133 0.996592 0.704735
O O5 0.854350 0.750000 0.843501
O O6 0.803597 0.008058 0.785144
O O7 0.862744 0.002598 0.997295
O O8 0.640386 0.250000 0.157627
O O9 0.697614 0.007420 0.203188
O O10 0.598306 0.992077 0.248409
O O11 0.750000 0.250000 0.119994
O O12 0.750000 0.969482 0.990070
O O13 0.443771 0.750000 0.654928
O O14 0.250000 0.250000 0.204578
#
# Coordination Sequence:
#
# PCOD9448175 Si02
#       6
#     8   8   8   4   8   4
#     4  10  20  34  51  71  96 128 164 200 241 287
#     4  10  19  32  51  74  99 127 160 197 237 282
#     4   9  17  31  51  74  98 123 156 197 239 284
#     4   8  14  26  47  72  96 122 150 188 239 286
#     4   9  19  35  52  70  95 128 163 199 241 288
#     4   8  16  30  47  68  96 128 158 190 231 280
#
# _framework density 18.218499000000001
#
# number of rings (size 3 to 8) (size 9 to 14) (size 15 to 20)
#    0.000    2.800    0.000    1.200    0.000    3.200 
#    0.000    1.000    0.000    2.400    0.000    4.200 
#    0.000    0.000    0.000    0.000    0.000    0.000 
#
# Total GULP energy -222786.366628 kJ/mol
# GULP energy per Si atom -5569.659166 kJ/mol
# Density = 1.817703 g / cm^3
# Si number density = 18.218499 Si / 1000 Ang^3
#
#
#
# Elastic Constant Matrix: (Units=GPa)
#
#
# Indices 1 2 3 4 5 6 
#
# 1 230.0290 16.0084 88.4094 0.0000 0.0000 0.0000
# 2 16.0084 10.2077 6.2833 0.0000 0.0000 0.0000
# 3 88.4094 6.2833 54.2290 0.0000 0.0000 0.0000
# 4 0.0000 0.0000 0.0000 12.7179 0.0000 0.0000
# 5 0.0000 0.0000 0.0000 0.0000 -37.7697 0.0000
# 6 0.0000 0.0000 0.0000 0.0000 0.0000 -7.9259
#
#
#
# Elastic Compliance Matrix: (Units=1/GPa)
#
#
# Indices 1 2 3 4 5 6 
#
# 1 0.012137 -0.007381 -0.018932 0.000000 0.000000 0.000000
# 2 -0.007381 0.109977 -0.000710 0.000000 0.000000 0.000000
# 3 -0.018932 -0.000710 0.049388 0.000000 0.000000 0.000000
# 4 0.000000 0.000000 0.000000 0.078629 0.000000 0.000000
# 5 0.000000 0.000000 0.000000 0.000000 -0.026476 0.000000
# 6 0.000000 0.000000 0.000000 0.000000 0.000000 -0.126169
#
#
# Mechanical properties :
#
#
# Convention : Reuss Voigt Hill
#
# Bulk Modulus (GPa) = 8.51375 57.31866 32.91621
# Shear Modulus (GPa) = 26.22116 5.65543 15.93829
#
# Velocity S-wave (km/s) = 3.79787 1.76379 2.96098
# Velocity P-wave (km/s) = 4.89030 5.97311 5.45862
#
# Compressibility (1/GPa) = 0.11745700
#
# Stress axis : x y z
#
# Youngs Moduli (GPa) = 82.38980 9.09277 20.24783
#
# Poissons Ratio (x) = 0.06711 0.38334
# Poissons Ratio (y) = 0.60811 0.01437
# Poissons Ratio (z) = 1.55984 0.00645
#
# Static dielectric constant tensor:
#      x y z
#    x 1.671250 0.000000 0.000000 
#    y 0.000000 1.630290 0.000000 
#    z 0.000000 0.000000 1.598820 
# 
# From -- ./inp_files/5900.got.cif
#   From: 2010.05.17/outbox.cif.g08.bks.cpg/sg59_3_cif.got.tgz:5900.got - 2010.06.03 14:40:33.
