data_PCOD9448959
_publ_section_title
;
Structure prediction by ZEFSAII (Michael W. Deem and Ramdas Pophale) SiO2 
 PCOD9448959
Probable space group: P M M N
;
_chemical_formula_sum "Si O2"
_cell_formula_units_Z 40
_cell_length_a 16.748331
_cell_length_b 7.963868
_cell_length_c 14.214801
_cell_angle_alpha 90.000000
_cell_angle_beta 90.000000
_cell_angle_gamma 90.000000
_cell_volume 1895.991441
_symmetry_space_group_name_H-M "P M M N"
_symmetry_group_IT_number 59
_space_group.IT_coordinate_system_code '2'
_symmetry_cell_setting 'orthorhombic'
loop_
_space_group_symop_operation_xyz
x,y,z
1/2-x,1/2-y,z
1/2+x,-y,-z
-x,1/2+y,-z
-x,-y,-z
1/2+x,1/2+y,-z
1/2-x,y,z
x,1/2-y,z
loop_
_atom_site_type_symbol
_atom_site_label
_atom_site_fract_x
_atom_site_fract_y
_atom_site_fract_z
Si Si1 0.430491 0.953476 0.235002
Si Si2 0.250000 0.044937 0.759940
Si Si3 0.083453 0.052086 0.451294
Si Si4 0.591565 0.951891 0.134095
Si Si5 0.250000 0.456003 0.541505
Si Si6 0.838345 0.047831 0.944373
O O1 0.431053 0.750000 0.237800
O O2 0.513676 0.011981 0.188894
O O3 0.363894 0.007247 0.159619
O O4 0.419648 0.013447 0.340663
O O5 0.250000 0.250000 0.762863
O O6 0.170957 0.986042 0.813322
O O7 0.250000 0.996828 0.651094
O O8 0.087653 0.250000 0.465283
O O9 0.166898 0.983500 0.494492
O O10 0.000000 0.000000 0.500000
O O11 0.590453 0.750000 0.139424
O O12 0.599755 0.997867 0.025019
O O13 0.250000 0.250000 0.536731
O O14 0.750000 0.983440 0.968933
O O15 0.836243 0.250000 0.943420
#
# Coordination Sequence:
#
# PCOD9448959 Si02
#       6
#     8   4   8   8   4   8
#     4  10  22  38  58  83 116 156 195 237 296 356
#     4   9  16  30  54  79 104 140 187 235 282 333
#     4  11  23  41  64  91 122 158 202 253 303 356
#     4  10  19  34  57  83 110 148 195 240 286 346
#     4   9  20  38  60  85 118 158 199 243 298 363
#     4  10  21  36  54  81 119 156 189 236 293 346
#
# _framework density 21.097141000000001
#
# number of rings (size 3 to 8) (size 9 to 14) (size 15 to 20)
#    0.000    2.000    1.000    2.400    1.400    4.800 
#    0.000    1.500    0.000    1.200    0.000    0.000 
#    0.000    0.000    0.000    0.000    0.000    0.000 
#
# Total GULP energy -223403.887086 kJ/mol
# GULP energy per Si atom -5585.097177 kJ/mol
# Density = 2.104912 g / cm^3
# Si number density = 21.097141 Si / 1000 Ang^3
#
#
#
# Elastic Constant Matrix: (Units=GPa)
#
#
# Indices 1 2 3 4 5 6 
#
# 1 118.8708 12.9629 57.9758 0.0000 0.0000 0.0000
# 2 12.9629 15.9289 0.2408 0.0000 0.0000 0.0000
# 3 57.9758 0.2408 155.2565 0.0000 0.0000 0.0000
# 4 0.0000 0.0000 0.0000 31.5144 0.0000 0.0000
# 5 0.0000 0.0000 0.0000 0.0000 33.7519 0.0000
# 6 0.0000 0.0000 0.0000 0.0000 0.0000 7.2410
#
#
#
# Elastic Compliance Matrix: (Units=1/GPa)
#
#
# Indices 1 2 3 4 5 6 
#
# 1 0.011518 -0.009309 -0.004287 0.000000 0.000000 0.000000
# 2 -0.009309 0.070304 0.003367 0.000000 0.000000 0.000000
# 3 -0.004287 0.003367 0.008036 0.000000 0.000000 0.000000
# 4 0.000000 0.000000 0.000000 0.031732 0.000000 0.000000
# 5 0.000000 0.000000 0.000000 0.000000 0.029628 0.000000
# 6 0.000000 0.000000 0.000000 0.000000 0.000000 0.138102
#
#
# Mechanical properties :
#
#
# Convention : Reuss Voigt Hill
#
# Bulk Modulus (GPa) = 14.40893 48.04611 31.22752
# Shear Modulus (GPa) = 15.01905 29.09324 22.05614
#
# Velocity S-wave (km/s) = 2.67104 3.71754 3.23686
# Velocity P-wave (km/s) = 4.04441 6.42261 5.36690
#
# Compressibility (1/GPa) = 0.06940141
#
# Stress axis : x y z
#
# Youngs Moduli (GPa) = 86.81800 14.22404 124.43255
#
# Poissons Ratio (x) = 0.13241 0.53341
# Poissons Ratio (y) = 0.80817 -0.41897
# Poissons Ratio (z) = 0.37217 -0.04789
#
# Static dielectric constant tensor:
#      x y z
#    x 1.787900 0.000000 0.000000 
#    y 0.000000 1.762710 0.000000 
#    z 0.000000 0.000000 1.709680 
# 
# From -- ./inp_files/22996.got.cif
#   From: 2010.05.17/outbox.cif.g08.bks.cpg/sg59_12_cif.got.tgz:22996.got - 2010.06.03 14:40:33.
