data_PCOD9448602
_publ_section_title
;
Structure prediction by ZEFSAII (Michael W. Deem and Ramdas Pophale) SiO2 
 PCOD9448602
Probable space group: P M M N
;
_chemical_formula_sum "Si O2"
_cell_formula_units_Z 64
_cell_length_a 7.420537
_cell_length_b 19.336903
_cell_length_c 20.545439
_cell_angle_alpha 90.000000
_cell_angle_beta 90.000000
_cell_angle_gamma 90.000000
_cell_volume 2948.069237
_symmetry_space_group_name_H-M "P M M N"
_symmetry_group_IT_number 59
_space_group.IT_coordinate_system_code '2'
_symmetry_cell_setting 'orthorhombic'
loop_
_space_group_symop_operation_xyz
x,y,z
1/2-x,1/2-y,z
1/2+x,-y,-z
-x,1/2+y,-z
-x,-y,-z
1/2+x,1/2+y,-z
1/2-x,y,z
x,1/2-y,z
loop_
_atom_site_type_symbol
_atom_site_label
_atom_site_fract_x
_atom_site_fract_y
_atom_site_fract_z
Si Si1 0.957726 0.435191 0.592810
Si Si2 0.468734 0.413546 0.446558
Si Si3 0.469660 0.327517 0.325968
Si Si4 0.470308 0.329237 0.083027
Si Si5 0.460443 0.925371 0.183533
Si Si6 0.036494 0.074875 0.967830
Si Si7 0.529412 0.920946 0.793486
Si Si8 0.029222 0.829141 0.297211
O O1 0.750000 0.446236 0.612380
O O2 0.033386 0.512639 0.582783
O O3 0.031627 0.381903 0.645854
O O4 0.965952 0.404622 0.520018
O O5 0.250000 0.416338 0.449639
O O6 0.522647 0.353994 0.396946
O O7 0.250000 0.327204 0.324509
O O8 0.529961 0.250000 0.311789
O O9 0.527529 0.381556 0.271318
O O10 0.250000 0.329037 0.082939
O O11 0.528268 0.250000 0.088806
O O12 0.525504 0.376407 0.143829
O O13 0.531823 0.366527 0.017063
O O14 0.250000 0.929323 0.200004
O O15 0.471886 0.918001 0.105930
O O16 0.528969 0.863247 0.228548
O O17 0.536593 0.000592 0.201889
O O18 0.250000 0.081982 0.964626
O O19 0.000000 0.000000 0.000000
O O20 0.750000 0.922306 0.794163
O O21 0.250000 0.826519 0.299564
O O22 0.968498 0.750000 0.304972
#
# Coordination Sequence:
#
# PCOD9448602 Si02
#       8
#     8   8   8   8   8   8   8   8
#     4   9  17  31  50  70  94 129 169 206 243 294
#     4   9  17  29  46  71  99 125 159 206 254 296
#     4   9  16  25  41  68  98 123 152 195 244 288
#     4   9  17  29  47  73 101 127 160 204 248 288
#     4  10  19  33  54  77  99 128 166 208 252 296
#     4  11  21  35  54  78 105 134 168 207 250 300
#     4   9  15  26  46  71  96 124 159 200 242 290
#     4   9  18  32  51  75 102 133 173 216 255 303
#
# _framework density 21.709125
#
# number of rings (size 3 to 8) (size 9 to 14) (size 15 to 20)
#    0.000    2.625    1.250    1.500    0.000    5.500 
#    0.000    0.625    0.000    4.125    0.000    0.000 
#    0.000    0.000    0.000    0.000    0.000    0.000 
#
# Total GULP energy -357352.253387 kJ/mol
# GULP energy per Si atom -5583.628959 kJ/mol
# Density = 2.165971 g / cm^3
# Si number density = 21.709125 Si / 1000 Ang^3
#
#
#
# Elastic Constant Matrix: (Units=GPa)
#
#
# Indices 1 2 3 4 5 6 
#
# 1 66.8945 4.2455 -8.4001 0.0000 0.0000 0.0000
# 2 4.2455 82.5393 40.0921 0.0000 0.0000 0.0000
# 3 -8.4001 40.0921 109.3999 0.0000 0.0000 0.0000
# 4 0.0000 0.0000 0.0000 21.3930 0.0000 0.0000
# 5 0.0000 0.0000 0.0000 0.0000 16.7416 0.0000
# 6 0.0000 0.0000 0.0000 0.0000 0.0000 -9.8391
#
#
#
# Elastic Compliance Matrix: (Units=1/GPa)
#
#
# Indices 1 2 3 4 5 6 
#
# 1 0.015277 -0.001649 0.001777 0.000000 0.000000 0.000000
# 2 -0.001649 0.014917 -0.005593 0.000000 0.000000 0.000000
# 3 0.001777 -0.005593 0.011327 0.000000 0.000000 0.000000
# 4 0.000000 0.000000 0.000000 0.046744 0.000000 0.000000
# 5 0.000000 0.000000 0.000000 0.000000 0.059731 0.000000
# 6 0.000000 0.000000 0.000000 0.000000 0.000000 -0.101635
#
#
# Mechanical properties :
#
#
# Convention : Reuss Voigt Hill
#
# Bulk Modulus (GPa) = 32.68962 36.74543 34.71753
# Shear Modulus (GPa) = 74.08615 20.51883 47.30249
#
# Velocity S-wave (km/s) = 5.84815 3.07770 4.67296
# Velocity P-wave (km/s) = 7.79049 5.43991 6.71880
#
# Compressibility (1/GPa) = 0.03059075
#
# Stress axis : x y z
#
# Youngs Moduli (GPa) = 65.45891 67.03696 88.28418
#
# Poissons Ratio (x) = 0.11055 -0.15691
# Poissons Ratio (y) = 0.10795 0.49380
# Poissons Ratio (z) = -0.11634 0.37496
#
# Static dielectric constant tensor:
#      x y z
#    x 1.873120 0.000000 0.000000 
#    y 0.000000 1.753870 0.000000 
#    z 0.000000 0.000000 1.743330 
# 
# From -- ./inp_files/29543.got.cif
#   From: 2010.05.17/outbox.cif.g08.bks.cpg/sg59_15_cif.got.tgz:29543.got - 2010.06.03 14:40:33.
