data_PCOD9448428
_publ_section_title
;
Structure prediction by ZEFSAII (Michael W. Deem and Ramdas Pophale) SiO2 
 PCOD9448428
Probable space group: P M M N
;
_chemical_formula_sum "Si O2"
_cell_formula_units_Z 52
_cell_length_a 7.415989
_cell_length_b 21.490492
_cell_length_c 16.780107
_cell_angle_alpha 90.000000
_cell_angle_beta 90.000000
_cell_angle_gamma 90.000000
_cell_volume 2674.300226
_symmetry_space_group_name_H-M "P M M N"
_symmetry_group_IT_number 59
_space_group.IT_coordinate_system_code '2'
_symmetry_cell_setting 'orthorhombic'
loop_
_space_group_symop_operation_xyz
x,y,z
1/2-x,1/2-y,z
1/2+x,-y,-z
-x,1/2+y,-z
-x,-y,-z
1/2+x,1/2+y,-z
1/2-x,y,z
x,1/2-y,z
loop_
_atom_site_type_symbol
_atom_site_label
_atom_site_fract_x
_atom_site_fract_y
_atom_site_fract_z
Si Si1 0.459866 0.519795 0.800683
Si Si2 0.465690 0.900424 0.942563
Si Si3 0.460879 0.823322 0.412318
Si Si4 0.030570 0.819516 0.087379
Si Si5 0.250000 0.101030 0.291974
Si Si6 0.250000 0.320592 0.147892
Si Si7 0.032925 0.878739 0.247357
Si Si8 0.250000 0.323815 0.451690
O O1 0.250000 0.535953 0.791354
O O2 0.510456 0.536157 0.893610
O O3 0.581283 0.560351 0.740311
O O4 0.486817 0.448146 0.779767
O O5 0.250000 0.894820 0.941141
O O6 0.571626 0.851550 0.888129
O O7 0.523744 0.877283 0.030333
O O8 0.250000 0.837619 0.426287
O O9 0.473885 0.750000 0.391845
O O10 0.529222 0.861159 0.335595
O O11 0.578042 0.833388 0.490853
O O12 0.250000 0.819025 0.087085
O O13 0.973513 0.750000 0.060911
O O14 0.970416 0.833048 0.177193
O O15 0.250000 0.163979 0.240473
O O16 0.250000 0.125249 0.381695
O O17 0.250000 0.250000 0.128457
O O18 0.250000 0.873580 0.250274
O O19 0.250000 0.250000 0.426777
#
# Coordination Sequence:
#
# PCOD9448428 Si02
#       8
#     8   8   8   8   4   4   8   4
#     4  10  21  37  57  78 109 153 190 228 269 322
#     4   9  19  35  52  76 111 149 185 226 274 318
#     4   9  19  36  58  84 115 145 177 221 278 337
#     4   9  17  31  54  82 111 145 186 233 279 326
#     4  10  21  40  58  80 111 140 183 229 269 330
#     4  10  19  32  55  80 105 142 181 224 279 327
#     4  10  19  34  58  81 110 149 189 227 273 326
#     4  10  21  38  63  90 113 140 174 223 282 335
#
# _framework density 19.444337999999998
#
# number of rings (size 3 to 8) (size 9 to 14) (size 15 to 20)
#    0.000    2.462    0.769    1.154    1.077    4.000 
#    1.385    0.769    0.000    2.769    0.000    0.000 
#    0.000    0.000    0.000    0.000    0.000    0.000 
#
# Total GULP energy -289715.153498 kJ/mol
# GULP energy per Si atom -5571.445260 kJ/mol
# Density = 1.940008 g / cm^3
# Si number density = 19.444338 Si / 1000 Ang^3
#
#
#
# Elastic Constant Matrix: (Units=GPa)
#
#
# Indices 1 2 3 4 5 6 
#
# 1 61.0846 -4.5258 15.6225 0.0000 0.0000 0.0000
# 2 -4.5258 45.4396 24.8787 0.0000 0.0000 0.0000
# 3 15.6225 24.8787 103.3483 0.0000 0.0000 0.0000
# 4 0.0000 0.0000 0.0000 13.2192 0.0000 0.0000
# 5 0.0000 0.0000 0.0000 0.0000 8.2700 0.0000
# 6 0.0000 0.0000 0.0000 0.0000 0.0000 12.2635
#
#
#
# Elastic Compliance Matrix: (Units=1/GPa)
#
#
# Indices 1 2 3 4 5 6 
#
# 1 0.017549 0.003686 -0.003540 0.000000 0.000000 0.000000
# 2 0.003686 0.026122 -0.006846 0.000000 0.000000 0.000000
# 3 -0.003540 -0.006846 0.011859 0.000000 0.000000 0.000000
# 4 0.000000 0.000000 0.000000 0.075648 0.000000 0.000000
# 5 0.000000 0.000000 0.000000 0.000000 0.120919 0.000000
# 6 0.000000 0.000000 0.000000 0.000000 0.000000 0.081543
#
#
# Mechanical properties :
#
#
# Convention : Reuss Voigt Hill
#
# Bulk Modulus (GPa) = 23.73515 31.31370 27.52442
# Shear Modulus (GPa) = 13.84721 18.34368 16.09544
#
# Velocity S-wave (km/s) = 2.67150 3.07480 2.88022
# Velocity P-wave (km/s) = 4.66359 5.36145 5.02465
#
# Compressibility (1/GPa) = 0.04213161
#
# Stress axis : x y z
#
# Youngs Moduli (GPa) = 56.98245 38.28136 84.32369
#
# Poissons Ratio (x) = -0.14111 0.29852
# Poissons Ratio (y) = -0.21005 0.57724
# Poissons Ratio (z) = 0.20173 0.26206
#
# Static dielectric constant tensor:
#      x y z
#    x 1.591060 0.000000 0.000000 
#    y 0.000000 1.680910 0.000000 
#    z 0.000000 0.000000 1.687290 
# 
# From -- ./inp_files/20877.got.cif
#   From: 2010.05.17/outbox.cif.g08.bks.cpg/sg59_11_cif.got.tgz:20877.got - 2010.06.03 14:40:33.
