data_PCOD9448424
_publ_section_title
;
Structure prediction by ZEFSAII (Michael W. Deem and Ramdas Pophale) SiO2 
 PCOD9448424
Probable space group: P M M N
;
_chemical_formula_sum "Si O2"
_cell_formula_units_Z 40
_cell_length_a 8.546415
_cell_length_b 15.872407
_cell_length_c 15.383992
_cell_angle_alpha 90.000000
_cell_angle_beta 90.000000
_cell_angle_gamma 90.000000
_cell_volume 2086.872010
_symmetry_space_group_name_H-M "P M M N"
_symmetry_group_IT_number 59
_space_group.IT_coordinate_system_code '2'
_symmetry_cell_setting 'orthorhombic'
loop_
_space_group_symop_operation_xyz
x,y,z
1/2-x,1/2-y,z
1/2+x,-y,-z
-x,1/2+y,-z
-x,-y,-z
1/2+x,1/2+y,-z
1/2-x,y,z
x,1/2-y,z
loop_
_atom_site_type_symbol
_atom_site_label
_atom_site_fract_x
_atom_site_fract_y
_atom_site_fract_z
Si Si1 0.924888 0.651332 0.794186
Si Si2 0.561436 0.568872 0.275055
Si Si3 0.069472 0.908862 0.625251
Si Si4 0.435736 0.250000 0.480203
Si Si5 0.065351 0.750000 0.326697
Si Si6 0.562516 0.023517 0.094104
O O1 0.750000 0.619973 0.769156
O O2 0.916199 0.750000 0.799208
O O3 0.052554 0.627560 0.722446
O O4 0.981495 0.611468 0.882807
O O5 0.750000 0.567416 0.278949
O O6 0.509778 0.504539 0.353768
O O7 0.502984 0.663312 0.288203
O O8 0.516980 0.533925 0.178777
O O9 0.250000 0.912692 0.596646
O O10 0.981811 0.837377 0.569093
O O11 0.250000 0.250000 0.491920
O O12 0.521878 0.250000 0.571792
O O13 0.250000 0.750000 0.314598
O O14 0.750000 0.027868 0.093043
O O15 0.500000 0.000000 0.000000
#
# Coordination Sequence:
#
# PCOD9448424 Si02
#       6
#     8   8   8   4   4   8
#     4  10  19  32  54  85 119 153 188 231 291 351
#     4   9  21  42  64  86 118 160 197 242 302 356
#     4  10  20  36  61  90 120 154 195 245 297 349
#     4  12  24  38  60  89 124 161 198 246 298 355
#     4  12  26  42  62  87 116 159 206 250 294 351
#     4  10  21  38  61  87 116 152 194 243 294 349
#
# _framework density 19.167442999999999
#
# number of rings (size 3 to 8) (size 9 to 14) (size 15 to 20)
#    0.000    1.800    1.000    4.800    0.000    6.800 
#    1.800    0.000    0.000    0.000    0.000    0.000 
#    0.000    0.000    0.000    0.000    0.000    0.000 
#
# Total GULP energy -222845.446741 kJ/mol
# GULP energy per Si atom -5571.136169 kJ/mol
# Density = 1.912382 g / cm^3
# Si number density = 19.167443 Si / 1000 Ang^3
#
#
#
# Elastic Constant Matrix: (Units=GPa)
#
#
# Indices 1 2 3 4 5 6 
#
# 1 30.0137 17.0585 -12.6776 0.0000 0.0000 0.0000
# 2 17.0585 111.4006 8.3780 0.0000 0.0000 0.0000
# 3 -12.6776 8.3780 37.5976 0.0000 0.0000 0.0000
# 4 0.0000 0.0000 0.0000 28.1425 0.0000 0.0000
# 5 0.0000 0.0000 0.0000 0.0000 29.4005 0.0000
# 6 0.0000 0.0000 0.0000 0.0000 0.0000 17.6100
#
#
#
# Elastic Compliance Matrix: (Units=1/GPa)
#
#
# Indices 1 2 3 4 5 6 
#
# 1 0.045189 -0.008203 0.017065 0.000000 0.000000 0.000000
# 2 -0.008203 0.010619 -0.005132 0.000000 0.000000 0.000000
# 3 0.017065 -0.005132 0.033495 0.000000 0.000000 0.000000
# 4 0.000000 0.000000 0.000000 0.035533 0.000000 0.000000
# 5 0.000000 0.000000 0.000000 0.000000 0.034013 0.000000
# 6 0.000000 0.000000 0.000000 0.000000 0.000000 0.056786
#
#
# Mechanical properties :
#
#
# Convention : Reuss Voigt Hill
#
# Bulk Modulus (GPa) = 10.33458 22.72554 16.53006
# Shear Modulus (GPa) = 20.79613 26.11413 23.45513
#
# Velocity S-wave (km/s) = 3.29746 3.69510 3.50193
# Velocity P-wave (km/s) = 4.46107 5.48517 4.99941
#
# Compressibility (1/GPa) = 0.09676250
#
# Stress axis : x y z
#
# Youngs Moduli (GPa) = 22.12945 94.17347 29.85492
#
# Poissons Ratio (x) = 0.77251 -0.50948
# Poissons Ratio (y) = 0.18153 0.15322
# Poissons Ratio (z) = -0.37764 0.48332
#
# Static dielectric constant tensor:
#      x y z
#    x 1.728170 0.000000 0.000000 
#    y 0.000000 1.776170 0.000000 
#    z 0.000000 0.000000 1.698030 
# 
# From -- ./inp_files/19925.got.cif
#   From: 2010.05.17/outbox.cif.g08.bks.cpg/sg59_10_cif.got.tgz:19925.got - 2010.06.03 14:40:33.
