data_PCOD9448851
_publ_section_title
;
Structure prediction by ZEFSAII (Michael W. Deem and Ramdas Pophale) SiO2 
 PCOD9448851
Probable space group: P M M N
;
_chemical_formula_sum "Si O2"
_cell_formula_units_Z 64
_cell_length_a 7.795384
_cell_length_b 18.634300
_cell_length_c 22.346556
_cell_angle_alpha 90.000000
_cell_angle_beta 90.000000
_cell_angle_gamma 90.000000
_cell_volume 3246.094782
_symmetry_space_group_name_H-M "P M M N"
_symmetry_group_IT_number 59
_space_group.IT_coordinate_system_code '2'
_symmetry_cell_setting 'orthorhombic'
loop_
_space_group_symop_operation_xyz
x,y,z
1/2-x,1/2-y,z
1/2+x,-y,-z
-x,1/2+y,-z
-x,-y,-z
1/2+x,1/2+y,-z
1/2-x,y,z
x,1/2-y,z
loop_
_atom_site_type_symbol
_atom_site_label
_atom_site_fract_x
_atom_site_fract_y
_atom_site_fract_z
Si Si1 0.461135 0.920270 0.377531
Si Si2 0.454547 0.976144 0.066363
Si Si3 0.456952 0.168465 0.267955
Si Si4 0.447244 0.961892 0.810271
Si Si5 0.960230 0.170480 0.875955
Si Si6 0.052670 0.892951 0.246922
Si Si7 0.956045 0.914891 0.614109
Si Si8 0.543370 0.331702 0.506865
O O1 0.250000 0.920446 0.376465
O O2 0.521710 0.890642 0.313335
O O3 0.516954 0.873041 0.433794
O O4 0.517230 0.002925 0.384390
O O5 0.250000 0.977008 0.072495
O O6 0.514763 0.895268 0.082020
O O7 0.524964 0.026504 0.119245
O O8 0.500000 0.000000 0.000000
O O9 0.250000 0.171122 0.270996
O O10 0.519931 0.250000 0.262460
O O11 0.504279 0.115980 0.213793
O O12 0.520065 0.130529 0.328990
O O13 0.250000 0.975829 0.795980
O O14 0.549938 0.024209 0.775379
O O15 0.750000 0.169625 0.875024
O O16 0.014606 0.250000 0.893886
O O17 0.021411 0.151530 0.808641
O O18 0.250000 0.869313 0.252327
O O19 0.750000 0.917731 0.619180
O O20 0.998679 0.875706 0.552464
O O21 0.750000 0.328876 0.510441
O O22 0.478921 0.250000 0.503510
#
# Coordination Sequence:
#
# PCOD9448851 Si02
#       8
#     8   8   8   8   8   8   8   8
#     4   9  17  31  52  74  98 132 174 216 261 318
#     4  10  20  36  59  83 112 149 188 225 262 312
#     4  10  20  35  56  79 103 135 177 224 275 326
#     4  11  21  34  54  80 111 141 174 215 263 321
#     4   8  15  28  51  83 110 134 170 218 266 308
#     4   9  16  31  54  76 103 137 174 216 262 317
#     4  10  19  34  55  73  95 132 179 220 263 325
#     4  10  21  34  47  70 104 136 170 219 275 323
#
# _framework density 19.715999
#
# number of rings (size 3 to 8) (size 9 to 14) (size 15 to 20)
#    0.000    2.375    1.250    3.000    0.000    2.000 
#    0.000    3.750    0.000   11.625    0.000    0.000 
#    0.000    0.000    0.000    0.000    0.000    0.000 
#
# Total GULP energy -357192.716338 kJ/mol
# GULP energy per Si atom -5581.136193 kJ/mol
# Density = 1.967112 g / cm^3
# Si number density = 19.715999 Si / 1000 Ang^3
#
#
#
# Elastic Constant Matrix: (Units=GPa)
#
#
# Indices 1 2 3 4 5 6 
#
# 1 31.1628 2.5692 -2.5721 0.0000 0.0000 0.0000
# 2 2.5692 106.8571 73.5027 0.0000 0.0000 0.0000
# 3 -2.5721 73.5027 157.2442 0.0000 0.0000 0.0000
# 4 0.0000 0.0000 0.0000 19.0545 0.0000 0.0000
# 5 0.0000 0.0000 0.0000 0.0000 22.6445 0.0000
# 6 0.0000 0.0000 0.0000 0.0000 0.0000 5.8602
#
#
#
# Elastic Compliance Matrix: (Units=1/GPa)
#
#
# Indices 1 2 3 4 5 6 
#
# 1 0.032337 -0.001682 0.001315 0.000000 0.000000 0.000000
# 2 -0.001682 0.013881 -0.006516 0.000000 0.000000 0.000000
# 3 0.001315 -0.006516 0.009427 0.000000 0.000000 0.000000
# 4 0.000000 0.000000 0.000000 0.052481 0.000000 0.000000
# 5 0.000000 0.000000 0.000000 0.000000 0.044161 0.000000
# 6 0.000000 0.000000 0.000000 0.000000 0.000000 0.170641
#
#
# Mechanical properties :
#
#
# Convention : Reuss Voigt Hill
#
# Bulk Modulus (GPa) = 23.87854 49.14041 36.50948
# Shear Modulus (GPa) = 14.25910 24.29613 19.27761
#
# Velocity S-wave (km/s) = 2.69220 3.51423 3.13032
# Velocity P-wave (km/s) = 4.66920 6.43775 5.62344
#
# Compressibility (1/GPa) = 0.04187860
#
# Stress axis : x y z
#
# Youngs Moduli (GPa) = 30.92457 72.04176 106.07924
#
# Poissons Ratio (x) = 0.12119 -0.13953
# Poissons Ratio (y) = 0.05202 0.69121
# Poissons Ratio (z) = -0.04067 0.46943
#
# Static dielectric constant tensor:
#      x y z
#    x 1.744870 0.000000 0.000000 
#    y 0.000000 1.687810 0.000000 
#    z 0.000000 0.000000 1.673280 
# 
# From -- ./inp_files/29487.got.cif
#   From: 2010.05.17/outbox.cif.g08.bks.cpg/sg59_15_cif.got.tgz:29487.got - 2010.06.03 14:40:33.
