data_PCOD9448442
_publ_section_title
;
Structure prediction by ZEFSAII (Michael W. Deem and Ramdas Pophale) SiO2 
 PCOD9448442
Probable space group: P M M N
;
_chemical_formula_sum "Si O2"
_cell_formula_units_Z 64
_cell_length_a 9.339869
_cell_length_b 15.435878
_cell_length_c 24.512696
_cell_angle_alpha 90.000000
_cell_angle_beta 90.000000
_cell_angle_gamma 90.000000
_cell_volume 3533.972792
_symmetry_space_group_name_H-M "P M M N"
_symmetry_group_IT_number 59
_space_group.IT_coordinate_system_code '2'
_symmetry_cell_setting 'orthorhombic'
loop_
_space_group_symop_operation_xyz
x,y,z
1/2-x,1/2-y,z
1/2+x,-y,-z
-x,1/2+y,-z
-x,-y,-z
1/2+x,1/2+y,-z
1/2-x,y,z
x,1/2-y,z
loop_
_atom_site_type_symbol
_atom_site_label
_atom_site_fract_x
_atom_site_fract_y
_atom_site_fract_z
Si Si1 0.078973 0.149719 0.558557
Si Si2 0.079141 0.850549 0.553745
Si Si3 0.919786 0.653050 0.837149
Si Si4 0.584635 0.394169 0.053714
Si Si5 0.915564 0.604145 0.053557
Si Si6 0.578004 0.497110 0.358831
Si Si7 0.080339 0.350043 0.823564
Si Si8 0.578138 0.003502 0.756297
O O1 0.250000 0.144097 0.549951
O O2 0.043743 0.250000 0.571598
O O3 0.000490 0.126384 0.502305
O O4 0.042707 0.083503 0.606643
O O5 0.250000 0.857071 0.544875
O O6 0.045301 0.750000 0.566522
O O7 0.042495 0.915505 0.602477
O O8 0.750000 0.644462 0.848152
O O9 0.946515 0.750000 0.816000
O O10 0.958974 0.579617 0.793734
O O11 0.002954 0.640085 0.893504
O O12 0.750000 0.368521 0.054745
O O13 0.577594 0.499330 0.056088
O O14 0.510411 0.366843 0.997307
O O15 0.750000 0.628923 0.044257
O O16 0.959672 0.638762 0.112723
O O17 0.750000 0.496640 0.348868
O O18 0.493092 0.494779 0.302687
O O19 0.250000 0.372519 0.819386
O O20 0.063489 0.250000 0.807782
O O21 0.987696 0.413505 0.786784
O O22 0.750000 0.009420 0.752443
#
# Coordination Sequence:
#
# PCOD9448442 Si02
#       8
#     8   8   8   8   8   8   8   8
#     4   9  18  33  54  81 111 143 179 218 262 317
#     4   9  18  33  54  82 114 145 178 221 272 321
#     4  10  22  40  59  78 106 146 187 229 283 341
#     4  10  19  32  55  85 114 142 178 225 275 329
#     4   9  18  33  54  82 115 146 177 216 270 336
#     4  10  21  36  55  78 109 147 185 223 268 327
#     4  10  21  39  62  83 107 145 187 225 274 337
#     4  11  24  40  58  81 110 143 187 240 284 322
#
# _framework density 18.109929999999999
#
# number of rings (size 3 to 8) (size 9 to 14) (size 15 to 20)
#    0.000    2.250    1.250    1.125    0.000    4.500 
#    0.000    2.500    0.000    0.000    0.000    0.000 
#    0.000    0.000    0.000    0.000    0.000    0.000 
#
# Total GULP energy -357342.091706 kJ/mol
# GULP energy per Si atom -5583.470183 kJ/mol
# Density = 1.806871 g / cm^3
# Si number density = 18.109930 Si / 1000 Ang^3
#
#
#
# Elastic Constant Matrix: (Units=GPa)
#
#
# Indices 1 2 3 4 5 6 
#
# 1 49.4212 50.4068 68.7174 0.0000 0.0000 0.0000
# 2 50.4068 88.0645 72.6875 0.0000 0.0000 0.0000
# 3 68.7174 72.6875 146.0487 0.0000 0.0000 0.0000
# 4 0.0000 0.0000 0.0000 -12.7144 0.0000 0.0000
# 5 0.0000 0.0000 0.0000 0.0000 16.2589 0.0000
# 6 0.0000 0.0000 0.0000 0.0000 0.0000 15.0530
#
#
#
# Elastic Compliance Matrix: (Units=1/GPa)
#
#
# Indices 1 2 3 4 5 6 
#
# 1 0.083146 -0.025969 -0.026196 0.000000 0.000000 0.000000
# 2 -0.025969 0.027383 -0.001410 0.000000 0.000000 0.000000
# 3 -0.026196 -0.001410 0.019874 0.000000 0.000000 0.000000
# 4 0.000000 0.000000 0.000000 -0.078651 0.000000 0.000000
# 5 0.000000 0.000000 0.000000 0.000000 0.061505 0.000000
# 6 0.000000 0.000000 0.000000 0.000000 0.000000 0.066432
#
#
# Mechanical properties :
#
#
# Convention : Reuss Voigt Hill
#
# Bulk Modulus (GPa) = 43.00545 74.12865 58.56705
# Shear Modulus (GPa) = 16.97275 9.83434 13.40355
#
# Velocity S-wave (km/s) = 3.06470 2.33284 2.72347
# Velocity P-wave (km/s) = 6.02675 6.94821 6.50382
#
# Compressibility (1/GPa) = 0.02325287
#
# Stress axis : x y z
#
# Youngs Moduli (GPa) = 12.02710 36.51864 50.31675
#
# Poissons Ratio (x) = 0.94837 1.31810
# Poissons Ratio (y) = 0.31234 0.07093
# Poissons Ratio (z) = 0.31506 0.05148
#
# Static dielectric constant tensor:
#      x y z
#    x 1.602680 0.000000 0.000000 
#    y 0.000000 1.644170 0.000000 
#    z 0.000000 0.000000 1.574490 
# 
# From -- ./inp_files/31518.got.cif
#   From: 2010.05.17/outbox.cif.g08.bks.cpg/sg59_16_cif.got.tgz:31518.got - 2010.06.03 14:40:33.
