data_PCOD9448140
_publ_section_title
;
Structure prediction by ZEFSAII (Michael W. Deem and Ramdas Pophale) SiO2 
 PCOD9448140
Probable space group: P M M N
;
_chemical_formula_sum "Si O2"
_cell_formula_units_Z 64
_cell_length_a 11.490572
_cell_length_b 18.972383
_cell_length_c 16.221571
_cell_angle_alpha 90.000000
_cell_angle_beta 90.000000
_cell_angle_gamma 90.000000
_cell_volume 3536.359787
_symmetry_space_group_name_H-M "P M M N"
_symmetry_group_IT_number 59
_space_group.IT_coordinate_system_code '2'
_symmetry_cell_setting 'orthorhombic'
loop_
_space_group_symop_operation_xyz
x,y,z
1/2-x,1/2-y,z
1/2+x,-y,-z
-x,1/2+y,-z
-x,-y,-z
1/2+x,1/2+y,-z
1/2-x,y,z
x,1/2-y,z
loop_
_atom_site_type_symbol
_atom_site_label
_atom_site_fract_x
_atom_site_fract_y
_atom_site_fract_z
Si Si1 0.377691 0.667185 0.515296
Si Si2 0.389652 0.670816 0.034725
Si Si3 0.490667 0.667044 0.340132
Si Si4 0.872428 0.949164 0.411114
Si Si5 0.382733 0.084263 0.222876
Si Si6 0.058860 0.434697 0.404797
Si Si7 0.612703 0.165510 0.159242
Si Si8 0.389100 0.919965 0.187710
O O1 0.250000 0.639229 0.533851
O O2 0.382193 0.750000 0.532611
O O3 0.403028 0.658698 0.417945
O O4 0.471582 0.626960 0.568513
O O5 0.250000 0.674437 0.043992
O O6 0.435521 0.750000 0.051861
O O7 0.407483 0.653851 0.938809
O O8 0.430181 0.613644 0.101077
O O9 0.503866 0.750000 0.323800
O O10 0.604795 0.628494 0.375799
O O11 0.447342 0.624556 0.261000
O O12 0.750000 0.977022 0.380171
O O13 0.873489 0.949273 0.510549
O O14 0.980426 0.997038 0.386222
O O15 0.250000 0.104478 0.192883
O O16 0.375876 0.083538 0.322121
O O17 0.499651 0.128981 0.201063
O O18 0.407022 0.003773 0.194026
O O19 0.250000 0.855831 0.821851
O O20 0.608639 0.250000 0.174156
O O21 0.250000 0.909633 0.195709
#
# Coordination Sequence:
#
# PCOD9448140 Si02
#       8
#     8   8   8   8   8   8   8   8
#     4   9  18  31  49  75 104 135 179 234 282 321
#     4   8  15  31  57  85 110 142 185 228 273 328
#     4  10  19  32  50  76 107 141 182 228 279 332
#     4  10  20  34  52  71  98 143 191 230 274 328
#     4  11  23  37  55  85 120 148 181 230 283 336
#     4  10  20  35  51  73 101 143 183 228 272 329
#     4   9  20  40  63  85 110 144 187 234 280 332
#     4  10  19  32  52  82 117 147 179 223 275 332
#
# _framework density 18.097707
#
# number of rings (size 3 to 8) (size 9 to 14) (size 15 to 20)
#    0.000    2.375    1.250    2.250    0.000    3.750 
#    0.000    1.250    0.000    3.000    0.000    1.750 
#    0.000    0.000    0.000    0.000    0.000    0.000 
#
# Total GULP energy -356287.139357 kJ/mol
# GULP energy per Si atom -5566.986552 kJ/mol
# Density = 1.805652 g / cm^3
# Si number density = 18.097707 Si / 1000 Ang^3
#
#
#
# Elastic Constant Matrix: (Units=GPa)
#
#
# Indices 1 2 3 4 5 6 
#
# 1 106.0615 45.8027 31.8596 0.0000 0.0000 0.0000
# 2 45.8027 67.8352 29.5726 0.0000 0.0000 0.0000
# 3 31.8596 29.5726 60.9913 0.0000 0.0000 0.0000
# 4 0.0000 0.0000 0.0000 26.9715 0.0000 0.0000
# 5 0.0000 0.0000 0.0000 0.0000 13.0218 0.0000
# 6 0.0000 0.0000 0.0000 0.0000 0.0000 -13.3085
#
#
#
# Elastic Compliance Matrix: (Units=1/GPa)
#
#
# Indices 1 2 3 4 5 6 
#
# 1 0.013851 -0.007860 -0.003425 0.000000 0.000000 0.000000
# 2 -0.007860 0.023153 -0.007120 0.000000 0.000000 0.000000
# 3 -0.003425 -0.007120 0.021637 0.000000 0.000000 0.000000
# 4 0.000000 0.000000 0.000000 0.037076 0.000000 0.000000
# 5 0.000000 0.000000 0.000000 0.000000 0.076794 0.000000
# 6 0.000000 0.000000 0.000000 0.000000 0.000000 -0.075140
#
#
# Mechanical properties :
#
#
# Convention : Reuss Voigt Hill
#
# Bulk Modulus (GPa) = 45.80437 49.92865 47.86651
# Shear Modulus (GPa) = 35.34617 13.84716 24.59667
#
# Velocity S-wave (km/s) = 4.42416 2.76911 3.69060
# Velocity P-wave (km/s) = 7.17370 6.15404 6.68334
#
# Compressibility (1/GPa) = 0.02183198
#
# Stress axis : x y z
#
# Youngs Moduli (GPa) = 72.19506 43.19186 46.21699
#
# Poissons Ratio (x) = 0.33947 0.15828
# Poissons Ratio (y) = 0.56742 0.32908
# Poissons Ratio (z) = 0.24724 0.30754
#
# Static dielectric constant tensor:
#      x y z
#    x 1.632200 0.000000 0.000000 
#    y 0.000000 1.646780 0.000000 
#    z 0.000000 0.000000 1.621010 
# 
# From -- ./inp_files/22707.got.cif
#   From: 2010.05.17/outbox.cif.g08.bks.cpg/sg59_12_cif.got.tgz:22707.got - 2010.06.03 14:40:33.
