data_PCOD9448079
_publ_section_title
;
Structure prediction by ZEFSAII (Michael W. Deem and Ramdas Pophale) SiO2 
 PCOD9448079
Probable space group: P M M N
;
_chemical_formula_sum "Si O2"
_cell_formula_units_Z 64
_cell_length_a 29.177278
_cell_length_b 7.534823
_cell_length_c 13.802000
_cell_angle_alpha 90.000000
_cell_angle_beta 90.000000
_cell_angle_gamma 90.000000
_cell_volume 3034.309321
_symmetry_space_group_name_H-M "P M M N"
_symmetry_group_IT_number 59
_space_group.IT_coordinate_system_code '2'
_symmetry_cell_setting 'orthorhombic'
loop_
_space_group_symop_operation_xyz
x,y,z
1/2-x,1/2-y,z
1/2+x,-y,-z
-x,1/2+y,-z
-x,-y,-z
1/2+x,1/2+y,-z
1/2-x,y,z
x,1/2-y,z
loop_
_atom_site_type_symbol
_atom_site_label
_atom_site_fract_x
_atom_site_fract_y
_atom_site_fract_z
Si Si1 0.893088 0.038704 0.261704
Si Si2 0.544777 0.538730 0.940180
Si Si3 0.358736 0.548798 0.535205
Si Si4 0.135348 0.464589 0.954629
Si Si5 0.802921 0.036696 0.651188
Si Si6 0.999985 0.467446 0.252181
Si Si7 0.698010 0.962774 0.867629
Si Si8 0.046809 0.039960 0.446070
O O1 0.896935 0.250000 0.277216
O O2 0.865787 0.968389 0.356710
O O3 0.946457 0.972514 0.256047
O O4 0.867184 0.012589 0.159176
O O5 0.552428 0.750000 0.930062
O O6 0.529447 0.467150 0.837689
O O7 0.500000 0.500000 0.000000
O O8 0.588154 0.468956 0.997527
O O9 0.341047 0.750000 0.549331
O O10 0.329384 0.470035 0.445207
O O11 0.410264 0.552887 0.493925
O O12 0.136627 0.250000 0.954897
O O13 0.172863 0.525333 0.034178
O O14 0.750000 0.973743 0.649608
O O15 0.802981 0.250000 0.644956
O O16 0.822345 0.996760 0.759494
O O17 0.997503 0.250000 0.249629
O O18 0.032362 0.517983 0.340253
O O19 0.750000 0.032556 0.865509
O O20 0.699455 0.750000 0.875266
O O21 0.056514 0.250000 0.447704
O O22 0.000000 0.000000 0.500000
#
# Coordination Sequence:
#
# PCOD9448079 Si02
#       8
#     8   8   8   8   8   8   8   8
#     4  10  19  35  54  71 104 146 179 213 260 314
#     4  10  19  32  48  69  98 133 171 210 250 300
#     4  10  21  37  54  78 109 142 181 224 273 324
#     4  10  21  34  52  78 105 134 177 221 259 309
#     4   9  19  37  60  83 108 137 173 223 275 323
#     4   9  18  32  48  67  99 140 173 208 257 307
#     4   9  19  37  59  81 108 139 170 214 273 328
#     4  11  21  34  53  76 106 143 182 222 265 317
#
# _framework density 21.092113000000001
#
# number of rings (size 3 to 8) (size 9 to 14) (size 15 to 20)
#    0.000    2.250    2.500    0.375    1.750    1.500 
#    0.000    1.875    0.000    0.750    0.000    0.000 
#    0.000    0.000    0.000    0.000    0.000    0.000 
#
# Total GULP energy -356498.536860 kJ/mol
# GULP energy per Si atom -5570.289638 kJ/mol
# Density = 2.104411 g / cm^3
# Si number density = 21.092113 Si / 1000 Ang^3
#
#
#
# Elastic Constant Matrix: (Units=GPa)
#
#
# Indices 1 2 3 4 5 6 
#
# 1 71.2019 -2.0804 61.9016 0.0000 0.0000 0.0000
# 2 -2.0804 56.6704 3.5359 0.0000 0.0000 0.0000
# 3 61.9016 3.5359 230.5626 0.0000 0.0000 0.0000
# 4 0.0000 0.0000 0.0000 2.9173 0.0000 0.0000
# 5 0.0000 0.0000 0.0000 0.0000 39.6427 0.0000
# 6 0.0000 0.0000 0.0000 0.0000 0.0000 10.9432
#
#
#
# Elastic Compliance Matrix: (Units=1/GPa)
#
#
# Indices 1 2 3 4 5 6 
#
# 1 0.018375 0.000983 -0.004949 0.000000 0.000000 0.000000
# 2 0.000983 0.017715 -0.000536 0.000000 0.000000 0.000000
# 3 -0.004949 -0.000536 0.005674 0.000000 0.000000 0.000000
# 4 0.000000 0.000000 0.000000 0.342778 0.000000 0.000000
# 5 0.000000 0.000000 0.000000 0.000000 0.025225 0.000000
# 6 0.000000 0.000000 0.000000 0.000000 0.000000 0.091381
#
#
# Mechanical properties :
#
#
# Convention : Reuss Voigt Hill
#
# Bulk Modulus (GPa) = 30.52212 53.90545 42.21379
# Shear Modulus (GPa) = 9.59559 30.37249 19.98404
#
# Velocity S-wave (km/s) = 2.13524 3.79884 3.08143
# Velocity P-wave (km/s) = 4.53666 6.69733 5.71994
#
# Compressibility (1/GPa) = 0.03276312
#
# Stress axis : x y z
#
# Youngs Moduli (GPa) = 54.42033 56.44803 176.24183
#
# Poissons Ratio (x) = -0.05551 0.87214
# Poissons Ratio (y) = -0.05351 0.09441
# Poissons Ratio (z) = 0.26930 0.03024
#
# Static dielectric constant tensor:
#      x y z
#    x 1.733800 0.000000 0.000000 
#    y 0.000000 1.734160 0.000000 
#    z 0.000000 0.000000 1.738080 
# 
# From -- ./inp_files/19245.got.cif
#   From: 2010.05.17/outbox.cif.g08.bks.cpg/sg59_10_cif.got.tgz:19245.got - 2010.06.03 14:40:33.
