data_PCOD9448251
_publ_section_title
;
Structure prediction by ZEFSAII (Michael W. Deem and Ramdas Pophale) SiO2 
 PCOD9448251
Probable space group: P M M N
;
_chemical_formula_sum "Si O2"
_cell_formula_units_Z 56
_cell_length_a 20.199726
_cell_length_b 7.682258
_cell_length_c 17.897860
_cell_angle_alpha 90.000000
_cell_angle_beta 90.000000
_cell_angle_gamma 90.000000
_cell_volume 2777.381085
_symmetry_space_group_name_H-M "P M M N"
_symmetry_group_IT_number 59
_space_group.IT_coordinate_system_code '2'
_symmetry_cell_setting 'orthorhombic'
loop_
_space_group_symop_operation_xyz
x,y,z
1/2-x,1/2-y,z
1/2+x,-y,-z
-x,1/2+y,-z
-x,-y,-z
1/2+x,1/2+y,-z
1/2-x,y,z
x,1/2-y,z
loop_
_atom_site_type_symbol
_atom_site_label
_atom_site_fract_x
_atom_site_fract_y
_atom_site_fract_z
Si Si1 0.565376 0.548702 0.765993
Si Si2 0.963096 0.453431 0.599545
Si Si3 0.577006 0.545981 0.179691
Si Si4 0.604536 0.449204 0.455558
Si Si5 0.174645 0.462543 0.119236
Si Si6 0.324622 0.538156 0.687074
Si Si7 0.174652 0.037374 0.948322
O O1 0.581493 0.750000 0.752535
O O2 0.559881 0.465820 0.684342
O O3 0.493769 0.537965 0.805056
O O4 0.621033 0.474908 0.821267
O O5 0.974887 0.250000 0.581666
O O6 0.911402 0.522995 0.537560
O O7 0.033259 0.545893 0.586242
O O8 0.564417 0.750000 0.167132
O O9 0.622916 0.526101 0.252559
O O10 0.620043 0.476183 0.110398
O O11 0.625941 0.250000 0.467435
O O12 0.655027 0.526210 0.395566
O O13 0.250000 0.513521 0.137468
O O14 0.172637 0.250000 0.118904
O O15 0.160771 0.515754 0.033660
O O16 0.250000 0.486367 0.706523
O O17 0.327948 0.750000 0.686886
O O18 0.250000 0.983356 0.928918
O O19 0.174492 0.250000 0.946098
#
# Coordination Sequence:
#
# PCOD9448251 Si02
#       7
#     8   8   8   8   8   8   8
#     4  11  21  33  52  78 106 135 171 218 265 309
#     4  10  19  32  52  76 101 133 171 211 253 303
#     4  11  21  32  50  78 108 138 174 214 259 312
#     4   9  18  33  52  73  99 134 173 209 251 304
#     4   8  16  33  55  75  97 132 176 217 261 314
#     4  10  20  34  52  75 106 141 174 211 257 310
#     4   8  15  30  51  74 101 134 173 215 257 304
#
# _framework density 20.162880000000001
#
# number of rings (size 3 to 8) (size 9 to 14) (size 15 to 20)
#    0.000    2.429    1.429    2.571    0.000    2.000 
#    0.000    0.714    0.000    5.143    0.000    8.000 
#    0.000    0.000    0.000    0.000    0.000    0.000 
#
# Total GULP energy -312440.864347 kJ/mol
# GULP energy per Si atom -5579.301149 kJ/mol
# Density = 2.011699 g / cm^3
# Si number density = 20.162880 Si / 1000 Ang^3
#
#
#
# Elastic Constant Matrix: (Units=GPa)
#
#
# Indices 1 2 3 4 5 6 
#
# 1 94.1685 -9.4935 71.7859 0.0000 0.0000 0.0000
# 2 -9.4935 40.4435 -6.1944 0.0000 0.0000 0.0000
# 3 71.7859 -6.1944 136.2773 0.0000 0.0000 0.0000
# 4 0.0000 0.0000 0.0000 9.7428 0.0000 0.0000
# 5 0.0000 0.0000 0.0000 0.0000 34.1700 0.0000
# 6 0.0000 0.0000 0.0000 0.0000 0.0000 5.1557
#
#
#
# Elastic Compliance Matrix: (Units=1/GPa)
#
#
# Indices 1 2 3 4 5 6 
#
# 1 0.018055 0.002801 -0.009383 0.000000 0.000000 0.000000
# 2 0.002801 0.025334 -0.000324 0.000000 0.000000 0.000000
# 3 -0.009383 -0.000324 0.012266 0.000000 0.000000 0.000000
# 4 0.000000 0.000000 0.000000 0.102640 0.000000 0.000000
# 5 0.000000 0.000000 0.000000 0.000000 0.029265 0.000000
# 6 0.000000 0.000000 0.000000 0.000000 0.000000 0.193959
#
#
# Mechanical properties :
#
#
# Convention : Reuss Voigt Hill
#
# Bulk Modulus (GPa) = 23.89946 42.56501 33.23224
# Shear Modulus (GPa) = 12.21662 24.13312 18.17487
#
# Velocity S-wave (km/s) = 2.46417 3.46339 3.00559
# Velocity P-wave (km/s) = 4.46935 6.09507 5.34439
#
# Compressibility (1/GPa) = 0.04184195
#
# Stress axis : x y z
#
# Youngs Moduli (GPa) = 55.38772 39.47308 81.52642
#
# Poissons Ratio (x) = -0.11056 0.76498
# Poissons Ratio (y) = -0.15514 0.02641
# Poissons Ratio (z) = 0.51971 0.01278
#
# Static dielectric constant tensor:
#      x y z
#    x 1.687040 0.000000 0.000000 
#    y 0.000000 1.840430 0.000000 
#    z 0.000000 0.000000 1.718710 
# 
# From -- ./inp_files/28042.got.cif
#   From: 2010.05.17/outbox.cif.g08.bks.cpg/sg59_15_cif.got.tgz:28042.got - 2010.06.03 14:40:33.
