data_PCOD9448636
_publ_section_title
;
Structure prediction by ZEFSAII (Michael W. Deem and Ramdas Pophale) SiO2 
 PCOD9448636
Probable space group: P M M N
;
_chemical_formula_sum "Si O2"
_cell_formula_units_Z 64
_cell_length_a 8.859067
_cell_length_b 20.620587
_cell_length_c 20.328249
_cell_angle_alpha 90.000000
_cell_angle_beta 90.000000
_cell_angle_gamma 90.000000
_cell_volume 3713.547488
_symmetry_space_group_name_H-M "P M M N"
_symmetry_group_IT_number 59
_space_group.IT_coordinate_system_code '2'
_symmetry_cell_setting 'orthorhombic'
loop_
_space_group_symop_operation_xyz
x,y,z
1/2-x,1/2-y,z
1/2+x,-y,-z
-x,1/2+y,-z
-x,-y,-z
1/2+x,1/2+y,-z
1/2-x,y,z
x,1/2-y,z
loop_
_atom_site_type_symbol
_atom_site_label
_atom_site_fract_x
_atom_site_fract_y
_atom_site_fract_z
Si Si1 0.070167 0.078828 0.160988
Si Si2 0.431948 0.324213 0.911106
Si Si3 0.069706 0.458609 0.664286
Si Si4 0.068026 0.439249 0.813837
Si Si5 0.429321 0.401869 0.311963
Si Si6 0.069159 0.823723 0.575577
Si Si7 0.930825 0.066225 0.528886
Si Si8 0.930682 0.324948 0.054546
O O1 0.250000 0.076446 0.152064
O O2 0.038591 0.105755 0.234519
O O3 0.997600 0.124945 0.106666
O O4 0.004770 0.005897 0.160380
O O5 0.250000 0.327007 0.917790
O O6 0.471842 0.250000 0.892596
O O7 0.477050 0.377637 0.857475
O O8 0.505180 0.338192 0.981768
O O9 0.250000 0.456653 0.656811
O O10 0.028644 0.431912 0.736638
O O11 0.014308 0.533126 0.664691
O O12 0.992109 0.424682 0.602528
O O13 0.250000 0.446018 0.817180
O O14 0.250000 0.411101 0.319810
O O15 0.487432 0.344280 0.357412
O O16 0.250000 0.828931 0.585250
O O17 0.033625 0.750000 0.557342
O O18 0.026570 0.874706 0.518979
O O19 0.750000 0.060508 0.529859
O O20 0.000000 0.000000 0.500000
O O21 0.750000 0.329748 0.053709
O O22 0.971619 0.250000 0.070835
#
# Coordination Sequence:
#
# PCOD9448636 Si02
#       8
#     8   8   8   8   8   8   8   8
#     4  10  21  35  53  79 109 141 177 219 266 315
#     4   9  18  35  58  80 104 138 179 223 271 320
#     4  10  19  33  54  80 108 138 175 217 262 316
#     4   9  19  35  55  80 109 140 176 220 268 319
#     4  10  20  34  53  77 104 136 176 219 263 312
#     4  10  22  38  54  75 106 143 179 217 265 319
#     4  11  21  34  56  81 105 138 180 222 263 315
#     4  10  21  36  54  77 105 140 181 221 264 321
#
# _framework density 17.234193999999999
#
# number of rings (size 3 to 8) (size 9 to 14) (size 15 to 20)
#    0.000    2.125    1.250    1.875    0.000    5.000 
#    0.000    3.125    0.000    0.750    0.000    0.000 
#    0.000    0.000    0.000    0.000    0.000    0.000 
#
# Total GULP energy -357194.939075 kJ/mol
# GULP energy per Si atom -5581.170923 kJ/mol
# Density = 1.719497 g / cm^3
# Si number density = 17.234194 Si / 1000 Ang^3
#
#
#
# Elastic Constant Matrix: (Units=GPa)
#
#
# Indices 1 2 3 4 5 6 
#
# 1 39.0186 49.2807 49.9483 0.0000 0.0000 0.0000
# 2 49.2807 129.7328 102.1349 0.0000 0.0000 0.0000
# 3 49.9483 102.1349 133.2070 0.0000 0.0000 0.0000
# 4 0.0000 0.0000 0.0000 31.4847 0.0000 0.0000
# 5 0.0000 0.0000 0.0000 0.0000 29.6051 0.0000
# 6 0.0000 0.0000 0.0000 0.0000 0.0000 19.2369
#
#
#
# Elastic Compliance Matrix: (Units=1/GPa)
#
#
# Indices 1 2 3 4 5 6 
#
# 1 0.055730 -0.011904 -0.011770 0.000000 0.000000 0.000000
# 2 -0.011904 0.021989 -0.012397 0.000000 0.000000 0.000000
# 3 -0.011770 -0.012397 0.021426 0.000000 0.000000 0.000000
# 4 0.000000 0.000000 0.000000 0.031761 0.000000 0.000000
# 5 0.000000 0.000000 0.000000 0.000000 0.033778 0.000000
# 6 0.000000 0.000000 0.000000 0.000000 0.000000 0.051984
#
#
# Mechanical properties :
#
#
# Convention : Reuss Voigt Hill
#
# Bulk Modulus (GPa) = 37.03096 78.29845 57.66471
# Shear Modulus (GPa) = 16.78923 22.77164 19.78043
#
# Velocity S-wave (km/s) = 3.12457 3.63892 3.39151
# Velocity P-wave (km/s) = 5.87800 7.94898 6.99061
#
# Compressibility (1/GPa) = 0.02700443
#
# Stress axis : x y z
#
# Youngs Moduli (GPa) = 17.94361 45.47648 46.67332
#
# Poissons Ratio (x) = 0.54133 0.54935
# Poissons Ratio (y) = 0.21359 0.57859
# Poissons Ratio (z) = 0.21120 0.56376
#
# Static dielectric constant tensor:
#      x y z
#    x 1.576300 0.000000 0.000000 
#    y 0.000000 1.565720 0.000000 
#    z 0.000000 0.000000 1.579030 
# 
# From -- ./inp_files/29583.got.cif
#   From: 2010.05.17/outbox.cif.g08.bks.cpg/sg59_15_cif.got.tgz:29583.got - 2010.06.03 14:40:33.
