data_PCOD9448786
_publ_section_title
;
Structure prediction by ZEFSAII (Michael W. Deem and Ramdas Pophale) SiO2 
 PCOD9448786
Probable space group: P M M N
;
_chemical_formula_sum "Si O2"
_cell_formula_units_Z 64
_cell_length_a 15.111496
_cell_length_b 23.183577
_cell_length_c 9.511636
_cell_angle_alpha 90.000000
_cell_angle_beta 90.000000
_cell_angle_gamma 90.000000
_cell_volume 3332.292585
_symmetry_space_group_name_H-M "P M M N"
_symmetry_group_IT_number 59
_space_group.IT_coordinate_system_code '2'
_symmetry_cell_setting 'orthorhombic'
loop_
_space_group_symop_operation_xyz
x,y,z
1/2-x,1/2-y,z
1/2+x,-y,-z
-x,1/2+y,-z
-x,-y,-z
1/2+x,1/2+y,-z
1/2-x,y,z
x,1/2-y,z
loop_
_atom_site_type_symbol
_atom_site_label
_atom_site_fract_x
_atom_site_fract_y
_atom_site_fract_z
Si Si1 0.848747 0.886161 0.954591
Si Si2 0.978121 0.316743 0.706595
Si Si3 0.849953 0.084456 0.677908
Si Si4 0.024424 0.683397 0.952827
Si Si5 0.906266 0.488530 0.426597
Si Si6 0.595178 0.489693 0.930254
Si Si7 0.649999 0.890424 0.292950
Si Si8 0.649136 0.412015 0.177248
O O1 0.750000 0.864892 0.922139
O O2 0.928337 0.843496 0.917883
O O3 0.865161 0.948849 0.887953
O O4 0.853724 0.896949 0.123309
O O5 0.974081 0.250000 0.664881
O O6 0.900929 0.356601 0.643773
O O7 0.072524 0.345563 0.670202
O O8 0.967442 0.319310 0.876991
O O9 0.750000 0.094707 0.728561
O O10 0.848759 0.041808 0.546457
O O11 0.906942 0.052546 0.798087
O O12 0.030640 0.750000 0.911119
O O13 0.098646 0.643800 0.881343
O O14 0.869128 0.548292 0.365386
O O15 0.906910 0.442977 0.299171
O O16 0.000000 0.500000 0.500000
O O17 0.500000 0.500000 0.000000
O O18 0.650905 0.457654 0.049520
O O19 0.750000 0.871422 0.327970
O O20 0.750000 0.400744 0.223130
#
# Coordination Sequence:
#
# PCOD9448786 Si02
#       8
#     8   8   8   8   8   8   8   8
#     4  10  19  33  59  91 124 159 197 247 308 368
#     4  10  21  38  58  87 123 163 207 253 301 355
#     4  12  24  38  58  92 125 158 200 251 310 369
#     4  10  22  38  60  89 122 163 209 253 299 350
#     4  12  24  40  62  90 125 160 196 254 317 376
#     4  12  20  36  60  90 123 155 200 253 313 375
#     4  10  19  36  60  89 120 156 201 251 308 370
#     4  12  23  39  63  90 122 162 203 252 307 368
#
# _framework density 19.205995999999999
#
# number of rings (size 3 to 8) (size 9 to 14) (size 15 to 20)
#    0.000    1.000    5.000    3.750    0.000    1.000 
#    0.000    4.375    0.000    1.500    0.000    0.000 
#    0.000    0.000    0.000    0.000    0.000    0.000 
#
# Total GULP energy -357560.110884 kJ/mol
# GULP energy per Si atom -5586.876733 kJ/mol
# Density = 1.916228 g / cm^3
# Si number density = 19.205996 Si / 1000 Ang^3
#
#
#
# Elastic Constant Matrix: (Units=GPa)
#
#
# Indices 1 2 3 4 5 6 
#
# 1 136.6859 69.6050 15.8655 0.0000 0.0000 0.0000
# 2 69.6050 138.9440 26.6124 0.0000 0.0000 0.0000
# 3 15.8655 26.6124 45.2853 0.0000 0.0000 0.0000
# 4 0.0000 0.0000 0.0000 22.9010 0.0000 0.0000
# 5 0.0000 0.0000 0.0000 0.0000 15.0366 0.0000
# 6 0.0000 0.0000 0.0000 0.0000 0.0000 3.5968
#
#
#
# Elastic Compliance Matrix: (Units=1/GPa)
#
#
# Indices 1 2 3 4 5 6 
#
# 1 0.009837 -0.004809 -0.000620 0.000000 0.000000 0.000000
# 2 -0.004809 0.010461 -0.004463 0.000000 0.000000 0.000000
# 3 -0.000620 -0.004463 0.024922 0.000000 0.000000 0.000000
# 4 0.000000 0.000000 0.000000 0.043666 0.000000 0.000000
# 5 0.000000 0.000000 0.000000 0.000000 0.066504 0.000000
# 6 0.000000 0.000000 0.000000 0.000000 0.000000 0.278025
#
#
# Mechanical properties :
#
#
# Convention : Reuss Voigt Hill
#
# Bulk Modulus (GPa) = 39.31429 60.56456 49.93943
# Shear Modulus (GPa) = 10.83004 22.22902 16.52953
#
# Velocity S-wave (km/s) = 2.37721 3.40575 2.93686
# Velocity P-wave (km/s) = 5.29614 6.86062 6.12851
#
# Compressibility (1/GPa) = 0.02543604
#
# Stress axis : x y z
#
# Youngs Moduli (GPa) = 101.65703 95.59254 40.12507
#
# Poissons Ratio (x) = 0.45972 0.02489
# Poissons Ratio (y) = 0.48888 0.17907
# Poissons Ratio (z) = 0.06305 0.42660
#
# Static dielectric constant tensor:
#      x y z
#    x 1.692370 0.000000 0.000000 
#    y 0.000000 1.647450 0.000000 
#    z 0.000000 0.000000 1.682930 
# 
# From -- ./inp_files/9620.got.cif
#   From: 2010.05.17/outbox.cif.g08.bks.cpg/sg59_5_cif.got.tgz:9620.got - 2010.06.03 14:40:33.
