data_PCOD9448294
_publ_section_title
;
Structure prediction by ZEFSAII (Michael W. Deem and Ramdas Pophale) SiO2 
 PCOD9448294
Probable space group: P M M N
;
_chemical_formula_sum "Si O2"
_cell_formula_units_Z 64
_cell_length_a 9.156003
_cell_length_b 19.204075
_cell_length_c 21.854278
_cell_angle_alpha 90.000000
_cell_angle_beta 90.000000
_cell_angle_gamma 90.000000
_cell_volume 3842.693829
_symmetry_space_group_name_H-M "P M M N"
_symmetry_group_IT_number 59
_space_group.IT_coordinate_system_code '2'
_symmetry_cell_setting 'orthorhombic'
loop_
_space_group_symop_operation_xyz
x,y,z
1/2-x,1/2-y,z
1/2+x,-y,-z
-x,1/2+y,-z
-x,-y,-z
1/2+x,1/2+y,-z
1/2-x,y,z
x,1/2-y,z
loop_
_atom_site_type_symbol
_atom_site_label
_atom_site_fract_x
_atom_site_fract_y
_atom_site_fract_z
Si Si1 0.574643 0.425544 0.487730
Si Si2 0.075497 0.332219 0.589514
Si Si3 0.915883 0.867897 0.767678
Si Si4 0.074130 0.975414 0.937695
Si Si5 0.423371 0.071449 0.702372
Si Si6 0.417158 0.973604 0.180964
Si Si7 0.077250 0.584733 0.652910
Si Si8 0.924887 0.325136 0.112553
O O1 0.500000 0.500000 0.500000
O O2 0.750000 0.432141 0.492995
O O3 0.511849 0.370837 0.536095
O O4 0.540760 0.403876 0.417869
O O5 0.250000 0.343461 0.580230
O O6 0.047676 0.250000 0.590519
O O7 0.038139 0.368808 0.654014
O O8 0.750000 0.842866 0.765481
O O9 0.989219 0.869311 0.701317
O O10 0.007033 0.829933 0.819985
O O11 0.915006 0.948432 0.790420
O O12 0.250000 0.980413 0.940504
O O13 0.032410 0.894581 0.924091
O O14 0.012111 0.019595 0.880428
O O15 0.000000 0.000000 0.000000
O O16 0.250000 0.074700 0.715302
O O17 0.510874 0.072421 0.765746
O O18 0.450053 0.996779 0.669281
O O19 0.250000 0.953656 0.167640
O O20 0.250000 0.596482 0.661745
O O21 0.750000 0.327842 0.118157
O O22 0.965659 0.250000 0.084984
#
# Coordination Sequence:
#
# PCOD9448294 Si02
#       8
#     8   8   8   8   8   8   8   8
#     4  11  21  34  53  76 102 133 177 224 268 322
#     4  10  21  37  54  74 103 137 173 218 274 329
#     4   9  17  28  45  72 100 125 157 202 250 294
#     4  10  19  32  52  78 108 140 172 211 253 298
#     4   9  16  30  50  72  97 127 164 206 255 308
#     4   9  17  29  47  74 102 127 160 203 247 292
#     4   9  17  30  48  70  96 128 166 208 252 305
#     4   9  18  33  52  73 100 137 175 207 247 302
#
# _framework density 16.654983999999999
#
# number of rings (size 3 to 8) (size 9 to 14) (size 15 to 20)
#    0.000    2.500    1.250    1.500    0.000    5.500 
#    0.000    0.625    0.000    1.500    0.000    0.000 
#    0.000    0.000    0.000    0.000    0.000    0.000 
#
# Total GULP energy -356770.726422 kJ/mol
# GULP energy per Si atom -5574.542600 kJ/mol
# Density = 1.661708 g / cm^3
# Si number density = 16.654984 Si / 1000 Ang^3
#
#
#
# Elastic Constant Matrix: (Units=GPa)
#
#
# Indices 1 2 3 4 5 6 
#
# 1 55.8752 38.4811 66.1545 0.0000 0.0000 0.0000
# 2 38.4811 75.2417 56.2027 0.0000 0.0000 0.0000
# 3 66.1545 56.2027 146.6108 0.0000 0.0000 0.0000
# 4 0.0000 0.0000 0.0000 13.8847 0.0000 0.0000
# 5 0.0000 0.0000 0.0000 0.0000 34.3338 0.0000
# 6 0.0000 0.0000 0.0000 0.0000 0.0000 14.4365
#
#
#
# Elastic Compliance Matrix: (Units=1/GPa)
#
#
# Indices 1 2 3 4 5 6 
#
# 1 0.043824 -0.010709 -0.015669 0.000000 0.000000 0.000000
# 2 -0.010709 0.021240 -0.003310 0.000000 0.000000 0.000000
# 3 -0.015669 -0.003310 0.015160 0.000000 0.000000 0.000000
# 4 0.000000 0.000000 0.000000 0.072022 0.000000 0.000000
# 5 0.000000 0.000000 0.000000 0.000000 0.029126 0.000000
# 6 0.000000 0.000000 0.000000 0.000000 0.000000 0.069269
#
#
# Mechanical properties :
#
#
# Convention : Reuss Voigt Hill
#
# Bulk Modulus (GPa) = 47.96713 66.60046 57.28380
# Shear Modulus (GPa) = 15.77455 20.32365 18.04910
#
# Velocity S-wave (km/s) = 3.08090 3.49703 3.29554
# Velocity P-wave (km/s) = 6.44352 7.50871 6.99642
#
# Compressibility (1/GPa) = 0.02084761
#
# Stress axis : x y z
#
# Youngs Moduli (GPa) = 22.81845 47.08134 65.96229
#
# Poissons Ratio (x) = 0.50418 1.03359
# Poissons Ratio (y) = 0.24435 0.21835
# Poissons Ratio (z) = 0.35755 0.15585
#
# Static dielectric constant tensor:
#      x y z
#    x 1.562460 0.000000 0.000000 
#    y 0.000000 1.565920 0.000000 
#    z 0.000000 0.000000 1.539030 
# 
# From -- ./inp_files/29506.got.cif
#   From: 2010.05.17/outbox.cif.g08.bks.cpg/sg59_15_cif.got.tgz:29506.got - 2010.06.03 14:40:33.
