data_PCOD9448831
_publ_section_title
;
Structure prediction by ZEFSAII (Michael W. Deem and Ramdas Pophale) SiO2 
 PCOD9448831
Probable space group: P M M N
;
_chemical_formula_sum "Si O2"
_cell_formula_units_Z 64
_cell_length_a 29.650312
_cell_length_b 7.589932
_cell_length_c 12.899461
_cell_angle_alpha 90.000000
_cell_angle_beta 90.000000
_cell_angle_gamma 90.000000
_cell_volume 2902.944390
_symmetry_space_group_name_H-M "P M M N"
_symmetry_group_IT_number 59
_space_group.IT_coordinate_system_code '2'
_symmetry_cell_setting 'orthorhombic'
loop_
_space_group_symop_operation_xyz
x,y,z
1/2-x,1/2-y,z
1/2+x,-y,-z
-x,1/2+y,-z
-x,-y,-z
1/2+x,1/2+y,-z
1/2-x,y,z
x,1/2-y,z
loop_
_atom_site_type_symbol
_atom_site_label
_atom_site_fract_x
_atom_site_fract_y
_atom_site_fract_z
Si Si1 0.364065 0.546883 0.386187
Si Si2 0.799100 0.454769 0.988794
Si Si3 0.698039 0.463316 0.427282
Si Si4 0.052328 0.040522 0.514623
Si Si5 0.160405 0.457094 0.800320
Si Si6 0.879102 0.032984 0.844159
Si Si7 0.436811 0.465647 0.748839
Si Si8 0.480691 0.538900 0.113458
O O1 0.349799 0.750000 0.375147
O O2 0.332431 0.470267 0.476873
O O3 0.414980 0.541318 0.429573
O O4 0.364546 0.472645 0.270617
O O5 0.750000 0.534715 0.966829
O O6 0.796823 0.250000 0.958111
O O7 0.808984 0.460903 0.111114
O O8 0.842066 0.527512 0.927232
O O9 0.750000 0.519309 0.437001
O O10 0.696840 0.250000 0.428518
O O11 0.678368 0.517611 0.316011
O O12 0.058892 0.250000 0.509572
O O13 0.065671 0.978326 0.629484
O O14 0.000000 0.000000 0.500000
O O15 0.159807 0.250000 0.821988
O O16 0.108866 0.523866 0.805331
O O17 0.880562 0.250000 0.844320
O O18 0.929871 0.973041 0.870189
O O19 0.436942 0.250000 0.749054
O O20 0.482482 0.526760 0.803606
O O21 0.479015 0.750000 0.125497
O O22 0.500000 0.500000 0.000000
#
# Coordination Sequence:
#
# PCOD9448831 Si02
#       8
#     8   8   8   8   8   8   8   8
#     4  10  20  37  59  83 112 149 192 236 287 345
#     4  10  21  37  57  82 111 145 188 239 291 343
#     4  10  21  36  56  84 116 148 187 239 291 340
#     4  11  21  36  56  81 113 149 190 233 283 337
#     4  11  21  36  57  82 112 148 189 234 289 347
#     4   9  19  36  58  81 110 148 186 228 283 343
#     4   9  19  34  53  76 108 145 179 223 277 334
#     4  10  19  34  54  77 106 141 182 225 273 327
#
# _framework density 22.046582999999998
#
# number of rings (size 3 to 8) (size 9 to 14) (size 15 to 20)
#    0.000    2.000    1.250    2.625    0.000    4.500 
#    0.000    6.875    0.000    0.000    0.000    1.750 
#    0.000    0.000    0.000    0.000    0.000    0.000 
#
# Total GULP energy -357652.677756 kJ/mol
# GULP energy per Si atom -5588.323090 kJ/mol
# Density = 2.199640 g / cm^3
# Si number density = 22.046583 Si / 1000 Ang^3
#
#
#
# Elastic Constant Matrix: (Units=GPa)
#
#
# Indices 1 2 3 4 5 6 
#
# 1 165.2900 0.5602 53.5583 0.0000 0.0000 0.0000
# 2 0.5602 52.6430 -6.3922 0.0000 0.0000 0.0000
# 3 53.5583 -6.3922 121.1807 0.0000 0.0000 0.0000
# 4 0.0000 0.0000 0.0000 4.7474 0.0000 0.0000
# 5 0.0000 0.0000 0.0000 0.0000 32.9155 0.0000
# 6 0.0000 0.0000 0.0000 0.0000 0.0000 10.2266
#
#
#
# Elastic Compliance Matrix: (Units=1/GPa)
#
#
# Indices 1 2 3 4 5 6 
#
# 1 0.007072 -0.000458 -0.003150 0.000000 0.000000 0.000000
# 2 -0.000458 0.019148 0.001212 0.000000 0.000000 0.000000
# 3 -0.003150 0.001212 0.009708 0.000000 0.000000 0.000000
# 4 0.000000 0.000000 0.000000 0.210642 0.000000 0.000000
# 5 0.000000 0.000000 0.000000 0.000000 0.030381 0.000000
# 6 0.000000 0.000000 0.000000 0.000000 0.000000 0.097784
#
#
# Mechanical properties :
#
#
# Convention : Reuss Voigt Hill
#
# Bulk Modulus (GPa) = 32.11517 48.28513 40.20015
# Shear Modulus (GPa) = 12.82362 29.00372 20.91367
#
# Velocity S-wave (km/s) = 2.41438 3.63101 3.08330
# Velocity P-wave (km/s) = 4.72979 6.28712 5.56322
#
# Compressibility (1/GPa) = 0.03113793
#
# Stress axis : x y z
#
# Youngs Moduli (GPa) = 141.39973 52.22486 103.00551
#
# Poissons Ratio (x) = 0.02390 0.32445
# Poissons Ratio (y) = 0.06472 -0.12488
# Poissons Ratio (z) = 0.44538 -0.06331
#
# Static dielectric constant tensor:
#      x y z
#    x 1.802800 0.000000 0.000000 
#    y 0.000000 1.834470 0.000000 
#    z 0.000000 0.000000 1.776680 
# 
# From -- ./inp_files/14948.got.cif
#   From: 2010.05.17/outbox.cif.g08.bks.cpg/sg59_8_cif.got.tgz:14948.got - 2010.06.03 14:40:33.
