data_PCOD9448617
_publ_section_title
;
Structure prediction by ZEFSAII (Michael W. Deem and Ramdas Pophale) SiO2 
 PCOD9448617
Probable space group: P M M N
;
_chemical_formula_sum "Si O2"
_cell_formula_units_Z 52
_cell_length_a 10.217094
_cell_length_b 18.267396
_cell_length_c 15.864127
_cell_angle_alpha 90.000000
_cell_angle_beta 90.000000
_cell_angle_gamma 90.000000
_cell_volume 2960.875937
_symmetry_space_group_name_H-M "P M M N"
_symmetry_group_IT_number 59
_space_group.IT_coordinate_system_code '2'
_symmetry_cell_setting 'orthorhombic'
loop_
_space_group_symop_operation_xyz
x,y,z
1/2-x,1/2-y,z
1/2+x,-y,-z
-x,1/2+y,-z
-x,-y,-z
1/2+x,1/2+y,-z
1/2-x,y,z
x,1/2-y,z
loop_
_atom_site_type_symbol
_atom_site_label
_atom_site_fract_x
_atom_site_fract_y
_atom_site_fract_z
Si Si1 0.099738 0.620374 0.455273
Si Si2 0.599327 0.019709 0.708835
Si Si3 0.093200 0.250000 0.143071
Si Si4 0.902283 0.750000 0.490576
Si Si5 0.902134 0.444259 0.894481
Si Si6 0.903942 0.891958 0.966362
Si Si7 0.606559 0.411650 0.356789
Si Si8 0.018165 0.750000 0.669347
O O1 0.250000 0.650845 0.455743
O O2 0.086971 0.570876 0.372879
O O3 0.088534 0.576002 0.543031
O O4 0.986238 0.680674 0.458828
O O5 0.750000 0.994532 0.715165
O O6 0.570078 0.062093 0.795258
O O7 0.504583 0.951638 0.695382
O O8 0.250000 0.250000 0.149860
O O9 0.056756 0.323258 0.091497
O O10 0.037055 0.250000 0.236815
O O11 0.750000 0.750000 0.466120
O O12 0.913425 0.750000 0.592809
O O13 0.750000 0.424182 0.910611
O O14 0.915243 0.530759 0.917000
O O15 0.002077 0.400448 0.953165
O O16 0.750000 0.883336 0.989177
O O17 0.750000 0.438487 0.331922
O O18 0.597592 0.324578 0.344364
#
# Coordination Sequence:
#
# PCOD9448617 Si02
#       8
#     8   8   4   4   8   8   8   4
#     4   9  19  35  52  72 104 142 172 206 255 304
#     4  10  20  34  54  77 100 133 177 215 250 298
#     4  10  19  33  54  79 103 128 163 207 253 299
#     4  10  20  33  53  78 102 135 176 214 250 294
#     4   9  18  34  53  73  98 130 168 205 243 297
#     4   9  18  33  53  75 100 129 159 200 255 304
#     4  10  20  33  50  75 108 140 169 207 253 297
#     4  10  20  34  51  75 107 139 169 201 247 309
#
# _framework density 17.562370999999999
#
# number of rings (size 3 to 8) (size 9 to 14) (size 15 to 20)
#    0.000    2.462    0.000    2.077    0.000    7.385 
#    0.000    5.769    0.000    2.769    0.000    0.000 
#    0.000    0.000    0.000    0.000    0.000    0.000 
#
# Total GULP energy -289923.331201 kJ/mol
# GULP energy per Si atom -5575.448677 kJ/mol
# Density = 1.752240 g / cm^3
# Si number density = 17.562371 Si / 1000 Ang^3
#
#
#
# Elastic Constant Matrix: (Units=GPa)
#
#
# Indices 1 2 3 4 5 6 
#
# 1 88.3633 32.7529 45.5375 0.0000 0.0000 0.0000
# 2 32.7529 43.1968 33.1427 0.0000 0.0000 0.0000
# 3 45.5375 33.1427 121.0727 0.0000 0.0000 0.0000
# 4 0.0000 0.0000 0.0000 11.7197 0.0000 0.0000
# 5 0.0000 0.0000 0.0000 0.0000 19.4971 0.0000
# 6 0.0000 0.0000 0.0000 0.0000 0.0000 15.1571
#
#
#
# Elastic Compliance Matrix: (Units=1/GPa)
#
#
# Indices 1 2 3 4 5 6 
#
# 1 0.016899 -0.010047 -0.003606 0.000000 0.000000 0.000000
# 2 -0.010047 0.035278 -0.005878 0.000000 0.000000 0.000000
# 3 -0.003606 -0.005878 0.011225 0.000000 0.000000 0.000000
# 4 0.000000 0.000000 0.000000 0.085327 0.000000 0.000000
# 5 0.000000 0.000000 0.000000 0.000000 0.051290 0.000000
# 6 0.000000 0.000000 0.000000 0.000000 0.000000 0.065976
#
#
# Mechanical properties :
#
#
# Convention : Reuss Voigt Hill
#
# Bulk Modulus (GPa) = 41.08469 52.83322 46.95896
# Shear Modulus (GPa) = 15.96585 18.68809 17.32697
#
# Velocity S-wave (km/s) = 3.01839 3.26559 3.14442
# Velocity P-wave (km/s) = 5.96590 6.66088 6.32294
#
# Compressibility (1/GPa) = 0.02433996
#
# Stress axis : x y z
#
# Youngs Moduli (GPa) = 59.17472 28.34660 89.08829
#
# Poissons Ratio (x) = 0.28479 0.32124
# Poissons Ratio (y) = 0.59451 0.52368
# Poissons Ratio (z) = 0.21337 0.16663
#
# Static dielectric constant tensor:
#      x y z
#    x 1.599330 0.000000 0.000000 
#    y 0.000000 1.592770 0.000000 
#    z 0.000000 0.000000 1.588960 
# 
# From -- ./inp_files/20862.got.cif
#   From: 2010.05.17/outbox.cif.g08.bks.cpg/sg59_11_cif.got.tgz:20862.got - 2010.06.03 14:40:33.
