data_PCOD9448163
_publ_section_title
;
Structure prediction by ZEFSAII (Michael W. Deem and Ramdas Pophale) SiO2 
 PCOD9448163
Probable space group: P M M N
;
_chemical_formula_sum "Si O2"
_cell_formula_units_Z 48
_cell_length_a 7.403853
_cell_length_b 17.381427
_cell_length_c 17.041462
_cell_angle_alpha 90.000000
_cell_angle_beta 90.000000
_cell_angle_gamma 90.000000
_cell_volume 2193.057743
_symmetry_space_group_name_H-M "P M M N"
_symmetry_group_IT_number 59
_space_group.IT_coordinate_system_code '2'
_symmetry_cell_setting 'orthorhombic'
loop_
_space_group_symop_operation_xyz
x,y,z
1/2-x,1/2-y,z
1/2+x,-y,-z
-x,1/2+y,-z
-x,-y,-z
1/2+x,1/2+y,-z
1/2-x,y,z
x,1/2-y,z
loop_
_atom_site_type_symbol
_atom_site_label
_atom_site_fract_x
_atom_site_fract_y
_atom_site_fract_z
Si Si1 0.034724 0.912441 0.024448
Si Si2 0.470143 0.750000 0.297602
Si Si3 0.039387 0.560919 0.722499
Si Si4 0.529537 0.162666 0.134394
Si Si5 0.033212 0.918578 0.545999
Si Si6 0.529606 0.250000 0.521477
Si Si7 0.468942 0.898444 0.202186
O O1 0.250000 0.899654 0.028447
O O2 0.965422 0.898423 0.112194
O O3 0.965257 0.862527 0.951700
O O4 0.000000 0.000000 0.000000
O O5 0.250000 0.750000 0.298053
O O6 0.525906 0.750000 0.387605
O O7 0.528761 0.824592 0.250199
O O8 0.250000 0.583010 0.716634
O O9 0.962429 0.610163 0.794542
O O10 0.964351 0.571972 0.635360
O O11 0.026929 0.473748 0.751187
O O12 0.750000 0.156126 0.132287
O O13 0.482815 0.250000 0.150135
O O14 0.250000 0.913175 0.546763
O O15 0.971818 0.834034 0.513609
O O16 0.000000 0.000000 0.500000
O O17 0.750000 0.250000 0.516918
O O18 0.250000 0.899019 0.200035
#
# Coordination Sequence:
#
# PCOD9448163 Si02
#       7
#     8   4   8   8   8   4   8
#     4  10  19  32  51  74 101 135 171 209 253 301
#     4   9  18  32  51  76 104 133 170 215 257 303
#     4  10  20  34  54  79 105 135 172 214 260 309
#     4   9  18  31  50  75 104 136 171 212 254 299
#     4  10  21  36  57  82 108 139 177 220 267 319
#     4   9  18  34  55  78 106 139 174 217 267 319
#     4  10  20  33  53  78 105 138 175 213 254 304
#
# _framework density 21.887249000000001
#
# number of rings (size 3 to 8) (size 9 to 14) (size 15 to 20)
#    0.000    2.333    1.667    1.000    2.333    2.000 
#    0.000    0.833    0.000    5.000    0.000    0.000 
#    0.000    0.000    0.000    0.000    0.000    0.000 
#
# Total GULP energy -267918.974940 kJ/mol
# GULP energy per Si atom -5581.645311 kJ/mol
# Density = 2.183743 g / cm^3
# Si number density = 21.887249 Si / 1000 Ang^3
#
#
#
# Elastic Constant Matrix: (Units=GPa)
#
#
# Indices 1 2 3 4 5 6 
#
# 1 74.3790 -9.8378 5.4339 0.0000 0.0000 0.0000
# 2 -9.8378 192.2767 129.3700 0.0000 0.0000 0.0000
# 3 5.4339 129.3700 248.7080 0.0000 0.0000 0.0000
# 4 0.0000 0.0000 0.0000 12.7380 0.0000 0.0000
# 5 0.0000 0.0000 0.0000 0.0000 5.6767 0.0000
# 6 0.0000 0.0000 0.0000 0.0000 0.0000 15.4826
#
#
#
# Elastic Compliance Matrix: (Units=1/GPa)
#
#
# Indices 1 2 3 4 5 6 
#
# 1 0.013703 0.001389 -0.001022 0.000000 0.000000 0.000000
# 2 0.001389 0.008142 -0.004265 0.000000 0.000000 0.000000
# 3 -0.001022 -0.004265 0.006262 0.000000 0.000000 0.000000
# 4 0.000000 0.000000 0.000000 0.078506 0.000000 0.000000
# 5 0.000000 0.000000 0.000000 0.000000 0.176158 0.000000
# 6 0.000000 0.000000 0.000000 0.000000 0.000000 0.064589
#
#
# Mechanical properties :
#
#
# Convention : Reuss Voigt Hill
#
# Bulk Modulus (GPa) = 49.23822 85.03287 67.13554
# Shear Modulus (GPa) = 13.81497 32.80597 23.31047
#
# Velocity S-wave (km/s) = 2.51507 3.87571 3.26701
# Velocity P-wave (km/s) = 5.56590 7.67873 6.70605
#
# Compressibility (1/GPa) = 0.02030943
#
# Stress axis : x y z
#
# Youngs Moduli (GPa) = 72.97705 122.82279 159.69716
#
# Poissons Ratio (x) = -0.17054 0.16315
# Poissons Ratio (y) = -0.10133 0.68118
# Poissons Ratio (z) = 0.07456 0.52389
#
# Static dielectric constant tensor:
#      x y z
#    x 1.884110 0.000000 0.000000 
#    y 0.000000 1.696510 0.000000 
#    z 0.000000 0.000000 1.787910 
# 
# From -- ./inp_files/20604.got.cif
#   From: 2010.05.17/outbox.cif.g08.bks.cpg/sg59_11_cif.got.tgz:20604.got - 2010.06.03 14:40:33.
