data_PCOD9448727
_publ_section_title
;
Structure prediction by ZEFSAII (Michael W. Deem and Ramdas Pophale) SiO2 
 PCOD9448727
Probable space group: P M M N
;
_chemical_formula_sum "Si O2"
_cell_formula_units_Z 48
_cell_length_a 8.504251
_cell_length_b 19.091989
_cell_length_c 15.124269
_cell_angle_alpha 90.000000
_cell_angle_beta 90.000000
_cell_angle_gamma 90.000000
_cell_volume 2455.622694
_symmetry_space_group_name_H-M "P M M N"
_symmetry_group_IT_number 59
_space_group.IT_coordinate_system_code '2'
_symmetry_cell_setting 'orthorhombic'
loop_
_space_group_symop_operation_xyz
x,y,z
1/2-x,1/2-y,z
1/2+x,-y,-z
-x,1/2+y,-z
-x,-y,-z
1/2+x,1/2+y,-z
1/2-x,y,z
x,1/2-y,z
loop_
_atom_site_type_symbol
_atom_site_label
_atom_site_fract_x
_atom_site_fract_y
_atom_site_fract_z
Si Si1 0.562611 0.830418 0.975432
Si Si2 0.439441 0.554483 0.623050
Si Si3 0.062167 0.580788 0.823806
Si Si4 0.437874 0.400281 0.556528
Si Si5 0.060783 0.672930 0.278542
Si Si6 0.061929 0.931819 0.126351
O O1 0.750000 0.834494 0.987634
O O2 0.512295 0.750000 0.989914
O O3 0.518074 0.857118 0.877935
O O4 0.481244 0.883936 0.043063
O O5 0.250000 0.555127 0.621807
O O6 0.490644 0.574588 0.721590
O O7 0.491152 0.475475 0.597463
O O8 0.501358 0.602428 0.543532
O O9 0.250000 0.589572 0.825663
O O10 0.018151 0.507378 0.870709
O O11 0.250000 0.398843 0.556750
O O12 0.503183 0.342740 0.623067
O O13 0.250000 0.671802 0.277163
O O14 0.007933 0.750000 0.248807
O O15 0.006461 0.612513 0.211956
O O16 0.250000 0.941446 0.129936
#
# Coordination Sequence:
#
# PCOD9448727 Si02
#       6
#     8   8   8   8   8   8
#     4  11  25  43  61  84 117 155 195 242 296 350
#     4   9  19  35  56  83 114 148 188 233 284 340
#     4  11  22  39  63  90 119 151 195 244 291 347
#     4  10  19  33  55  83 114 148 190 236 283 338
#     4  10  21  36  55  82 118 157 195 238 291 349
#     4  11  22  38  62  89 118 153 196 242 292 350
#
# _framework density 19.546975
#
# number of rings (size 3 to 8) (size 9 to 14) (size 15 to 20)
#    0.000    1.667    1.667    3.000    0.000    5.000 
#    0.000    0.833    0.000    1.000    0.000    0.000 
#    0.000    0.000    0.000    0.000    0.000    0.000 
#
# Total GULP energy -268183.102718 kJ/mol
# GULP energy per Si atom -5587.147973 kJ/mol
# Density = 1.950249 g / cm^3
# Si number density = 19.546975 Si / 1000 Ang^3
#
#
#
# Elastic Constant Matrix: (Units=GPa)
#
#
# Indices 1 2 3 4 5 6 
#
# 1 5.6567 -1.6819 -6.4108 0.0000 0.0000 0.0000
# 2 -1.6819 42.7765 10.6367 0.0000 0.0000 0.0000
# 3 -6.4108 10.6367 90.8635 0.0000 0.0000 0.0000
# 4 0.0000 0.0000 0.0000 15.6797 0.0000 0.0000
# 5 0.0000 0.0000 0.0000 0.0000 28.2556 0.0000
# 6 0.0000 0.0000 0.0000 0.0000 0.0000 14.9384
#
#
#
# Elastic Compliance Matrix: (Units=1/GPa)
#
#
# Indices 1 2 3 4 5 6 
#
# 1 0.192919 0.004327 0.013105 0.000000 0.000000 0.000000
# 2 0.004327 0.024175 -0.002525 0.000000 0.000000 0.000000
# 3 0.013105 -0.002525 0.012226 0.000000 0.000000 0.000000
# 4 0.000000 0.000000 0.000000 0.063777 0.000000 0.000000
# 5 0.000000 0.000000 0.000000 0.000000 0.035391 0.000000
# 6 0.000000 0.000000 0.000000 0.000000 0.000000 0.066941
#
#
# Mechanical properties :
#
#
# Convention : Reuss Voigt Hill
#
# Bulk Modulus (GPa) = 3.85901 16.04274 9.95088
# Shear Modulus (GPa) = 11.06210 20.89160 15.97685
#
# Velocity S-wave (km/s) = 2.38150 3.27278 2.86205
# Velocity P-wave (km/s) = 3.08878 4.74411 4.00294
#
# Compressibility (1/GPa) = 0.25913363
#
# Stress axis : x y z
#
# Youngs Moduli (GPa) = 5.18352 41.36460 81.79517
#
# Poissons Ratio (x) = -0.17898 -1.07190
# Poissons Ratio (y) = -0.02243 0.20651
# Poissons Ratio (z) = -0.06793 0.10444
#
# Static dielectric constant tensor:
#      x y z
#    x 1.652270 0.000000 0.000000 
#    y 0.000000 1.674570 0.000000 
#    z 0.000000 0.000000 1.702520 
# 
# From -- ./inp_files/20452.got.cif
#   From: 2010.05.17/outbox.cif.g08.bks.cpg/sg59_11_cif.got.tgz:20452.got - 2010.06.03 14:40:33.
