data_PCOD9448133
_publ_section_title
;
Structure prediction by ZEFSAII (Michael W. Deem and Ramdas Pophale) SiO2 
 PCOD9448133
Probable space group: P M M N
;
_chemical_formula_sum "Si O2"
_cell_formula_units_Z 64
_cell_length_a 7.787999
_cell_length_b 20.448477
_cell_length_c 20.808095
_cell_angle_alpha 90.000000
_cell_angle_beta 90.000000
_cell_angle_gamma 90.000000
_cell_volume 3313.745694
_symmetry_space_group_name_H-M "P M M N"
_symmetry_group_IT_number 59
_space_group.IT_coordinate_system_code '2'
_symmetry_cell_setting 'orthorhombic'
loop_
_space_group_symop_operation_xyz
x,y,z
1/2-x,1/2-y,z
1/2+x,-y,-z
-x,1/2+y,-z
-x,-y,-z
1/2+x,1/2+y,-z
1/2-x,y,z
x,1/2-y,z
loop_
_atom_site_type_symbol
_atom_site_label
_atom_site_fract_x
_atom_site_fract_y
_atom_site_fract_z
Si Si1 0.957819 0.443925 0.087326
Si Si2 0.448430 0.563851 0.266226
Si Si3 0.539539 0.324191 0.830544
Si Si4 0.541957 0.324533 0.338162
Si Si5 0.450842 0.920134 0.772595
Si Si6 0.543876 0.408126 0.948803
Si Si7 0.949216 0.940730 0.408205
Si Si8 0.453990 0.083455 0.451312
O O1 0.750000 0.439943 0.088029
O O2 0.024295 0.417546 0.155311
O O3 0.002738 0.520449 0.080079
O O4 0.020762 0.408799 0.022241
O O5 0.250000 0.553978 0.248161
O O6 0.515436 0.624026 0.223811
O O7 0.537460 0.494974 0.251109
O O8 0.460479 0.577138 0.342038
O O9 0.750000 0.323479 0.829945
O O10 0.482151 0.250000 0.820174
O O11 0.482929 0.353246 0.899332
O O12 0.750000 0.325474 0.336885
O O13 0.484816 0.250000 0.330589
O O14 0.475899 0.371686 0.281163
O O15 0.488018 0.355609 0.405823
O O16 0.250000 0.903198 0.778069
O O17 0.750000 0.402573 0.951811
O O18 0.750000 0.923342 0.400580
O O19 0.015912 0.910456 0.475130
O O20 0.964064 0.018877 0.419689
O O21 0.250000 0.070821 0.454459
#
# Coordination Sequence:
#
# PCOD9448133 Si02
#       8
#     8   8   8   8   8   8   8   8
#     4   9  17  28  47  74 101 128 165 213 263 303
#     4  11  20  31  52  79 103 134 177 217 256 307
#     4   9  18  32  49  72 104 138 173 216 262 308
#     4  10  21  36  53  74 105 145 179 213 264 318
#     4  10  19  32  50  74 105 137 170 216 266 309
#     4   9  16  29  48  71  98 130 169 210 255 306
#     4  10  20  34  53  78 107 133 163 212 264 306
#     4  10  20  34  54  79 104 133 171 213 257 308
#
# _framework density 19.313490999999999
#
# number of rings (size 3 to 8) (size 9 to 14) (size 15 to 20)
#    0.000    2.250    2.500    1.125    0.000    1.750 
#    0.000    1.250    0.000    9.375    0.000    0.000 
#    0.000    3.000    0.000    0.000    0.000    0.000 
#
# Total GULP energy -357040.043847 kJ/mol
# GULP energy per Si atom -5578.750685 kJ/mol
# Density = 1.926953 g / cm^3
# Si number density = 19.313491 Si / 1000 Ang^3
#
#
#
# Elastic Constant Matrix: (Units=GPa)
#
#
# Indices 1 2 3 4 5 6 
#
# 1 25.4368 -4.8230 -1.3951 0.0000 0.0000 0.0000
# 2 -4.8230 116.7095 78.3096 0.0000 0.0000 0.0000
# 3 -1.3951 78.3096 159.5841 0.0000 0.0000 0.0000
# 4 0.0000 0.0000 0.0000 26.9854 0.0000 0.0000
# 5 0.0000 0.0000 0.0000 0.0000 10.0419 0.0000
# 6 0.0000 0.0000 0.0000 0.0000 0.0000 15.4416
#
#
#
# Elastic Compliance Matrix: (Units=1/GPa)
#
#
# Indices 1 2 3 4 5 6 
#
# 1 0.039673 0.002097 -0.000682 0.000000 0.000000 0.000000
# 2 0.002097 0.012885 -0.006305 0.000000 0.000000 0.000000
# 3 -0.000682 -0.006305 0.009354 0.000000 0.000000 0.000000
# 4 0.000000 0.000000 0.000000 0.037057 0.000000 0.000000
# 5 0.000000 0.000000 0.000000 0.000000 0.099583 0.000000
# 6 0.000000 0.000000 0.000000 0.000000 0.000000 0.064760
#
#
# Mechanical properties :
#
#
# Convention : Reuss Voigt Hill
#
# Bulk Modulus (GPa) = 19.18158 49.54593 34.36376
# Shear Modulus (GPa) = 17.21350 25.80304 21.50827
#
# Velocity S-wave (km/s) = 2.98865 3.65911 3.34074
# Velocity P-wave (km/s) = 4.67575 6.60010 5.71944
#
# Compressibility (1/GPa) = 0.05213335
#
# Stress axis : x y z
#
# Youngs Moduli (GPa) = 25.20587 77.60858 106.90576
#
# Poissons Ratio (x) = -0.16277 0.07295
# Poissons Ratio (y) = -0.05286 0.67399
# Poissons Ratio (z) = 0.01720 0.48929
#
# Static dielectric constant tensor:
#      x y z
#    x 1.728790 0.000000 0.000000 
#    y 0.000000 1.632560 0.000000 
#    z 0.000000 0.000000 1.710560 
# 
# From -- ./inp_files/29556.got.cif
#   From: 2010.05.17/outbox.cif.g08.bks.cpg/sg59_15_cif.got.tgz:29556.got - 2010.06.03 14:40:33.
