data_PCOD9448892
_publ_section_title
;
Structure prediction by ZEFSAII (Michael W. Deem and Ramdas Pophale) SiO2 
 PCOD9448892
Probable space group: P M M N
;
_chemical_formula_sum "Si O2"
_cell_formula_units_Z 40
_cell_length_a 9.774194
_cell_length_b 7.378919
_cell_length_c 24.575359
_cell_angle_alpha 90.000000
_cell_angle_beta 90.000000
_cell_angle_gamma 90.000000
_cell_volume 1772.448269
_symmetry_space_group_name_H-M "P M M N"
_symmetry_group_IT_number 59
_space_group.IT_coordinate_system_code '2'
_symmetry_cell_setting 'orthorhombic'
loop_
_space_group_symop_operation_xyz
x,y,z
1/2-x,1/2-y,z
1/2+x,-y,-z
-x,1/2+y,-z
-x,-y,-z
1/2+x,1/2+y,-z
1/2-x,y,z
x,1/2-y,z
loop_
_atom_site_type_symbol
_atom_site_label
_atom_site_fract_x
_atom_site_fract_y
_atom_site_fract_z
Si Si1 0.750000 0.967035 0.585670
Si Si2 0.907590 0.028489 0.846205
Si Si3 0.956620 0.959943 0.371851
Si Si4 0.907102 0.966525 0.052908
Si Si5 0.250000 0.471022 0.538492
Si Si6 0.597880 0.970982 0.250919
O O1 0.750000 0.750000 0.584496
O O2 0.750000 0.035258 0.523365
O O3 0.615773 0.028197 0.616796
O O4 0.750000 0.970105 0.851824
O O5 0.905864 0.250000 0.847033
O O6 0.006190 0.967678 0.895182
O O7 0.978892 0.971506 0.789884
O O8 0.914752 0.750000 0.368979
O O9 0.878313 0.032133 0.424914
O O10 0.920302 0.036581 0.312855
O O11 0.750000 0.034959 0.048781
O O12 0.896449 0.750000 0.059021
O O13 0.000000 0.000000 0.000000
O O14 0.250000 0.250000 0.534520
O O15 0.750000 0.020724 0.231210
O O16 0.592906 0.750000 0.251900
#
# Coordination Sequence:
#
# PCOD9448892 Si02
#       6
#     4   8   8   8   4   8
#     4  11  23  35  49  73 109 143 170 207 260 318
#     4   9  17  28  46  76 110 137 166 211 266 314
#     4  10  19  34  56  79 101 131 174 220 261 307
#     4  10  20  34  53  78 110 146 181 216 256 306
#     4   9  18  35  55  77 103 133 172 217 262 310
#     4   9  16  28  49  76 103 129 163 214 269 312
#
# _framework density 22.567653
#
# number of rings (size 3 to 8) (size 9 to 14) (size 15 to 20)
#    0.000    2.400    1.000    2.100    1.400    3.600 
#    0.000    1.500    0.000    1.200    0.000    0.000 
#    0.000    0.000    0.000    0.000    0.000    0.000 
#
# Total GULP energy -223467.011764 kJ/mol
# GULP energy per Si atom -5586.675294 kJ/mol
# Density = 2.251629 g / cm^3
# Si number density = 22.567653 Si / 1000 Ang^3
#
#
#
# Elastic Constant Matrix: (Units=GPa)
#
#
# Indices 1 2 3 4 5 6 
#
# 1 213.0339 -0.2832 71.3211 0.0000 0.0000 0.0000
# 2 -0.2832 81.3519 4.0917 0.0000 0.0000 0.0000
# 3 71.3211 4.0917 126.4021 0.0000 0.0000 0.0000
# 4 0.0000 0.0000 0.0000 4.2995 0.0000 0.0000
# 5 0.0000 0.0000 0.0000 0.0000 44.5122 0.0000
# 6 0.0000 0.0000 0.0000 0.0000 0.0000 76.0712
#
#
#
# Elastic Compliance Matrix: (Units=1/GPa)
#
#
# Indices 1 2 3 4 5 6 
#
# 1 0.005790 0.000185 -0.003273 0.000000 0.000000 0.000000
# 2 0.000185 0.012318 -0.000503 0.000000 0.000000 0.000000
# 3 -0.003273 -0.000503 0.009774 0.000000 0.000000 0.000000
# 4 0.000000 0.000000 0.000000 0.232586 0.000000 0.000000
# 5 0.000000 0.000000 0.000000 0.000000 0.022466 0.000000
# 6 0.000000 0.000000 0.000000 0.000000 0.000000 0.013146
#
#
# Mechanical properties :
#
#
# Convention : Reuss Voigt Hill
#
# Bulk Modulus (GPa) = 48.30878 63.44970 55.87924
# Shear Modulus (GPa) = 16.12059 48.02045 32.07052
#
# Velocity S-wave (km/s) = 2.67558 4.61786 3.77382
# Velocity P-wave (km/s) = 5.56755 7.52391 6.61842
#
# Compressibility (1/GPa) = 0.02070017
#
# Stress axis : x y z
#
# Youngs Moduli (GPa) = 172.70893 81.18058 102.30926
#
# Poissons Ratio (x) = -0.01500 0.33486
# Poissons Ratio (y) = -0.03191 0.05146
# Poissons Ratio (z) = 0.56527 0.04083
#
# Static dielectric constant tensor:
#      x y z
#    x 1.785570 0.000000 0.000000 
#    y 0.000000 1.926140 0.000000 
#    z 0.000000 0.000000 1.800450 
# 
# From -- ./inp_files/32438.got.cif
#   From: 2010.05.17/outbox.cif.g08.bks.cpg/sg59_17_cif.got.tgz:32438.got - 2010.06.03 14:40:33.
