data_PCOD9448799
_publ_section_title
;
Structure prediction by ZEFSAII (Michael W. Deem and Ramdas Pophale) SiO2 
 PCOD9448799
Probable space group: P M M N
;
_chemical_formula_sum "Si O2"
_cell_formula_units_Z 48
_cell_length_a 7.635102
_cell_length_b 23.934442
_cell_length_c 13.372303
_cell_angle_alpha 90.000000
_cell_angle_beta 90.000000
_cell_angle_gamma 90.000000
_cell_volume 2443.680138
_symmetry_space_group_name_H-M "P M M N"
_symmetry_group_IT_number 59
_space_group.IT_coordinate_system_code '2'
_symmetry_cell_setting 'orthorhombic'
loop_
_space_group_symop_operation_xyz
x,y,z
1/2-x,1/2-y,z
1/2+x,-y,-z
-x,1/2+y,-z
-x,-y,-z
1/2+x,1/2+y,-z
1/2-x,y,z
x,1/2-y,z
loop_
_atom_site_type_symbol
_atom_site_label
_atom_site_fract_x
_atom_site_fract_y
_atom_site_fract_z
Si Si1 0.541115 0.686914 0.003547
Si Si2 0.548864 0.620272 0.195884
Si Si3 0.039109 0.064219 0.614399
Si Si4 0.552428 0.380886 0.194881
Si Si5 0.040536 0.999470 0.116326
Si Si6 0.539113 0.436043 0.384220
O O1 0.750000 0.689209 0.017211
O O2 0.472858 0.750000 0.996342
O O3 0.517781 0.654202 0.898940
O O4 0.470566 0.655792 0.103544
O O5 0.750000 0.639381 0.208511
O O6 0.470862 0.610401 0.306755
O O7 0.543004 0.556575 0.158150
O O8 0.250000 0.062497 0.625566
O O9 0.999434 0.077138 0.499335
O O10 0.974154 0.000193 0.633738
O O11 0.750000 0.360523 0.208132
O O12 0.544695 0.445079 0.159706
O O13 0.470271 0.389917 0.305280
O O14 0.250000 0.999958 0.133044
O O15 0.000000 0.000000 0.000000
O O16 0.750000 0.437640 0.372322
#
# Coordination Sequence:
#
# PCOD9448799 Si02
#       6
#     8   8   8   8   8   8
#     4  10  22  38  56  78 103 136 178 223 272 320
#     4  10  19  34  53  75 107 141 173 215 263 317
#     4   9  17  30  48  73 106 142 176 208 250 310
#     4  11  21  35  54  77 107 142 178 217 262 316
#     4  12  22  31  48  77 109 140 172 211 261 320
#     4   9  18  31  47  73 108 140 173 211 252 308
#
# _framework density 19.642503999999999
#
# number of rings (size 3 to 8) (size 9 to 14) (size 15 to 20)
#    0.000    1.833    3.333    2.000    0.000    2.333 
#    0.000    0.000    0.000    1.000    0.000    2.333 
#    0.000    0.000    0.000    0.000    0.000    0.000 
#
# Total GULP energy -267376.689659 kJ/mol
# GULP energy per Si atom -5570.347701 kJ/mol
# Density = 1.959780 g / cm^3
# Si number density = 19.642504 Si / 1000 Ang^3
#
#
#
# Elastic Constant Matrix: (Units=GPa)
#
#
# Indices 1 2 3 4 5 6 
#
# 1 58.7789 -3.3451 3.2559 0.0000 0.0000 0.0000
# 2 -3.3451 94.0075 64.6368 0.0000 0.0000 0.0000
# 3 3.2559 64.6368 189.1180 0.0000 0.0000 0.0000
# 4 0.0000 0.0000 0.0000 9.3216 0.0000 0.0000
# 5 0.0000 0.0000 0.0000 0.0000 24.3543 0.0000
# 6 0.0000 0.0000 0.0000 0.0000 0.0000 10.2092
#
#
#
# Elastic Compliance Matrix: (Units=1/GPa)
#
#
# Indices 1 2 3 4 5 6 
#
# 1 0.017110 0.001061 -0.000657 0.000000 0.000000 0.000000
# 2 0.001061 0.013971 -0.004793 0.000000 0.000000 0.000000
# 3 -0.000657 -0.004793 0.006937 0.000000 0.000000 0.000000
# 4 0.000000 0.000000 0.000000 0.107278 0.000000 0.000000
# 5 0.000000 0.000000 0.000000 0.000000 0.041060 0.000000
# 6 0.000000 0.000000 0.000000 0.000000 0.000000 0.097951
#
#
# Mechanical properties :
#
#
# Convention : Reuss Voigt Hill
#
# Bulk Modulus (GPa) = 34.20162 52.33329 43.26746
# Shear Modulus (GPa) = 16.51079 27.26748 21.88913
#
# Velocity S-wave (km/s) = 2.90239 3.72988 3.34185
# Velocity P-wave (km/s) = 5.35553 6.72682 6.07996
#
# Compressibility (1/GPa) = 0.02923838
#
# Stress axis : x y z
#
# Youngs Moduli (GPa) = 58.44653 71.57754 144.14947
#
# Poissons Ratio (x) = -0.07591 0.09471
# Poissons Ratio (y) = -0.06199 0.69094
# Poissons Ratio (z) = 0.03840 0.34309
#
# Static dielectric constant tensor:
#      x y z
#    x 1.751260 0.000000 0.000000 
#    y 0.000000 1.688470 0.000000 
#    z 0.000000 0.000000 1.830160 
# 
# From -- ./inp_files/14334.got.cif
#   From: 2010.05.17/outbox.cif.g08.bks.cpg/sg59_8_cif.got.tgz:14334.got - 2010.06.03 14:40:33.
