data_PCOD9448271
_publ_section_title
;
Structure prediction by ZEFSAII (Michael W. Deem and Ramdas Pophale) SiO2 
 PCOD9448271
Probable space group: P M M N
;
_chemical_formula_sum "Si O2"
_cell_formula_units_Z 64
_cell_length_a 8.873389
_cell_length_b 19.531655
_cell_length_c 21.838437
_cell_angle_alpha 90.000000
_cell_angle_beta 90.000000
_cell_angle_gamma 90.000000
_cell_volume 3784.862596
_symmetry_space_group_name_H-M "P M M N"
_symmetry_group_IT_number 59
_space_group.IT_coordinate_system_code '2'
_symmetry_cell_setting 'orthorhombic'
loop_
_space_group_symop_operation_xyz
x,y,z
1/2-x,1/2-y,z
1/2+x,-y,-z
-x,1/2+y,-z
-x,-y,-z
1/2+x,1/2+y,-z
1/2-x,y,z
x,1/2-y,z
loop_
_atom_site_type_symbol
_atom_site_label
_atom_site_fract_x
_atom_site_fract_y
_atom_site_fract_z
Si Si1 0.569133 0.329746 0.463985
Si Si2 0.930246 0.330217 0.606493
Si Si3 0.578665 0.861451 0.772361
Si Si4 0.068381 0.972752 0.937184
Si Si5 0.429339 0.055233 0.690900
Si Si6 0.422524 0.979701 0.185242
Si Si7 0.931098 0.587210 0.645383
Si Si8 0.930260 0.323281 0.105316
O O1 0.750000 0.336275 0.456924
O O2 0.529958 0.250000 0.452103
O O3 0.533498 0.344343 0.535123
O O4 0.486819 0.379767 0.417301
O O5 0.750000 0.340339 0.613979
O O6 0.961927 0.250000 0.617887
O O7 0.018019 0.380440 0.651040
O O8 0.750000 0.835310 0.776349
O O9 0.527028 0.862405 0.702129
O O10 0.476497 0.827430 0.823496
O O11 0.581891 0.941697 0.790895
O O12 0.250000 0.974645 0.938475
O O13 0.017220 0.893675 0.926009
O O14 0.008560 0.016198 0.879183
O O15 0.000000 0.000000 0.000000
O O16 0.250000 0.049681 0.693557
O O17 0.495487 0.059552 0.759760
O O18 0.496071 0.986412 0.659536
O O19 0.250000 0.956665 0.177305
O O20 0.750000 0.580027 0.646692
O O21 0.750000 0.323871 0.100953
O O22 0.986017 0.250000 0.080432
#
# Coordination Sequence:
#
# PCOD9448271 Si02
#       8
#     8   8   8   8   8   8   8   8
#     4   9  19  35  52  70  95 129 169 213 260 311
#     4   9  19  37  57  74  96 129 168 210 261 320
#     4   8  16  29  44  65  93 125 159 195 236 283
#     4  10  19  32  52  77 105 137 172 208 247 295
#     4  11  21  33  53  79 104 130 164 211 260 303
#     4   9  17  32  52  74 101 129 160 199 243 294
#     4  10  20  33  49  71 101 136 172 208 250 303
#     4   9  18  31  47  69  97 130 167 204 241 286
#
# _framework density 16.909465000000001
#
# number of rings (size 3 to 8) (size 9 to 14) (size 15 to 20)
#    0.000    2.625    0.000    3.750    0.000    6.250 
#    0.000    3.750    0.000    0.750    0.000    1.750 
#    0.000    0.000    0.000    0.000    0.000    0.000 
#
# Total GULP energy -356726.116807 kJ/mol
# GULP energy per Si atom -5573.845575 kJ/mol
# Density = 1.687098 g / cm^3
# Si number density = 16.909465 Si / 1000 Ang^3
#
#
#
# Elastic Constant Matrix: (Units=GPa)
#
#
# Indices 1 2 3 4 5 6 
#
# 1 70.4417 41.6058 60.7352 0.0000 0.0000 0.0000
# 2 41.6058 72.2890 67.2767 0.0000 0.0000 0.0000
# 3 60.7352 67.2767 132.2800 0.0000 0.0000 0.0000
# 4 0.0000 0.0000 0.0000 9.9463 0.0000 0.0000
# 5 0.0000 0.0000 0.0000 0.0000 30.6172 0.0000
# 6 0.0000 0.0000 0.0000 0.0000 0.0000 19.9663
#
#
#
# Elastic Compliance Matrix: (Units=1/GPa)
#
#
# Indices 1 2 3 4 5 6 
#
# 1 0.025291 -0.007119 -0.007992 0.000000 0.000000 0.000000
# 2 -0.007119 0.028269 -0.011109 0.000000 0.000000 0.000000
# 3 -0.007992 -0.011109 0.016879 0.000000 0.000000 0.000000
# 4 0.000000 0.000000 0.000000 0.100540 0.000000 0.000000
# 5 0.000000 0.000000 0.000000 0.000000 0.032661 0.000000
# 6 0.000000 0.000000 0.000000 0.000000 0.000000 0.050084
#
#
# Mechanical properties :
#
#
# Convention : Reuss Voigt Hill
#
# Bulk Modulus (GPa) = 55.55375 68.24957 61.90166
# Shear Modulus (GPa) = 16.01717 19.13215 17.57466
#
# Velocity S-wave (km/s) = 3.08105 3.36735 3.22738
# Velocity P-wave (km/s) = 6.75145 7.45440 7.11162
#
# Compressibility (1/GPa) = 0.01800058
#
# Stress axis : x y z
#
# Youngs Moduli (GPa) = 39.53937 35.37393 59.24493
#
# Poissons Ratio (x) = 0.25182 0.47347
# Poissons Ratio (y) = 0.28147 0.65816
# Poissons Ratio (z) = 0.31599 0.39297
#
# Static dielectric constant tensor:
#      x y z
#    x 1.572800 0.000000 0.000000 
#    y 0.000000 1.579220 0.000000 
#    z 0.000000 0.000000 1.557680 
# 
# From -- ./inp_files/29507.got.cif
#   From: 2010.05.17/outbox.cif.g08.bks.cpg/sg59_15_cif.got.tgz:29507.got - 2010.06.03 14:40:33.
