data_PCOD9448920
_publ_section_title
;
Structure prediction by ZEFSAII (Michael W. Deem and Ramdas Pophale) SiO2 
 PCOD9448920
Probable space group: P M M N
;
_chemical_formula_sum "Si O2"
_cell_formula_units_Z 48
_cell_length_a 8.539951
_cell_length_b 15.125340
_cell_length_c 20.515940
_cell_angle_alpha 90.000000
_cell_angle_beta 90.000000
_cell_angle_gamma 90.000000
_cell_volume 2650.037045
_symmetry_space_group_name_H-M "P M M N"
_symmetry_group_IT_number 59
_space_group.IT_coordinate_system_code '2'
_symmetry_cell_setting 'orthorhombic'
loop_
_space_group_symop_operation_xyz
x,y,z
1/2-x,1/2-y,z
1/2+x,-y,-z
-x,1/2+y,-z
-x,-y,-z
1/2+x,1/2+y,-z
1/2-x,y,z
x,1/2-y,z
loop_
_atom_site_type_symbol
_atom_site_label
_atom_site_fract_x
_atom_site_fract_y
_atom_site_fract_z
Si Si1 0.562529 0.557090 0.704633
Si Si2 0.568766 0.250000 0.421382
Si Si3 0.439027 0.060754 0.816270
Si Si4 0.060618 0.556629 0.938998
Si Si5 0.932866 0.056294 0.441457
Si Si6 0.068650 0.250000 0.282512
Si Si7 0.939226 0.250000 0.020536
Si Si8 0.439636 0.250000 0.872372
O O1 0.750000 0.561542 0.705720
O O2 0.503882 0.477682 0.749288
O O3 0.509048 0.545820 0.629892
O O4 0.501098 0.652500 0.733239
O O5 0.750000 0.250000 0.395458
O O6 0.548354 0.340312 0.459316
O O7 0.450057 0.250000 0.361050
O O8 0.250000 0.060165 0.813666
O O9 0.488213 0.159965 0.835873
O O10 0.489830 0.993576 0.873619
O O11 0.250000 0.555759 0.940484
O O12 0.008178 0.658539 0.945779
O O13 0.000000 0.500000 0.000000
O O14 0.750000 0.037148 0.433937
O O15 0.000000 0.000000 0.500000
O O16 0.250000 0.250000 0.262323
O O17 0.750000 0.250000 0.020844
O O18 0.995943 0.250000 0.945846
O O19 0.250000 0.250000 0.876345
#
# Coordination Sequence:
#
# PCOD9448920 Si02
#       8
#     8   4   8   8   8   4   4   4
#     4  10  20  35  55  80 109 141 178 220 268 320
#     4   8  16  30  50  76 104 137 174 210 255 312
#     4  10  21  36  54  77 106 140 179 221 268 320
#     4  10  20  34  53  77 105 135 174 219 266 316
#     4  10  19  34  56  82 111 143 180 221 267 317
#     4   8  16  31  51  74 103 134 167 210 260 315
#     4  10  20  33  53  82 109 135 174 225 271 319
#     4  10  20  36  56  76 102 142 183 219 264 322
#
# _framework density 18.112954999999999
#
# number of rings (size 3 to 8) (size 9 to 14) (size 15 to 20)
#    0.000    2.333    1.667    1.000    0.000    3.333 
#    0.000    1.667    0.000    0.000    0.000    0.000 
#    0.000    0.000    0.000    0.000    0.000    0.000 
#
# Total GULP energy -267525.937942 kJ/mol
# GULP energy per Si atom -5573.457040 kJ/mol
# Density = 1.807173 g / cm^3
# Si number density = 18.112955 Si / 1000 Ang^3
#
#
#
# Elastic Constant Matrix: (Units=GPa)
#
#
# Indices 1 2 3 4 5 6 
#
# 1 18.2526 33.4590 20.2907 0.0000 0.0000 0.0000
# 2 33.4590 174.5702 78.4688 0.0000 0.0000 0.0000
# 3 20.2907 78.4688 96.2285 0.0000 0.0000 0.0000
# 4 0.0000 0.0000 0.0000 32.2265 0.0000 0.0000
# 5 0.0000 0.0000 0.0000 0.0000 27.8969 0.0000
# 6 0.0000 0.0000 0.0000 0.0000 0.0000 19.9774
#
#
#
# Elastic Compliance Matrix: (Units=1/GPa)
#
#
# Indices 1 2 3 4 5 6 
#
# 1 0.087817 -0.013431 -0.007565 0.000000 0.000000 0.000000
# 2 -0.013431 0.011097 -0.006217 0.000000 0.000000 0.000000
# 3 -0.007565 -0.006217 0.017057 0.000000 0.000000 0.000000
# 4 0.000000 0.000000 0.000000 0.031030 0.000000 0.000000
# 5 0.000000 0.000000 0.000000 0.000000 0.035846 0.000000
# 6 0.000000 0.000000 0.000000 0.000000 0.000000 0.050057
#
#
# Mechanical properties :
#
#
# Convention : Reuss Voigt Hill
#
# Bulk Modulus (GPa) = 16.24831 61.49872 38.87351
# Shear Modulus (GPa) = 16.24198 26.47569 21.35883
#
# Velocity S-wave (km/s) = 2.99775 3.82737 3.43768
# Velocity P-wave (km/s) = 4.57952 7.31835 6.10452
#
# Compressibility (1/GPa) = 0.06154488
#
# Stress axis : x y z
#
# Youngs Moduli (GPa) = 11.38736 90.11316 58.62815
#
# Poissons Ratio (x) = 1.21032 0.44351
# Poissons Ratio (y) = 0.15294 0.36449
# Poissons Ratio (z) = 0.08614 0.56024
#
# Static dielectric constant tensor:
#      x y z
#    x 1.630270 0.000000 0.000000 
#    y 0.000000 1.664590 0.000000 
#    z 0.000000 0.000000 1.580920 
# 
# From -- ./inp_files/25689.got.cif
#   From: 2010.05.17/outbox.cif.g08.bks.cpg/sg59_13_cif.got.tgz:25689.got - 2010.06.03 14:40:33.
