data_PCOD9448946
_publ_section_title
;
Structure prediction by ZEFSAII (Michael W. Deem and Ramdas Pophale) SiO2 
 PCOD9448946
Probable space group: P M M N
;
_chemical_formula_sum "Si O2"
_cell_formula_units_Z 56
_cell_length_a 9.135954
_cell_length_b 21.620533
_cell_length_c 14.283663
_cell_angle_alpha 90.000000
_cell_angle_beta 90.000000
_cell_angle_gamma 90.000000
_cell_volume 2821.369035
_symmetry_space_group_name_H-M "P M M N"
_symmetry_group_IT_number 59
_space_group.IT_coordinate_system_code '2'
_symmetry_cell_setting 'orthorhombic'
loop_
_space_group_symop_operation_xyz
x,y,z
1/2-x,1/2-y,z
1/2+x,-y,-z
-x,1/2+y,-z
-x,-y,-z
1/2+x,1/2+y,-z
1/2-x,y,z
x,1/2-y,z
loop_
_atom_site_type_symbol
_atom_site_label
_atom_site_fract_x
_atom_site_fract_y
_atom_site_fract_z
Si Si1 0.572898 0.321571 0.094246
Si Si2 0.926885 0.437035 0.962144
Si Si3 0.577206 0.360039 0.306277
Si Si4 0.089394 0.321427 0.479669
Si Si5 0.087093 0.823876 0.346095
Si Si6 0.577394 0.005566 0.399549
Si Si7 0.076454 0.412036 0.766292
O O1 0.750000 0.318962 0.088800
O O2 0.521196 0.250000 0.080371
O O3 0.538075 0.346054 0.198958
O O4 0.528253 0.375405 0.021351
O O5 0.750000 0.441866 0.966288
O O6 0.985581 0.429230 0.857331
O O7 0.000000 0.500000 0.000000
O O8 0.750000 0.344386 0.317503
O O9 0.474957 0.322917 0.376500
O O10 0.556297 0.429627 0.344530
O O11 0.250000 0.351351 0.486725
O O12 0.105575 0.250000 0.506134
O O13 0.972271 0.346750 0.553282
O O14 0.250000 0.848516 0.327247
O O15 0.097128 0.750000 0.347890
O O16 0.972201 0.844721 0.268420
O O17 0.750000 0.999203 0.417086
O O18 0.500000 0.000000 0.500000
O O19 0.535165 0.954862 0.322139
O O20 0.250000 0.417677 0.782824
#
# Coordination Sequence:
#
# PCOD9448946 Si02
#       7
#     8   8   8   8   8   8   8
#     4   9  19  37  62  90 118 152 201 262 320 371
#     4  11  23  41  65  91 120 157 202 251 306 371
#     4  10  19  34  57  81 108 147 195 242 292 351
#     4  10  20  33  50  77 114 151 186 229 282 338
#     4  10  21  37  57  82 112 148 191 234 278 338
#     4  10  22  37  55  83 118 154 193 239 289 349
#     4  11  23  40  61  86 116 149 188 236 293 352
#
# _framework density 19.848521999999999
#
# number of rings (size 3 to 8) (size 9 to 14) (size 15 to 20)
#    0.000    1.857    0.000    3.857    0.000    9.143 
#    0.000    4.286    0.000    3.000    0.000    0.000 
#    0.000    0.000    0.000    0.000    0.000    0.000 
#
# Total GULP energy -312353.556670 kJ/mol
# GULP energy per Si atom -5577.742083 kJ/mol
# Density = 1.980335 g / cm^3
# Si number density = 19.848522 Si / 1000 Ang^3
#
#
#
# Elastic Constant Matrix: (Units=GPa)
#
#
# Indices 1 2 3 4 5 6 
#
# 1 59.8346 38.3360 46.2600 0.0000 0.0000 0.0000
# 2 38.3360 104.6742 66.4863 0.0000 0.0000 0.0000
# 3 46.2600 66.4863 140.4377 0.0000 0.0000 0.0000
# 4 0.0000 0.0000 0.0000 24.4841 0.0000 0.0000
# 5 0.0000 0.0000 0.0000 0.0000 30.5919 0.0000
# 6 0.0000 0.0000 0.0000 0.0000 0.0000 24.9529
#
#
#
# Elastic Compliance Matrix: (Units=1/GPa)
#
#
# Indices 1 2 3 4 5 6 
#
# 1 0.024446 -0.005489 -0.005454 0.000000 0.000000 0.000000
# 2 -0.005489 0.014894 -0.005243 0.000000 0.000000 0.000000
# 3 -0.005454 -0.005243 0.011399 0.000000 0.000000 0.000000
# 4 0.000000 0.000000 0.000000 0.040843 0.000000 0.000000
# 5 0.000000 0.000000 0.000000 0.000000 0.032688 0.000000
# 6 0.000000 0.000000 0.000000 0.000000 0.000000 0.040076
#
#
# Mechanical properties :
#
#
# Convention : Reuss Voigt Hill
#
# Bulk Modulus (GPa) = 54.44411 67.45680 60.95046
# Shear Modulus (GPa) = 24.64988 26.26339 25.45663
#
# Velocity S-wave (km/s) = 3.52788 3.64152 3.58515
# Velocity P-wave (km/s) = 6.63958 7.19308 6.92186
#
# Compressibility (1/GPa) = 0.01836746
#
# Stress axis : x y z
#
# Youngs Moduli (GPa) = 40.90622 67.14099 87.72465
#
# Poissons Ratio (x) = 0.36854 0.47844
# Poissons Ratio (y) = 0.22453 0.45995
# Poissons Ratio (z) = 0.22310 0.35203
#
# Static dielectric constant tensor:
#      x y z
#    x 1.735390 0.000000 0.000000 
#    y 0.000000 2.110900 0.000000 
#    z 0.000000 0.000000 1.690530 
# 
# From -- ./inp_files/21032.got.cif
#   From: 2010.05.17/outbox.cif.g08.bks.cpg/sg59_11_cif.got.tgz:21032.got - 2010.06.03 14:40:33.
