data_PCOD9448606
_publ_section_title
;
Structure prediction by ZEFSAII (Michael W. Deem and Ramdas Pophale) SiO2 
 PCOD9448606
Probable space group: P M M N
;
_chemical_formula_sum "Si O2"
_cell_formula_units_Z 48
_cell_length_a 7.589145
_cell_length_b 17.541708
_cell_length_c 15.973599
_cell_angle_alpha 90.000000
_cell_angle_beta 90.000000
_cell_angle_gamma 90.000000
_cell_volume 2126.510374
_symmetry_space_group_name_H-M "P M M N"
_symmetry_group_IT_number 59
_space_group.IT_coordinate_system_code '2'
_symmetry_cell_setting 'orthorhombic'
loop_
_space_group_symop_operation_xyz
x,y,z
1/2-x,1/2-y,z
1/2+x,-y,-z
-x,1/2+y,-z
-x,-y,-z
1/2+x,1/2+y,-z
1/2-x,y,z
x,1/2-y,z
loop_
_atom_site_type_symbol
_atom_site_label
_atom_site_fract_x
_atom_site_fract_y
_atom_site_fract_z
Si Si1 0.461980 0.339988 0.042831
Si Si2 0.048527 0.388268 0.684091
Si Si3 0.036464 0.159483 0.862006
Si Si4 0.533798 0.833587 0.490699
Si Si5 0.450700 0.051705 0.371195
Si Si6 0.955783 0.337696 0.226276
O O1 0.250000 0.344740 0.044824
O O2 0.509865 0.250000 0.042181
O O3 0.527392 0.369819 0.131817
O O4 0.525744 0.370598 0.952828
O O5 0.250000 0.360195 0.691219
O O6 0.969381 0.377604 0.776260
O O7 0.971754 0.344156 0.604490
O O8 0.048530 0.476061 0.656975
O O9 0.250000 0.151171 0.864590
O O10 0.999739 0.250000 0.857369
O O11 0.750000 0.836532 0.491147
O O12 0.483277 0.750000 0.523086
O O13 0.474508 0.902403 0.549650
O O14 0.250000 0.028999 0.390208
O O15 0.451241 0.110756 0.294417
O O16 0.750000 0.336518 0.247853
O O17 0.021691 0.250000 0.226648
#
# Coordination Sequence:
#
# PCOD9448606 Si02
#       6
#     8   8   8   8   8   8
#     4   8  14  27  49  76 103 130 163 205 254 306
#     4  10  19  33  54  78 105 134 167 210 255 300
#     4   8  14  27  51  80 104 130 168 211 254 303
#     4   9  18  33  55  80 101 128 170 214 254 300
#     4  11  22  35  51  73 106 143 174 205 248 304
#     4  10  20  34  53  77 102 130 170 217 259 298
#
# _framework density 22.572191
#
# number of rings (size 3 to 8) (size 9 to 14) (size 15 to 20)
#    0.000    2.667    0.000    3.500    0.000    3.667 
#    0.000    2.500    0.000    5.000    0.000    0.000 
#    0.000    0.000    0.000    0.000    0.000    0.000 
#
# Total GULP energy -267862.850310 kJ/mol
# GULP energy per Si atom -5580.476048 kJ/mol
# Density = 2.252082 g / cm^3
# Si number density = 22.572191 Si / 1000 Ang^3
#
#
#
# Elastic Constant Matrix: (Units=GPa)
#
#
# Indices 1 2 3 4 5 6 
#
# 1 48.4950 -9.4517 5.0604 0.0000 0.0000 0.0000
# 2 -9.4517 37.5411 14.3822 0.0000 0.0000 0.0000
# 3 5.0604 14.3822 99.5153 0.0000 0.0000 0.0000
# 4 0.0000 0.0000 0.0000 -3.3783 0.0000 0.0000
# 5 0.0000 0.0000 0.0000 0.0000 -8.5653 0.0000
# 6 0.0000 0.0000 0.0000 0.0000 0.0000 -2.8650
#
#
#
# Elastic Compliance Matrix: (Units=1/GPa)
#
#
# Indices 1 2 3 4 5 6 
#
# 1 0.022068 0.006337 -0.002038 0.000000 0.000000 0.000000
# 2 0.006337 0.030018 -0.004661 0.000000 0.000000 0.000000
# 3 -0.002038 -0.004661 0.010826 0.000000 0.000000 0.000000
# 4 0.000000 0.000000 0.000000 -0.296009 0.000000 0.000000
# 5 0.000000 0.000000 0.000000 0.000000 -0.116751 0.000000
# 6 0.000000 0.000000 0.000000 0.000000 0.000000 -0.349043
#
#
# Mechanical properties :
#
#
# Convention : Reuss Voigt Hill
#
# Bulk Modulus (GPa) = 16.07990 22.83702 19.45846
# Shear Modulus (GPa) = -7.38075 8.74233 0.68079
#
# Velocity S-wave (km/s) = -1.81023 1.97014 0.54978
# Velocity P-wave (km/s) = 1.66432 3.91338 3.00704
#
# Compressibility (1/GPa) = 0.06218943
#
# Stress axis : x y z
#
# Youngs Moduli (GPa) = 45.31358 33.31290 92.37113
#
# Poissons Ratio (x) = -0.21110 0.18825
# Poissons Ratio (y) = -0.28715 0.43050
# Poissons Ratio (z) = 0.09235 0.15526
#
# Static dielectric constant tensor:
#      x y z
#    x 1.866130 0.000000 0.000000 
#    y 0.000000 1.806380 0.000000 
#    z 0.000000 0.000000 1.876410 
# 
# From -- ./inp_files/20453.got.cif
#   From: 2010.05.17/outbox.cif.g08.bks.cpg/sg59_11_cif.got.tgz:20453.got - 2010.06.03 14:40:33.
