data_PCOD9448223
_publ_section_title
;
Structure prediction by ZEFSAII (Michael W. Deem and Ramdas Pophale) SiO2 
 PCOD9448223
Probable space group: P M M N
;
_chemical_formula_sum "Si O2"
_cell_formula_units_Z 56
_cell_length_a 8.766034
_cell_length_b 19.146136
_cell_length_c 17.857883
_cell_angle_alpha 90.000000
_cell_angle_beta 90.000000
_cell_angle_gamma 90.000000
_cell_volume 2997.189921
_symmetry_space_group_name_H-M "P M M N"
_symmetry_group_IT_number 59
_space_group.IT_coordinate_system_code '2'
_symmetry_cell_setting 'orthorhombic'
loop_
_space_group_symop_operation_xyz
x,y,z
1/2-x,1/2-y,z
1/2+x,-y,-z
-x,1/2+y,-z
-x,-y,-z
1/2+x,1/2+y,-z
1/2-x,y,z
x,1/2-y,z
loop_
_atom_site_type_symbol
_atom_site_label
_atom_site_fract_x
_atom_site_fract_y
_atom_site_fract_z
Si Si1 0.432565 0.074931 0.475867
Si Si2 0.064224 0.170667 0.033424
Si Si3 0.427606 0.829603 0.221880
Si Si4 0.431413 0.382995 0.634666
Si Si5 0.067741 0.430594 0.161177
Si Si6 0.430941 0.953768 0.675714
Si Si7 0.930989 0.571475 0.102349
O O1 0.250000 0.069707 0.472496
O O2 0.470466 0.123882 0.546795
O O3 0.497301 0.088853 0.393585
O O4 0.500000 0.000000 0.500000
O O5 0.250000 0.172117 0.029901
O O6 0.010060 0.250000 0.022995
O O7 0.022170 0.137218 0.113099
O O8 0.015078 0.117473 0.968188
O O9 0.250000 0.848281 0.211552
O O10 0.450647 0.750000 0.196776
O O11 0.532335 0.881623 0.174853
O O12 0.250000 0.370216 0.643564
O O13 0.460569 0.463845 0.659002
O O14 0.526727 0.336790 0.691544
O O15 0.250000 0.432073 0.167697
O O16 0.997052 0.434669 0.243612
O O17 0.014384 0.498293 0.114323
O O18 0.250000 0.944649 0.675477
O O19 0.750000 0.559352 0.096255
#
# Coordination Sequence:
#
# PCOD9448223 Si02
#       7
#     8   8   8   8   8   8   8
#     4   9  17  29  48  75 106 138 176 220 268 317
#     4   9  20  38  58  81 108 142 184 226 274 333
#     4  11  23  35  50  76 110 147 187 230 277 329
#     4   9  18  32  50  73 104 142 181 221 266 323
#     4  11  21  34  57  84 111 142 180 231 280 322
#     4  10  19  32  51  79 110 140 178 221 270 326
#     4  11  21  36  58  81 109 144 182 225 275 334
#
# _framework density 18.684166999999999
#
# number of rings (size 3 to 8) (size 9 to 14) (size 15 to 20)
#    0.000    2.000    1.429    3.857    0.000    4.571 
#    0.000    2.143    0.000    6.000    0.000    2.000 
#    0.000    0.000    0.000    0.000    0.000    0.000 
#
# Total GULP energy -312499.522366 kJ/mol
# GULP energy per Si atom -5580.348614 kJ/mol
# Density = 1.864164 g / cm^3
# Si number density = 18.684167 Si / 1000 Ang^3
#
#
#
# Elastic Constant Matrix: (Units=GPa)
#
#
# Indices 1 2 3 4 5 6 
#
# 1 23.6548 4.7104 18.9461 0.0000 0.0000 0.0000
# 2 4.7104 29.0597 30.6290 0.0000 0.0000 0.0000
# 3 18.9461 30.6290 127.7976 0.0000 0.0000 0.0000
# 4 0.0000 0.0000 0.0000 10.9798 0.0000 0.0000
# 5 0.0000 0.0000 0.0000 0.0000 23.7551 0.0000
# 6 0.0000 0.0000 0.0000 0.0000 0.0000 11.8480
#
#
#
# Elastic Compliance Matrix: (Units=1/GPa)
#
#
# Indices 1 2 3 4 5 6 
#
# 1 0.047974 -0.000375 -0.007022 0.000000 0.000000 0.000000
# 2 -0.000375 0.046046 -0.010980 0.000000 0.000000 0.000000
# 3 -0.007022 -0.010980 0.011498 0.000000 0.000000 0.000000
# 4 0.000000 0.000000 0.000000 0.091076 0.000000 0.000000
# 5 0.000000 0.000000 0.000000 0.000000 0.042096 0.000000
# 6 0.000000 0.000000 0.000000 0.000000 0.000000 0.084402
#
#
# Mechanical properties :
#
#
# Convention : Reuss Voigt Hill
#
# Bulk Modulus (GPa) = 14.54275 32.12032 23.33153
# Shear Modulus (GPa) = 13.06278 17.73170 15.39724
#
# Velocity S-wave (km/s) = 2.64699 3.08396 2.87379
# Velocity P-wave (km/s) = 4.14034 5.46897 4.85036
#
# Compressibility (1/GPa) = 0.06876280
#
# Stress axis : x y z
#
# Youngs Moduli (GPa) = 20.84473 21.71752 86.97518
#
# Poissons Ratio (x) = 0.00814 0.61077
# Poissons Ratio (y) = 0.00781 0.95500
# Poissons Ratio (z) = 0.14638 0.23846
#
# Static dielectric constant tensor:
#      x y z
#    x 1.624560 0.000000 0.000000 
#    y 0.000000 1.642640 0.000000 
#    z 0.000000 0.000000 1.680000 
# 
# From -- ./inp_files/26066.got.cif
#   From: 2010.05.17/outbox.cif.g08.bks.cpg/sg59_14_cif.got.tgz:26066.got - 2010.06.03 14:40:33.
