data_PCOD9448621
_publ_section_title
;
Structure prediction by ZEFSAII (Michael W. Deem and Ramdas Pophale) SiO2 
 PCOD9448621
Probable space group: P M M N
;
_chemical_formula_sum "Si O2"
_cell_formula_units_Z 56
_cell_length_a 8.943337
_cell_length_b 20.057680
_cell_length_c 17.745569
_cell_angle_alpha 90.000000
_cell_angle_beta 90.000000
_cell_angle_gamma 90.000000
_cell_volume 3183.246158
_symmetry_space_group_name_H-M "P M M N"
_symmetry_group_IT_number 59
_space_group.IT_coordinate_system_code '2'
_symmetry_cell_setting 'orthorhombic'
loop_
_space_group_symop_operation_xyz
x,y,z
1/2-x,1/2-y,z
1/2+x,-y,-z
-x,1/2+y,-z
-x,-y,-z
1/2+x,1/2+y,-z
1/2-x,y,z
x,1/2-y,z
loop_
_atom_site_type_symbol
_atom_site_label
_atom_site_fract_x
_atom_site_fract_y
_atom_site_fract_z
Si Si1 0.929772 0.174288 0.676919
Si Si2 0.571597 0.672254 0.882264
Si Si3 0.429556 0.561264 0.777348
Si Si4 0.071949 0.098007 0.544232
Si Si5 0.070902 0.550527 0.603086
Si Si6 0.569300 0.079445 0.815112
Si Si7 0.570764 0.172837 0.955320
O O1 0.750000 0.170635 0.670872
O O2 0.969653 0.250000 0.697386
O O3 0.975922 0.122958 0.742198
O O4 0.001126 0.153065 0.598076
O O5 0.750000 0.663682 0.880181
O O6 0.537047 0.750000 0.866080
O O7 0.494279 0.622937 0.823761
O O8 0.511343 0.658394 0.966398
O O9 0.250000 0.560351 0.781502
O O10 0.472808 0.564687 0.688964
O O11 0.494136 0.492441 0.810487
O O12 0.250000 0.104130 0.542419
O O13 0.007202 0.095455 0.460074
O O14 0.033514 0.026166 0.582016
O O15 0.250000 0.557595 0.596397
O O16 0.750000 0.072259 0.813869
O O17 0.529545 0.121852 0.889278
O O18 0.750000 0.168236 0.966808
O O19 0.538608 0.250000 0.933654
#
# Coordination Sequence:
#
# PCOD9448621 Si02
#       7
#     8   8   8   8   8   8   8
#     4  10  20  34  53  79 114 153 188 225 273 327
#     4  10  22  40  60  82 108 140 181 228 280 335
#     4  11  22  37  58  84 113 143 181 228 277 330
#     4  10  19  33  54  79 106 140 183 226 269 319
#     4   9  19  35  54  78 107 139 179 223 270 324
#     4  10  20  34  55  83 114 147 186 228 272 322
#     4   9  18  35  58  82 110 147 189 228 270 324
#
# _framework density 17.592105
#
# number of rings (size 3 to 8) (size 9 to 14) (size 15 to 20)
#    0.000    2.143    1.429    1.714    0.000    5.714 
#    0.000    0.714    0.000    3.429    0.000    0.000 
#    0.000    0.000    0.000    0.000    0.000    0.000 
#
# Total GULP energy -312598.101041 kJ/mol
# GULP energy per Si atom -5582.108947 kJ/mol
# Density = 1.755206 g / cm^3
# Si number density = 17.592105 Si / 1000 Ang^3
#
#
#
# Elastic Constant Matrix: (Units=GPa)
#
#
# Indices 1 2 3 4 5 6 
#
# 1 30.4992 44.2094 50.5969 0.0000 0.0000 0.0000
# 2 44.2094 98.4275 83.8314 0.0000 0.0000 0.0000
# 3 50.5969 83.8314 145.7456 0.0000 0.0000 0.0000
# 4 0.0000 0.0000 0.0000 30.5416 0.0000 0.0000
# 5 0.0000 0.0000 0.0000 0.0000 24.7430 0.0000
# 6 0.0000 0.0000 0.0000 0.0000 0.0000 24.2316
#
#
#
# Elastic Compliance Matrix: (Units=1/GPa)
#
#
# Indices 1 2 3 4 5 6 
#
# 1 0.119206 -0.035866 -0.020754 0.000000 0.000000 0.000000
# 2 -0.035866 0.030708 -0.005212 0.000000 0.000000 0.000000
# 3 -0.020754 -0.005212 0.017064 0.000000 0.000000 0.000000
# 4 0.000000 0.000000 0.000000 0.032742 0.000000 0.000000
# 5 0.000000 0.000000 0.000000 0.000000 0.040415 0.000000
# 6 0.000000 0.000000 0.000000 0.000000 0.000000 0.041268
#
#
# Mechanical properties :
#
#
# Convention : Reuss Voigt Hill
#
# Bulk Modulus (GPa) = 23.08670 70.21641 46.65155
# Shear Modulus (GPa) = 11.91877 22.30555 17.11216
#
# Velocity S-wave (km/s) = 2.60572 3.56466 3.12223
# Velocity P-wave (km/s) = 4.71220 7.54604 6.29077
#
# Compressibility (1/GPa) = 0.04331498
#
# Stress axis : x y z
#
# Youngs Moduli (GPa) = 8.38881 32.56444 58.60355
#
# Poissons Ratio (x) = 1.16797 1.21623
# Poissons Ratio (y) = 0.30088 0.30543
# Poissons Ratio (z) = 0.17410 0.16972
#
# Static dielectric constant tensor:
#      x y z
#    x 1.582970 0.000000 0.000000 
#    y 0.000000 1.583130 0.000000 
#    z 0.000000 0.000000 1.581350 
# 
# From -- ./inp_files/21008.got.cif
#   From: 2010.05.17/outbox.cif.g08.bks.cpg/sg59_11_cif.got.tgz:21008.got - 2010.06.03 14:40:33.
