data_PCOD9448200
_publ_section_title
;
Structure prediction by ZEFSAII (Michael W. Deem and Ramdas Pophale) SiO2 
 PCOD9448200
Probable space group: P M M N
;
_chemical_formula_sum "Si O2"
_cell_formula_units_Z 56
_cell_length_a 8.078291
_cell_length_b 22.125984
_cell_length_c 17.225949
_cell_angle_alpha 90.000000
_cell_angle_beta 90.000000
_cell_angle_gamma 90.000000
_cell_volume 3078.968491
_symmetry_space_group_name_H-M "P M M N"
_symmetry_group_IT_number 59
_space_group.IT_coordinate_system_code '2'
_symmetry_cell_setting 'orthorhombic'
loop_
_space_group_symop_operation_xyz
x,y,z
1/2-x,1/2-y,z
1/2+x,-y,-z
-x,1/2+y,-z
-x,-y,-z
1/2+x,1/2+y,-z
1/2-x,y,z
x,1/2-y,z
loop_
_atom_site_type_symbol
_atom_site_label
_atom_site_fract_x
_atom_site_fract_y
_atom_site_fract_z
Si Si1 0.047731 0.015330 0.794460
Si Si2 0.052892 0.592681 0.529466
Si Si3 0.943200 0.122045 0.193410
Si Si4 0.449799 0.028772 0.619249
Si Si5 0.950130 0.937858 0.043118
Si Si6 0.555293 0.818895 0.652121
Si Si7 0.445824 0.317312 0.042979
O O1 0.250000 0.014328 0.792686
O O2 0.992620 0.033461 0.708066
O O3 0.997005 0.056172 0.867037
O O4 0.993272 0.946586 0.811885
O O5 0.250000 0.596099 0.536701
O O6 0.994292 0.534574 0.580275
O O7 0.007103 0.579779 0.440666
O O8 0.975149 0.650805 0.569205
O O9 0.750000 0.121896 0.172666
O O10 0.963636 0.143584 0.281393
O O11 0.031538 0.166413 0.133506
O O12 0.250000 0.028097 0.619573
O O13 0.750000 0.936194 0.040924
O O14 0.013020 0.876261 0.002758
O O15 0.000000 0.000000 0.000000
O O16 0.750000 0.820775 0.669951
O O17 0.498145 0.750000 0.653584
O O18 0.250000 0.314821 0.026318
O O19 0.514700 0.250000 0.026656
#
# Coordination Sequence:
#
# PCOD9448200 Si02
#       7
#     8   8   8   8   8   8   8
#     4   9  17  31  51  75 103 132 168 214 261 305
#     4  10  19  32  51  76 101 131 170 207 249 301
#     4  11  20  33  52  76 104 137 176 213 256 311
#     4   9  17  32  51  72 100 132 162 206 259 304
#     4  10  19  33  53  75 101 136 176 221 265 309
#     4  11  23  36  50  72 105 142 175 208 251 307
#     4  10  21  35  50  73 106 141 175 213 263 321
#
# _framework density 18.187909000000001
#
# number of rings (size 3 to 8) (size 9 to 14) (size 15 to 20)
#    0.000    2.000    2.857    1.714    0.000    3.714 
#    0.000    0.714    0.000    0.857    0.000    4.000 
#    0.000    0.000    0.000    0.000    0.000    0.000 
#
# Total GULP energy -312430.477611 kJ/mol
# GULP energy per Si atom -5579.115672 kJ/mol
# Density = 1.814651 g / cm^3
# Si number density = 18.187909 Si / 1000 Ang^3
#
#
#
# Elastic Constant Matrix: (Units=GPa)
#
#
# Indices 1 2 3 4 5 6 
#
# 1 13.6172 5.2002 2.6347 0.0000 0.0000 0.0000
# 2 5.2002 102.0535 46.6695 0.0000 0.0000 0.0000
# 3 2.6347 46.6695 111.2552 0.0000 0.0000 0.0000
# 4 0.0000 0.0000 0.0000 17.0251 0.0000 0.0000
# 5 0.0000 0.0000 0.0000 0.0000 18.0842 0.0000
# 6 0.0000 0.0000 0.0000 0.0000 0.0000 15.2807
#
#
#
# Elastic Compliance Matrix: (Units=1/GPa)
#
#
# Indices 1 2 3 4 5 6 
#
# 1 0.074898 -0.003719 -0.000214 0.000000 0.000000 0.000000
# 2 -0.003719 0.012309 -0.005075 0.000000 0.000000 0.000000
# 3 -0.000214 -0.005075 0.011122 0.000000 0.000000 0.000000
# 4 0.000000 0.000000 0.000000 0.058737 0.000000 0.000000
# 5 0.000000 0.000000 0.000000 0.000000 0.055297 0.000000
# 6 0.000000 0.000000 0.000000 0.000000 0.000000 0.065442
#
#
# Mechanical properties :
#
#
# Convention : Reuss Voigt Hill
#
# Bulk Modulus (GPa) = 12.45110 37.32606 24.88858
# Shear Modulus (GPa) = 15.49940 21.57276 18.53608
#
# Velocity S-wave (km/s) = 2.92238 3.44772 3.19587
# Velocity P-wave (km/s) = 4.27174 6.03457 5.22799
#
# Compressibility (1/GPa) = 0.08031418
#
# Stress axis : x y z
#
# Youngs Moduli (GPa) = 13.35144 81.23944 89.90815
#
# Poissons Ratio (x) = 0.30211 0.01922
# Poissons Ratio (y) = 0.04965 0.45632
# Poissons Ratio (z) = 0.00285 0.41233
#
# Static dielectric constant tensor:
#      x y z
#    x 1.648020 0.000000 0.000000 
#    y 0.000000 1.626660 0.000000 
#    z 0.000000 0.000000 1.621070 
# 
# From -- ./inp_files/26118.got.cif
#   From: 2010.05.17/outbox.cif.g08.bks.cpg/sg59_14_cif.got.tgz:26118.got - 2010.06.03 14:40:33.
