data_PCOD9448287
_publ_section_title
;
Structure prediction by ZEFSAII (Michael W. Deem and Ramdas Pophale) SiO2 
 PCOD9448287
Probable space group: P M M N
;
_chemical_formula_sum "Si O2"
_cell_formula_units_Z 64
_cell_length_a 8.943601
_cell_length_b 19.129526
_cell_length_c 21.842640
_cell_angle_alpha 90.000000
_cell_angle_beta 90.000000
_cell_angle_gamma 90.000000
_cell_volume 3736.988427
_symmetry_space_group_name_H-M "P M M N"
_symmetry_group_IT_number 59
_space_group.IT_coordinate_system_code '2'
_symmetry_cell_setting 'orthorhombic'
loop_
_space_group_symop_operation_xyz
x,y,z
1/2-x,1/2-y,z
1/2+x,-y,-z
-x,1/2+y,-z
-x,-y,-z
1/2+x,1/2+y,-z
1/2-x,y,z
x,1/2-y,z
loop_
_atom_site_type_symbol
_atom_site_label
_atom_site_fract_x
_atom_site_fract_y
_atom_site_fract_z
Si Si1 0.428579 0.424620 0.484871
Si Si2 0.927664 0.332940 0.590928
Si Si3 0.579380 0.869980 0.763498
Si Si4 0.070172 0.975911 0.936440
Si Si5 0.426831 0.076363 0.695387
Si Si6 0.421529 0.971217 0.184595
Si Si7 0.073786 0.582231 0.644834
Si Si8 0.929239 0.325454 0.114124
O O1 0.500000 0.500000 0.500000
O O2 0.250000 0.429447 0.488144
O O3 0.489564 0.369983 0.534449
O O4 0.483059 0.405112 0.416997
O O5 0.750000 0.345889 0.586037
O O6 0.953276 0.250000 0.591072
O O7 0.989866 0.368703 0.652372
O O8 0.750000 0.847303 0.753983
O O9 0.487559 0.871530 0.700760
O O10 0.501277 0.829847 0.818787
O O11 0.581905 0.950326 0.787340
O O12 0.250000 0.980436 0.937976
O O13 0.006922 0.021064 0.879624
O O14 0.026550 0.894961 0.922673
O O15 0.000000 0.000000 0.000000
O O16 0.250000 0.090114 0.697383
O O17 0.494583 0.073185 0.763536
O O18 0.446412 0.999185 0.664902
O O19 0.250000 0.948539 0.175869
O O20 0.250000 0.593521 0.635193
O O21 0.750000 0.328857 0.120859
O O22 0.968206 0.250000 0.086060
#
# Coordination Sequence:
#
# PCOD9448287 Si02
#       8
#     8   8   8   8   8   8   8   8
#     4  12  23  36  56  80 107 140 182 231 277 331
#     4  11  24  40  57  78 107 142 180 226 282 339
#     4   9  17  29  47  74 104 133 166 210 259 308
#     4  10  19  32  52  79 111 144 181 223 268 318
#     4  10  19  32  54  80 105 135 172 218 267 318
#     4   9  17  30  50  76 106 135 168 212 259 308
#     4  10  19  32  52  78 105 135 173 219 266 316
#     4   9  18  33  52  74 103 141 181 219 262 317
#
# _framework density 17.126090999999999
#
# number of rings (size 3 to 8) (size 9 to 14) (size 15 to 20)
#    0.000    2.000    1.250    3.375    0.000    5.750 
#    0.000    0.625    0.000    4.500    0.000    1.750 
#    0.000    0.000    0.000    0.000    0.000    0.000 
#
# Total GULP energy -357147.667465 kJ/mol
# GULP energy per Si atom -5580.432304 kJ/mol
# Density = 1.708711 g / cm^3
# Si number density = 17.126091 Si / 1000 Ang^3
#
#
#
# Elastic Constant Matrix: (Units=GPa)
#
#
# Indices 1 2 3 4 5 6 
#
# 1 114.5259 55.8122 79.5214 0.0000 0.0000 0.0000
# 2 55.8122 72.7906 56.7183 0.0000 0.0000 0.0000
# 3 79.5214 56.7183 153.7669 0.0000 0.0000 0.0000
# 4 0.0000 0.0000 0.0000 14.0598 0.0000 0.0000
# 5 0.0000 0.0000 0.0000 0.0000 35.7474 0.0000
# 6 0.0000 0.0000 0.0000 0.0000 0.0000 18.3201
#
#
#
# Elastic Compliance Matrix: (Units=1/GPa)
#
#
# Indices 1 2 3 4 5 6 
#
# 1 0.016699 -0.008525 -0.005492 0.000000 0.000000 0.000000
# 2 -0.008525 0.023631 -0.004308 0.000000 0.000000 0.000000
# 3 -0.005492 -0.004308 0.010932 0.000000 0.000000 0.000000
# 4 0.000000 0.000000 0.000000 0.071125 0.000000 0.000000
# 5 0.000000 0.000000 0.000000 0.000000 0.027974 0.000000
# 6 0.000000 0.000000 0.000000 0.000000 0.000000 0.054585
#
#
# Mechanical properties :
#
#
# Convention : Reuss Voigt Hill
#
# Bulk Modulus (GPa) = 68.42797 80.57636 74.50216
# Shear Modulus (GPa) = 20.28667 23.56089 21.92378
#
# Velocity S-wave (km/s) = 3.44546 3.71311 3.58178
# Velocity P-wave (km/s) = 7.47465 8.09530 7.79116
#
# Compressibility (1/GPa) = 0.01461391
#
# Stress axis : x y z
#
# Youngs Moduli (GPa) = 59.88271 42.31667 91.47202
#
# Poissons Ratio (x) = 0.36076 0.50232
# Poissons Ratio (y) = 0.51051 0.39404
# Poissons Ratio (z) = 0.32885 0.18229
#
# Static dielectric constant tensor:
#      x y z
#    x 1.573230 0.000000 0.000000 
#    y 0.000000 1.583520 0.000000 
#    z 0.000000 0.000000 1.556280 
# 
# From -- ./inp_files/29509.got.cif
#   From: 2010.05.17/outbox.cif.g08.bks.cpg/sg59_15_cif.got.tgz:29509.got - 2010.06.03 14:40:33.
