data_PCOD9448288
_publ_section_title
;
Structure prediction by ZEFSAII (Michael W. Deem and Ramdas Pophale) SiO2 
 PCOD9448288
Probable space group: P M M N
;
_chemical_formula_sum "Si O2"
_cell_formula_units_Z 48
_cell_length_a 8.428740
_cell_length_b 26.965666
_cell_length_c 12.131608
_cell_angle_alpha 90.000000
_cell_angle_beta 90.000000
_cell_angle_gamma 90.000000
_cell_volume 2757.351785
_symmetry_space_group_name_H-M "P M M N"
_symmetry_group_IT_number 59
_space_group.IT_coordinate_system_code '2'
_symmetry_cell_setting 'orthorhombic'
loop_
_space_group_symop_operation_xyz
x,y,z
1/2-x,1/2-y,z
1/2+x,-y,-z
-x,1/2+y,-z
-x,-y,-z
1/2+x,1/2+y,-z
1/2-x,y,z
x,1/2-y,z
loop_
_atom_site_type_symbol
_atom_site_label
_atom_site_fract_x
_atom_site_fract_y
_atom_site_fract_z
Si Si1 0.943168 0.693723 0.323017
Si Si2 0.940035 0.605024 0.164579
Si Si3 0.559283 0.053786 0.042048
Si Si4 0.938093 0.436434 0.296208
Si Si5 0.065521 0.959110 0.357237
Si Si6 0.563782 0.876909 0.515824
O O1 0.750000 0.694326 0.326141
O O2 0.999044 0.750000 0.311278
O O3 0.985132 0.657102 0.222070
O O4 0.995439 0.667764 0.437437
O O5 0.750000 0.598772 0.175654
O O6 0.026799 0.563124 0.237034
O O7 0.990466 0.595252 0.039966
O O8 0.750000 0.053901 0.036712
O O9 0.511302 0.063889 0.168514
O O10 0.500000 0.000000 0.000000
O O11 0.750000 0.444386 0.298852
O O12 0.019000 0.483800 0.353361
O O13 0.980538 0.388522 0.368779
O O14 0.250000 0.953001 0.384726
O O15 0.964137 0.925278 0.439329
O O16 0.750000 0.870185 0.535140
#
# Coordination Sequence:
#
# PCOD9448288 Si02
#       6
#     8   8   8   8   8   8
#     4   8  16  33  57  81 102 127 163 214 269 313
#     4  10  19  32  52  78 106 134 172 217 259 305
#     4  11  22  34  51  72 103 143 180 215 251 303
#     4  11  22  34  48  69 102 140 176 209 249 303
#     4  11  20  31  49  71 102 139 173 209 249 301
#     4  10  20  33  51  75 102 131 168 213 259 308
#
# _framework density 17.408007000000001
#
# number of rings (size 3 to 8) (size 9 to 14) (size 15 to 20)
#    0.000    1.833    1.667    5.000    0.000    2.000 
#    0.000    0.000    0.000   19.000    0.000    7.000 
#    0.000    0.000    0.000    0.000    0.000    0.000 
#
# Total GULP energy -267848.403406 kJ/mol
# GULP energy per Si atom -5580.175071 kJ/mol
# Density = 1.736839 g / cm^3
# Si number density = 17.408007 Si / 1000 Ang^3
#
#
#
# Elastic Constant Matrix: (Units=GPa)
#
#
# Indices 1 2 3 4 5 6 
#
# 1 23.5892 7.0692 -4.3226 0.0000 0.0000 0.0000
# 2 7.0692 100.5564 38.7172 0.0000 0.0000 0.0000
# 3 -4.3226 38.7172 87.3822 0.0000 0.0000 0.0000
# 4 0.0000 0.0000 0.0000 14.0197 0.0000 0.0000
# 5 0.0000 0.0000 0.0000 0.0000 28.6151 0.0000
# 6 0.0000 0.0000 0.0000 0.0000 0.0000 14.1539
#
#
#
# Elastic Compliance Matrix: (Units=1/GPa)
#
#
# Indices 1 2 3 4 5 6 
#
# 1 0.044628 -0.004808 0.004338 0.000000 0.000000 0.000000
# 2 -0.004808 0.012508 -0.005780 0.000000 0.000000 0.000000
# 3 0.004338 -0.005780 0.014220 0.000000 0.000000 0.000000
# 4 0.000000 0.000000 0.000000 0.071328 0.000000 0.000000
# 5 0.000000 0.000000 0.000000 0.000000 0.034947 0.000000
# 6 0.000000 0.000000 0.000000 0.000000 0.000000 0.070652
#
#
# Mechanical properties :
#
#
# Convention : Reuss Voigt Hill
#
# Bulk Modulus (GPa) = 16.99061 32.71725 24.85393
# Shear Modulus (GPa) = 17.83165 22.69534 20.26349
#
# Velocity S-wave (km/s) = 3.20400 3.61464 3.41549
# Velocity P-wave (km/s) = 4.84447 6.02129 5.46465
#
# Compressibility (1/GPa) = 0.05885604
#
# Stress axis : x y z
#
# Youngs Moduli (GPa) = 22.40756 79.94838 70.32594
#
# Poissons Ratio (x) = 0.38435 -0.30506
# Poissons Ratio (y) = 0.10773 0.40648
# Poissons Ratio (z) = -0.09720 0.46209
#
# Static dielectric constant tensor:
#      x y z
#    x 1.594000 0.000000 0.000000 
#    y 0.000000 1.581550 0.000000 
#    z 0.000000 0.000000 1.625520 
# 
# From -- ./inp_files/14472.got.cif
#   From: 2010.05.17/outbox.cif.g08.bks.cpg/sg59_8_cif.got.tgz:14472.got - 2010.06.03 14:40:33.
