data_PCOD9448572
_publ_section_title
;
Structure prediction by ZEFSAII (Michael W. Deem and Ramdas Pophale) SiO2 
 PCOD9448572
Probable space group: P M M N
;
_chemical_formula_sum "Si O2"
_cell_formula_units_Z 56
_cell_length_a 14.534882
_cell_length_b 23.472410
_cell_length_c 8.202354
_cell_angle_alpha 90.000000
_cell_angle_beta 90.000000
_cell_angle_gamma 90.000000
_cell_volume 2798.386530
_symmetry_space_group_name_H-M "P M M N"
_symmetry_group_IT_number 59
_space_group.IT_coordinate_system_code '2'
_symmetry_cell_setting 'orthorhombic'
loop_
_space_group_symop_operation_xyz
x,y,z
1/2-x,1/2-y,z
1/2+x,-y,-z
-x,1/2+y,-z
-x,-y,-z
1/2+x,1/2+y,-z
1/2-x,y,z
x,1/2-y,z
loop_
_atom_site_type_symbol
_atom_site_label
_atom_site_fract_x
_atom_site_fract_y
_atom_site_fract_z
Si Si1 0.147887 0.578995 0.153974
Si Si2 0.359880 0.812799 0.971257
Si Si3 0.471682 0.814021 0.635061
Si Si4 0.403170 0.031600 0.005800
Si Si5 0.861338 0.080501 0.488137
Si Si6 0.360521 0.464473 0.651079
Si Si7 0.139145 0.393297 0.324928
O O1 0.250000 0.600665 0.192376
O O2 0.156305 0.525141 0.037429
O O3 0.113130 0.559544 0.329662
O O4 0.102440 0.633854 0.073865
O O5 0.250000 0.820906 0.935373
O O6 0.368745 0.750000 0.049460
O O7 0.416912 0.812338 0.805586
O O8 0.472520 0.750000 0.566722
O O9 0.413364 0.860442 0.535185
O O10 0.574210 0.838082 0.663480
O O11 0.386497 0.072970 0.158474
O O12 0.388415 0.058582 0.828121
O O13 0.500000 0.000000 0.000000
O O14 0.750000 0.086527 0.468554
O O15 0.892577 0.030146 0.367569
O O16 0.250000 0.466264 0.649516
O O17 0.385039 0.429667 0.488269
O O18 0.250000 0.383873 0.324687
#
# Coordination Sequence:
#
# PCOD9448572 Si02
#       7
#     8   8   8   8   8   8   8
#     4  10  19  33  53  83 124 160 192 236 298 371
#     4   9  18  34  55  80 115 158 202 248 303 373
#     4  11  24  40  59  84 115 157 211 262 307 359
#     4  12  23  34  61  94 124 160 195 250 312 370
#     4  10  20  35  59  90 127 160 191 242 308 381
#     4  10  21  38  61  91 126 162 198 243 304 374
#     4  11  24  43  64  88 123 164 211 260 305 362
#
# _framework density 20.011531999999999
#
# number of rings (size 3 to 8) (size 9 to 14) (size 15 to 20)
#    0.000    1.571    1.429    4.286    2.000    5.143 
#    0.000    1.429    0.000    0.000    0.000    2.000 
#    0.000    0.000    0.000    0.000    0.000    0.000 
#
# Total GULP energy -312179.635375 kJ/mol
# GULP energy per Si atom -5574.636346 kJ/mol
# Density = 1.996599 g / cm^3
# Si number density = 20.011532 Si / 1000 Ang^3
#
#
#
# Elastic Constant Matrix: (Units=GPa)
#
#
# Indices 1 2 3 4 5 6 
#
# 1 84.5261 22.9253 14.6632 0.0000 0.0000 0.0000
# 2 22.9253 71.4231 20.7036 0.0000 0.0000 0.0000
# 3 14.6632 20.7036 108.3863 0.0000 0.0000 0.0000
# 4 0.0000 0.0000 0.0000 22.0767 0.0000 0.0000
# 5 0.0000 0.0000 0.0000 0.0000 15.6582 0.0000
# 6 0.0000 0.0000 0.0000 0.0000 0.0000 -451.7149
#
#
#
# Elastic Compliance Matrix: (Units=1/GPa)
#
#
# Indices 1 2 3 4 5 6 
#
# 1 0.013065 -0.003897 -0.001023 0.000000 0.000000 0.000000
# 2 -0.003897 0.015984 -0.002526 0.000000 0.000000 0.000000
# 3 -0.001023 -0.002526 0.009847 0.000000 0.000000 0.000000
# 4 0.000000 0.000000 0.000000 0.045297 0.000000 0.000000
# 5 0.000000 0.000000 0.000000 0.000000 0.063864 0.000000
# 6 0.000000 0.000000 0.000000 0.000000 0.000000 -0.002214
#
#
# Mechanical properties :
#
#
# Convention : Reuss Voigt Hill
#
# Bulk Modulus (GPa) = 41.65961 42.32440 41.99200
# Shear Modulus (GPa) = 29.63185 -69.05977 -19.71396
#
# Velocity S-wave (km/s) = 3.85221 -5.88089 -3.14208
# Velocity P-wave (km/s) = 6.37566 4.99172 2.80462
#
# Compressibility (1/GPa) = 0.02400407
#
# Stress axis : x y z
#
# Youngs Moduli (GPa) = 76.53971 62.56185 101.55184
#
# Poissons Ratio (x) = 0.24381 0.10390
# Poissons Ratio (y) = 0.29828 0.25652
# Poissons Ratio (z) = 0.07831 0.15803
#
# Static dielectric constant tensor:
#      x y z
#    x 1.745100 0.000000 0.000000 
#    y 0.000000 1.725620 0.000000 
#    z 0.000000 0.000000 1.779550 
# 
# From -- ./inp_files/9344.got.cif
#   From: 2010.05.17/outbox.cif.g08.bks.cpg/sg59_5_cif.got.tgz:9344.got - 2010.06.03 14:40:33.
