data_PCOD9448406
_publ_section_title
;
Structure prediction by ZEFSAII (Michael W. Deem and Ramdas Pophale) SiO2 
 PCOD9448406
Probable space group: P M M N
;
_chemical_formula_sum "Si O2"
_cell_formula_units_Z 56
_cell_length_a 9.289552
_cell_length_b 14.917689
_cell_length_c 21.959233
_cell_angle_alpha 90.000000
_cell_angle_beta 90.000000
_cell_angle_gamma 90.000000
_cell_volume 3043.080813
_symmetry_space_group_name_H-M "P M M N"
_symmetry_group_IT_number 59
_space_group.IT_coordinate_system_code '2'
_symmetry_cell_setting 'orthorhombic'
loop_
_space_group_symop_operation_xyz
x,y,z
1/2-x,1/2-y,z
1/2+x,-y,-z
-x,1/2+y,-z
-x,-y,-z
1/2+x,1/2+y,-z
1/2-x,y,z
x,1/2-y,z
loop_
_atom_site_type_symbol
_atom_site_label
_atom_site_fract_x
_atom_site_fract_y
_atom_site_fract_z
Si Si1 0.417371 0.854362 0.198967
Si Si2 0.577341 0.997548 0.277257
Si Si3 0.078479 0.143953 0.510011
Si Si4 0.421441 0.998452 0.405759
Si Si5 0.914557 0.889635 0.942462
Si Si6 0.915325 0.393483 0.938502
Si Si7 0.918645 0.350313 0.180502
O O1 0.250000 0.886239 0.201883
O O2 0.419141 0.750000 0.214156
O O3 0.465525 0.865986 0.128709
O O4 0.516514 0.909570 0.244187
O O5 0.750000 0.994734 0.284199
O O6 0.538585 0.077722 0.230861
O O7 0.500611 0.009339 0.341719
O O8 0.250000 0.138240 0.523851
O O9 0.041753 0.250000 0.505750
O O10 0.988685 0.088082 0.559928
O O11 0.055287 0.086503 0.448116
O O12 0.250000 0.986871 0.398144
O O13 0.750000 0.860355 0.941959
O O14 0.995047 0.859048 0.881944
O O15 0.916977 0.998294 0.940669
O O16 0.992078 0.860952 0.004613
O O17 0.750000 0.363344 0.945215
O O18 0.750000 0.365141 0.166373
O O19 0.935575 0.250000 0.204921
#
# Coordination Sequence:
#
# PCOD9448406 Si02
#       7
#     8   8   8   8   8   8   8
#     4  10  21  38  59  81 107 144 189 235 285 340
#     4  11  23  39  59  82 114 152 190 233 279 328
#     4   9  19  38  63  91 122 153 188 230 272 317
#     4  10  21  37  60  89 120 154 190 227 274 326
#     4  10  19  32  54  81 108 139 181 232 286 342
#     4   9  18  33  53  78 109 142 179 226 285 347
#     4  10  22  39  57  78 107 146 190 234 285 342
#
# _framework density 18.402404000000001
#
# number of rings (size 3 to 8) (size 9 to 14) (size 15 to 20)
#    0.000    2.143    1.429    1.286    0.000    4.857 
#    0.000    1.429    0.000    0.000    0.000    0.000 
#    0.000    0.000    0.000    0.000    0.000    0.000 
#
# Total GULP energy -312622.789547 kJ/mol
# GULP energy per Si atom -5582.549813 kJ/mol
# Density = 1.836052 g / cm^3
# Si number density = 18.402404 Si / 1000 Ang^3
#
#
#
# Elastic Constant Matrix: (Units=GPa)
#
#
# Indices 1 2 3 4 5 6 
#
# 1 62.9110 37.0949 58.9646 0.0000 0.0000 0.0000
# 2 37.0949 90.1607 29.9764 0.0000 0.0000 0.0000
# 3 58.9646 29.9764 110.7173 0.0000 0.0000 0.0000
# 4 0.0000 0.0000 0.0000 -113.6874 0.0000 0.0000
# 5 0.0000 0.0000 0.0000 0.0000 17.4230 0.0000
# 6 0.0000 0.0000 0.0000 0.0000 0.0000 19.8232
#
#
#
# Elastic Compliance Matrix: (Units=1/GPa)
#
#
# Indices 1 2 3 4 5 6 
#
# 1 0.038364 -0.009881 -0.017756 0.000000 0.000000 0.000000
# 2 -0.009881 0.014733 0.001273 0.000000 0.000000 0.000000
# 3 -0.017756 0.001273 0.018144 0.000000 0.000000 0.000000
# 4 0.000000 0.000000 0.000000 -0.008796 0.000000 0.000000
# 5 0.000000 0.000000 0.000000 0.000000 0.057395 0.000000
# 6 0.000000 0.000000 0.000000 0.000000 0.000000 0.050446
#
#
# Mechanical properties :
#
#
# Convention : Reuss Voigt Hill
#
# Bulk Modulus (GPa) = 54.01495 57.31789 55.66642
# Shear Modulus (GPa) = 21.81646 -6.10471 7.85588
#
# Velocity S-wave (km/s) = 3.44688 -1.82333 2.06838
# Velocity P-wave (km/s) = 6.72734 5.17512 6.00162
#
# Compressibility (1/GPa) = 0.01851339
#
# Stress axis : x y z
#
# Youngs Moduli (GPa) = 26.06619 67.87397 55.11534
#
# Poissons Ratio (x) = 0.67063 0.97864
# Poissons Ratio (y) = 0.25755 -0.07017
# Poissons Ratio (z) = 0.46284 -0.08641
#
# Static dielectric constant tensor:
#      x y z
#    x 1.621350 0.000000 0.000000 
#    y 0.000000 1.649300 0.000000 
#    z 0.000000 0.000000 1.600910 
# 
# From -- ./inp_files/29058.got.cif
#   From: 2010.05.17/outbox.cif.g08.bks.cpg/sg59_15_cif.got.tgz:29058.got - 2010.06.03 14:40:33.
