data_PCOD9448027
_publ_section_title
;
Structure prediction by ZEFSAII (Michael W. Deem and Ramdas Pophale) SiO2 
 PCOD9448027
Probable space group: P M M N
;
_chemical_formula_sum "Si O2"
_cell_formula_units_Z 64
_cell_length_a 21.804881
_cell_length_b 11.221329
_cell_length_c 13.174636
_cell_angle_alpha 90.000000
_cell_angle_beta 90.000000
_cell_angle_gamma 90.000000
_cell_volume 3223.566557
_symmetry_space_group_name_H-M "P M M N"
_symmetry_group_IT_number 59
_space_group.IT_coordinate_system_code '2'
_symmetry_cell_setting 'orthorhombic'
loop_
_space_group_symop_operation_xyz
x,y,z
1/2-x,1/2-y,z
1/2+x,-y,-z
-x,1/2+y,-z
-x,-y,-z
1/2+x,1/2+y,-z
1/2-x,y,z
x,1/2-y,z
loop_
_atom_site_type_symbol
_atom_site_label
_atom_site_fract_x
_atom_site_fract_y
_atom_site_fract_z
Si Si1 0.451601 0.879170 0.214521
Si Si2 0.322480 0.383383 0.352407
Si Si3 0.894694 0.982688 0.036027
Si Si4 0.321105 0.546180 0.155773
Si Si5 0.181650 0.106846 0.780501
Si Si6 0.994114 0.880747 0.898714
Si Si7 0.502427 0.619013 0.434188
Si Si8 0.356098 0.386106 0.567783
O O1 0.479647 0.750000 0.184622
O O2 0.380160 0.874994 0.184003
O O3 0.460408 0.889169 0.335184
O O4 0.480017 0.000783 0.168213
O O5 0.250000 0.377813 0.373333
O O6 0.348495 0.250000 0.341491
O O7 0.327588 0.447467 0.244673
O O8 0.350389 0.440260 0.455051
O O9 0.939125 0.096677 0.052198
O O10 0.867908 0.944758 0.143301
O O11 0.839571 0.000905 0.956165
O O12 0.941492 0.889571 0.984342
O O13 0.250000 0.588571 0.158287
O O14 0.250000 0.082811 0.819379
O O15 0.173624 0.250000 0.775320
O O16 0.176652 0.059501 0.665174
O O17 0.991429 0.750000 0.849640
O O18 0.500000 0.500000 0.500000
O O19 0.490739 0.750000 0.483899
O O20 0.573302 0.621593 0.400628
O O21 0.332159 0.250000 0.555011
#
# Coordination Sequence:
#
# PCOD9448027 Si02
#       8
#     8   8   8   8   8   8   8   8
#     4  10  22  39  58  83 117 151 189 240 290 337
#     4   9  17  30  48  73 107 143 183 232 279 327
#     4  10  21  35  54  81 116 143 182 240 292 338
#     4  10  21  35  53  77 107 149 192 228 276 339
#     4  10  19  31  51  79 111 149 190 232 283 342
#     4  10  22  39  61  84 108 148 194 233 284 349
#     4  10  20  34  54  82 114 148 186 235 293 343
#     4   9  17  30  50  75 104 141 184 230 282 338
#
# _framework density 19.853787000000001
#
# number of rings (size 3 to 8) (size 9 to 14) (size 15 to 20)
#    0.000    2.250    0.000    2.625    0.000   10.750 
#    0.000    1.250    0.000    1.125    0.000    0.000 
#    0.000    4.000    0.000    0.000    0.000    0.000 
#
# Total GULP energy -356276.135448 kJ/mol
# GULP energy per Si atom -5566.814616 kJ/mol
# Density = 1.980860 g / cm^3
# Si number density = 19.853787 Si / 1000 Ang^3
#
#
#
# Elastic Constant Matrix: (Units=GPa)
#
#
# Indices 1 2 3 4 5 6 
#
# 1 81.6359 19.9385 32.8501 0.0000 0.0000 0.0000
# 2 19.9385 110.6740 48.4523 0.0000 0.0000 0.0000
# 3 32.8501 48.4523 92.6333 0.0000 0.0000 0.0000
# 4 0.0000 0.0000 0.0000 15.9204 0.0000 0.0000
# 5 0.0000 0.0000 0.0000 0.0000 34.8356 0.0000
# 6 0.0000 0.0000 0.0000 0.0000 0.0000 12.9458
#
#
#
# Elastic Compliance Matrix: (Units=1/GPa)
#
#
# Indices 1 2 3 4 5 6 
#
# 1 0.014307 -0.000462 -0.004832 0.000000 0.000000 0.000000
# 2 -0.000462 0.011734 -0.005974 0.000000 0.000000 0.000000
# 3 -0.004832 -0.005974 0.015633 0.000000 0.000000 0.000000
# 4 0.000000 0.000000 0.000000 0.062812 0.000000 0.000000
# 5 0.000000 0.000000 0.000000 0.000000 0.028706 0.000000
# 6 0.000000 0.000000 0.000000 0.000000 0.000000 0.077245
#
#
# Mechanical properties :
#
#
# Convention : Reuss Voigt Hill
#
# Bulk Modulus (GPa) = 52.24972 54.15833 53.20402
# Shear Modulus (GPa) = 20.88967 24.98718 22.93843
#
# Velocity S-wave (km/s) = 3.24724 3.55147 3.40276
# Velocity P-wave (km/s) = 6.35876 6.64493 6.50342
#
# Compressibility (1/GPa) = 0.01913886
#
# Stress axis : x y z
#
# Youngs Moduli (GPa) = 69.89743 85.22225 63.96607
#
# Poissons Ratio (x) = 0.03938 0.30907
# Poissons Ratio (y) = 0.03230 0.38211
# Poissons Ratio (z) = 0.33773 0.50909
#
# Static dielectric constant tensor:
#      x y z
#    x 1.730990 0.000000 0.000000 
#    y 0.000000 1.745360 0.000000 
#    z 0.000000 0.000000 1.736630 
# 
# From -- ./inp_files/18746.got.cif
#   From: 2010.05.17/outbox.cif.g08.bks.cpg/sg59_10_cif.got.tgz:18746.got - 2010.06.03 14:40:33.
