data_PCOD9448067
_publ_section_title
;
Structure prediction by ZEFSAII (Michael W. Deem and Ramdas Pophale) SiO2 
 PCOD9448067
Probable space group: P M M N
;
_chemical_formula_sum "Si O2"
_cell_formula_units_Z 64
_cell_length_a 7.613100
_cell_length_b 28.467517
_cell_length_c 14.858969
_cell_angle_alpha 90.000000
_cell_angle_beta 90.000000
_cell_angle_gamma 90.000000
_cell_volume 3220.325713
_symmetry_space_group_name_H-M "P M M N"
_symmetry_group_IT_number 59
_space_group.IT_coordinate_system_code '2'
_symmetry_cell_setting 'orthorhombic'
loop_
_space_group_symop_operation_xyz
x,y,z
1/2-x,1/2-y,z
1/2+x,-y,-z
-x,1/2+y,-z
-x,-y,-z
1/2+x,1/2+y,-z
1/2-x,y,z
x,1/2-y,z
loop_
_atom_site_type_symbol
_atom_site_label
_atom_site_fract_x
_atom_site_fract_y
_atom_site_fract_z
Si Si1 0.553295 0.946410 0.511166
Si Si2 0.962373 0.305247 0.456858
Si Si3 0.038784 0.552796 0.034256
Si Si4 0.037524 0.564756 0.237905
Si Si5 0.464387 0.891185 0.864030
Si Si6 0.464741 0.695566 0.744983
Si Si7 0.053703 0.631758 0.386605
Si Si8 0.958027 0.459736 0.294291
O O1 0.750000 0.939322 0.477916
O O2 0.433921 0.912929 0.452956
O O3 0.542466 0.937971 0.617168
O O4 0.500000 0.000000 0.500000
O O5 0.750000 0.312635 0.457799
O O6 0.995096 0.250000 0.463279
O O7 0.021257 0.319558 0.356196
O O8 0.033476 0.331076 0.545510
O O9 0.250000 0.556307 0.037758
O O10 0.972830 0.561555 0.135338
O O11 0.975545 0.591236 0.961702
O O12 0.000000 0.500000 0.000000
O O13 0.250000 0.568016 0.237451
O O14 0.973047 0.609101 0.296631
O O15 0.993724 0.515011 0.284182
O O16 0.250000 0.889993 0.866343
O O17 0.521400 0.841733 0.820562
O O18 0.516007 0.932209 0.794355
O O19 0.250000 0.695352 0.743988
O O20 0.517610 0.750000 0.759776
O O21 0.250000 0.649206 0.363259
O O22 0.750000 0.453191 0.304218
#
# Coordination Sequence:
#
# PCOD9448067 Si02
#       8
#     8   8   8   8   8   8   8   8
#     4  12  23  33  45  66  97 131 163 196 238 288
#     4   8  14  26  47  73  97 122 159 204 244 290
#     4  10  19  32  47  66  93 126 163 202 245 288
#     4  10  20  31  45  65  94 128 161 201 243 287
#     4   9  17  28  45  68  93 123 158 199 245 291
#     4   8  13  23  41  66  93 119 151 195 244 290
#     4  10  19  32  49  69  95 129 165 202 245 286
#     4  11  20  31  48  68  93 127 163 199 238 287
#
# _framework density 19.873766
#
# number of rings (size 3 to 8) (size 9 to 14) (size 15 to 20)
#    0.000    2.250    2.500    3.000    0.000    2.000 
#    0.000    0.000    0.000    1.125    0.000    5.250 
#    0.000    4.000    0.000    2.250    0.000    2.875 
#
# Total GULP energy -357022.069887 kJ/mol
# GULP energy per Si atom -5578.469842 kJ/mol
# Density = 1.982853 g / cm^3
# Si number density = 19.873766 Si / 1000 Ang^3
#
#
#
# Elastic Constant Matrix: (Units=GPa)
#
#
# Indices 1 2 3 4 5 6 
#
# 1 55.4750 -1.8021 2.0181 0.0000 0.0000 0.0000
# 2 -1.8021 91.1685 53.9400 0.0000 0.0000 0.0000
# 3 2.0181 53.9400 152.3866 0.0000 0.0000 0.0000
# 4 0.0000 0.0000 0.0000 38.0043 0.0000 0.0000
# 5 0.0000 0.0000 0.0000 0.0000 7.5618 0.0000
# 6 0.0000 0.0000 0.0000 0.0000 0.0000 8.1072
#
#
#
# Elastic Compliance Matrix: (Units=1/GPa)
#
#
# Indices 1 2 3 4 5 6 
#
# 1 0.018063 0.000631 -0.000462 0.000000 0.000000 0.000000
# 2 0.000631 0.013896 -0.004927 0.000000 0.000000 0.000000
# 3 -0.000462 -0.004927 0.008312 0.000000 0.000000 0.000000
# 4 0.000000 0.000000 0.000000 0.026313 0.000000 0.000000
# 5 0.000000 0.000000 0.000000 0.000000 0.132243 0.000000
# 6 0.000000 0.000000 0.000000 0.000000 0.000000 0.123347
#
#
# Mechanical properties :
#
#
# Convention : Reuss Voigt Hill
#
# Bulk Modulus (GPa) = 32.51585 45.26023 38.88804
# Shear Modulus (GPa) = 14.62225 27.05961 20.84093
#
# Velocity S-wave (km/s) = 2.71543 3.69396 3.24182
# Velocity P-wave (km/s) = 5.12134 6.40445 5.79850
#
# Compressibility (1/GPa) = 0.03075424
#
# Stress axis : x y z
#
# Youngs Moduli (GPa) = 55.36045 71.96126 120.30127
#
# Poissons Ratio (x) = -0.04538 0.05563
# Poissons Ratio (y) = -0.03491 0.59275
# Poissons Ratio (z) = 0.02560 0.35457
#
# Static dielectric constant tensor:
#      x y z
#    x 1.759820 0.000000 0.000000 
#    y 0.000000 1.705330 0.000000 
#    z 0.000000 0.000000 1.784370 
# 
# From -- ./inp_files/21968.got.cif
#   From: 2010.05.17/outbox.cif.g08.bks.cpg/sg59_11_cif.got.tgz:21968.got - 2010.06.03 14:40:33.
