data_PCOD9448953
_publ_section_title
;
Structure prediction by ZEFSAII (Michael W. Deem and Ramdas Pophale) SiO2 
 PCOD9448953
Probable space group: P M M N
;
_chemical_formula_sum "Si O2"
_cell_formula_units_Z 64
_cell_length_a 7.815303
_cell_length_b 19.518160
_cell_length_c 20.416701
_cell_angle_alpha 90.000000
_cell_angle_beta 90.000000
_cell_angle_gamma 90.000000
_cell_volume 3114.370398
_symmetry_space_group_name_H-M "P M M N"
_symmetry_group_IT_number 59
_space_group.IT_coordinate_system_code '2'
_symmetry_cell_setting 'orthorhombic'
loop_
_space_group_symop_operation_xyz
x,y,z
1/2-x,1/2-y,z
1/2+x,-y,-z
-x,1/2+y,-z
-x,-y,-z
1/2+x,1/2+y,-z
1/2-x,y,z
x,1/2-y,z
loop_
_atom_site_type_symbol
_atom_site_label
_atom_site_fract_x
_atom_site_fract_y
_atom_site_fract_z
Si Si1 0.952334 0.672983 0.037063
Si Si2 0.951104 0.089999 0.090254
Si Si3 0.042358 0.171262 0.220643
Si Si4 0.955102 0.827785 0.390311
Si Si5 0.543850 0.920460 0.510266
Si Si6 0.543966 0.942396 0.132560
Si Si7 0.040736 0.081594 0.343649
Si Si8 0.045988 0.562794 0.285136
O O1 0.750000 0.679417 0.049765
O O2 0.024625 0.750000 0.034511
O O3 0.023721 0.623430 0.093508
O O4 0.970523 0.633562 0.968460
O O5 0.750000 0.085063 0.076250
O O6 0.977465 0.129346 0.158448
O O7 0.021463 0.013172 0.100461
O O8 0.250000 0.169683 0.218528
O O9 0.987438 0.250000 0.217813
O O10 0.987583 0.134408 0.287559
O O11 0.750000 0.823863 0.397650
O O12 0.021485 0.750000 0.389031
O O13 0.022335 0.872744 0.451559
O O14 0.989050 0.870187 0.324335
O O15 0.750000 0.915208 0.509816
O O16 0.483585 0.900828 0.583105
O O17 0.500000 0.000000 0.500000
O O18 0.750000 0.943953 0.125830
O O19 0.506286 0.939587 0.209488
O O20 0.250000 0.081002 0.344153
O O21 0.982245 0.005587 0.322413
O O22 0.250000 0.560414 0.287402
#
# Coordination Sequence:
#
# PCOD9448953 Si02
#       8
#     8   8   8   8   8   8   8   8
#     4  10  22  40  60  81 109 146 187 231 281 338
#     4  11  22  36  57  84 115 148 183 229 279 334
#     4  10  20  35  56  81 111 148 186 224 273 334
#     4  10  22  38  57  84 118 155 194 237 287 346
#     4  10  19  34  57  82 110 145 187 232 281 333
#     4  10  22  39  59  85 114 148 190 233 282 340
#     4   9  18  33  54  82 111 141 183 234 280 326
#     4  11  21  36  60  86 114 149 190 239 288 334
#
# _framework density 20.549897999999999
#
# number of rings (size 3 to 8) (size 9 to 14) (size 15 to 20)
#    0.000    1.875    2.500    1.500    0.000    4.250 
#    0.000    4.375    0.000    0.000    0.000    1.750 
#    0.000    0.000    0.000    0.000    0.000    0.000 
#
# Total GULP energy -357529.469725 kJ/mol
# GULP energy per Si atom -5586.397964 kJ/mol
# Density = 2.050313 g / cm^3
# Si number density = 20.549898 Si / 1000 Ang^3
#
#
#
# Elastic Constant Matrix: (Units=GPa)
#
#
# Indices 1 2 3 4 5 6 
#
# 1 24.8725 10.0927 -8.8037 0.0000 0.0000 0.0000
# 2 10.0927 179.0964 62.8987 0.0000 0.0000 0.0000
# 3 -8.8037 62.8987 82.4276 0.0000 0.0000 0.0000
# 4 0.0000 0.0000 0.0000 26.5849 0.0000 0.0000
# 5 0.0000 0.0000 0.0000 0.0000 18.4769 0.0000
# 6 0.0000 0.0000 0.0000 0.0000 0.0000 18.7347
#
#
#
# Elastic Compliance Matrix: (Units=1/GPa)
#
#
# Indices 1 2 3 4 5 6 
#
# 1 0.045921 -0.005888 0.009398 0.000000 0.000000 0.000000
# 2 -0.005888 0.008383 -0.007026 0.000000 0.000000 0.000000
# 3 0.009398 -0.007026 0.018497 0.000000 0.000000 0.000000
# 4 0.000000 0.000000 0.000000 0.037615 0.000000 0.000000
# 5 0.000000 0.000000 0.000000 0.000000 0.054121 0.000000
# 6 0.000000 0.000000 0.000000 0.000000 0.000000 0.053377
#
#
# Mechanical properties :
#
#
# Convention : Reuss Voigt Hill
#
# Bulk Modulus (GPa) = 15.20498 46.08578 30.64538
# Shear Modulus (GPa) = 20.25366 27.57322 23.91344
#
# Velocity S-wave (km/s) = 3.14281 3.66699 3.41497
# Velocity P-wave (km/s) = 4.53704 6.35642 5.52217
#
# Compressibility (1/GPa) = 0.06576792
#
# Stress axis : x y z
#
# Youngs Moduli (GPa) = 21.77667 119.29167 54.06367
#
# Poissons Ratio (x) = 0.70242 -0.50808
# Poissons Ratio (y) = 0.12823 0.37983
# Poissons Ratio (z) = -0.20465 0.83810
#
# Static dielectric constant tensor:
#      x y z
#    x 1.761490 0.000000 0.000000 
#    y 0.000000 1.731160 0.000000 
#    z 0.000000 0.000000 1.701420 
# 
# From -- ./inp_files/29402.got.cif
#   From: 2010.05.17/outbox.cif.g08.bks.cpg/sg59_15_cif.got.tgz:29402.got - 2010.06.03 14:40:33.
