data_PCOD9448404
_publ_section_title
;
Structure prediction by ZEFSAII (Michael W. Deem and Ramdas Pophale) SiO2 
 PCOD9448404
Probable space group: P M M N
;
_chemical_formula_sum "Si O2"
_cell_formula_units_Z 64
_cell_length_a 15.120770
_cell_length_b 8.383413
_cell_length_c 25.082622
_cell_angle_alpha 90.000000
_cell_angle_beta 90.000000
_cell_angle_gamma 90.000000
_cell_volume 3179.564962
_symmetry_space_group_name_H-M "P M M N"
_symmetry_group_IT_number 59
_space_group.IT_coordinate_system_code '2'
_symmetry_cell_setting 'orthorhombic'
loop_
_space_group_symop_operation_xyz
x,y,z
1/2-x,1/2-y,z
1/2+x,-y,-z
-x,1/2+y,-z
-x,-y,-z
1/2+x,1/2+y,-z
1/2-x,y,z
x,1/2-y,z
loop_
_atom_site_type_symbol
_atom_site_label
_atom_site_fract_x
_atom_site_fract_y
_atom_site_fract_z
Si Si1 0.849552 0.557541 0.365931
Si Si2 0.474111 0.434965 0.318711
Si Si3 0.598138 0.941866 0.485923
Si Si4 0.652348 0.062755 0.595487
Si Si5 0.350328 0.442014 0.028402
Si Si6 0.036800 0.941725 0.125002
Si Si7 0.350773 0.941697 0.225089
Si Si8 0.651726 0.555496 0.095822
O O1 0.750000 0.504618 0.352423
O O2 0.850818 0.750000 0.365521
O O3 0.872336 0.507656 0.426828
O O4 0.927198 0.499369 0.327405
O O5 0.477597 0.250000 0.306168
O O6 0.421611 0.464468 0.373862
O O7 0.414445 0.519569 0.274329
O O8 0.602660 0.750000 0.487882
O O9 0.500000 0.000000 0.500000
O O10 0.653983 0.015257 0.533863
O O11 0.750000 0.035480 0.619005
O O12 0.630935 0.250000 0.600581
O O13 0.250000 0.487081 0.044689
O O14 0.356844 0.250000 0.030774
O O15 0.420679 0.515742 0.068254
O O16 0.360760 0.488369 0.966496
O O17 0.034203 0.750000 0.129469
O O18 0.100627 0.002934 0.171724
O O19 0.935198 0.999570 0.127194
O O20 0.250000 0.002541 0.230861
O O21 0.345003 0.750000 0.221325
O O22 0.750000 0.501721 0.112857
O O23 0.652897 0.750000 0.097541
#
# Coordination Sequence:
#
# PCOD9448404 Si02
#       8
#     8   8   8   8   8   8   8   8
#     4  10  22  41  64  87 116 154 191 228 273 330
#     4  12  25  40  61  85 110 143 186 238 287 336
#     4  11  21  35  58  88 121 156 190 226 273 328
#     4  11  23  38  58  84 116 153 189 229 280 335
#     4   9  17  29  47  74 111 151 184 220 273 335
#     4  10  19  32  54  81 107 141 187 236 279 324
#     4  10  22  40  59  80 110 144 179 229 290 345
#     4   8  15  29  49  76 111 148 184 222 269 327
#
# _framework density 20.128540000000001
#
# number of rings (size 3 to 8) (size 9 to 14) (size 15 to 20)
#    0.000    1.875    1.250    4.125    0.000    5.250 
#    0.000    0.625    0.000    3.375    0.000    0.000 
#    0.000    0.000    0.000    0.000    0.000    0.000 
#
# Total GULP energy -357341.145103 kJ/mol
# GULP energy per Si atom -5583.455392 kJ/mol
# Density = 2.008273 g / cm^3
# Si number density = 20.128540 Si / 1000 Ang^3
#
#
#
# Elastic Constant Matrix: (Units=GPa)
#
#
# Indices 1 2 3 4 5 6 
#
# 1 178.5246 19.7899 53.7551 0.0000 0.0000 0.0000
# 2 19.7899 9.7372 4.0658 0.0000 0.0000 0.0000
# 3 53.7551 4.0658 51.3586 0.0000 0.0000 0.0000
# 4 0.0000 0.0000 0.0000 19.1120 0.0000 0.0000
# 5 0.0000 0.0000 0.0000 0.0000 27.1489 0.0000
# 6 0.0000 0.0000 0.0000 0.0000 0.0000 11.2724
#
#
#
# Elastic Compliance Matrix: (Units=1/GPa)
#
#
# Indices 1 2 3 4 5 6 
#
# 1 0.010349 -0.017074 -0.009480 0.000000 0.000000 0.000000
# 2 -0.017074 0.134381 0.007233 0.000000 0.000000 0.000000
# 3 -0.009480 0.007233 0.028821 0.000000 0.000000 0.000000
# 4 0.000000 0.000000 0.000000 0.052323 0.000000 0.000000
# 5 0.000000 0.000000 0.000000 0.000000 0.036834 0.000000
# 6 0.000000 0.000000 0.000000 0.000000 0.000000 0.088712
#
#
# Mechanical properties :
#
#
# Convention : Reuss Voigt Hill
#
# Bulk Modulus (GPa) = 7.41247 43.87132 25.64190
# Shear Modulus (GPa) = 11.49340 22.30729 16.90035
#
# Velocity S-wave (km/s) = 2.39215 3.33264 2.90077
# Velocity P-wave (km/s) = 3.36458 6.05405 4.89755
#
# Compressibility (1/GPa) = 0.13490787
#
# Stress axis : x y z
#
# Youngs Moduli (GPa) = 96.63065 7.44151 34.69738
#
# Poissons Ratio (x) = 0.12706 0.32893
# Poissons Ratio (y) = 1.64991 -0.25097
# Poissons Ratio (z) = 0.91605 -0.05382
#
# Static dielectric constant tensor:
#      x y z
#    x 1.746560 0.000000 0.000000 
#    y 0.000000 1.690710 0.000000 
#    z 0.000000 0.000000 1.702190 
# 
# From -- ./inp_files/32109.got.cif
#   From: 2010.05.17/outbox.cif.g08.bks.cpg/sg59_17_cif.got.tgz:32109.got - 2010.06.03 14:40:33.
