data_PCOD9448734
_publ_section_title
;
Structure prediction by ZEFSAII (Michael W. Deem and Ramdas Pophale) SiO2 
 PCOD9448734
Probable space group: P M M N
;
_chemical_formula_sum "Si O2"
_cell_formula_units_Z 48
_cell_length_a 7.537609
_cell_length_b 15.484469
_cell_length_c 19.675854
_cell_angle_alpha 90.000000
_cell_angle_beta 90.000000
_cell_angle_gamma 90.000000
_cell_volume 2296.484475
_symmetry_space_group_name_H-M "P M M N"
_symmetry_group_IT_number 59
_space_group.IT_coordinate_system_code '2'
_symmetry_cell_setting 'orthorhombic'
loop_
_space_group_symop_operation_xyz
x,y,z
1/2-x,1/2-y,z
1/2+x,-y,-z
-x,1/2+y,-z
-x,-y,-z
1/2+x,1/2+y,-z
1/2-x,y,z
x,1/2-y,z
loop_
_atom_site_type_symbol
_atom_site_label
_atom_site_fract_x
_atom_site_fract_y
_atom_site_fract_z
Si Si1 0.038193 0.750000 0.737834
Si Si2 0.466755 0.750000 0.954590
Si Si3 0.533194 0.110184 0.154222
Si Si4 0.537143 0.750000 0.578490
Si Si5 0.539044 0.576704 0.192257
Si Si6 0.962507 0.598130 0.481467
Si Si7 0.461330 0.750000 0.109045
Si Si8 0.033091 0.349508 0.668044
O O1 0.250000 0.750000 0.744505
O O2 0.976733 0.834374 0.779584
O O3 0.000300 0.750000 0.658307
O O4 0.250000 0.750000 0.955397
O O5 0.521888 0.665828 0.911351
O O6 0.530124 0.750000 0.031806
O O7 0.750000 0.109691 0.152912
O O8 0.470257 0.011763 0.159259
O O9 0.750000 0.750000 0.572952
O O10 0.470668 0.834402 0.537977
O O11 0.750000 0.564865 0.198955
O O12 0.513168 0.663165 0.148673
O O13 0.470152 0.594105 0.268392
O O14 0.750000 0.608718 0.478944
O O15 0.028641 0.620516 0.405960
O O16 0.000000 0.500000 0.500000
O O17 0.250000 0.750000 0.105681
O O18 0.250000 0.352063 0.667832
O O19 0.982743 0.250000 0.679264
#
# Coordination Sequence:
#
# PCOD9448734 Si02
#       8
#     4   4   8   4   8   8   4   8
#     4   9  18  33  56  82 102 128 176 225 254 296
#     4   8  16  33  52  74 111 141 160 203 266 313
#     4   8  16  32  55  81 102 130 174 217 255 298
#     4  10  21  36  50  72 109 146 170 204 268 328
#     4  10  19  33  56  80 101 131 177 222 252 293
#     4  10  21  36  54  76 104 139 177 215 261 314
#     4  11  22  34  50  76 110 143 168 204 262 319
#     4   9  16  31  54  73  95 132 174 213 253 296
#
# _framework density 20.901513000000001
#
# number of rings (size 3 to 8) (size 9 to 14) (size 15 to 20)
#    0.000    2.667    1.667    1.250    2.333    1.333 
#    0.000    1.667    0.000    5.000    0.000    0.000 
#    0.000    0.000    0.000    0.000    0.000    0.000 
#
# Total GULP energy -267913.952065 kJ/mol
# GULP energy per Si atom -5581.540668 kJ/mol
# Density = 2.085394 g / cm^3
# Si number density = 20.901513 Si / 1000 Ang^3
#
#
#
# Elastic Constant Matrix: (Units=GPa)
#
#
# Indices 1 2 3 4 5 6 
#
# 1 47.3871 -6.6901 -5.1340 0.0000 0.0000 0.0000
# 2 -6.6901 158.0715 64.3710 0.0000 0.0000 0.0000
# 3 -5.1340 64.3710 156.9135 0.0000 0.0000 0.0000
# 4 0.0000 0.0000 0.0000 45.3405 0.0000 0.0000
# 5 0.0000 0.0000 0.0000 0.0000 15.7451 0.0000
# 6 0.0000 0.0000 0.0000 0.0000 0.0000 5.4021
#
#
#
# Elastic Compliance Matrix: (Units=1/GPa)
#
#
# Indices 1 2 3 4 5 6 
#
# 1 0.021250 0.000740 0.000392 0.000000 0.000000 0.000000
# 2 0.000740 0.007621 -0.003102 0.000000 0.000000 0.000000
# 3 0.000392 -0.003102 0.007658 0.000000 0.000000 0.000000
# 4 0.000000 0.000000 0.000000 0.022055 0.000000 0.000000
# 5 0.000000 0.000000 0.000000 0.000000 0.063512 0.000000
# 6 0.000000 0.000000 0.000000 0.000000 0.000000 0.185112
#
#
# Mechanical properties :
#
#
# Convention : Reuss Voigt Hill
#
# Bulk Modulus (GPa) = 30.68637 51.94069 41.31353
# Shear Modulus (GPa) = 15.52739 33.95256 24.73997
#
# Velocity S-wave (km/s) = 2.72855 4.03477 3.44415
# Velocity P-wave (km/s) = 4.96386 6.82715 5.96866
#
# Compressibility (1/GPa) = 0.03258776
#
# Stress axis : x y z
#
# Youngs Moduli (GPa) = 47.05957 131.21940 130.57661
#
# Poissons Ratio (x) = -0.09708 -0.05115
# Poissons Ratio (y) = -0.03482 0.40506
# Poissons Ratio (z) = -0.01844 0.40706
#
# Static dielectric constant tensor:
#      x y z
#    x 1.804570 0.000000 0.000000 
#    y 0.000000 1.658290 0.000000 
#    z 0.000000 0.000000 1.732720 
# 
# From -- ./inp_files/25666.got.cif
#   From: 2010.05.17/outbox.cif.g08.bks.cpg/sg59_13_cif.got.tgz:25666.got - 2010.06.03 14:40:33.
