data_PCOD9448640
_publ_section_title
;
Structure prediction by ZEFSAII (Michael W. Deem and Ramdas Pophale) SiO2 
 PCOD9448640
Probable space group: P M M N
;
_chemical_formula_sum "Si O2"
_cell_formula_units_Z 64
_cell_length_a 9.111538
_cell_length_b 18.459499
_cell_length_c 20.226071
_cell_angle_alpha 90.000000
_cell_angle_beta 90.000000
_cell_angle_gamma 90.000000
_cell_volume 3401.912414
_symmetry_space_group_name_H-M "P M M N"
_symmetry_group_IT_number 59
_space_group.IT_coordinate_system_code '2'
_symmetry_cell_setting 'orthorhombic'
loop_
_space_group_symop_operation_xyz
x,y,z
1/2-x,1/2-y,z
1/2+x,-y,-z
-x,1/2+y,-z
-x,-y,-z
1/2+x,1/2+y,-z
1/2-x,y,z
x,1/2-y,z
loop_
_atom_site_type_symbol
_atom_site_label
_atom_site_fract_x
_atom_site_fract_y
_atom_site_fract_z
Si Si1 0.924002 0.398183 0.039697
Si Si2 0.925889 0.076599 0.518089
Si Si3 0.577600 0.669157 0.842268
Si Si4 0.925829 0.167169 0.646845
Si Si5 0.074888 0.435110 0.277914
Si Si6 0.074218 0.082524 0.757815
Si Si7 0.424274 0.165357 0.404682
Si Si8 0.925717 0.560669 0.090181
O O1 0.750000 0.393305 0.033660
O O2 0.960510 0.476791 0.072480
O O3 0.986903 0.341236 0.091358
O O4 0.997332 0.394624 0.967915
O O5 0.750000 0.068340 0.516549
O O6 0.967055 0.109840 0.589583
O O7 0.980388 0.134738 0.464475
O O8 0.000000 0.000000 0.500000
O O9 0.750000 0.658904 0.857353
O O10 0.559283 0.750000 0.815012
O O11 0.536147 0.611207 0.786977
O O12 0.750000 0.162013 0.655544
O O13 0.959965 0.250000 0.626830
O O14 0.005094 0.146523 0.714811
O O15 0.250000 0.450843 0.276668
O O16 0.046703 0.385102 0.341304
O O17 0.985323 0.508813 0.275233
O O18 0.250000 0.084822 0.755350
O O19 0.029384 0.080170 0.835219
O O20 0.250000 0.158458 0.420085
O O21 0.453344 0.250000 0.391287
O O22 0.750000 0.568807 0.085420
#
# Coordination Sequence:
#
# PCOD9448640 Si02
#       8
#     8   8   8   8   8   8   8   8
#     4  10  19  33  54  80 109 143 187 235 283 337
#     4  11  23  40  62  88 117 151 192 239 289 342
#     4  10  20  34  53  78 112 154 194 232 281 339
#     4  10  23  43  63  84 115 154 194 236 286 346
#     4  10  20  35  56  82 114 153 194 232 276 335
#     4  11  22  37  59  88 117 145 185 238 290 338
#     4  10  21  37  57  83 116 152 191 235 281 333
#     4   9  19  35  54  79 111 143 181 231 285 339
#
# _framework density 18.812947999999999
#
# number of rings (size 3 to 8) (size 9 to 14) (size 15 to 20)
#    0.000    1.875    1.250    2.625    0.000    8.750 
#    0.000    0.625    0.000    3.000    0.000    0.000 
#    0.000    0.000    0.000    0.000    0.000    0.000 
#
# Total GULP energy -357382.706591 kJ/mol
# GULP energy per Si atom -5584.104790 kJ/mol
# Density = 1.877013 g / cm^3
# Si number density = 18.812948 Si / 1000 Ang^3
#
#
#
# Elastic Constant Matrix: (Units=GPa)
#
#
# Indices 1 2 3 4 5 6 
#
# 1 19.0120 23.9341 38.9248 0.0000 0.0000 0.0000
# 2 23.9341 58.0395 31.4467 0.0000 0.0000 0.0000
# 3 38.9248 31.4467 120.5427 0.0000 0.0000 0.0000
# 4 0.0000 0.0000 0.0000 20.3728 0.0000 0.0000
# 5 0.0000 0.0000 0.0000 0.0000 31.3539 0.0000
# 6 0.0000 0.0000 0.0000 0.0000 0.0000 26.8765
#
#
#
# Elastic Compliance Matrix: (Units=1/GPa)
#
#
# Indices 1 2 3 4 5 6 
#
# 1 0.379843 -0.105026 -0.095258 0.000000 0.000000 0.000000
# 2 -0.105026 0.049105 0.021104 0.000000 0.000000 0.000000
# 3 -0.095258 0.021104 0.033550 0.000000 0.000000 0.000000
# 4 0.000000 0.000000 0.000000 0.049085 0.000000 0.000000
# 5 0.000000 0.000000 0.000000 0.000000 0.031894 0.000000
# 6 0.000000 0.000000 0.000000 0.000000 0.000000 0.037207
#
#
# Mechanical properties :
#
#
# Convention : Reuss Voigt Hill
#
# Bulk Modulus (GPa) = 9.60253 42.91172 26.25712
# Shear Modulus (GPa) = 5.13475 22.60654 13.87065
#
# Velocity S-wave (km/s) = 1.65387 3.47024 2.71826
# Velocity P-wave (km/s) = 2.96013 6.23826 4.88254
#
# Compressibility (1/GPa) = 0.10413927
#
# Stress axis : x y z
#
# Youngs Moduli (GPa) = 2.63267 20.36438 29.80604
#
# Poissons Ratio (x) = 2.13879 2.83925
# Poissons Ratio (y) = 0.27650 -0.62902
# Poissons Ratio (z) = 0.25078 -0.42977
#
# Static dielectric constant tensor:
#      x y z
#    x 1.623900 0.000000 0.000000 
#    y 0.000000 1.655540 0.000000 
#    z 0.000000 0.000000 1.646630 
# 
# From -- ./inp_files/29513.got.cif
#   From: 2010.05.17/outbox.cif.g08.bks.cpg/sg59_15_cif.got.tgz:29513.got - 2010.06.03 14:40:33.
