data_PCOD9448320
_publ_section_title
;
Structure prediction by ZEFSAII (Michael W. Deem and Ramdas Pophale) SiO2 
 PCOD9448320
Probable space group: P M M N
;
_chemical_formula_sum "Si O2"
_cell_formula_units_Z 64
_cell_length_a 9.019764
_cell_length_b 19.364746
_cell_length_c 21.177073
_cell_angle_alpha 90.000000
_cell_angle_beta 90.000000
_cell_angle_gamma 90.000000
_cell_volume 3698.902749
_symmetry_space_group_name_H-M "P M M N"
_symmetry_group_IT_number 59
_space_group.IT_coordinate_system_code '2'
_symmetry_cell_setting 'orthorhombic'
loop_
_space_group_symop_operation_xyz
x,y,z
1/2-x,1/2-y,z
1/2+x,-y,-z
-x,1/2+y,-z
-x,-y,-z
1/2+x,1/2+y,-z
1/2-x,y,z
x,1/2-y,z
loop_
_atom_site_type_symbol
_atom_site_label
_atom_site_fract_x
_atom_site_fract_y
_atom_site_fract_z
Si Si1 0.571540 0.079383 0.619811
Si Si2 0.574540 0.419484 0.243357
Si Si3 0.571249 0.331667 0.865838
Si Si4 0.921440 0.166103 0.006284
Si Si5 0.569758 0.171202 0.500223
Si Si6 0.926570 0.830403 0.864914
Si Si7 0.073603 0.417207 0.753748
Si Si8 0.929276 0.070189 0.387212
O O1 0.750000 0.075993 0.623235
O O2 0.528207 0.132720 0.564870
O O3 0.505231 0.100184 0.687547
O O4 0.506475 0.003782 0.603819
O O5 0.750000 0.407138 0.235636
O O6 0.488665 0.374893 0.192434
O O7 0.547267 0.501197 0.234726
O O8 0.535325 0.404182 0.316365
O O9 0.750000 0.339105 0.861854
O O10 0.538446 0.250000 0.859835
O O11 0.492565 0.373597 0.810938
O O12 0.526150 0.355533 0.936535
O O13 0.750000 0.145428 0.013981
O O14 0.924693 0.250000 0.004648
O O15 0.012584 0.144190 0.067395
O O16 0.750000 0.173155 0.499040
O O17 0.516492 0.250000 0.496993
O O18 0.525235 0.124440 0.440615
O O19 0.750000 0.832856 0.865645
O O20 0.972935 0.750000 0.857614
O O21 0.250000 0.407084 0.747928
O O22 0.750000 0.060374 0.389801
#
# Coordination Sequence:
#
# PCOD9448320 Si02
#       8
#     8   8   8   8   8   8   8   8
#     4  10  19  32  53  76 100 134 170 205 249 303
#     4   9  19  34  51  72  98 131 170 209 249 298
#     4   9  18  33  54  79 104 132 168 208 252 303
#     4   8  15  30  51  73  99 132 168 204 244 297
#     4   9  18  32  51  77 105 131 164 207 251 295
#     4  10  20  32  49  75 103 130 164 208 254 300
#     4  10  21  36  53  75 103 134 172 214 252 295
#     4   9  18  34  55  75  97 129 169 210 248 294
#
# _framework density 17.302429
#
# number of rings (size 3 to 8) (size 9 to 14) (size 15 to 20)
#    0.000    2.750    0.000    3.000    0.000    5.000 
#    0.000    5.000    0.000    3.000    0.000    0.000 
#    0.000    0.000    0.000    0.000    0.000    0.000 
#
# Total GULP energy -356838.486954 kJ/mol
# GULP energy per Si atom -5575.601359 kJ/mol
# Density = 1.726305 g / cm^3
# Si number density = 17.302429 Si / 1000 Ang^3
#
#
#
# Elastic Constant Matrix: (Units=GPa)
#
#
# Indices 1 2 3 4 5 6 
#
# 1 39.8791 39.4378 60.0100 0.0000 0.0000 0.0000
# 2 39.4378 65.0343 85.9119 0.0000 0.0000 0.0000
# 3 60.0100 85.9119 167.6542 0.0000 0.0000 0.0000
# 4 0.0000 0.0000 0.0000 36.6759 0.0000 0.0000
# 5 0.0000 0.0000 0.0000 0.0000 23.6531 0.0000
# 6 0.0000 0.0000 0.0000 0.0000 0.0000 26.3437
#
#
#
# Elastic Compliance Matrix: (Units=1/GPa)
#
#
# Indices 1 2 3 4 5 6 
#
# 1 0.067533 -0.027921 -0.009865 0.000000 0.000000 0.000000
# 2 -0.027921 0.059140 -0.020311 0.000000 0.000000 0.000000
# 3 -0.009865 -0.020311 0.019904 0.000000 0.000000 0.000000
# 4 0.000000 0.000000 0.000000 0.027266 0.000000 0.000000
# 5 0.000000 0.000000 0.000000 0.000000 0.042278 0.000000
# 6 0.000000 0.000000 0.000000 0.000000 0.000000 0.037960
#
#
# Mechanical properties :
#
#
# Convention : Reuss Voigt Hill
#
# Bulk Modulus (GPa) = 32.91429 71.47632 52.19531
# Shear Modulus (GPa) = 13.14397 23.14840 18.14619
#
# Velocity S-wave (km/s) = 2.75918 3.66166 3.24198
# Velocity P-wave (km/s) = 5.40509 7.69913 6.65176
#
# Compressibility (1/GPa) = 0.03038194
#
# Stress axis : x y z
#
# Youngs Moduli (GPa) = 14.80767 16.90891 50.24135
#
# Poissons Ratio (x) = 0.47212 0.49562
# Poissons Ratio (y) = 0.41345 1.02048
# Poissons Ratio (z) = 0.14607 0.34344
#
# Static dielectric constant tensor:
#      x y z
#    x 1.576950 0.000000 0.000000 
#    y 0.000000 1.570250 0.000000 
#    z 0.000000 0.000000 1.583530 
# 
# From -- ./inp_files/29611.got.cif
#   From: 2010.05.17/outbox.cif.g08.bks.cpg/sg59_15_cif.got.tgz:29611.got - 2010.06.03 14:40:33.
