data_PCOD9448447
_publ_section_title
;
Structure prediction by ZEFSAII (Michael W. Deem and Ramdas Pophale) SiO2 
 PCOD9448447
Probable space group: P M M N
;
_chemical_formula_sum "Si O2"
_cell_formula_units_Z 48
_cell_length_a 8.586675
_cell_length_b 28.738272
_cell_length_c 10.403050
_cell_angle_alpha 90.000000
_cell_angle_beta 90.000000
_cell_angle_gamma 90.000000
_cell_volume 2567.121135
_symmetry_space_group_name_H-M "P M M N"
_symmetry_group_IT_number 59
_space_group.IT_coordinate_system_code '2'
_symmetry_cell_setting 'orthorhombic'
loop_
_space_group_symop_operation_xyz
x,y,z
1/2-x,1/2-y,z
1/2+x,-y,-z
-x,1/2+y,-z
-x,-y,-z
1/2+x,1/2+y,-z
1/2-x,y,z
x,1/2-y,z
loop_
_atom_site_type_symbol
_atom_site_label
_atom_site_fract_x
_atom_site_fract_y
_atom_site_fract_z
Si Si1 0.061702 0.842235 0.718494
Si Si2 0.562120 0.441561 0.379735
Si Si3 0.436082 0.454343 0.665431
Si Si4 0.063530 0.867229 0.207326
Si Si5 0.563843 0.803025 0.983041
Si Si6 0.560418 0.197532 0.558279
O O1 0.250000 0.839282 0.729651
O O2 0.017881 0.896568 0.702883
O O3 0.014982 0.818188 0.584295
O O4 0.987300 0.817645 0.840384
O O5 0.750000 0.440761 0.392479
O O6 0.494668 0.439036 0.523805
O O7 0.516015 0.491512 0.321741
O O8 0.250000 0.452156 0.667906
O O9 0.503406 0.419354 0.770663
O O10 0.250000 0.867868 0.206803
O O11 0.008005 0.837657 0.331571
O O12 0.005292 0.840015 0.082791
O O13 0.750000 0.803795 0.992389
O O14 0.509884 0.750000 0.010786
O O15 0.750000 0.196963 0.560178
O O16 0.508635 0.250000 0.585160
#
# Coordination Sequence:
#
# PCOD9448447 Si02
#       6
#     8   8   8   8   8   8
#     4  10  19  36  60  84 111 146 192 236 277 332
#     4   9  18  34  56  85 117 150 189 234 282 340
#     4  10  19  32  55  86 120 151 183 231 293 344
#     4  11  21  37  59  83 113 150 196 238 279 337
#     4  11  25  42  57  80 117 154 188 232 289 346
#     4   9  17  30  53  83 109 135 180 239 282 321
#
# _framework density 18.697987000000001
#
# number of rings (size 3 to 8) (size 9 to 14) (size 15 to 20)
#    0.000    2.000    1.667    2.500    0.000    4.000 
#    0.000    0.833    0.000    3.000    0.000    0.000 
#    0.000    0.000    0.000    0.000    0.000    0.000 
#
# Total GULP energy -267990.177446 kJ/mol
# GULP energy per Si atom -5583.128697 kJ/mol
# Density = 1.865543 g / cm^3
# Si number density = 18.697987 Si / 1000 Ang^3
#
#
#
# Elastic Constant Matrix: (Units=GPa)
#
#
# Indices 1 2 3 4 5 6 
#
# 1 17.6268 8.6588 -2.1730 0.0000 0.0000 0.0000
# 2 8.6588 62.2589 -22.0849 0.0000 0.0000 0.0000
# 3 -2.1730 -22.0849 27.3751 0.0000 0.0000 0.0000
# 4 0.0000 0.0000 0.0000 30.9334 0.0000 0.0000
# 5 0.0000 0.0000 0.0000 0.0000 23.6230 0.0000
# 6 0.0000 0.0000 0.0000 0.0000 0.0000 22.3164
#
#
#
# Elastic Compliance Matrix: (Units=1/GPa)
#
#
# Indices 1 2 3 4 5 6 
#
# 1 0.061045 -0.009486 -0.002807 0.000000 0.000000 0.000000
# 2 -0.009486 0.023975 0.018589 0.000000 0.000000 0.000000
# 3 -0.002807 0.018589 0.051304 0.000000 0.000000 0.000000
# 4 0.000000 0.000000 0.000000 0.032327 0.000000 0.000000
# 5 0.000000 0.000000 0.000000 0.000000 0.042332 0.000000
# 6 0.000000 0.000000 0.000000 0.000000 0.000000 0.044810
#
#
# Mechanical properties :
#
#
# Convention : Reuss Voigt Hill
#
# Bulk Modulus (GPa) = 6.71516 8.45142 7.58329
# Shear Modulus (GPa) = 17.07418 23.56522 20.31970
#
# Velocity S-wave (km/s) = 3.02513 3.55393 3.30014
# Velocity P-wave (km/s) = 3.97505 4.62281 4.31111
#
# Compressibility (1/GPa) = 0.14891670
#
# Stress axis : x y z
#
# Youngs Moduli (GPa) = 16.38127 41.70959 19.49183
#
# Poissons Ratio (x) = 0.39565 0.05472
# Poissons Ratio (y) = 0.15539 -0.36234
# Poissons Ratio (z) = 0.04598 -0.77535
#
# Static dielectric constant tensor:
#      x y z
#    x 1.637920 0.000000 0.000000 
#    y 0.000000 1.675420 0.000000 
#    z 0.000000 0.000000 1.607490 
# 
# From -- ./inp_files/6247.got.cif
#   From: 2010.05.17/outbox.cif.g08.bks.cpg/sg59_4_cif.got.tgz:6247.got - 2010.06.03 14:40:33.
