data_PCOD9448569
_publ_section_title
;
Structure prediction by ZEFSAII (Michael W. Deem and Ramdas Pophale) SiO2 
 PCOD9448569
Probable space group: P M M N
;
_chemical_formula_sum "Si O2"
_cell_formula_units_Z 64
_cell_length_a 7.633031
_cell_length_b 24.878628
_cell_length_c 15.077493
_cell_angle_alpha 90.000000
_cell_angle_beta 90.000000
_cell_angle_gamma 90.000000
_cell_volume 2863.205951
_symmetry_space_group_name_H-M "P M M N"
_symmetry_group_IT_number 59
_space_group.IT_coordinate_system_code '2'
_symmetry_cell_setting 'orthorhombic'
loop_
_space_group_symop_operation_xyz
x,y,z
1/2-x,1/2-y,z
1/2+x,-y,-z
-x,1/2+y,-z
-x,-y,-z
1/2+x,1/2+y,-z
1/2-x,y,z
x,1/2-y,z
loop_
_atom_site_type_symbol
_atom_site_label
_atom_site_fract_x
_atom_site_fract_y
_atom_site_fract_z
Si Si1 0.463383 0.108180 0.374564
Si Si2 0.537613 0.657363 0.957837
Si Si3 0.043918 0.005033 0.280140
Si Si4 0.035347 0.187891 0.531649
Si Si5 0.545447 0.309304 0.845608
Si Si6 0.950315 0.616510 0.306959
Si Si7 0.036964 0.307004 0.231447
Si Si8 0.039562 0.463247 0.084393
O O1 0.250000 0.107517 0.381898
O O2 0.524230 0.047454 0.353781
O O3 0.521783 0.144975 0.456774
O O4 0.516456 0.141964 0.287707
O O5 0.750000 0.658513 0.962177
O O6 0.482922 0.689155 0.870264
O O7 0.478547 0.596490 0.939845
O O8 0.471999 0.680199 0.050107
O O9 0.250000 0.016999 0.273946
O O10 0.972374 0.015998 0.180250
O O11 0.028489 0.942848 0.305557
O O12 0.250000 0.190281 0.529213
O O13 0.977096 0.250000 0.521081
O O14 0.978424 0.160731 0.624264
O O15 0.750000 0.310023 0.822665
O O16 0.473010 0.250000 0.824332
O O17 0.459518 0.356548 0.789507
O O18 0.750000 0.608037 0.333105
O O19 0.250000 0.307956 0.232534
O O20 0.981471 0.250000 0.271307
O O21 0.250000 0.460540 0.091800
O O22 0.000000 0.500000 0.000000
#
# Coordination Sequence:
#
# PCOD9448569 Si02
#       8
#     8   8   8   8   8   8   8   8
#     4   9  16  30  53  81 114 148 180 221 275 336
#     4  10  19  33  53  81 112 143 181 226 277 331
#     4  10  20  36  56  81 116 151 186 229 279 336
#     4   9  18  33  55  84 114 144 183 233 287 338
#     4  11  24  40  57  80 111 148 190 234 285 343
#     4  11  23  38  57  82 112 148 193 241 285 330
#     4   9  15  25  47  79 111 141 175 217 267 326
#     4  10  20  33  50  74 107 145 187 229 269 320
#
# _framework density 22.352568000000002
#
# number of rings (size 3 to 8) (size 9 to 14) (size 15 to 20)
#    0.000    2.125    1.250    2.625    0.000    7.000 
#    0.000    0.000    0.000    0.750    0.000    0.000 
#    0.000    7.000    0.000    0.000    0.000    0.000 
#
# Total GULP energy -357276.521676 kJ/mol
# GULP energy per Si atom -5582.445651 kJ/mol
# Density = 2.230169 g / cm^3
# Si number density = 22.352568 Si / 1000 Ang^3
#
#
#
# Elastic Constant Matrix: (Units=GPa)
#
#
# Indices 1 2 3 4 5 6 
#
# 1 39.3342 2.1560 -3.6133 0.0000 0.0000 0.0000
# 2 2.1560 135.0986 22.2850 0.0000 0.0000 0.0000
# 3 -3.6133 22.2850 79.4852 0.0000 0.0000 0.0000
# 4 0.0000 0.0000 0.0000 34.9382 0.0000 0.0000
# 5 0.0000 0.0000 0.0000 0.0000 1.8327 0.0000
# 6 0.0000 0.0000 0.0000 0.0000 0.0000 102.9025
#
#
#
# Elastic Compliance Matrix: (Units=1/GPa)
#
#
# Indices 1 2 3 4 5 6 
#
# 1 0.025581 -0.000629 0.001339 0.000000 0.000000 0.000000
# 2 -0.000629 0.007776 -0.002209 0.000000 0.000000 0.000000
# 3 0.001339 -0.002209 0.013261 0.000000 0.000000 0.000000
# 4 0.000000 0.000000 0.000000 0.028622 0.000000 0.000000
# 5 0.000000 0.000000 0.000000 0.000000 0.545655 0.000000
# 6 0.000000 0.000000 0.000000 0.000000 0.000000 0.009718
#
#
# Mechanical properties :
#
#
# Convention : Reuss Voigt Hill
#
# Bulk Modulus (GPa) = 22.92488 32.84150 27.88319
# Shear Modulus (GPa) = 7.71426 43.47403 25.59414
#
# Velocity S-wave (km/s) = 1.85975 4.41491 3.38749
# Velocity P-wave (km/s) = 3.85874 6.38067 5.27271
#
# Compressibility (1/GPa) = 0.04362072
#
# Stress axis : x y z
#
# Youngs Moduli (GPa) = 39.09201 128.59427 75.40836
#
# Poissons Ratio (x) = 0.08091 -0.10099
# Poissons Ratio (y) = 0.02460 0.16657
# Poissons Ratio (z) = -0.05235 0.28404
#
# Static dielectric constant tensor:
#      x y z
#    x 1.864760 0.000000 0.000000 
#    y 0.000000 1.832270 0.000000 
#    z 0.000000 0.000000 1.814690 
# 
# From -- ./inp_files/21592.got.cif
#   From: 2010.05.17/outbox.cif.g08.bks.cpg/sg59_11_cif.got.tgz:21592.got - 2010.06.03 14:40:33.
