data_PCOD9448322
_publ_section_title
;
Structure prediction by ZEFSAII (Michael W. Deem and Ramdas Pophale) SiO2 
 PCOD9448322
Probable space group: P M M N
;
_chemical_formula_sum "Si O2"
_cell_formula_units_Z 64
_cell_length_a 7.435855
_cell_length_b 19.275366
_cell_length_c 20.625751
_cell_angle_alpha 90.000000
_cell_angle_beta 90.000000
_cell_angle_gamma 90.000000
_cell_volume 2956.264690
_symmetry_space_group_name_H-M "P M M N"
_symmetry_group_IT_number 59
_space_group.IT_coordinate_system_code '2'
_symmetry_cell_setting 'orthorhombic'
loop_
_space_group_symop_operation_xyz
x,y,z
1/2-x,1/2-y,z
1/2+x,-y,-z
-x,1/2+y,-z
-x,-y,-z
1/2+x,1/2+y,-z
1/2-x,y,z
x,1/2-y,z
loop_
_atom_site_type_symbol
_atom_site_label
_atom_site_fract_x
_atom_site_fract_y
_atom_site_fract_z
Si Si1 0.037498 0.672202 0.021414
Si Si2 0.969583 0.076348 0.094528
Si Si3 0.965172 0.080480 0.484452
Si Si4 0.033181 0.074315 0.864234
Si Si5 0.030882 0.828957 0.783854
Si Si6 0.965876 0.171371 0.604573
Si Si7 0.029927 0.916512 0.661144
Si Si8 0.464385 0.435833 0.717252
O O1 0.250000 0.677180 0.008064
O O2 0.963240 0.750000 0.015700
O O3 0.016435 0.639814 0.092344
O O4 0.965980 0.617373 0.968781
O O5 0.750000 0.074605 0.093486
O O6 0.023019 0.120183 0.157989
O O7 0.029752 0.997040 0.101841
O O8 0.750000 0.089336 0.483042
O O9 0.035308 0.128675 0.542325
O O10 0.031652 0.096762 0.412086
O O11 0.000000 0.000000 0.500000
O O12 0.250000 0.072077 0.862529
O O13 0.967465 0.075497 0.790131
O O14 0.250000 0.828416 0.784377
O O15 0.971190 0.750000 0.793496
O O16 0.975139 0.860809 0.714993
O O17 0.750000 0.174617 0.598459
O O18 0.033722 0.250000 0.607314
O O19 0.002888 0.127582 0.669097
O O20 0.250000 0.916910 0.660117
O O21 0.969554 0.992601 0.685101
O O22 0.250000 0.444584 0.722957
#
# Coordination Sequence:
#
# PCOD9448322 Si02
#       8
#     8   8   8   8   8   8   8   8
#     4  10  21  35  51  74 105 137 169 208 255 308
#     4   9  16  30  50  74 103 134 167 206 252 304
#     4  10  19  32  53  76 102 135 170 208 251 300
#     4  10  20  34  55  78 102 132 171 218 259 302
#     4   9  15  24  44  75 106 132 159 198 253 307
#     4  10  22  37  52  76 109 140 173 216 263 307
#     4   9  16  28  47  73 102 130 163 206 251 299
#     4  10  19  34  55  77 102 134 174 216 257 304
#
# _framework density 21.648942000000002
#
# number of rings (size 3 to 8) (size 9 to 14) (size 15 to 20)
#    0.000    2.375    2.500    0.750    0.000    3.500 
#    0.000    5.000    0.000    0.000    0.000    0.000 
#    0.000    3.500    0.000    0.000    0.000    0.000 
#
# Total GULP energy -357581.415911 kJ/mol
# GULP energy per Si atom -5587.209624 kJ/mol
# Density = 2.159967 g / cm^3
# Si number density = 21.648942 Si / 1000 Ang^3
#
#
#
# Elastic Constant Matrix: (Units=GPa)
#
#
# Indices 1 2 3 4 5 6 
#
# 1 66.6848 -6.3933 -2.9915 0.0000 0.0000 0.0000
# 2 -6.3933 93.8470 34.0947 0.0000 0.0000 0.0000
# 3 -2.9915 34.0947 133.6711 0.0000 0.0000 0.0000
# 4 0.0000 0.0000 0.0000 29.6489 0.0000 0.0000
# 5 0.0000 0.0000 0.0000 0.0000 13.0982 0.0000
# 6 0.0000 0.0000 0.0000 0.0000 0.0000 10.1936
#
#
#
# Elastic Compliance Matrix: (Units=1/GPa)
#
#
# Indices 1 2 3 4 5 6 
#
# 1 0.015095 0.000998 0.000083 0.000000 0.000000 0.000000
# 2 0.000998 0.011810 -0.002990 0.000000 0.000000 0.000000
# 3 0.000083 -0.002990 0.008246 0.000000 0.000000 0.000000
# 4 0.000000 0.000000 0.000000 0.033728 0.000000 0.000000
# 5 0.000000 0.000000 0.000000 0.000000 0.076346 0.000000
# 6 0.000000 0.000000 0.000000 0.000000 0.000000 0.098100
#
#
# Mechanical properties :
#
#
# Convention : Reuss Voigt Hill
#
# Bulk Modulus (GPa) = 31.91462 38.18031 35.04746
# Shear Modulus (GPa) = 19.41091 28.55435 23.98263
#
# Velocity S-wave (km/s) = 2.99761 3.63571 3.33197
# Velocity P-wave (km/s) = 5.17250 5.94129 5.57017
#
# Compressibility (1/GPa) = 0.03133361
#
# Stress axis : x y z
#
# Youngs Moduli (GPa) = 66.24562 84.67481 121.27767
#
# Poissons Ratio (x) = -0.08452 -0.01010
# Poissons Ratio (y) = -0.06612 0.36261
# Poissons Ratio (z) = -0.00551 0.25317
#
# Static dielectric constant tensor:
#      x y z
#    x 1.872320 0.000000 0.000000 
#    y 0.000000 1.743250 0.000000 
#    z 0.000000 0.000000 1.766590 
# 
# From -- ./inp_files/29403.got.cif
#   From: 2010.05.17/outbox.cif.g08.bks.cpg/sg59_15_cif.got.tgz:29403.got - 2010.06.03 14:40:33.
