data_PCOD9448486
_publ_section_title
;
Structure prediction by ZEFSAII (Michael W. Deem and Ramdas Pophale) SiO2 
 PCOD9448486
Probable space group: P M M N
;
_chemical_formula_sum "Si O2"
_cell_formula_units_Z 64
_cell_length_a 9.093550
_cell_length_b 29.042806
_cell_length_c 15.811735
_cell_angle_alpha 90.000000
_cell_angle_beta 90.000000
_cell_angle_gamma 90.000000
_cell_volume 4175.914134
_symmetry_space_group_name_H-M "P M M N"
_symmetry_group_IT_number 59
_space_group.IT_coordinate_system_code '2'
_symmetry_cell_setting 'orthorhombic'
loop_
_space_group_symop_operation_xyz
x,y,z
1/2-x,1/2-y,z
1/2+x,-y,-z
-x,1/2+y,-z
-x,-y,-z
1/2+x,1/2+y,-z
1/2-x,y,z
x,1/2-y,z
loop_
_atom_site_type_symbol
_atom_site_label
_atom_site_fract_x
_atom_site_fract_y
_atom_site_fract_z
Si Si1 0.581123 0.305832 0.506715
Si Si2 0.925066 0.046518 0.901739
Si Si3 0.575147 0.450789 0.102142
Si Si4 0.426005 0.139988 0.165878
Si Si5 0.575263 0.804705 0.321431
Si Si6 0.572412 0.304170 0.316874
Si Si7 0.573958 0.146300 0.836243
Si Si8 0.574485 0.695884 0.005303
O O1 0.750000 0.320842 0.520066
O O2 0.582764 0.250000 0.504609
O O3 0.482157 0.319259 0.586006
O O4 0.532193 0.319450 0.412457
O O5 0.750000 0.037867 0.894162
O O6 0.962908 0.092556 0.850747
O O7 0.013509 0.001183 0.875794
O O8 0.954946 0.055546 0.001453
O O9 0.250000 0.551674 0.885444
O O10 0.494432 0.410293 0.151922
O O11 0.250000 0.137456 0.173516
O O12 0.495160 0.165662 0.245967
O O13 0.461043 0.169588 0.081521
O O14 0.750000 0.810245 0.315387
O O15 0.542172 0.750000 0.311093
O O16 0.495572 0.832785 0.248044
O O17 0.750000 0.307423 0.310392
O O18 0.534016 0.250000 0.306587
O O19 0.750000 0.150484 0.834079
O O20 0.511311 0.173922 0.916581
O O21 0.750000 0.691058 0.020297
O O22 0.541620 0.750000 0.997432
#
# Coordination Sequence:
#
# PCOD9448486 Si02
#       8
#     8   8   8   8   8   8   8   8
#     4   8  15  30  50  70  93 124 162 203 245 284
#     4   9  19  34  50  70  94 120 158 204 249 291
#     4  10  19  33  52  71  93 122 161 204 247 290
#     4  11  21  32  48  70  99 132 165 200 242 289
#     4  10  20  32  47  70 100 131 163 200 240 285
#     4   9  18  32  50  72  99 130 165 205 244 285
#     4  11  21  33  49  70  95 126 163 201 240 287
#     4  10  21  34  45  62  94 133 168 199 232 275
#
# _framework density 15.325984999999999
#
# number of rings (size 3 to 8) (size 9 to 14) (size 15 to 20)
#    0.000    2.250    1.250    3.000    0.000    5.750 
#    0.000    1.250    0.000    0.000    0.000    0.875 
#    0.000    0.000    0.000    0.000    0.000    0.000 
#
# Total GULP energy -357030.880597 kJ/mol
# GULP energy per Si atom -5578.607509 kJ/mol
# Density = 1.529110 g / cm^3
# Si number density = 15.325985 Si / 1000 Ang^3
#
#
#
# Elastic Constant Matrix: (Units=GPa)
#
#
# Indices 1 2 3 4 5 6 
#
# 1 53.1560 57.1868 63.2876 0.0000 0.0000 0.0000
# 2 57.1868 104.6195 71.3591 0.0000 0.0000 0.0000
# 3 63.2876 71.3591 130.5190 0.0000 0.0000 0.0000
# 4 0.0000 0.0000 0.0000 4.8730 0.0000 0.0000
# 5 0.0000 0.0000 0.0000 0.0000 25.7774 0.0000
# 6 0.0000 0.0000 0.0000 0.0000 0.0000 25.4972
#
#
#
# Elastic Compliance Matrix: (Units=1/GPa)
#
#
# Indices 1 2 3 4 5 6 
#
# 1 0.068059 -0.023430 -0.020191 0.000000 0.000000 0.000000
# 2 -0.023430 0.023309 -0.001383 0.000000 0.000000 0.000000
# 3 -0.020191 -0.001383 0.018208 0.000000 0.000000 0.000000
# 4 0.000000 0.000000 0.000000 0.205212 0.000000 0.000000
# 5 0.000000 0.000000 0.000000 0.000000 0.038794 0.000000
# 6 0.000000 0.000000 0.000000 0.000000 0.000000 0.039220
#
#
# Mechanical properties :
#
#
# Convention : Reuss Voigt Hill
#
# Bulk Modulus (GPa) = 51.10362 74.66240 62.88301
# Shear Modulus (GPa) = 10.21800 17.66026 13.93913
#
# Velocity S-wave (km/s) = 2.58488 3.39825 3.01908
# Velocity P-wave (km/s) = 6.50581 8.01370 7.29880
#
# Compressibility (1/GPa) = 0.01956808
#
# Stress axis : x y z
#
# Youngs Moduli (GPa) = 14.69313 42.90222 54.92026
#
# Poissons Ratio (x) = 1.00520 1.10891
# Poissons Ratio (y) = 0.34426 0.07594
# Poissons Ratio (z) = 0.29667 0.05932
#
# Static dielectric constant tensor:
#      x y z
#    x 1.508160 0.000000 0.000000 
#    y 0.000000 1.489780 0.000000 
#    z 0.000000 0.000000 1.495310 
# 
# From -- ./inp_files/21818.got.cif
#   From: 2010.05.17/outbox.cif.g08.bks.cpg/sg59_11_cif.got.tgz:21818.got - 2010.06.03 14:40:33.
