data_PCOD9448577
_publ_section_title
;
Structure prediction by ZEFSAII (Michael W. Deem and Ramdas Pophale) SiO2 
 PCOD9448577
Probable space group: P M M N
;
_chemical_formula_sum "Si O2"
_cell_formula_units_Z 48
_cell_length_a 7.474456
_cell_length_b 19.621921
_cell_length_c 13.422003
_cell_angle_alpha 90.000000
_cell_angle_beta 90.000000
_cell_angle_gamma 90.000000
_cell_volume 1968.513711
_symmetry_space_group_name_H-M "P M M N"
_symmetry_group_IT_number 59
_space_group.IT_coordinate_system_code '2'
_symmetry_cell_setting 'orthorhombic'
loop_
_space_group_symop_operation_xyz
x,y,z
1/2-x,1/2-y,z
1/2+x,-y,-z
-x,1/2+y,-z
-x,-y,-z
1/2+x,1/2+y,-z
1/2-x,y,z
x,1/2-y,z
loop_
_atom_site_type_symbol
_atom_site_label
_atom_site_fract_x
_atom_site_fract_y
_atom_site_fract_z
Si Si1 0.467572 0.387506 0.100834
Si Si2 0.954727 0.831647 0.688525
Si Si3 0.531476 0.026932 0.822182
Si Si4 0.964317 0.036473 0.604148
Si Si5 0.956463 0.174800 0.533976
Si Si6 0.042551 0.673817 0.108690
O O1 0.250000 0.384007 0.097231
O O2 0.526922 0.358634 0.207650
O O3 0.524678 0.466743 0.103332
O O4 0.535240 0.343313 0.008990
O O5 0.750000 0.856920 0.679498
O O6 0.953081 0.750000 0.696351
O O7 0.042425 0.846399 0.582457
O O8 0.750000 0.028317 0.827179
O O9 0.477270 0.006270 0.709591
O O10 0.467181 0.103634 0.844604
O O11 0.750000 0.040122 0.610718
O O12 0.037961 0.113203 0.594856
O O13 0.000000 0.000000 0.500000
O O14 0.750000 0.180394 0.564696
O O15 0.038133 0.250000 0.542550
O O16 0.250000 0.676659 0.140576
O O17 0.967120 0.750000 0.127716
#
# Coordination Sequence:
#
# PCOD9448577 Si02
#       6
#     8   8   8   8   8   8
#     4  10  19  33  54  76 100 132 170 211 253 300
#     4   9  17  29  47  72 101 134 169 205 251 305
#     4   9  19  35  54  76 102 134 170 207 251 303
#     4  10  20  35  55  77 103 135 171 211 252 298
#     4   9  18  31  48  73 102 131 166 209 255 299
#     4  10  21  36  54  77 104 134 169 208 251 301
#
# _framework density 24.383877999999999
#
# number of rings (size 3 to 8) (size 9 to 14) (size 15 to 20)
#    0.000    2.500    0.000    2.000    0.000    4.333 
#    0.000    6.667    0.000    0.000    0.000    2.333 
#    0.000    0.000    0.000    0.000    0.000    0.000 
#
# Total GULP energy -268002.264783 kJ/mol
# GULP energy per Si atom -5583.380516 kJ/mol
# Density = 2.432838 g / cm^3
# Si number density = 24.383878 Si / 1000 Ang^3
#
#
#
# Elastic Constant Matrix: (Units=GPa)
#
#
# Indices 1 2 3 4 5 6 
#
# 1 69.9304 -1.2524 -11.7960 0.0000 0.0000 0.0000
# 2 -1.2524 82.9476 -7.6883 0.0000 0.0000 0.0000
# 3 -11.7960 -7.6883 27.7133 0.0000 0.0000 0.0000
# 4 0.0000 0.0000 0.0000 45.1631 0.0000 0.0000
# 5 0.0000 0.0000 0.0000 0.0000 -62.5187 0.0000
# 6 0.0000 0.0000 0.0000 0.0000 0.0000 4.4940
#
#
#
# Elastic Compliance Matrix: (Units=1/GPa)
#
#
# Indices 1 2 3 4 5 6 
#
# 1 0.015466 0.000866 0.006823 0.000000 0.000000 0.000000
# 2 0.000866 0.012422 0.003815 0.000000 0.000000 0.000000
# 3 0.006823 0.003815 0.040046 0.000000 0.000000 0.000000
# 4 0.000000 0.000000 0.000000 0.022142 0.000000 0.000000
# 5 0.000000 0.000000 0.000000 0.000000 -0.015995 0.000000
# 6 0.000000 0.000000 0.000000 0.000000 0.000000 0.222517
#
#
# Mechanical properties :
#
#
# Convention : Reuss Voigt Hill
#
# Bulk Modulus (GPa) = 10.99581 15.45756 13.22668
# Shear Modulus (GPa) = 16.45251 10.84955 13.65103
#
# Velocity S-wave (km/s) = 2.60037 2.11167 2.36866
# Velocity P-wave (km/s) = 3.67902 3.50693 3.59400
#
# Compressibility (1/GPa) = 0.09094377
#
# Stress axis : x y z
#
# Youngs Moduli (GPa) = 64.65619 80.49923 24.97105
#
# Poissons Ratio (x) = -0.06971 -0.17039
# Poissons Ratio (y) = -0.05599 -0.09526
# Poissons Ratio (z) = -0.44118 -0.30709
#
# Static dielectric constant tensor:
#      x y z
#    x 1.969920 0.000000 0.000000 
#    y 0.000000 1.975050 0.000000 
#    z 0.000000 0.000000 1.902450 
# 
# From -- ./inp_files/20424.got.cif
#   From: 2010.05.17/outbox.cif.g08.bks.cpg/sg59_11_cif.got.tgz:20424.got - 2010.06.03 14:40:33.
