data_PCOD9448901
_publ_section_title
;
Structure prediction by ZEFSAII (Michael W. Deem and Ramdas Pophale) SiO2 
 PCOD9448901
Probable space group: P M M N
;
_chemical_formula_sum "Si O2"
_cell_formula_units_Z 48
_cell_length_a 9.004307
_cell_length_b 18.170388
_cell_length_c 16.320701
_cell_angle_alpha 90.000000
_cell_angle_beta 90.000000
_cell_angle_gamma 90.000000
_cell_volume 2670.258482
_symmetry_space_group_name_H-M "P M M N"
_symmetry_group_IT_number 59
_space_group.IT_coordinate_system_code '2'
_symmetry_cell_setting 'orthorhombic'
loop_
_space_group_symop_operation_xyz
x,y,z
1/2-x,1/2-y,z
1/2+x,-y,-z
-x,1/2+y,-z
-x,-y,-z
1/2+x,1/2+y,-z
1/2-x,y,z
x,1/2-y,z
loop_
_atom_site_type_symbol
_atom_site_label
_atom_site_fract_x
_atom_site_fract_y
_atom_site_fract_z
Si Si1 0.576306 0.887163 0.020909
Si Si2 0.070734 0.890582 0.402103
Si Si3 0.424335 0.964312 0.872948
Si Si4 0.572360 0.250000 0.893256
Si Si5 0.071131 0.461297 0.304796
Si Si6 0.069787 0.750000 0.294290
Si Si7 0.571049 0.835764 0.569370
O O1 0.750000 0.869623 0.013508
O O2 0.487574 0.820953 0.060621
O O3 0.560903 0.957027 0.081577
O O4 0.510077 0.908782 0.932925
O O5 0.250000 0.889015 0.410109
O O6 0.024642 0.823528 0.342366
O O7 0.999047 0.873760 0.489574
O O8 0.030065 0.968614 0.361595
O O9 0.250000 0.946229 0.869218
O O10 0.493705 0.966455 0.782945
O O11 0.750000 0.250000 0.892458
O O12 0.518270 0.250000 0.799139
O O13 0.250000 0.463936 0.293684
O O14 0.032857 0.386064 0.352417
O O15 0.250000 0.750000 0.293194
O O16 0.750000 0.837059 0.561374
O O17 0.524653 0.750000 0.575265
#
# Coordination Sequence:
#
# PCOD9448901 Si02
#       7
#     8   8   8   4   8   4   8
#     4  10  21  38  59  83 116 152 186 231 289 342
#     4  10  19  34  56  80 108 144 187 230 280 336
#     4  10  21  38  60  85 112 147 192 237 282 338
#     4  11  21  35  57  86 117 150 189 231 278 339
#     4  10  21  36  56  81 110 147 189 233 282 341
#     4   9  18  31  51  80 111 140 175 227 284 333
#     4  10  21  37  54  77 111 149 186 229 284 337
#
# _framework density 17.975787
#
# number of rings (size 3 to 8) (size 9 to 14) (size 15 to 20)
#    0.000    2.000    0.833    2.750    0.000    4.667 
#    1.500    1.667    0.000    0.000    0.000    0.000 
#    0.000    0.000    0.000    0.000    0.000    0.000 
#
# Total GULP energy -268015.543438 kJ/mol
# GULP energy per Si atom -5583.657155 kJ/mol
# Density = 1.793487 g / cm^3
# Si number density = 17.975787 Si / 1000 Ang^3
#
#
#
# Elastic Constant Matrix: (Units=GPa)
#
#
# Indices 1 2 3 4 5 6 
#
# 1 55.1370 38.0913 54.3569 0.0000 0.0000 0.0000
# 2 38.0913 60.2114 61.9546 0.0000 0.0000 0.0000
# 3 54.3569 61.9546 127.5081 0.0000 0.0000 0.0000
# 4 0.0000 0.0000 0.0000 19.8069 0.0000 0.0000
# 5 0.0000 0.0000 0.0000 0.0000 34.9145 0.0000
# 6 0.0000 0.0000 0.0000 0.0000 0.0000 17.3707
#
#
#
# Elastic Compliance Matrix: (Units=1/GPa)
#
#
# Indices 1 2 3 4 5 6 
#
# 1 0.036452 -0.014141 -0.008669 0.000000 0.000000 0.000000
# 2 -0.014141 0.038699 -0.012775 0.000000 0.000000 0.000000
# 3 -0.008669 -0.012775 0.017745 0.000000 0.000000 0.000000
# 4 0.000000 0.000000 0.000000 0.050487 0.000000 0.000000
# 5 0.000000 0.000000 0.000000 0.000000 0.028641 0.000000
# 6 0.000000 0.000000 0.000000 0.000000 0.000000 0.057568
#
#
# Mechanical properties :
#
#
# Convention : Reuss Voigt Hill
#
# Bulk Modulus (GPa) = 46.02550 61.29580 53.66065
# Shear Modulus (GPa) = 16.23356 20.31535 18.27445
#
# Velocity S-wave (km/s) = 3.00839 3.36542 3.19190
# Velocity P-wave (km/s) = 6.14223 7.01958 6.59551
#
# Compressibility (1/GPa) = 0.02172709
#
# Stress axis : x y z
#
# Youngs Moduli (GPa) = 27.43356 25.84057 56.35276
#
# Poissons Ratio (x) = 0.36540 0.48850
# Poissons Ratio (y) = 0.38793 0.71991
# Poissons Ratio (z) = 0.23781 0.33012
#
# Static dielectric constant tensor:
#      x y z
#    x 1.599290 0.000000 0.000000 
#    y 0.000000 1.616770 0.000000 
#    z 0.000000 0.000000 1.579210 
# 
# From -- ./inp_files/20610.got.cif
#   From: 2010.05.17/outbox.cif.g08.bks.cpg/sg59_11_cif.got.tgz:20610.got - 2010.06.03 14:40:33.
