data_PCOD9448699
_publ_section_title
;
Structure prediction by ZEFSAII (Michael W. Deem and Ramdas Pophale) SiO2 
 PCOD9448699
Probable space group: P M M N
;
_chemical_formula_sum "Si O2"
_cell_formula_units_Z 56
_cell_length_a 7.578972
_cell_length_b 17.383219
_cell_length_c 19.887386
_cell_angle_alpha 90.000000
_cell_angle_beta 90.000000
_cell_angle_gamma 90.000000
_cell_volume 2620.102053
_symmetry_space_group_name_H-M "P M M N"
_symmetry_group_IT_number 59
_space_group.IT_coordinate_system_code '2'
_symmetry_cell_setting 'orthorhombic'
loop_
_space_group_symop_operation_xyz
x,y,z
1/2-x,1/2-y,z
1/2+x,-y,-z
-x,1/2+y,-z
-x,-y,-z
1/2+x,1/2+y,-z
1/2-x,y,z
x,1/2-y,z
loop_
_atom_site_type_symbol
_atom_site_label
_atom_site_fract_x
_atom_site_fract_y
_atom_site_fract_z
Si Si1 0.037177 0.161893 0.021358
Si Si2 0.459440 0.900945 0.123379
Si Si3 0.466473 0.428529 0.154479
Si Si4 0.537367 0.662345 0.713712
Si Si5 0.036827 0.750000 0.199807
Si Si6 0.045540 0.098449 0.571731
Si Si7 0.461253 0.250000 0.642801
Si Si8 0.040661 0.573869 0.577217
O O1 0.250000 0.164428 0.023246
O O2 0.973277 0.250000 0.015758
O O3 0.977940 0.121132 0.089802
O O4 0.985998 0.114217 0.955523
O O5 0.250000 0.902911 0.135953
O O6 0.530866 0.826999 0.163274
O O7 0.528395 0.983752 0.146284
O O8 0.250000 0.428991 0.154302
O O9 0.524581 0.388580 0.223395
O O10 0.750000 0.664833 0.717916
O O11 0.472586 0.750000 0.717779
O O12 0.491470 0.623618 0.643040
O O13 0.250000 0.750000 0.193113
O O14 0.992238 0.750000 0.277985
O O15 0.250000 0.094042 0.592895
O O16 0.966660 0.171852 0.609311
O O17 0.037038 0.108476 0.491281
O O18 0.969557 0.013446 0.585915
O O19 0.250000 0.250000 0.630064
O O20 0.250000 0.568574 0.565385
#
# Coordination Sequence:
#
# PCOD9448699 Si02
#       8
#     8   8   8   8   4   8   4   8
#     4  10  19  33  55  81 107 137 179 228 268 312
#     4  10  20  36  55  77 108 144 179 218 268 328
#     4   9  19  35  56  79 105 140 184 226 267 318
#     4  10  21  37  58  81 107 144 185 227 275 327
#     4  10  22  36  52  80 113 144 177 218 273 332
#     4   9  20  39  59  83 112 147 185 223 270 325
#     4  10  22  38  60  84 111 144 185 228 267 316
#     4  10  21  37  58  84 115 145 180 227 274 325
#
# _framework density 21.373214000000001
#
# number of rings (size 3 to 8) (size 9 to 14) (size 15 to 20)
#    0.000    2.286    0.714    1.286    3.000    3.714 
#    0.000    1.429    0.000    1.714    0.000    0.000 
#    0.000    0.000    0.000    0.000    0.000    0.000 
#
# Total GULP energy -312864.873578 kJ/mol
# GULP energy per Si atom -5586.872742 kJ/mol
# Density = 2.132457 g / cm^3
# Si number density = 21.373214 Si / 1000 Ang^3
#
#
#
# Elastic Constant Matrix: (Units=GPa)
#
#
# Indices 1 2 3 4 5 6 
#
# 1 47.0336 0.8665 -19.7065 0.0000 0.0000 0.0000
# 2 0.8665 138.5350 79.6216 0.0000 0.0000 0.0000
# 3 -19.7065 79.6216 121.2430 0.0000 0.0000 0.0000
# 4 0.0000 0.0000 0.0000 28.4201 0.0000 0.0000
# 5 0.0000 0.0000 0.0000 0.0000 17.7039 0.0000
# 6 0.0000 0.0000 0.0000 0.0000 0.0000 1.3360
#
#
#
# Elastic Compliance Matrix: (Units=1/GPa)
#
#
# Indices 1 2 3 4 5 6 
#
# 1 0.024027 -0.003847 0.006431 0.000000 0.000000 0.000000
# 2 -0.003847 0.012210 -0.008644 0.000000 0.000000 0.000000
# 3 0.006431 -0.008644 0.014970 0.000000 0.000000 0.000000
# 4 0.000000 0.000000 0.000000 0.035186 0.000000 0.000000
# 5 0.000000 0.000000 0.000000 0.000000 0.056485 0.000000
# 6 0.000000 0.000000 0.000000 0.000000 0.000000 0.748518
#
#
# Mechanical properties :
#
#
# Convention : Reuss Voigt Hill
#
# Bulk Modulus (GPa) = 25.58278 47.59719 36.58999
# Shear Modulus (GPa) = 5.45527 25.89400 15.67464
#
# Velocity S-wave (km/s) = 1.59935 3.48446 2.71103
# Velocity P-wave (km/s) = 3.92506 6.20536 5.19195
#
# Compressibility (1/GPa) = 0.03908879
#
# Stress axis : x y z
#
# Youngs Moduli (GPa) = 41.61995 81.89676 66.80100
#
# Poissons Ratio (x) = 0.31503 -0.42962
# Poissons Ratio (y) = 0.16010 0.57743
# Poissons Ratio (z) = -0.26768 0.70791
#
# Static dielectric constant tensor:
#      x y z
#    x 1.823110 0.000000 0.000000 
#    y 0.000000 1.777870 0.000000 
#    z 0.000000 0.000000 1.704300 
# 
# From -- ./inp_files/29211.got.cif
#   From: 2010.05.17/outbox.cif.g08.bks.cpg/sg59_15_cif.got.tgz:29211.got - 2010.06.03 14:40:33.
