data_PCOD9448018
_publ_section_title
;
Structure prediction by ZEFSAII (Michael W. Deem and Ramdas Pophale) SiO2 
 PCOD9448018
Probable space group: P M M N
;
_chemical_formula_sum "Si O2"
_cell_formula_units_Z 56
_cell_length_a 12.992474
_cell_length_b 13.659427
_cell_length_c 12.255879
_cell_angle_alpha 90.000000
_cell_angle_beta 90.000000
_cell_angle_gamma 90.000000
_cell_volume 2175.047784
_symmetry_space_group_name_H-M "P M M N"
_symmetry_group_IT_number 59
_space_group.IT_coordinate_system_code '2'
_symmetry_cell_setting 'orthorhombic'
loop_
_space_group_symop_operation_xyz
x,y,z
1/2-x,1/2-y,z
1/2+x,-y,-z
-x,1/2+y,-z
-x,-y,-z
1/2+x,1/2+y,-z
1/2-x,y,z
x,1/2-y,z
loop_
_atom_site_type_symbol
_atom_site_label
_atom_site_fract_x
_atom_site_fract_y
_atom_site_fract_z
Si Si1 0.626148 0.547530 0.104507
Si Si2 0.919393 0.645564 0.316505
Si Si3 0.133623 0.642348 0.248003
Si Si4 0.875372 0.138920 0.251924
Si Si5 0.371687 0.064576 0.138923
Si Si6 0.365271 0.529001 0.540482
Si Si7 0.875992 0.861347 0.626639
O O1 0.750000 0.543662 0.099338
O O2 0.593005 0.631572 0.187986
O O3 0.593780 0.445137 0.163589
O O4 0.588089 0.572984 0.983672
O O5 0.879964 0.750000 0.351778
O O6 0.860962 0.557590 0.369718
O O7 0.042403 0.639347 0.336859
O O8 0.250000 0.635939 0.290592
O O9 0.124509 0.750000 0.195567
O O10 0.120461 0.550320 0.169901
O O11 0.750000 0.134536 0.254057
O O12 0.902558 0.250000 0.221632
O O13 0.906696 0.114630 0.378611
O O14 0.250000 0.089200 0.132887
O O15 0.407243 0.122040 0.246978
O O16 0.250000 0.559043 0.508609
O O17 0.407949 0.458549 0.442974
O O18 0.750000 0.865259 0.622049
O O19 0.903453 0.750000 0.592889
#
# Coordination Sequence:
#
# PCOD9448018 Si02
#       7
#     8   8   8   8   8   8   8
#     4   9  18  30  48  79 114 145 178 219 271 334
#     4  10  19  31  51  78 107 140 177 222 279 336
#     4   9  19  36  55  74  99 136 185 235 278 325
#     4   8  14  26  45  70 104 146 185 222 269 323
#     4   9  18  33  51  72 102 142 185 226 269 319
#     4   9  17  30  50  79 112 143 178 221 271 331
#     4   9  17  30  50  75 105 145 187 223 267 329
#
# _framework density 25.746559999999999
#
# number of rings (size 3 to 8) (size 9 to 14) (size 15 to 20)
#    0.000    3.000    0.000    1.714    0.000    3.429 
#    0.000    5.714    0.000    7.714    0.000    0.000 
#    0.000    1.143    0.000    7.571    0.000    0.000 
#
# Total GULP energy -312626.530197 kJ/mol
# GULP energy per Si atom -5582.616611 kJ/mol
# Density = 2.568796 g / cm^3
# Si number density = 25.746560 Si / 1000 Ang^3
#
#
#
# Elastic Constant Matrix: (Units=GPa)
#
#
# Indices 1 2 3 4 5 6 
#
# 1 75.3370 -10.8984 13.8310 0.0000 0.0000 0.0000
# 2 -10.8984 149.6636 60.4672 0.0000 0.0000 0.0000
# 3 13.8310 60.4672 163.8221 0.0000 0.0000 0.0000
# 4 0.0000 0.0000 0.0000 -3.1015 0.0000 0.0000
# 5 0.0000 0.0000 0.0000 0.0000 32.4847 0.0000
# 6 0.0000 0.0000 0.0000 0.0000 0.0000 21.2532
#
#
#
# Elastic Compliance Matrix: (Units=1/GPa)
#
#
# Indices 1 2 3 4 5 6 
#
# 1 0.013858 0.001742 -0.001813 0.000000 0.000000 0.000000
# 2 0.001742 0.008072 -0.003126 0.000000 0.000000 0.000000
# 3 -0.001813 -0.003126 0.007411 0.000000 0.000000 0.000000
# 4 0.000000 0.000000 0.000000 -0.322428 0.000000 0.000000
# 5 0.000000 0.000000 0.000000 0.000000 0.030784 0.000000
# 6 0.000000 0.000000 0.000000 0.000000 0.000000 0.047052
#
#
# Mechanical properties :
#
#
# Convention : Reuss Voigt Hill
#
# Bulk Modulus (GPa) = 43.58039 57.29136 50.43587
# Shear Modulus (GPa) = -24.84999 31.82215 3.48608
#
# Velocity S-wave (km/s) = -3.11010 3.51946 1.16488
# Velocity P-wave (km/s) = 2.01655 6.23023 4.63046
#
# Compressibility (1/GPa) = 0.02294610
#
# Stress axis : x y z
#
# Youngs Moduli (GPa) = 72.15812 123.89192 134.93179
#
# Poissons Ratio (x) = -0.21577 0.24461
# Poissons Ratio (y) = -0.12567 0.42183
# Poissons Ratio (z) = 0.13081 0.38732
#
# Static dielectric constant tensor:
#      x y z
#    x 2.181660 0.000000 0.000000 
#    y 0.000000 1.922290 0.000000 
#    z 0.000000 0.000000 2.074850 
# 
# From -- ./inp_files/16929.got.cif
#   From: 2010.05.17/outbox.cif.g08.bks.cpg/sg59_9_cif.got.tgz:16929.got - 2010.06.03 14:40:33.
