data_PCOD9448983
_publ_section_title
;
Structure prediction by ZEFSAII (Michael W. Deem and Ramdas Pophale) SiO2 
 PCOD9448983
Probable space group: P M M N
;
_chemical_formula_sum "Si O2"
_cell_formula_units_Z 64
_cell_length_a 14.737575
_cell_length_b 23.303109
_cell_length_c 9.503583
_cell_angle_alpha 90.000000
_cell_angle_beta 90.000000
_cell_angle_gamma 90.000000
_cell_volume 3263.828022
_symmetry_space_group_name_H-M "P M M N"
_symmetry_group_IT_number 59
_space_group.IT_coordinate_system_code '2'
_symmetry_cell_setting 'orthorhombic'
loop_
_space_group_symop_operation_xyz
x,y,z
1/2-x,1/2-y,z
1/2+x,-y,-z
-x,1/2+y,-z
-x,-y,-z
1/2+x,1/2+y,-z
1/2-x,y,z
x,1/2-y,z
loop_
_atom_site_type_symbol
_atom_site_label
_atom_site_fract_x
_atom_site_fract_y
_atom_site_fract_z
Si Si1 0.533910 0.981346 0.348803
Si Si2 0.642287 0.093643 0.347207
Si Si3 0.090837 0.988251 0.086877
Si Si4 0.146690 0.634054 0.964565
Si Si5 0.510973 0.639424 0.439575
Si Si6 0.352334 0.385095 0.042350
Si Si7 0.488803 0.185706 0.862762
Si Si8 0.143333 0.316592 0.321947
O O1 0.448047 0.982344 0.244190
O O2 0.561969 0.916167 0.374077
O O3 0.500000 0.000000 0.500000
O O4 0.609100 0.028616 0.310861
O O5 0.750000 0.094418 0.380805
O O6 0.577575 0.118633 0.470936
O O7 0.627277 0.128196 0.201904
O O8 0.134799 0.929622 0.032848
O O9 0.145848 0.046484 0.062904
O O10 0.000000 0.000000 0.000000
O O11 0.250000 0.652373 0.982070
O O12 0.077849 0.675075 0.044253
O O13 0.488973 0.676040 0.301301
O O14 0.578540 0.669896 0.547675
O O15 0.250000 0.365997 0.013258
O O16 0.381698 0.356815 0.190415
O O17 0.418697 0.361412 0.923031
O O18 0.452929 0.250000 0.883607
O O19 0.250000 0.326873 0.355331
O O20 0.134067 0.250000 0.281191
#
# Coordination Sequence:
#
# PCOD9448983 Si02
#       8
#     8   8   8   8   8   8   8   8
#     4  10  19  34  57  88 125 162 197 247 308 376
#     4  10  22  39  62  90 123 163 206 252 310 373
#     4  12  19  38  63  92 128 163 200 255 316 378
#     4  11  23  41  65  93 125 163 210 263 315 372
#     4  11  22  40  61  88 125 167 207 254 311 369
#     4  11  23  40  66  97 126 162 208 258 316 377
#     4  12  25  42  64  91 126 167 209 259 314 369
#     4  10  22  41  64  89 120 162 214 263 306 366
#
# _framework density 19.608875999999999
#
# number of rings (size 3 to 8) (size 9 to 14) (size 15 to 20)
#    0.000    1.125    3.750    3.375    0.000    2.500 
#    0.000    2.500    0.000    2.625    0.000    0.000 
#    0.000    0.000    0.000    0.000    0.000    0.000 
#
# Total GULP energy -357252.314454 kJ/mol
# GULP energy per Si atom -5582.067413 kJ/mol
# Density = 1.956425 g / cm^3
# Si number density = 19.608876 Si / 1000 Ang^3
#
#
#
# Elastic Constant Matrix: (Units=GPa)
#
#
# Indices 1 2 3 4 5 6 
#
# 1 69.2165 -14.3383 30.9975 0.0000 0.0000 0.0000
# 2 -14.3383 50.6683 0.9041 0.0000 0.0000 0.0000
# 3 30.9975 0.9041 108.3054 0.0000 0.0000 0.0000
# 4 0.0000 0.0000 0.0000 19.4132 0.0000 0.0000
# 5 0.0000 0.0000 0.0000 0.0000 14.5489 0.0000
# 6 0.0000 0.0000 0.0000 0.0000 0.0000 25.1212
#
#
#
# Elastic Compliance Matrix: (Units=1/GPa)
#
#
# Indices 1 2 3 4 5 6 
#
# 1 0.017813 0.005133 -0.005141 0.000000 0.000000 0.000000
# 2 0.005133 0.021218 -0.001646 0.000000 0.000000 0.000000
# 3 -0.005141 -0.001646 0.010718 0.000000 0.000000 0.000000
# 4 0.000000 0.000000 0.000000 0.051511 0.000000 0.000000
# 5 0.000000 0.000000 0.000000 0.000000 0.068734 0.000000
# 6 0.000000 0.000000 0.000000 0.000000 0.000000 0.039807
#
#
# Mechanical properties :
#
#
# Convention : Reuss Voigt Hill
#
# Bulk Modulus (GPa) = 21.53311 29.25741 25.39526
# Shear Modulus (GPa) = 21.87318 25.85846 23.86582
#
# Velocity S-wave (km/s) = 3.34349 3.63535 3.49247
# Velocity P-wave (km/s) = 5.09023 5.70735 5.40760
#
# Compressibility (1/GPa) = 0.04644010
#
# Stress axis : x y z
#
# Youngs Moduli (GPa) = 56.13891 47.12986 93.29867
#
# Poissons Ratio (x) = -0.24189 0.47965
# Poissons Ratio (y) = -0.28813 0.15358
# Poissons Ratio (z) = 0.28861 0.07758
#
# Static dielectric constant tensor:
#      x y z
#    x 1.659010 0.000000 0.000000 
#    y 0.000000 1.716660 0.000000 
#    z 0.000000 0.000000 1.692270 
# 
# From -- ./inp_files/9564.got.cif
#   From: 2010.05.17/outbox.cif.g08.bks.cpg/sg59_5_cif.got.tgz:9564.got - 2010.06.03 14:40:33.
