data_PCOD9448136
_publ_section_title
;
Structure prediction by ZEFSAII (Michael W. Deem and Ramdas Pophale) SiO2 
 PCOD9448136
Probable space group: P M M N
;
_chemical_formula_sum "Si O2"
_cell_formula_units_Z 64
_cell_length_a 8.819748
_cell_length_b 20.067500
_cell_length_c 20.768829
_cell_angle_alpha 90.000000
_cell_angle_beta 90.000000
_cell_angle_gamma 90.000000
_cell_volume 3675.881130
_symmetry_space_group_name_H-M "P M M N"
_symmetry_group_IT_number 59
_space_group.IT_coordinate_system_code '2'
_symmetry_cell_setting 'orthorhombic'
loop_
_space_group_symop_operation_xyz
x,y,z
1/2-x,1/2-y,z
1/2+x,-y,-z
-x,1/2+y,-z
-x,-y,-z
1/2+x,1/2+y,-z
1/2-x,y,z
x,1/2-y,z
loop_
_atom_site_type_symbol
_atom_site_label
_atom_site_fract_x
_atom_site_fract_y
_atom_site_fract_z
Si Si1 0.434711 0.175448 0.657421
Si Si2 0.566692 0.436104 0.261727
Si Si3 0.566377 0.327655 0.890636
Si Si4 0.923875 0.169227 0.034071
Si Si5 0.432275 0.095672 0.536209
Si Si6 0.930626 0.827465 0.831990
Si Si7 0.066552 0.415876 0.776870
Si Si8 0.932174 0.050475 0.409237
O O1 0.250000 0.175155 0.657302
O O2 0.486069 0.250000 0.672523
O O3 0.482063 0.151823 0.586551
O O4 0.480790 0.123457 0.712169
O O5 0.750000 0.433885 0.261276
O O6 0.503149 0.375227 0.220850
O O7 0.521193 0.507066 0.230592
O O8 0.517264 0.435059 0.336567
O O9 0.750000 0.328690 0.889519
O O10 0.520096 0.250000 0.879890
O O11 0.500823 0.376446 0.837147
O O12 0.519549 0.349527 0.962925
O O13 0.750000 0.146413 0.042077
O O14 0.921198 0.250000 0.032417
O O15 0.018827 0.150017 0.096474
O O16 0.250000 0.097492 0.530692
O O17 0.501943 0.096807 0.465341
O O18 0.473296 0.025001 0.569741
O O19 0.750000 0.829740 0.827369
O O20 0.979252 0.750000 0.824016
O O21 0.250000 0.413627 0.780368
O O22 0.750000 0.054229 0.410290
#
# Coordination Sequence:
#
# PCOD9448136 Si02
#       8
#     8   8   8   8   8   8   8   8
#     4   9  16  28  48  73 102 135 169 207 250 294
#     4  10  20  35  54  75 103 137 172 209 251 307
#     4   9  18  32  50  75 107 140 173 210 252 300
#     4   8  15  31  54  75  98 133 172 205 247 307
#     4   9  16  29  49  72  96 125 166 208 246 293
#     4  10  21  36  55  80 104 124 159 214 265 310
#     4  10  19  32  50  75 103 135 177 216 246 291
#     4   9  17  31  50  71  96 126 164 209 248 290
#
# _framework density 17.410789999999999
#
# number of rings (size 3 to 8) (size 9 to 14) (size 15 to 20)
#    0.000    2.750    1.250    1.500    0.000    3.000 
#    0.000    3.125    0.000    3.375    0.000    0.000 
#    0.000    0.000    0.000    0.000    0.000    0.000 
#
# Total GULP energy -356649.851627 kJ/mol
# GULP energy per Si atom -5572.653932 kJ/mol
# Density = 1.737116 g / cm^3
# Si number density = 17.410790 Si / 1000 Ang^3
#
#
#
# Elastic Constant Matrix: (Units=GPa)
#
#
# Indices 1 2 3 4 5 6 
#
# 1 10.4031 23.3270 32.8281 0.0000 0.0000 0.0000
# 2 23.3270 86.6517 69.1759 0.0000 0.0000 0.0000
# 3 32.8281 69.1759 162.9699 0.0000 0.0000 0.0000
# 4 0.0000 0.0000 0.0000 29.3377 0.0000 0.0000
# 5 0.0000 0.0000 0.0000 0.0000 31.6207 0.0000
# 6 0.0000 0.0000 0.0000 0.0000 0.0000 20.5129
#
#
#
# Elastic Compliance Matrix: (Units=1/GPa)
#
#
# Indices 1 2 3 4 5 6 
#
# 1 0.444354 -0.072852 -0.058586 0.000000 0.000000 0.000000
# 2 -0.072852 0.029400 0.002196 0.000000 0.000000 0.000000
# 3 -0.058586 0.002196 0.017005 0.000000 0.000000 0.000000
# 4 0.000000 0.000000 0.000000 0.034086 0.000000 0.000000
# 5 0.000000 0.000000 0.000000 0.000000 0.031625 0.000000
# 6 0.000000 0.000000 0.000000 0.000000 0.000000 0.048750
#
#
# Mechanical properties :
#
#
# Convention : Reuss Voigt Hill
#
# Bulk Modulus (GPa) = 4.30523 56.74298 30.52410
# Shear Modulus (GPa) = 5.31277 25.27385 15.29331
#
# Velocity S-wave (km/s) = 1.74873 3.81415 2.96696
# Velocity P-wave (km/s) = 2.56037 7.21515 5.41359
#
# Compressibility (1/GPa) = 0.23227567
#
# Stress axis : x y z
#
# Youngs Moduli (GPa) = 2.25046 34.01418 58.80494
#
# Poissons Ratio (x) = 2.47799 3.44513
# Poissons Ratio (y) = 0.16395 -0.12912
# Poissons Ratio (z) = 0.13184 -0.07469
#
# Static dielectric constant tensor:
#      x y z
#    x 1.589860 0.000000 0.000000 
#    y 0.000000 1.582700 0.000000 
#    z 0.000000 0.000000 1.594270 
# 
# From -- ./inp_files/29612.got.cif
#   From: 2010.05.17/outbox.cif.g08.bks.cpg/sg59_15_cif.got.tgz:29612.got - 2010.06.03 14:40:33.
