data_PCOD9448257
_publ_section_title
;
Structure prediction by ZEFSAII (Michael W. Deem and Ramdas Pophale) SiO2 
 PCOD9448257
Probable space group: P M M N
;
_chemical_formula_sum "Si O2"
_cell_formula_units_Z 64
_cell_length_a 32.199631
_cell_length_b 7.820111
_cell_length_c 12.605548
_cell_angle_alpha 90.000000
_cell_angle_beta 90.000000
_cell_angle_gamma 90.000000
_cell_volume 3174.136089
_symmetry_space_group_name_H-M "P M M N"
_symmetry_group_IT_number 59
_space_group.IT_coordinate_system_code '2'
_symmetry_cell_setting 'orthorhombic'
loop_
_space_group_symop_operation_xyz
x,y,z
1/2-x,1/2-y,z
1/2+x,-y,-z
-x,1/2+y,-z
-x,-y,-z
1/2+x,1/2+y,-z
1/2-x,y,z
x,1/2-y,z
loop_
_atom_site_type_symbol
_atom_site_label
_atom_site_fract_x
_atom_site_fract_y
_atom_site_fract_z
Si Si1 0.865834 0.549474 0.413939
Si Si2 0.934850 0.446351 0.251781
Si Si3 0.625508 0.544325 0.872759
Si Si4 0.048293 0.546124 0.980919
Si Si5 0.606573 0.542777 0.640780
Si Si6 0.297713 0.458974 0.984937
Si Si7 0.202776 0.458937 0.743539
Si Si8 0.510908 0.450632 0.620461
O O1 0.856807 0.750000 0.429433
O O2 0.906138 0.535920 0.338899
O O3 0.873944 0.476729 0.530695
O O4 0.828609 0.474819 0.344442
O O5 0.920652 0.250000 0.246466
O O6 0.935913 0.522376 0.133548
O O7 0.981214 0.453071 0.297990
O O8 0.628619 0.750000 0.870094
O O9 0.625755 0.481966 0.751495
O O10 0.665304 0.480791 0.939095
O O11 0.581599 0.504942 0.929725
O O12 0.049144 0.750000 0.973378
O O13 0.000000 0.500000 0.000000
O O14 0.608688 0.750000 0.639091
O O15 0.558501 0.492836 0.640246
O O16 0.250000 0.511137 0.010181
O O17 0.297611 0.250000 0.986880
O O18 0.307364 0.511724 0.863823
O O19 0.250000 0.507520 0.721094
O O20 0.200847 0.250000 0.743898
O O21 0.500000 0.500000 0.500000
O O22 0.503408 0.250000 0.634399
#
# Coordination Sequence:
#
# PCOD9448257 Si02
#       8
#     8   8   8   8   8   8   8   8
#     4  10  19  32  52  76 103 138 176 214 264 316
#     4  11  23  37  54  78 106 134 172 222 268 312
#     4  10  20  35  55  78 109 147 186 230 277 325
#     4  11  24  39  55  78 108 141 180 227 275 328
#     4  10  21  35  50  75 109 142 181 226 265 312
#     4   8  14  27  50  79 107 137 178 227 277 327
#     4   8  14  26  47  76 105 132 170 220 268 318
#     4  12  23  36  55  77 103 139 180 219 262 315
#
# _framework density 20.162966000000001
#
# number of rings (size 3 to 8) (size 9 to 14) (size 15 to 20)
#    0.000    2.000    1.250    4.125    0.000    6.500 
#    0.000    0.625    0.000    4.500    0.000    3.500 
#    0.000    3.000    0.000    0.000    0.000    0.000 
#
# Total GULP energy -357327.137924 kJ/mol
# GULP energy per Si atom -5583.236530 kJ/mol
# Density = 2.011707 g / cm^3
# Si number density = 20.162966 Si / 1000 Ang^3
#
#
#
# Elastic Constant Matrix: (Units=GPa)
#
#
# Indices 1 2 3 4 5 6 
#
# 1 130.0740 -2.0773 91.1088 0.0000 0.0000 0.0000
# 2 -2.0773 32.7945 6.5297 0.0000 0.0000 0.0000
# 3 91.1088 6.5297 171.4200 0.0000 0.0000 0.0000
# 4 0.0000 0.0000 0.0000 10.6760 0.0000 0.0000
# 5 0.0000 0.0000 0.0000 0.0000 39.2441 0.0000
# 6 0.0000 0.0000 0.0000 0.0000 0.0000 10.4758
#
#
#
# Elastic Compliance Matrix: (Units=1/GPa)
#
#
# Indices 1 2 3 4 5 6 
#
# 1 0.012391 0.002112 -0.006666 0.000000 0.000000 0.000000
# 2 0.002112 0.031086 -0.002307 0.000000 0.000000 0.000000
# 3 -0.006666 -0.002307 0.009465 0.000000 0.000000 0.000000
# 4 0.000000 0.000000 0.000000 0.093668 0.000000 0.000000
# 5 0.000000 0.000000 0.000000 0.000000 0.025482 0.000000
# 6 0.000000 0.000000 0.000000 0.000000 0.000000 0.095458
#
#
# Mechanical properties :
#
#
# Convention : Reuss Voigt Hill
#
# Bulk Modulus (GPa) = 25.49724 58.37899 41.93811
# Shear Modulus (GPa) = 16.98695 27.99435 22.49065
#
# Velocity S-wave (km/s) = 2.90570 3.73017 3.34345
# Velocity P-wave (km/s) = 4.89188 6.89700 5.97910
#
# Compressibility (1/GPa) = 0.03921993
#
# Stress axis : x y z
#
# Youngs Moduli (GPa) = 80.70450 32.16887 105.65792
#
# Poissons Ratio (x) = -0.06795 0.70433
# Poissons Ratio (y) = -0.17046 0.24372
# Poissons Ratio (z) = 0.53799 0.07420
#
# Static dielectric constant tensor:
#      x y z
#    x 1.691850 0.000000 0.000000 
#    y 0.000000 1.751710 0.000000 
#    z 0.000000 0.000000 1.739000 
# 
# From -- ./inp_files/19236.got.cif
#   From: 2010.05.17/outbox.cif.g08.bks.cpg/sg59_10_cif.got.tgz:19236.got - 2010.06.03 14:40:33.
