data_PCOD9448201
_publ_section_title
;
Structure prediction by ZEFSAII (Michael W. Deem and Ramdas Pophale) SiO2 
 PCOD9448201
Probable space group: P M M N
;
_chemical_formula_sum "Si O2"
_cell_formula_units_Z 48
_cell_length_a 16.729629
_cell_length_b 7.427500
_cell_length_c 17.373085
_cell_angle_alpha 90.000000
_cell_angle_beta 90.000000
_cell_angle_gamma 90.000000
_cell_volume 2158.767718
_symmetry_space_group_name_H-M "P M M N"
_symmetry_group_IT_number 59
_space_group.IT_coordinate_system_code '2'
_symmetry_cell_setting 'orthorhombic'
loop_
_space_group_symop_operation_xyz
x,y,z
1/2-x,1/2-y,z
1/2+x,-y,-z
-x,1/2+y,-z
-x,-y,-z
1/2+x,1/2+y,-z
1/2-x,y,z
x,1/2-y,z
loop_
_atom_site_type_symbol
_atom_site_label
_atom_site_fract_x
_atom_site_fract_y
_atom_site_fract_z
Si Si1 0.750000 0.533353 0.767587
Si Si2 0.659469 0.030725 0.189415
Si Si3 0.750000 0.464794 0.948693
Si Si4 0.842001 0.467664 0.500258
Si Si5 0.588298 0.465439 0.032955
Si Si6 0.575926 0.029244 0.343986
Si Si7 0.898371 0.958221 0.671249
O O1 0.750000 0.750000 0.756366
O O2 0.750000 0.496652 0.857662
O O3 0.670873 0.462752 0.724687
O O4 0.750000 0.975437 0.171685
O O5 0.658706 0.250000 0.190262
O O6 0.601049 0.971913 0.120896
O O7 0.632889 0.973852 0.274165
O O8 0.750000 0.250000 0.962151
O O9 0.666138 0.532840 0.985189
O O10 0.750000 0.519428 0.487901
O O11 0.845429 0.250000 0.503275
O O12 0.894369 0.528734 0.427875
O O13 0.870778 0.535296 0.582720
O O14 0.595194 0.250000 0.033727
O O15 0.500000 0.500000 0.000000
O O16 0.575685 0.250000 0.346118
O O17 0.486902 0.964190 0.325738
O O18 0.906924 0.750000 0.695018
#
# Coordination Sequence:
#
# PCOD9448201 Si02
#       7
#     4   8   4   8   8   8   8
#     4  10  22  36  54  79 104 140 184 223 268 326
#     4   9  16  31  55  79 105 137 175 219 265 314
#     4  10  22  40  58  83 116 148 186 233 282 334
#     4  10  19  32  51  76 104 134 172 213 261 315
#     4  10  21  37  59  86 114 147 186 228 279 336
#     4   9  18  30  50  78 104 132 172 220 260 308
#     4  10  20  35  52  74 104 136 175 218 262 315
#
# _framework density 22.234907
#
# number of rings (size 3 to 8) (size 9 to 14) (size 15 to 20)
#    0.000    2.333    1.667    1.000    2.333    3.333 
#    0.000    0.000    0.000    1.000    0.000    0.000 
#    0.000    0.000    0.000    0.000    0.000    0.000 
#
# Total GULP energy -268126.970181 kJ/mol
# GULP energy per Si atom -5585.978545 kJ/mol
# Density = 2.218430 g / cm^3
# Si number density = 22.234907 Si / 1000 Ang^3
#
#
#
# Elastic Constant Matrix: (Units=GPa)
#
#
# Indices 1 2 3 4 5 6 
#
# 1 107.5005 -2.6505 18.3299 0.0000 0.0000 0.0000
# 2 -2.6505 66.5574 -12.5023 0.0000 0.0000 0.0000
# 3 18.3299 -12.5023 99.5774 0.0000 0.0000 0.0000
# 4 0.0000 0.0000 0.0000 -13.4282 0.0000 0.0000
# 5 0.0000 0.0000 0.0000 0.0000 -9.6508 0.0000
# 6 0.0000 0.0000 0.0000 0.0000 0.0000 3.8586
#
#
#
# Elastic Compliance Matrix: (Units=1/GPa)
#
#
# Indices 1 2 3 4 5 6 
#
# 1 0.009604 0.000052 -0.001761 0.000000 0.000000 0.000000
# 2 0.000052 0.015388 0.001922 0.000000 0.000000 0.000000
# 3 -0.001761 0.001922 0.010608 0.000000 0.000000 0.000000
# 4 0.000000 0.000000 0.000000 -0.074470 0.000000 0.000000
# 5 0.000000 0.000000 0.000000 0.000000 -0.103618 0.000000
# 6 0.000000 0.000000 0.000000 0.000000 0.000000 0.259161
#
#
# Mechanical properties :
#
#
# Convention : Reuss Voigt Hill
#
# Bulk Modulus (GPa) = 27.75837 31.10995 29.43416
# Shear Modulus (GPa) = 38.98494 14.18647 26.58570
#
# Velocity S-wave (km/s) = 4.19181 2.52866 3.46160
# Velocity P-wave (km/s) = 5.99497 4.74841 5.40772
#
# Compressibility (1/GPa) = 0.03602517
#
# Stress axis : x y z
#
# Youngs Moduli (GPa) = 104.12455 64.98648 94.26806
#
# Poissons Ratio (x) = -0.00335 0.16604
# Poissons Ratio (y) = -0.00537 -0.18123
# Poissons Ratio (z) = 0.18340 -0.12494
#
# Static dielectric constant tensor:
#      x y z
#    x 1.803120 0.000000 0.000000 
#    y 0.000000 1.860610 0.000000 
#    z 0.000000 0.000000 1.764920 
# 
# From -- ./inp_files/25628.got.cif
#   From: 2010.05.17/outbox.cif.g08.bks.cpg/sg59_13_cif.got.tgz:25628.got - 2010.06.03 14:40:33.
