data_PCOD9448890
_publ_section_title
;
Structure prediction by ZEFSAII (Michael W. Deem and Ramdas Pophale) SiO2 
 PCOD9448890
Probable space group: P M M N
;
_chemical_formula_sum "Si O2"
_cell_formula_units_Z 56
_cell_length_a 7.553526
_cell_length_b 19.692245
_cell_length_c 17.204970
_cell_angle_alpha 90.000000
_cell_angle_beta 90.000000
_cell_angle_gamma 90.000000
_cell_volume 2559.168482
_symmetry_space_group_name_H-M "P M M N"
_symmetry_group_IT_number 59
_space_group.IT_coordinate_system_code '2'
_symmetry_cell_setting 'orthorhombic'
loop_
_space_group_symop_operation_xyz
x,y,z
1/2-x,1/2-y,z
1/2+x,-y,-z
-x,1/2+y,-z
-x,-y,-z
1/2+x,1/2+y,-z
1/2-x,y,z
x,1/2-y,z
loop_
_atom_site_type_symbol
_atom_site_label
_atom_site_fract_x
_atom_site_fract_y
_atom_site_fract_z
Si Si1 0.538030 0.827892 0.644249
Si Si2 0.462898 0.327286 0.810810
Si Si3 0.462576 0.947425 0.752804
Si Si4 0.962247 0.919363 0.500598
Si Si5 0.462930 0.951596 0.926780
Si Si6 0.966863 0.580236 0.330525
Si Si7 0.038894 0.673811 0.017156
O O1 0.750000 0.823670 0.635690
O O2 0.471327 0.750000 0.646014
O O3 0.504346 0.872587 0.721339
O O4 0.468514 0.873924 0.571956
O O5 0.250000 0.325508 0.806174
O O6 0.529614 0.250000 0.806807
O O7 0.526413 0.372041 0.739614
O O8 0.507299 0.354468 0.896221
O O9 0.250000 0.952908 0.754556
O O10 0.528140 0.965570 0.839500
O O11 0.525428 0.003982 0.691203
O O12 0.750000 0.912909 0.503016
O O13 0.025164 0.896131 0.415334
O O14 0.000000 0.000000 0.500000
O O15 0.250000 0.949900 0.921030
O O16 0.530117 0.877803 0.953534
O O17 0.500000 0.000000 0.000000
O O18 0.750000 0.580589 0.331345
O O19 0.250000 0.678121 0.007256
O O20 0.965260 0.750000 0.013808
#
# Coordination Sequence:
#
# PCOD9448890 Si02
#       7
#     8   8   8   8   8   8   8
#     4  10  22  38  55  80 112 143 179 225 275 323
#     4   9  17  30  50  76 103 132 169 212 257 305
#     4  10  20  35  55  78 105 141 183 223 265 318
#     4  10  19  34  56  78 105 140 176 215 263 321
#     4  10  21  35  54  80 108 138 177 223 268 317
#     4   9  17  30  51  77 104 132 168 213 258 308
#     4   9  18  33  50  69  99 137 172 208 256 311
#
# _framework density 21.882109
#
# number of rings (size 3 to 8) (size 9 to 14) (size 15 to 20)
#    0.000    2.429    1.429    0.857    0.000    3.714 
#    0.000    5.714    0.000    1.714    0.000    2.000 
#    0.000    0.000    0.000    0.000    0.000    0.000 
#
# Total GULP energy -312486.080334 kJ/mol
# GULP energy per Si atom -5580.108577 kJ/mol
# Density = 2.183230 g / cm^3
# Si number density = 21.882109 Si / 1000 Ang^3
#
#
#
# Elastic Constant Matrix: (Units=GPa)
#
#
# Indices 1 2 3 4 5 6 
#
# 1 52.4888 0.3854 2.7151 0.0000 0.0000 0.0000
# 2 0.3854 88.6320 49.2094 0.0000 0.0000 0.0000
# 3 2.7151 49.2094 128.2715 0.0000 0.0000 0.0000
# 4 0.0000 0.0000 0.0000 33.3935 0.0000 0.0000
# 5 0.0000 0.0000 0.0000 0.0000 13.3792 0.0000
# 6 0.0000 0.0000 0.0000 0.0000 0.0000 17.0077
#
#
#
# Elastic Compliance Matrix: (Units=1/GPa)
#
#
# Indices 1 2 3 4 5 6 
#
# 1 0.019075 0.000179 -0.000473 0.000000 0.000000 0.000000
# 2 0.000179 0.014338 -0.005504 0.000000 0.000000 0.000000
# 3 -0.000473 -0.005504 0.009918 0.000000 0.000000 0.000000
# 4 0.000000 0.000000 0.000000 0.029946 0.000000 0.000000
# 5 0.000000 0.000000 0.000000 0.000000 0.074743 0.000000
# 6 0.000000 0.000000 0.000000 0.000000 0.000000 0.058797
#
#
# Mechanical properties :
#
#
# Convention : Reuss Voigt Hill
#
# Bulk Modulus (GPa) = 31.51056 41.55689 36.53373
# Shear Modulus (GPa) = 21.83508 27.22825 24.53166
#
# Velocity S-wave (km/s) = 3.16230 3.53131 3.35189
# Velocity P-wave (km/s) = 5.26925 5.97155 5.63136
#
# Compressibility (1/GPa) = 0.03173540
#
# Stress axis : x y z
#
# Youngs Moduli (GPa) = 52.42515 69.74537 100.83073
#
# Poissons Ratio (x) = -0.01252 0.04765
# Poissons Ratio (y) = -0.00941 0.55500
# Poissons Ratio (z) = 0.02478 0.38390
#
# Static dielectric constant tensor:
#      x y z
#    x 1.825790 0.000000 0.000000 
#    y 0.000000 1.823610 0.000000 
#    z 0.000000 0.000000 1.800330 
# 
# From -- ./inp_files/21059.got.cif
#   From: 2010.05.17/outbox.cif.g08.bks.cpg/sg59_11_cif.got.tgz:21059.got - 2010.06.03 14:40:33.
