data_PCOD9448227
_publ_section_title
;
Structure prediction by ZEFSAII (Michael W. Deem and Ramdas Pophale) SiO2 
 PCOD9448227
Probable space group: P M M N
;
_chemical_formula_sum "Si O2"
_cell_formula_units_Z 64
_cell_length_a 13.573220
_cell_length_b 28.917839
_cell_length_c 10.075520
_cell_angle_alpha 90.000000
_cell_angle_beta 90.000000
_cell_angle_gamma 90.000000
_cell_volume 3954.724125
_symmetry_space_group_name_H-M "P M M N"
_symmetry_group_IT_number 59
_space_group.IT_coordinate_system_code '2'
_symmetry_cell_setting 'orthorhombic'
loop_
_space_group_symop_operation_xyz
x,y,z
1/2-x,1/2-y,z
1/2+x,-y,-z
-x,1/2+y,-z
-x,-y,-z
1/2+x,1/2+y,-z
1/2-x,y,z
x,1/2-y,z
loop_
_atom_site_type_symbol
_atom_site_label
_atom_site_fract_x
_atom_site_fract_y
_atom_site_fract_z
Si Si1 0.364130 0.624105 0.366679
Si Si2 0.133177 0.460746 0.397589
Si Si3 0.865635 0.887670 0.824588
Si Si4 0.014743 0.042479 0.661405
Si Si5 0.865040 0.134204 0.942089
Si Si6 0.017444 0.053114 0.962552
Si Si7 0.635291 0.302426 0.407283
Si Si8 0.989204 0.304319 0.139569
O O1 0.250000 0.609119 0.384132
O O2 0.439354 0.582424 0.382209
O O3 0.372443 0.642285 0.215971
O O4 0.387273 0.662410 0.475616
O O5 0.250000 0.472760 0.383365
O O6 0.117603 0.412763 0.317777
O O7 0.100042 0.460077 0.551447
O O8 0.055285 0.497135 0.335293
O O9 0.750000 0.882477 0.842018
O O10 0.908532 0.922437 0.935759
O O11 0.918734 0.838592 0.842630
O O12 0.051470 0.053426 0.809253
O O13 0.750000 0.132557 0.978442
O O14 0.922261 0.173387 0.023805
O O15 0.918869 0.084986 0.968311
O O16 0.000000 0.000000 0.000000
O O17 0.750000 0.308508 0.370838
O O18 0.622458 0.250000 0.455726
O O19 0.571299 0.308415 0.276405
O O20 0.010860 0.250000 0.116726
#
# Coordination Sequence:
#
# PCOD9448227 Si02
#       8
#     8   8   8   8   8   8   8   8
#     4   9  17  30  48  71  98 130 165 199 242 295
#     4  10  20  33  50  73 100 132 167 204 250 295
#     4  10  21  36  54  74  99 132 171 211 251 294
#     4  10  19  32  52  71 102 132 164 210 244 295
#     4   9  19  32  49  74 101 131 167 206 252 303
#     4  10  19  34  52  74 101 135 173 209 251 298
#     4   9  17  29  47  71  99 130 162 200 247 298
#     4  10  20  34  52  73 100 130 165 207 256 303
#
# _framework density 16.183177000000001
#
# number of rings (size 3 to 8) (size 9 to 14) (size 15 to 20)
#    0.000    2.375    1.250    1.500    0.000    3.000 
#    0.000    1.250    0.000    0.000    0.000    0.000 
#    0.000    6.000    0.000    0.000    0.000    0.000 
#
# Total GULP energy -356610.975060 kJ/mol
# GULP energy per Si atom -5572.046485 kJ/mol
# Density = 1.614634 g / cm^3
# Si number density = 16.183177 Si / 1000 Ang^3
#
#
#
# Elastic Constant Matrix: (Units=GPa)
#
#
# Indices 1 2 3 4 5 6 
#
# 1 56.2441 40.4759 19.1732 0.0000 0.0000 0.0000
# 2 40.4759 113.6101 33.0896 0.0000 0.0000 0.0000
# 3 19.1732 33.0896 45.8091 0.0000 0.0000 0.0000
# 4 0.0000 0.0000 0.0000 25.0700 0.0000 0.0000
# 5 0.0000 0.0000 0.0000 0.0000 21.3618 0.0000
# 6 0.0000 0.0000 0.0000 0.0000 0.0000 13.6065
#
#
#
# Elastic Compliance Matrix: (Units=1/GPa)
#
#
# Indices 1 2 3 4 5 6 
#
# 1 0.024804 -0.007362 -0.005064 0.000000 0.000000 0.000000
# 2 -0.007362 0.013332 -0.006549 0.000000 0.000000 0.000000
# 3 -0.005064 -0.006549 0.028680 0.000000 0.000000 0.000000
# 4 0.000000 0.000000 0.000000 0.039888 0.000000 0.000000
# 5 0.000000 0.000000 0.000000 0.000000 0.046812 0.000000
# 6 0.000000 0.000000 0.000000 0.000000 0.000000 0.073495
#
#
# Mechanical properties :
#
#
# Convention : Reuss Voigt Hill
#
# Bulk Modulus (GPa) = 34.64244 44.57122 39.60683
# Shear Modulus (GPa) = 18.20942 20.20263 19.20602
#
# Velocity S-wave (km/s) = 3.35805 3.53706 3.44872
# Velocity P-wave (km/s) = 6.04055 6.65452 6.35495
#
# Compressibility (1/GPa) = 0.02886633
#
# Stress axis : x y z
#
# Youngs Moduli (GPa) = 40.31625 75.00529 34.86781
#
# Poissons Ratio (x) = 0.55219 0.17656
# Poissons Ratio (y) = 0.29681 0.22835
# Poissons Ratio (z) = 0.20415 0.49122
#
# Static dielectric constant tensor:
#      x y z
#    x 1.523210 0.000000 0.000000 
#    y 0.000000 1.543100 0.000000 
#    z 0.000000 0.000000 1.540710 
# 
# From -- ./inp_files/9741.got.cif
#   From: 2010.05.17/outbox.cif.g08.bks.cpg/sg59_5_cif.got.tgz:9741.got - 2010.06.03 14:40:33.
