data_PCOD9448364
_publ_section_title
;
Structure prediction by ZEFSAII (Michael W. Deem and Ramdas Pophale) SiO2 
 PCOD9448364
Probable space group: P M M N
;
_chemical_formula_sum "Si O2"
_cell_formula_units_Z 32
_cell_length_a 8.906172
_cell_length_b 18.087615
_cell_length_c 11.784827
_cell_angle_alpha 90.000000
_cell_angle_beta 90.000000
_cell_angle_gamma 90.000000
_cell_volume 1898.434401
_symmetry_space_group_name_H-M "P M M N"
_symmetry_group_IT_number 59
_space_group.IT_coordinate_system_code '2'
_symmetry_cell_setting 'orthorhombic'
loop_
_space_group_symop_operation_xyz
x,y,z
1/2-x,1/2-y,z
1/2+x,-y,-z
-x,1/2+y,-z
-x,-y,-z
1/2+x,1/2+y,-z
1/2-x,y,z
x,1/2-y,z
loop_
_atom_site_type_symbol
_atom_site_label
_atom_site_fract_x
_atom_site_fract_y
_atom_site_fract_z
Si Si1 0.070644 0.554682 0.161741
Si Si2 0.432761 0.750000 0.791029
Si Si3 0.926876 0.667386 0.335712
Si Si4 0.930040 0.250000 0.471350
Si Si5 0.569059 0.402861 0.095458
O O1 0.250000 0.552592 0.172074
O O2 0.001562 0.605372 0.259454
O O3 0.004566 0.472165 0.159143
O O4 0.032522 0.589025 0.037959
O O5 0.250000 0.750000 0.521673
O O6 0.477079 0.750000 0.659149
O O7 0.481205 0.824665 0.853944
O O8 0.750000 0.654125 0.348900
O O9 0.945852 0.750000 0.281676
O O10 0.004376 0.680410 0.458016
O O11 0.750000 0.250000 0.206512
O O12 0.750000 0.408298 0.106060
#
# Coordination Sequence:
#
# PCOD9448364 Si02
#       5
#     8   4   8   4   8
#     4  10  19  32  53  80 107 135 171 210 253 302
#     4   9  18  34  55  76  98 137 174 205 256 309
#     4   9  19  33  52  75 102 134 168 210 259 299
#     4   9  17  32  53  76 100 127 174 219 250 301
#     4   9  19  34  53  76 108 138 167 208 257 309
#
# _framework density 16.855996000000001
#
# number of rings (size 3 to 8) (size 9 to 14) (size 15 to 20)
#    0.750    2.000    0.000    1.500    1.750    1.000 
#    0.000    4.375    0.000    0.000    0.000    0.000 
#    0.000    0.000    0.000    0.000    0.000    0.000 
#
# Total GULP energy -178191.120948 kJ/mol
# GULP energy per Si atom -5568.472530 kJ/mol
# Density = 1.681763 g / cm^3
# Si number density = 16.855996 Si / 1000 Ang^3
#
#
#
# Elastic Constant Matrix: (Units=GPa)
#
#
# Indices 1 2 3 4 5 6 
#
# 1 42.3458 45.5268 32.0674 0.0000 0.0000 0.0000
# 2 45.5268 146.3732 87.3075 0.0000 0.0000 0.0000
# 3 32.0674 87.3075 87.8977 0.0000 0.0000 0.0000
# 4 0.0000 0.0000 0.0000 -9.4965 0.0000 0.0000
# 5 0.0000 0.0000 0.0000 0.0000 13.8601 0.0000
# 6 0.0000 0.0000 0.0000 0.0000 0.0000 25.3096
#
#
#
# Elastic Compliance Matrix: (Units=1/GPa)
#
#
# Indices 1 2 3 4 5 6 
#
# 1 0.036348 -0.008332 -0.004984 0.000000 0.000000 0.000000
# 2 -0.008332 0.018674 -0.015509 0.000000 0.000000 0.000000
# 3 -0.004984 -0.015509 0.028600 0.000000 0.000000 0.000000
# 4 0.000000 0.000000 0.000000 -0.105302 0.000000 0.000000
# 5 0.000000 0.000000 0.000000 0.000000 0.072149 0.000000
# 6 0.000000 0.000000 0.000000 0.000000 0.000000 0.039511
#
#
# Mechanical properties :
#
#
# Convention : Reuss Voigt Hill
#
# Bulk Modulus (GPa) = 38.50449 67.38000 52.94225
# Shear Modulus (GPa) = 31.99227 13.38230 22.68729
#
# Velocity S-wave (km/s) = 4.36130 2.82071 3.67270
# Velocity P-wave (km/s) = 6.94652 7.11823 7.03290
#
# Compressibility (1/GPa) = 0.02597099
#
# Stress axis : x y z
#
# Youngs Moduli (GPa) = 27.51194 53.55038 34.96530
#
# Poissons Ratio (x) = 0.44620 0.17427
# Poissons Ratio (y) = 0.22924 0.54227
# Poissons Ratio (z) = 0.13712 0.83050
#
# Static dielectric constant tensor:
#      x y z
#    x 1.559970 0.000000 0.000000 
#    y 0.000000 1.555750 0.000000 
#    z 0.000000 0.000000 1.553900 
# 
# From -- ./inp_files/13764.got.cif
#   From: 2010.05.17/outbox.cif.g08.bks.cpg/sg59_7_cif.got.tgz:13764.got - 2010.06.03 14:40:33.
