data_PCOD9448659
_publ_section_title
;
Structure prediction by ZEFSAII (Michael W. Deem and Ramdas Pophale) SiO2 
 PCOD9448659
Probable space group: P M M N
;
_chemical_formula_sum "Si O2"
_cell_formula_units_Z 48
_cell_length_a 14.844102
_cell_length_b 8.669908
_cell_length_c 20.907717
_cell_angle_alpha 90.000000
_cell_angle_beta 90.000000
_cell_angle_gamma 90.000000
_cell_volume 2690.760427
_symmetry_space_group_name_H-M "P M M N"
_symmetry_group_IT_number 59
_space_group.IT_coordinate_system_code '2'
_symmetry_cell_setting 'orthorhombic'
loop_
_space_group_symop_operation_xyz
x,y,z
1/2-x,1/2-y,z
1/2+x,-y,-z
-x,1/2+y,-z
-x,-y,-z
1/2+x,1/2+y,-z
1/2-x,y,z
x,1/2-y,z
loop_
_atom_site_type_symbol
_atom_site_label
_atom_site_fract_x
_atom_site_fract_y
_atom_site_fract_z
Si Si1 0.059372 0.435039 0.941570
Si Si2 0.750000 0.065821 0.020866
Si Si3 0.058259 0.063624 0.315913
Si Si4 0.750000 0.436076 0.481810
Si Si5 0.445196 0.936380 0.560468
Si Si6 0.250000 0.435787 0.374608
Si Si7 0.750000 0.566169 0.876919
Si Si8 0.565568 0.434173 0.821954
O O1 0.063851 0.250000 0.947063
O O2 0.159233 0.503348 0.946608
O O3 0.007663 0.474845 0.876105
O O4 0.000000 0.500000 0.000000
O O5 0.750000 0.250000 0.020966
O O6 0.750000 0.007382 0.947533
O O7 0.055533 0.250000 0.310212
O O8 0.159441 0.019163 0.337492
O O9 0.991849 0.016321 0.373311
O O10 0.037020 0.989605 0.248012
O O11 0.750000 0.250000 0.483770
O O12 0.658326 0.485878 0.447149
O O13 0.750000 0.496208 0.554313
O O14 0.448988 0.750000 0.557959
O O15 0.500000 0.000000 0.500000
O O16 0.250000 0.250000 0.380179
O O17 0.750000 0.750000 0.882585
O O18 0.660358 0.511869 0.840552
O O19 0.577426 0.250000 0.823030
#
# Coordination Sequence:
#
# PCOD9448659 Si02
#       8
#     8   4   8   4   8   4   4   8
#     4  11  23  40  63  89 121 159 200 250 302 353
#     4  12  24  39  62  93 124 155 202 249 294 357
#     4  10  21  36  55  81 116 155 194 237 293 355
#     4  10  20  33  54  85 114 143 186 241 290 334
#     4  10  20  35  56  82 113 150 192 238 286 343
#     4  10  19  33  54  82 113 147 188 236 285 342
#     4  12  23  37  62  90 123 159 194 242 301 355
#     4  11  24  40  60  88 122 156 198 246 296 356
#
# _framework density 17.838823000000001
#
# number of rings (size 3 to 8) (size 9 to 14) (size 15 to 20)
#    0.000    1.333    3.333    3.000    0.000    4.000 
#    0.000    0.833    0.000    1.000    0.000    0.000 
#    0.000    0.000    0.000    0.000    0.000    0.000 
#
# Total GULP energy -268272.001945 kJ/mol
# GULP energy per Si atom -5589.000041 kJ/mol
# Density = 1.779822 g / cm^3
# Si number density = 17.838823 Si / 1000 Ang^3
#
#
#
# Elastic Constant Matrix: (Units=GPa)
#
#
# Indices 1 2 3 4 5 6 
#
# 1 165.2908 48.0440 95.0936 0.0000 0.0000 0.0000
# 2 48.0440 50.2996 51.9148 0.0000 0.0000 0.0000
# 3 95.0936 51.9148 171.9071 0.0000 0.0000 0.0000
# 4 0.0000 0.0000 0.0000 33.8731 0.0000 0.0000
# 5 0.0000 0.0000 0.0000 0.0000 19.1633 0.0000
# 6 0.0000 0.0000 0.0000 0.0000 0.0000 17.1462
#
#
#
# Elastic Compliance Matrix: (Units=1/GPa)
#
#
# Indices 1 2 3 4 5 6 
#
# 1 0.009814 -0.005478 -0.003774 0.000000 0.000000 0.000000
# 2 -0.005478 0.031942 -0.006616 0.000000 0.000000 0.000000
# 3 -0.003774 -0.006616 0.009903 0.000000 0.000000 0.000000
# 4 0.000000 0.000000 0.000000 0.029522 0.000000 0.000000
# 5 0.000000 0.000000 0.000000 0.000000 0.052183 0.000000
# 6 0.000000 0.000000 0.000000 0.000000 0.000000 0.058322
#
#
# Mechanical properties :
#
#
# Convention : Reuss Voigt Hill
#
# Bulk Modulus (GPa) = 50.19652 86.40024 68.29838
# Shear Modulus (GPa) = 21.73329 26.86619 24.29974
#
# Velocity S-wave (km/s) = 3.49422 3.88500 3.69478
# Velocity P-wave (km/s) = 6.66929 8.28633 7.52139
#
# Compressibility (1/GPa) = 0.01992170
#
# Stress axis : x y z
#
# Youngs Moduli (GPa) = 101.89972 31.30714 100.98145
#
# Poissons Ratio (x) = 0.17150 0.38113
# Poissons Ratio (y) = 0.55822 0.66808
# Poissons Ratio (z) = 0.38459 0.20712
#
# Static dielectric constant tensor:
#      x y z
#    x 1.602690 0.000000 0.000000 
#    y 0.000000 1.602750 0.000000 
#    z 0.000000 0.000000 1.579700 
# 
# From -- ./inp_files/27529.got.cif
#   From: 2010.05.17/outbox.cif.g08.bks.cpg/sg59_14_cif.got.tgz:27529.got - 2010.06.03 14:40:33.
