data_PCOD9448105
_publ_section_title
;
Structure prediction by ZEFSAII (Michael W. Deem and Ramdas Pophale) SiO2 
 PCOD9448105
Probable space group: P M M N
;
_chemical_formula_sum "Si O2"
_cell_formula_units_Z 64
_cell_length_a 28.467984
_cell_length_b 8.813894
_cell_length_c 14.835800
_cell_angle_alpha 90.000000
_cell_angle_beta 90.000000
_cell_angle_gamma 90.000000
_cell_volume 3722.506856
_symmetry_space_group_name_H-M "P M M N"
_symmetry_group_IT_number 59
_space_group.IT_coordinate_system_code '2'
_symmetry_cell_setting 'orthorhombic'
loop_
_space_group_symop_operation_xyz
x,y,z
1/2-x,1/2-y,z
1/2+x,-y,-z
-x,1/2+y,-z
-x,-y,-z
1/2+x,1/2+y,-z
1/2-x,y,z
x,1/2-y,z
loop_
_atom_site_type_symbol
_atom_site_label
_atom_site_fract_x
_atom_site_fract_y
_atom_site_fract_z
Si Si1 0.071842 0.067807 0.850253
Si Si2 0.119044 0.066540 0.029079
Si Si3 0.971088 0.930060 0.852916
Si Si4 0.194461 0.069372 0.351020
Si Si5 0.572032 0.567468 0.356337
Si Si6 0.805214 0.430209 0.842499
Si Si7 0.969667 0.569074 0.640351
Si Si8 0.615605 0.430866 0.526000
O O1 0.070790 0.250000 0.851050
O O2 0.081527 0.020376 0.747341
O O3 0.108726 0.019519 0.926303
O O4 0.019859 0.010999 0.875502
O O5 0.123347 0.250000 0.033066
O O6 0.072855 0.022786 0.086769
O O7 0.163493 0.992695 0.076658
O O8 0.977749 0.750000 0.865061
O O9 0.961017 0.956571 0.747035
O O10 0.250000 0.037871 0.363302
O O11 0.187156 0.250000 0.355077
O O12 0.181059 0.010345 0.251440
O O13 0.162375 0.988766 0.424766
O O14 0.571421 0.750000 0.361824
O O15 0.520319 0.503542 0.380340
O O16 0.608670 0.499378 0.426647
O O17 0.750000 0.461232 0.857382
O O18 0.811432 0.250000 0.832620
O O19 0.970962 0.750000 0.623898
O O20 0.928383 0.493863 0.583646
O O21 0.614287 0.250000 0.523371
#
# Coordination Sequence:
#
# PCOD9448105 Si02
#       8
#     8   8   8   8   8   8   8   8
#     4   9  19  33  50  72 100 135 175 216 253 294
#     4  10  19  32  51  76 103 134 173 211 251 300
#     4   9  18  30  47  72 103 135 166 204 250 303
#     4  10  21  38  59  81 105 133 163 200 251 307
#     4  10  20  35  51  70 101 139 178 220 262 302
#     4  10  21  36  54  79 108 135 165 203 248 299
#     4  10  19  32  49  73 105 139 175 212 254 306
#     4  12  23  34  52  77 103 134 172 212 256 307
#
# _framework density 17.192715
#
# number of rings (size 3 to 8) (size 9 to 14) (size 15 to 20)
#    0.000    2.000    0.000    4.125    0.000    4.500 
#    0.000    0.000    0.000    0.750    0.000    1.750 
#    0.000    0.000    0.000    0.000    0.000    0.000 
#
# Total GULP energy -357455.346743 kJ/mol
# GULP energy per Si atom -5585.239793 kJ/mol
# Density = 1.715358 g / cm^3
# Si number density = 17.192715 Si / 1000 Ang^3
#
#
#
# Elastic Constant Matrix: (Units=GPa)
#
#
# Indices 1 2 3 4 5 6 
#
# 1 66.7190 40.4413 63.1521 0.0000 0.0000 0.0000
# 2 40.4413 60.0535 47.0097 0.0000 0.0000 0.0000
# 3 63.1521 47.0097 93.5767 0.0000 0.0000 0.0000
# 4 0.0000 0.0000 0.0000 20.8380 0.0000 0.0000
# 5 0.0000 0.0000 0.0000 0.0000 33.9033 0.0000
# 6 0.0000 0.0000 0.0000 0.0000 0.0000 30.5841
#
#
#
# Elastic Compliance Matrix: (Units=1/GPa)
#
#
# Indices 1 2 3 4 5 6 
#
# 1 0.045424 -0.010865 -0.025197 0.000000 0.000000 0.000000
# 2 -0.010865 0.030043 -0.007760 0.000000 0.000000 0.000000
# 3 -0.025197 -0.007760 0.031589 0.000000 0.000000 0.000000
# 4 0.000000 0.000000 0.000000 0.047989 0.000000 0.000000
# 5 0.000000 0.000000 0.000000 0.000000 0.029496 0.000000
# 6 0.000000 0.000000 0.000000 0.000000 0.000000 0.032697
#
#
# Mechanical properties :
#
#
# Convention : Reuss Voigt Hill
#
# Bulk Modulus (GPa) = 51.51413 57.95059 54.73236
# Shear Modulus (GPa) = 16.05888 21.71483 18.88685
#
# Velocity S-wave (km/s) = 3.05954 3.55776 3.31802
# Velocity P-wave (km/s) = 6.51988 7.11734 6.82515
#
# Compressibility (1/GPa) = 0.01941215
#
# Stress axis : x y z
#
# Youngs Moduli (GPa) = 22.01464 33.28532 31.65611
#
# Poissons Ratio (x) = 0.36166 0.79764
# Poissons Ratio (y) = 0.23920 0.24565
# Poissons Ratio (z) = 0.55470 0.25829
#
# Static dielectric constant tensor:
#      x y z
#    x 1.555950 0.000000 0.000000 
#    y 0.000000 1.572050 0.000000 
#    z 0.000000 0.000000 1.601270 
# 
# From -- ./inp_files/24698.got.cif
#   From: 2010.05.17/outbox.cif.g08.bks.cpg/sg59_13_cif.got.tgz:24698.got - 2010.06.03 14:40:33.
