data_PCOD9448833
_publ_section_title
;
Structure prediction by ZEFSAII (Michael W. Deem and Ramdas Pophale) SiO2 
 PCOD9448833
Probable space group: P M M N
;
_chemical_formula_sum "Si O2"
_cell_formula_units_Z 64
_cell_length_a 9.134981
_cell_length_b 27.342524
_cell_length_c 13.734169
_cell_angle_alpha 90.000000
_cell_angle_beta 90.000000
_cell_angle_gamma 90.000000
_cell_volume 3430.430599
_symmetry_space_group_name_H-M "P M M N"
_symmetry_group_IT_number 59
_space_group.IT_coordinate_system_code '2'
_symmetry_cell_setting 'orthorhombic'
loop_
_space_group_symop_operation_xyz
x,y,z
1/2-x,1/2-y,z
1/2+x,-y,-z
-x,1/2+y,-z
-x,-y,-z
1/2+x,1/2+y,-z
1/2-x,y,z
x,1/2-y,z
loop_
_atom_site_type_symbol
_atom_site_label
_atom_site_fract_x
_atom_site_fract_y
_atom_site_fract_z
Si Si1 0.085370 0.532010 0.076336
Si Si2 0.927371 0.634719 0.102453
Si Si3 0.571434 0.634082 0.711059
Si Si4 0.428218 0.306885 0.095178
Si Si5 0.072569 0.148035 0.505842
Si Si6 0.576213 0.961634 0.429784
Si Si7 0.084635 0.479515 0.278655
Si Si8 0.428236 0.305282 0.706252
O O1 0.250000 0.544134 0.044128
O O2 0.095416 0.496631 0.168868
O O3 0.999608 0.581815 0.096659
O O4 0.000000 0.500000 0.000000
O O5 0.750000 0.630732 0.102309
O O6 0.972537 0.660211 0.204205
O O7 0.968574 0.666328 0.006200
O O8 0.750000 0.634699 0.712433
O O9 0.523505 0.663395 0.807730
O O10 0.523750 0.655948 0.605991
O O11 0.530673 0.576414 0.712914
O O12 0.250000 0.306747 0.097349
O O13 0.475210 0.250000 0.097130
O O14 0.250000 0.152205 0.503261
O O15 0.036173 0.092673 0.537215
O O16 0.021254 0.180255 0.597441
O O17 0.750000 0.965128 0.432548
O O18 0.500000 0.000000 0.500000
O O19 0.516300 0.979582 0.327145
O O20 0.250000 0.480687 0.322238
O O21 0.250000 0.307336 0.703964
O O22 0.471570 0.250000 0.728492
#
# Coordination Sequence:
#
# PCOD9448833 Si02
#       8
#     8   8   8   8   8   8   8   8
#     4  11  23  37  56  81 112 146 181 222 270 330
#     4  10  19  34  54  77 108 139 175 224 272 323
#     4   9  16  28  45  67 100 134 167 213 266 315
#     4   9  17  29  49  75  99 132 177 222 271 320
#     4   9  17  28  44  69 103 137 169 213 268 317
#     4  11  20  32  51  76 106 141 180 220 264 320
#     4  10  20  35  52  74 106 142 177 217 266 318
#     4   9  17  29  48  75 105 138 177 225 278 323
#
# _framework density 18.656551
#
# number of rings (size 3 to 8) (size 9 to 14) (size 15 to 20)
#    0.000    2.250    1.250    2.625    0.000    6.000 
#    0.000    2.500    0.000    1.500    0.000    0.000 
#    0.000    1.000    0.000    0.000    0.000    0.000 
#
# Total GULP energy -356651.431197 kJ/mol
# GULP energy per Si atom -5572.678612 kJ/mol
# Density = 1.861409 g / cm^3
# Si number density = 18.656551 Si / 1000 Ang^3
#
#
#
# Elastic Constant Matrix: (Units=GPa)
#
#
# Indices 1 2 3 4 5 6 
#
# 1 14.7105 13.1433 16.9197 0.0000 0.0000 0.0000
# 2 13.1433 92.4754 52.5003 0.0000 0.0000 0.0000
# 3 16.9197 52.5003 138.9763 0.0000 0.0000 0.0000
# 4 0.0000 0.0000 0.0000 35.3217 0.0000 0.0000
# 5 0.0000 0.0000 0.0000 0.0000 13.6903 0.0000
# 6 0.0000 0.0000 0.0000 0.0000 0.0000 16.3519
#
#
#
# Elastic Compliance Matrix: (Units=1/GPa)
#
#
# Indices 1 2 3 4 5 6 
#
# 1 0.083173 -0.007730 -0.007206 0.000000 0.000000 0.000000
# 2 -0.007730 0.014484 -0.004531 0.000000 0.000000 0.000000
# 3 -0.007206 -0.004531 0.009784 0.000000 0.000000 0.000000
# 4 0.000000 0.000000 0.000000 0.028311 0.000000 0.000000
# 5 0.000000 0.000000 0.000000 0.000000 0.073045 0.000000
# 6 0.000000 0.000000 0.000000 0.000000 0.000000 0.061155
#
#
# Mechanical properties :
#
#
# Convention : Reuss Voigt Hill
#
# Bulk Modulus (GPa) = 14.59666 45.69874 30.14770
# Shear Modulus (GPa) = 15.07284 23.97937 19.52611
#
# Velocity S-wave (km/s) = 2.84546 3.58901 3.23864
# Velocity P-wave (km/s) = 4.31699 6.45930 5.49358
#
# Compressibility (1/GPa) = 0.06850883
#
# Stress axis : x y z
#
# Youngs Moduli (GPa) = 12.02307 69.03941 102.20529
#
# Poissons Ratio (x) = 0.53370 0.73646
# Poissons Ratio (y) = 0.09294 0.46305
# Poissons Ratio (z) = 0.08663 0.31279
#
# Static dielectric constant tensor:
#      x y z
#    x 1.641760 0.000000 0.000000 
#    y 0.000000 1.617450 0.000000 
#    z 0.000000 0.000000 1.715050 
# 
# From -- ./inp_files/15037.got.cif
#   From: 2010.05.17/outbox.cif.g08.bks.cpg/sg59_8_cif.got.tgz:15037.got - 2010.06.03 14:40:33.
