data_PCOD9448030
_publ_section_title
;
Structure prediction by ZEFSAII (Michael W. Deem and Ramdas Pophale) SiO2 
 PCOD9448030
Probable space group: P M M N
;
_chemical_formula_sum "Si O2"
_cell_formula_units_Z 56
_cell_length_a 21.611725
_cell_length_b 14.211421
_cell_length_c 10.332579
_cell_angle_alpha 90.000000
_cell_angle_beta 90.000000
_cell_angle_gamma 90.000000
_cell_volume 3173.479318
_symmetry_space_group_name_H-M "P M M N"
_symmetry_group_IT_number 59
_space_group.IT_coordinate_system_code '2'
_symmetry_cell_setting 'orthorhombic'
loop_
_space_group_symop_operation_xyz
x,y,z
1/2-x,1/2-y,z
1/2+x,-y,-z
-x,1/2+y,-z
-x,-y,-z
1/2+x,1/2+y,-z
1/2-x,y,z
x,1/2-y,z
loop_
_atom_site_type_symbol
_atom_site_label
_atom_site_fract_x
_atom_site_fract_y
_atom_site_fract_z
Si Si1 0.320837 0.143349 0.503780
Si Si2 0.629612 0.639316 0.770535
Si Si3 0.620246 0.982717 0.286243
Si Si4 0.679376 0.360431 0.129517
Si Si5 0.512387 0.524678 0.796292
Si Si6 0.054975 0.861856 0.024565
Si Si7 0.677231 0.862670 0.056534
O O1 0.250000 0.138491 0.547752
O O2 0.343509 0.250000 0.529268
O O3 0.324399 0.128738 0.349831
O O4 0.358484 0.068508 0.585109
O O5 0.614331 0.750000 0.780715
O O6 0.569289 0.579879 0.736064
O O7 0.656275 0.611192 0.910888
O O8 0.636308 0.914953 0.163632
O O9 0.658938 0.075945 0.250323
O O10 0.547922 0.005484 0.288059
O O11 0.750000 0.382626 0.089855
O O12 0.676693 0.250000 0.161530
O O13 0.626267 0.376233 0.021161
O O14 0.537584 0.426572 0.854195
O O15 0.487433 0.593260 0.911304
O O16 0.044166 0.750000 0.039999
O O17 0.750000 0.884843 0.074838
O O18 0.670519 0.750000 0.069867
#
# Coordination Sequence:
#
# PCOD9448030 Si02
#       7
#     8   8   8   8   8   8   8
#     4  10  21  37  56  78 102 129 162 202 256 315
#     4  10  20  35  54  74 102 138 170 205 247 297
#     4  11  21  32  51  76 104 133 163 206 252 294
#     4   9  17  29  46  69  95 127 169 210 246 284
#     4  10  20  31  47  73 101 135 174 203 242 301
#     4   9  17  30  48  72 104 135 164 206 251 291
#     4  10  19  31  51  80 108 133 165 206 254 304
#
# _framework density 17.646246999999999
#
# number of rings (size 3 to 8) (size 9 to 14) (size 15 to 20)
#    0.000    2.143    0.000    5.143    0.000    6.286 
#    0.000    0.714    0.000    0.857    0.000    0.000 
#    0.000    4.571    0.000    0.000    0.000    0.000 
#
# Total GULP energy -312368.538607 kJ/mol
# GULP energy per Si atom -5578.009618 kJ/mol
# Density = 1.760608 g / cm^3
# Si number density = 17.646247 Si / 1000 Ang^3
#
#
#
# Elastic Constant Matrix: (Units=GPa)
#
#
# Indices 1 2 3 4 5 6 
#
# 1 82.6452 28.2600 -4.2343 0.0000 0.0000 0.0000
# 2 28.2600 76.9654 10.3207 0.0000 0.0000 0.0000
# 3 -4.2343 10.3207 30.5515 0.0000 0.0000 0.0000
# 4 0.0000 0.0000 0.0000 17.0364 0.0000 0.0000
# 5 0.0000 0.0000 0.0000 0.0000 12.8859 0.0000
# 6 0.0000 0.0000 0.0000 0.0000 0.0000 28.9299
#
#
#
# Elastic Compliance Matrix: (Units=1/GPa)
#
#
# Indices 1 2 3 4 5 6 
#
# 1 0.014273 -0.005767 0.003926 0.000000 0.000000 0.000000
# 2 -0.005767 0.015940 -0.006184 0.000000 0.000000 0.000000
# 3 0.003926 -0.006184 0.035365 0.000000 0.000000 0.000000
# 4 0.000000 0.000000 0.000000 0.058698 0.000000 0.000000
# 5 0.000000 0.000000 0.000000 0.000000 0.077604 0.000000
# 6 0.000000 0.000000 0.000000 0.000000 0.000000 0.034566
#
#
# Mechanical properties :
#
#
# Convention : Reuss Voigt Hill
#
# Bulk Modulus (GPa) = 20.19054 28.76166 24.47610
# Shear Modulus (GPa) = 18.58697 22.15813 20.37255
#
# Velocity S-wave (km/s) = 3.24899 3.54741 3.40148
# Velocity P-wave (km/s) = 5.05384 5.75441 5.41546
#
# Compressibility (1/GPa) = 0.04952816
#
# Stress axis : x y z
#
# Youngs Moduli (GPa) = 70.06144 62.73631 28.27663
#
# Poissons Ratio (x) = 0.36182 -0.11103
# Poissons Ratio (y) = 0.40407 0.17486
# Poissons Ratio (z) = -0.27510 0.38796
#
# Static dielectric constant tensor:
#      x y z
#    x 1.625180 0.000000 0.000000 
#    y 0.000000 1.608650 0.000000 
#    z 0.000000 0.000000 1.589510 
# 
# From -- ./inp_files/11411.got.cif
#   From: 2010.05.17/outbox.cif.g08.bks.cpg/sg59_6_cif.got.tgz:11411.got - 2010.06.03 14:40:33.
