data_PCOD9448702
_publ_section_title
;
Structure prediction by ZEFSAII (Michael W. Deem and Ramdas Pophale) SiO2 
 PCOD9448702
Probable space group: P M M N
;
_chemical_formula_sum "Si O2"
_cell_formula_units_Z 64
_cell_length_a 20.840838
_cell_length_b 7.577646
_cell_length_c 17.913550
_cell_angle_alpha 90.000000
_cell_angle_beta 90.000000
_cell_angle_gamma 90.000000
_cell_volume 2828.988296
_symmetry_space_group_name_H-M "P M M N"
_symmetry_group_IT_number 59
_space_group.IT_coordinate_system_code '2'
_symmetry_cell_setting 'orthorhombic'
loop_
_space_group_symop_operation_xyz
x,y,z
1/2-x,1/2-y,z
1/2+x,-y,-z
-x,1/2+y,-z
-x,-y,-z
1/2+x,1/2+y,-z
1/2-x,y,z
x,1/2-y,z
loop_
_atom_site_type_symbol
_atom_site_label
_atom_site_fract_x
_atom_site_fract_y
_atom_site_fract_z
Si Si1 0.914873 0.461681 0.618139
Si Si2 0.991762 0.051688 0.913943
Si Si3 0.841629 0.046018 0.905547
Si Si4 0.319687 0.534406 0.257717
Si Si5 0.590578 0.448795 0.198597
Si Si6 0.935773 0.462076 0.363328
Si Si7 0.825677 0.465665 0.479348
Si Si8 0.176178 0.546140 0.930013
O O1 0.911351 0.250000 0.618140
O O2 0.880946 0.525197 0.694658
O O3 0.866287 0.521087 0.552694
O O4 0.990826 0.500660 0.610395
O O5 0.016482 0.250000 0.905752
O O6 0.917391 0.049781 0.897942
O O7 0.027562 0.939823 0.852320
O O8 0.000000 0.000000 0.000000
O O9 0.818316 0.250000 0.909545
O O10 0.818685 0.969045 0.827494
O O11 0.828794 0.965844 0.987109
O O12 0.250000 0.492797 0.292863
O O13 0.323538 0.750000 0.253796
O O14 0.615339 0.250000 0.213841
O O15 0.574272 0.528817 0.278582
O O16 0.639600 0.534965 0.139939
O O17 0.932933 0.250000 0.362990
O O18 0.874893 0.521162 0.413121
O O19 0.750000 0.521809 0.476027
O O20 0.823551 0.250000 0.479201
O O21 0.250000 0.554554 0.911026
O O22 0.150670 0.750000 0.938114
#
# Coordination Sequence:
#
# PCOD9448702 Si02
#       8
#     8   8   8   8   8   8   8   8
#     4  10  19  33  55  81 109 140 177 221 267 326
#     4  11  20  32  51  74 101 134 173 219 269 319
#     4   9  16  26  42  67  97 125 161 211 262 309
#     4   9  16  26  44  73 104 132 168 219 274 319
#     4  10  20  34  49  73 103 133 174 217 262 315
#     4  10  21  35  54  79 111 145 177 221 273 325
#     4   9  18  34  57  84 111 141 180 226 274 320
#     4   9  16  27  44  65  91 124 164 213 260 300
#
# _framework density 22.622928999999999
#
# number of rings (size 3 to 8) (size 9 to 14) (size 15 to 20)
#    0.000    2.375    1.250    2.250    0.000    5.000 
#    0.000    2.500    0.000    3.000    0.000    1.750 
#    0.000    0.000    0.000    0.000    0.000    0.000 
#
# Total GULP energy -356686.518352 kJ/mol
# GULP energy per Si atom -5573.226849 kJ/mol
# Density = 2.257144 g / cm^3
# Si number density = 22.622929 Si / 1000 Ang^3
#
#
#
# Elastic Constant Matrix: (Units=GPa)
#
#
# Indices 1 2 3 4 5 6 
#
# 1 192.7468 7.3144 98.6188 0.0000 0.0000 0.0000
# 2 7.3144 55.1323 9.0142 0.0000 0.0000 0.0000
# 3 98.6188 9.0142 165.2443 0.0000 0.0000 0.0000
# 4 0.0000 0.0000 0.0000 -31.6699 0.0000 0.0000
# 5 0.0000 0.0000 0.0000 0.0000 17.3323 0.0000
# 6 0.0000 0.0000 0.0000 0.0000 0.0000 13.2770
#
#
#
# Elastic Compliance Matrix: (Units=1/GPa)
#
#
# Indices 1 2 3 4 5 6 
#
# 1 0.007473 -0.000265 -0.004445 0.000000 0.000000 0.000000
# 2 -0.000265 0.018311 -0.000841 0.000000 0.000000 0.000000
# 3 -0.004445 -0.000841 0.008750 0.000000 0.000000 0.000000
# 4 0.000000 0.000000 0.000000 -0.031576 0.000000 0.000000
# 5 0.000000 0.000000 0.000000 0.000000 0.057696 0.000000
# 6 0.000000 0.000000 0.000000 0.000000 0.000000 0.075318
#
#
# Mechanical properties :
#
#
# Convention : Reuss Voigt Hill
#
# Bulk Modulus (GPa) = 42.67623 71.44649 57.06136
# Shear Modulus (GPa) = 32.28215 19.66630 25.97422
#
# Velocity S-wave (km/s) = 3.78162 2.95160 3.39209
# Velocity P-wave (km/s) = 6.16219 6.57769 6.37333
#
# Compressibility (1/GPa) = 0.02343225
#
# Stress axis : x y z
#
# Youngs Moduli (GPa) = 133.82199 54.61263 114.27938
#
# Poissons Ratio (x) = 0.01445 0.50800
# Poissons Ratio (y) = 0.03541 0.09610
# Poissons Ratio (z) = 0.59487 0.04593
#
# Static dielectric constant tensor:
#      x y z
#    x 1.832520 0.000000 0.000000 
#    y 0.000000 1.932080 0.000000 
#    z 0.000000 0.000000 1.887760 
# 
# From -- ./inp_files/28303.got.cif
#   From: 2010.05.17/outbox.cif.g08.bks.cpg/sg59_15_cif.got.tgz:28303.got - 2010.06.03 14:40:33.
