data_PCOD9448973
_publ_section_title
;
Structure prediction by ZEFSAII (Michael W. Deem and Ramdas Pophale) SiO2 
 PCOD9448973
Probable space group: P M M N
;
_chemical_formula_sum "Si O2"
_cell_formula_units_Z 48
_cell_length_a 8.333632
_cell_length_b 16.473900
_cell_length_c 17.298518
_cell_angle_alpha 90.000000
_cell_angle_beta 90.000000
_cell_angle_gamma 90.000000
_cell_volume 2374.868910
_symmetry_space_group_name_H-M "P M M N"
_symmetry_group_IT_number 59
_space_group.IT_coordinate_system_code '2'
_symmetry_cell_setting 'orthorhombic'
loop_
_space_group_symop_operation_xyz
x,y,z
1/2-x,1/2-y,z
1/2+x,-y,-z
-x,1/2+y,-z
-x,-y,-z
1/2+x,1/2+y,-z
1/2-x,y,z
x,1/2-y,z
loop_
_atom_site_type_symbol
_atom_site_label
_atom_site_fract_x
_atom_site_fract_y
_atom_site_fract_z
Si Si1 0.560282 0.383535 0.667930
Si Si2 0.565542 0.750000 0.217074
Si Si3 0.558404 0.585753 0.966618
Si Si4 0.445839 0.068917 0.346528
Si Si5 0.436421 0.750000 0.047842
Si Si6 0.059599 0.343338 0.499292
Si Si7 0.553995 0.657435 0.807416
O O1 0.750000 0.378258 0.683849
O O2 0.471120 0.327101 0.728901
O O3 0.508040 0.476930 0.671120
O O4 0.527359 0.354990 0.580509
O O5 0.750000 0.750000 0.192729
O O6 0.460885 0.750000 0.139989
O O7 0.750000 0.582796 0.965745
O O8 0.501424 0.601271 0.878503
O O9 0.500000 0.500000 0.000000
O O10 0.509682 0.666653 0.013832
O O11 0.250000 0.071843 0.349132
O O12 0.500502 0.099207 0.430490
O O13 0.498602 0.125598 0.276049
O O14 0.250000 0.750000 0.028131
O O15 0.250000 0.358258 0.512049
O O16 0.043206 0.250000 0.473490
O O17 0.750000 0.656810 0.806923
O O18 0.503425 0.750000 0.821168
#
# Coordination Sequence:
#
# PCOD9448973 Si02
#       7
#     8   4   8   8   4   8   8
#     4  11  22  37  58  86 121 157 200 249 306 369
#     4  12  26  44  64  87 118 155 204 257 312 375
#     4  11  23  41  66  99 133 170 215 264 323 390
#     4   9  19  33  55  88 120 156 203 250 297 360
#     4  12  26  46  70  95 128 169 214 269 330 391
#     4  10  19  34  57  84 118 159 204 246 294 352
#     4   9  17  34  60  89 122 158 203 255 304 362
#
# _framework density 20.211642999999999
#
# number of rings (size 3 to 8) (size 9 to 14) (size 15 to 20)
#    0.000    1.667    1.667    3.500    2.333    2.000 
#    0.000    0.833    0.000    2.000    0.000    0.000 
#    0.000    0.000    0.000    0.000    0.000    0.000 
#
# Total GULP energy -268194.019121 kJ/mol
# GULP energy per Si atom -5587.375398 kJ/mol
# Density = 2.016564 g / cm^3
# Si number density = 20.211643 Si / 1000 Ang^3
#
#
#
# Elastic Constant Matrix: (Units=GPa)
#
#
# Indices 1 2 3 4 5 6 
#
# 1 28.5243 12.4284 -8.4672 0.0000 0.0000 0.0000
# 2 12.4284 90.7662 14.3402 0.0000 0.0000 0.0000
# 3 -8.4672 14.3402 82.4390 0.0000 0.0000 0.0000
# 4 0.0000 0.0000 0.0000 79.4120 0.0000 0.0000
# 5 0.0000 0.0000 0.0000 0.0000 18.6346 0.0000
# 6 0.0000 0.0000 0.0000 0.0000 0.0000 18.9694
#
#
#
# Elastic Compliance Matrix: (Units=1/GPa)
#
#
# Indices 1 2 3 4 5 6 
#
# 1 0.039269 -0.006184 0.005109 0.000000 0.000000 0.000000
# 2 -0.006184 0.012303 -0.002775 0.000000 0.000000 0.000000
# 3 0.005109 -0.002775 0.013138 0.000000 0.000000 0.000000
# 4 0.000000 0.000000 0.000000 0.012593 0.000000 0.000000
# 5 0.000000 0.000000 0.000000 0.000000 0.053664 0.000000
# 6 0.000000 0.000000 0.000000 0.000000 0.000000 0.052716
#
#
# Mechanical properties :
#
#
# Convention : Reuss Voigt Hill
#
# Bulk Modulus (GPa) = 17.54130 26.48137 22.01133
# Shear Modulus (GPa) = 23.76593 35.63175 29.69884
#
# Velocity S-wave (km/s) = 3.43279 4.20328 3.83742
# Velocity P-wave (km/s) = 4.94062 6.05700 5.52707
#
# Compressibility (1/GPa) = 0.05700833
#
# Stress axis : x y z
#
# Youngs Moduli (GPa) = 25.46548 81.28397 76.11710
#
# Poissons Ratio (x) = 0.50267 -0.38888
# Poissons Ratio (y) = 0.15748 0.21124
# Poissons Ratio (z) = -0.13010 0.22558
#
# Static dielectric constant tensor:
#      x y z
#    x 1.740930 0.000000 0.000000 
#    y 0.000000 1.741610 0.000000 
#    z 0.000000 0.000000 1.694920 
# 
# From -- ./inp_files/25558.got.cif
#   From: 2010.05.17/outbox.cif.g08.bks.cpg/sg59_13_cif.got.tgz:25558.got - 2010.06.03 14:40:33.
