data_PCOD9448301
_publ_section_title
;
Structure prediction by ZEFSAII (Michael W. Deem and Ramdas Pophale) SiO2 
 PCOD9448301
Probable space group: P M M N
;
_chemical_formula_sum "Si O2"
_cell_formula_units_Z 64
_cell_length_a 18.785861
_cell_length_b 13.640767
_cell_length_c 13.306762
_cell_angle_alpha 90.000000
_cell_angle_beta 90.000000
_cell_angle_gamma 90.000000
_cell_volume 3409.905039
_symmetry_space_group_name_H-M "P M M N"
_symmetry_group_IT_number 59
_space_group.IT_coordinate_system_code '2'
_symmetry_cell_setting 'orthorhombic'
loop_
_space_group_symop_operation_xyz
x,y,z
1/2-x,1/2-y,z
1/2+x,-y,-z
-x,1/2+y,-z
-x,-y,-z
1/2+x,1/2+y,-z
1/2-x,y,z
x,1/2-y,z
loop_
_atom_site_type_symbol
_atom_site_label
_atom_site_fract_x
_atom_site_fract_y
_atom_site_fract_z
Si Si1 0.672475 0.633141 0.846838
Si Si2 0.619424 0.553250 0.639960
Si Si3 0.667997 0.637985 0.232141
Si Si4 0.546214 0.363709 0.666005
Si Si5 0.961264 0.554517 0.145618
Si Si6 0.168794 0.497681 0.574070
Si Si7 0.969553 0.134943 0.432550
Si Si8 0.979235 0.634108 0.932003
O O1 0.750000 0.592919 0.876634
O O2 0.675110 0.750000 0.858104
O O3 0.657287 0.608312 0.730363
O O4 0.602155 0.602702 0.907280
O O5 0.612095 0.438507 0.668157
O O6 0.657598 0.555863 0.532742
O O7 0.538639 0.593123 0.624414
O O8 0.750000 0.639677 0.202250
O O9 0.642825 0.750000 0.242648
O O10 0.620813 0.582499 0.151416
O O11 0.662460 0.580580 0.336784
O O12 0.563948 0.250000 0.680200
O O13 0.494697 0.400966 0.753423
O O14 0.515289 0.374244 0.552821
O O15 0.974142 0.438821 0.135694
O O16 0.993956 0.606982 0.047741
O O17 0.250000 0.538585 0.577383
O O18 0.103860 0.575376 0.585049
O O19 0.960743 0.250000 0.409686
O O20 0.987856 0.750000 0.913442
#
# Coordination Sequence:
#
# PCOD9448301 Si02
#       8
#     8   8   8   8   8   8   8   8
#     4  10  21  36  54  79 112 146 180 221 273 331
#     4  11  19  34  53  79 108 149 185 228 271 324
#     4  10  21  36  55  82 113 144 183 231 279 329
#     4  10  19  32  52  79 106 138 183 230 275 322
#     4  11  20  36  60  83 107 144 180 228 285 332
#     4  10  21  35  53  79 112 148 185 225 277 330
#     4  10  21  34  53  79 110 147 189 234 273 324
#     4  10  22  37  56  85 112 140 182 231 280 333
#
# _framework density 18.768851000000002
#
# number of rings (size 3 to 8) (size 9 to 14) (size 15 to 20)
#    0.000    1.750    1.250    4.875    0.000    2.750 
#    0.000    2.500    0.000    2.250    0.000    0.000 
#    0.000    0.000    0.000    0.000    0.000    0.000 
#
# Total GULP energy -357150.226440 kJ/mol
# GULP energy per Si atom -5580.472288 kJ/mol
# Density = 1.872613 g / cm^3
# Si number density = 18.768851 Si / 1000 Ang^3
#
#
#
# Elastic Constant Matrix: (Units=GPa)
#
#
# Indices 1 2 3 4 5 6 
#
# 1 85.3591 53.4878 25.6356 0.0000 0.0000 0.0000
# 2 53.4878 101.9937 23.9161 0.0000 0.0000 0.0000
# 3 25.6356 23.9161 39.7363 0.0000 0.0000 0.0000
# 4 0.0000 0.0000 0.0000 19.8921 0.0000 0.0000
# 5 0.0000 0.0000 0.0000 0.0000 10.4608 0.0000
# 6 0.0000 0.0000 0.0000 0.0000 0.0000 24.5736
#
#
#
# Elastic Compliance Matrix: (Units=1/GPa)
#
#
# Indices 1 2 3 4 5 6 
#
# 1 0.019126 -0.008309 -0.007338 0.000000 0.000000 0.000000
# 2 -0.008309 0.015026 -0.003683 0.000000 0.000000 0.000000
# 3 -0.007338 -0.003683 0.032116 0.000000 0.000000 0.000000
# 4 0.000000 0.000000 0.000000 0.050271 0.000000 0.000000
# 5 0.000000 0.000000 0.000000 0.000000 0.095595 0.000000
# 6 0.000000 0.000000 0.000000 0.000000 0.000000 0.040694
#
#
# Mechanical properties :
#
#
# Convention : Reuss Voigt Hill
#
# Bulk Modulus (GPa) = 36.22127 48.12979 42.17553
# Shear Modulus (GPa) = 16.62840 19.25528 17.94184
#
# Velocity S-wave (km/s) = 2.97973 3.20647 3.09518
# Velocity P-wave (km/s) = 5.58381 6.27756 5.94082
#
# Compressibility (1/GPa) = 0.02760809
#
# Stress axis : x y z
#
# Youngs Moduli (GPa) = 52.28558 66.55253 31.13683
#
# Poissons Ratio (x) = 0.55301 0.22847
# Poissons Ratio (y) = 0.43446 0.11467
# Poissons Ratio (z) = 0.38365 0.24510
#
# Static dielectric constant tensor:
#      x y z
#    x 1.703070 0.000000 0.000000 
#    y 0.000000 1.648970 0.000000 
#    z 0.000000 0.000000 1.674450 
# 
# From -- ./inp_files/17835.got.cif
#   From: 2010.05.17/outbox.cif.g08.bks.cpg/sg59_9_cif.got.tgz:17835.got - 2010.06.03 14:40:33.
