data_PCOD9448393
_publ_section_title
;
Structure prediction by ZEFSAII (Michael W. Deem and Ramdas Pophale) SiO2 
 PCOD9448393
Probable space group: P M M N
;
_chemical_formula_sum "Si O2"
_cell_formula_units_Z 64
_cell_length_a 22.565192
_cell_length_b 8.047253
_cell_length_c 18.410475
_cell_angle_alpha 90.000000
_cell_angle_beta 90.000000
_cell_angle_gamma 90.000000
_cell_volume 3343.117818
_symmetry_space_group_name_H-M "P M M N"
_symmetry_group_IT_number 59
_space_group.IT_coordinate_system_code '2'
_symmetry_cell_setting 'orthorhombic'
loop_
_space_group_symop_operation_xyz
x,y,z
1/2-x,1/2-y,z
1/2+x,-y,-z
-x,1/2+y,-z
-x,-y,-z
1/2+x,1/2+y,-z
1/2-x,y,z
x,1/2-y,z
loop_
_atom_site_type_symbol
_atom_site_label
_atom_site_fract_x
_atom_site_fract_y
_atom_site_fract_z
Si Si1 0.183808 0.450113 0.628816
Si Si2 0.597036 0.940310 0.244504
Si Si3 0.048324 0.053246 0.062661
Si Si4 0.970498 0.560504 0.775089
Si Si5 0.316191 0.944110 0.034128
Si Si6 0.584876 0.448020 0.471362
Si Si7 0.185515 0.943662 0.860529
Si Si8 0.528602 0.948672 0.618377
O O1 0.250000 0.516162 0.632547
O O2 0.186066 0.250000 0.632300
O O3 0.143252 0.504176 0.695924
O O4 0.148643 0.502157 0.557511
O O5 0.579248 0.750000 0.260415
O O6 0.540766 0.055801 0.238099
O O7 0.633118 0.947830 0.170145
O O8 0.039056 0.250000 0.066574
O O9 0.037399 0.982801 0.144731
O O10 0.118817 0.020227 0.050307
O O11 0.000000 0.000000 0.000000
O O12 0.947494 0.750000 0.779345
O O13 0.950410 0.484834 0.697094
O O14 0.250000 0.008591 0.059251
O O15 0.318702 0.750000 0.056280
O O16 0.313260 0.950287 0.946960
O O17 0.578793 0.250000 0.473810
O O18 0.534934 0.511822 0.413389
O O19 0.571386 0.516515 0.550961
O O20 0.250000 0.999359 0.832586
O O21 0.176987 0.750000 0.840396
O O22 0.523057 0.750000 0.627598
#
# Coordination Sequence:
#
# PCOD9448393 Si02
#       8
#     8   8   8   8   8   8   8   8
#     4  10  21  35  49  70 106 147 179 210 256 315
#     4  11  21  31  47  73 105 138 176 221 265 310
#     4  11  23  37  56  83 116 151 189 236 285 337
#     4  10  21  37  54  75 106 143 181 219 266 326
#     4   9  19  37  58  78 104 141 185 232 286 346
#     4  10  19  32  54  80 103 130 171 217 260 308
#     4   9  18  32  49  68  94 134 178 216 260 320
#     4   9  18  34  55  76 102 134 169 215 267 315
#
# _framework density 19.143806000000001
#
# number of rings (size 3 to 8) (size 9 to 14) (size 15 to 20)
#    0.000    2.125    1.250    3.000    0.000    7.250 
#    0.000    1.250    0.000    0.750    0.000    1.750 
#    0.000    0.000    0.000    0.000    0.000    0.000 
#
# Total GULP energy -356352.235301 kJ/mol
# GULP energy per Si atom -5568.003677 kJ/mol
# Density = 1.910023 g / cm^3
# Si number density = 19.143806 Si / 1000 Ang^3
#
#
#
# Elastic Constant Matrix: (Units=GPa)
#
#
# Indices 1 2 3 4 5 6 
#
# 1 83.3394 5.3949 43.9330 0.0000 0.0000 0.0000
# 2 5.3949 16.5375 8.2744 0.0000 0.0000 0.0000
# 3 43.9330 8.2744 119.9121 0.0000 0.0000 0.0000
# 4 0.0000 0.0000 0.0000 17.9257 0.0000 0.0000
# 5 0.0000 0.0000 0.0000 0.0000 -14.3677 0.0000
# 6 0.0000 0.0000 0.0000 0.0000 0.0000 -4.3177
#
#
#
# Elastic Compliance Matrix: (Units=1/GPa)
#
#
# Indices 1 2 3 4 5 6 
#
# 1 0.014949 -0.002213 -0.005324 0.000000 0.000000 0.000000
# 2 -0.002213 0.062958 -0.003534 0.000000 0.000000 0.000000
# 3 -0.005324 -0.003534 0.010534 0.000000 0.000000 0.000000
# 4 0.000000 0.000000 0.000000 0.055786 0.000000 0.000000
# 5 0.000000 0.000000 0.000000 0.000000 -0.069600 0.000000
# 6 0.000000 0.000000 0.000000 0.000000 0.000000 -0.231605
#
#
# Mechanical properties :
#
#
# Convention : Reuss Voigt Hill
#
# Bulk Modulus (GPa) = 15.08295 37.22149 26.15222
# Shear Modulus (GPa) = -44.35119 10.66052 -16.84533
#
# Velocity S-wave (km/s) = -4.81847 2.36236 -2.96959
# Velocity P-wave (km/s) = 4.80219 5.18906 1.39019
#
# Compressibility (1/GPa) = 0.06630001
#
# Stress axis : x y z
#
# Youngs Moduli (GPa) = 66.89359 15.88352 94.93083
#
# Poissons Ratio (x) = 0.03515 0.50544
# Poissons Ratio (y) = 0.14802 0.33545
# Poissons Ratio (z) = 0.35616 0.05613
#
# Static dielectric constant tensor:
#      x y z
#    x 1.705260 0.000000 0.000000 
#    y 0.000000 1.690190 0.000000 
#    z 0.000000 0.000000 1.724850 
# 
# From -- ./inp_files/28148.got.cif
#   From: 2010.05.17/outbox.cif.g08.bks.cpg/sg59_15_cif.got.tgz:28148.got - 2010.06.03 14:40:33.
