data_PCOD9448169
_publ_section_title
;
Structure prediction by ZEFSAII (Michael W. Deem and Ramdas Pophale) SiO2 
 PCOD9448169
Probable space group: P M M N
;
_chemical_formula_sum "Si O2"
_cell_formula_units_Z 48
_cell_length_a 8.764193
_cell_length_b 30.951684
_cell_length_c 10.340289
_cell_angle_alpha 90.000000
_cell_angle_beta 90.000000
_cell_angle_gamma 90.000000
_cell_volume 2804.974340
_symmetry_space_group_name_H-M "P M M N"
_symmetry_group_IT_number 59
_space_group.IT_coordinate_system_code '2'
_symmetry_cell_setting 'orthorhombic'
loop_
_space_group_symop_operation_xyz
x,y,z
1/2-x,1/2-y,z
1/2+x,-y,-z
-x,1/2+y,-z
-x,-y,-z
1/2+x,1/2+y,-z
1/2-x,y,z
x,1/2-y,z
loop_
_atom_site_type_symbol
_atom_site_label
_atom_site_fract_x
_atom_site_fract_y
_atom_site_fract_z
Si Si1 0.068373 0.702402 0.783986
Si Si2 0.930762 0.024110 0.624037
Si Si3 0.568403 0.888567 0.783370
Si Si4 0.568824 0.890718 0.472930
Si Si5 0.568709 0.796496 0.498839
Si Si6 0.567975 0.022429 0.126603
O O1 0.250000 0.698663 0.798663
O O2 0.020635 0.750000 0.836152
O O3 0.989176 0.658371 0.830544
O O4 0.024684 0.703671 0.631938
O O5 0.750000 0.017340 0.629414
O O6 0.972734 0.074035 0.602631
O O7 0.000000 0.000000 0.500000
O O8 0.007625 0.004143 0.750134
O O9 0.750000 0.891284 0.798319
O O10 0.536747 0.892746 0.628010
O O11 0.489493 0.928469 0.854578
O O12 0.750000 0.899374 0.456824
O O13 0.535244 0.841552 0.429699
O O14 0.750000 0.798836 0.532967
O O15 0.543175 0.750000 0.433117
O O16 0.750000 0.021730 0.122564
O O17 0.500000 0.000000 0.000000
#
# Coordination Sequence:
#
# PCOD9448169 Si02
#       6
#     8   8   8   8   8   8
#     4   9  16  25  40  66 100 135 172 214 261 311
#     4  12  23  36  55  79 107 141 182 222 266 315
#     4  10  19  32  51  74 104 139 177 217 264 319
#     4   9  17  29  48  74 104 136 176 220 265 314
#     4   8  14  25  41  63  96 135 171 210 259 314
#     4  12  25  41  59  79 107 141 179 224 273 328
#
# _framework density 17.112455000000001
#
# number of rings (size 3 to 8) (size 9 to 14) (size 15 to 20)
#    0.000    2.000    1.667    5.000    0.000    3.667 
#    0.000    0.000    0.000    0.000    0.000    1.167 
#    0.000    6.667    0.000    0.000    0.000    0.000 
#
# Total GULP energy -267586.127813 kJ/mol
# GULP energy per Si atom -5574.710996 kJ/mol
# Density = 1.707351 g / cm^3
# Si number density = 17.112455 Si / 1000 Ang^3
#
#
#
# Elastic Constant Matrix: (Units=GPa)
#
#
# Indices 1 2 3 4 5 6 
#
# 1 105.5813 77.2663 38.6699 0.0000 0.0000 0.0000
# 2 77.2663 178.0747 50.7950 0.0000 0.0000 0.0000
# 3 38.6699 50.7950 65.2958 0.0000 0.0000 0.0000
# 4 0.0000 0.0000 0.0000 11.5372 0.0000 0.0000
# 5 0.0000 0.0000 0.0000 0.0000 17.8138 0.0000
# 6 0.0000 0.0000 0.0000 0.0000 0.0000 31.7350
#
#
#
# Elastic Compliance Matrix: (Units=1/GPa)
#
#
# Indices 1 2 3 4 5 6 
#
# 1 0.015012 -0.005112 -0.004914 0.000000 0.000000 0.000000
# 2 -0.005112 0.008958 -0.003941 0.000000 0.000000 0.000000
# 3 -0.004914 -0.003941 0.021291 0.000000 0.000000 0.000000
# 4 0.000000 0.000000 0.000000 0.086676 0.000000 0.000000
# 5 0.000000 0.000000 0.000000 0.000000 0.056136 0.000000
# 6 0.000000 0.000000 0.000000 0.000000 0.000000 0.031511
#
#
# Mechanical properties :
#
#
# Convention : Reuss Voigt Hill
#
# Bulk Modulus (GPa) = 57.71326 75.82382 66.76854
# Shear Modulus (GPa) = 19.73992 24.36525 22.05259
#
# Velocity S-wave (km/s) = 3.40007 3.77746 3.59372
# Velocity P-wave (km/s) = 7.01520 7.96436 7.50480
#
# Compressibility (1/GPa) = 0.01732704
#
# Stress axis : x y z
#
# Youngs Moduli (GPa) = 66.61229 111.63293 46.96864
#
# Poissons Ratio (x) = 0.57068 0.23079
# Poissons Ratio (y) = 0.34053 0.18510
# Poissons Ratio (z) = 0.32732 0.43995
#
# Static dielectric constant tensor:
#      x y z
#    x 1.569920 0.000000 0.000000 
#    y 0.000000 1.666080 0.000000 
#    z 0.000000 0.000000 1.534280 
# 
# From -- ./inp_files/6181.got.cif
#   From: 2010.05.17/outbox.cif.g08.bks.cpg/sg59_4_cif.got.tgz:6181.got - 2010.06.03 14:40:33.
