data_PCOD9448007
_publ_section_title
;
Structure prediction by ZEFSAII (Michael W. Deem and Ramdas Pophale) SiO2 
 PCOD9448007
Probable space group: P M M N
;
_chemical_formula_sum "Si O2"
_cell_formula_units_Z 48
_cell_length_a 7.921122
_cell_length_b 9.272529
_cell_length_c 35.685413
_cell_angle_alpha 90.000000
_cell_angle_beta 90.000000
_cell_angle_gamma 90.000000
_cell_volume 2621.051956
_symmetry_space_group_name_H-M "P M M N"
_symmetry_group_IT_number 59
_space_group.IT_coordinate_system_code '2'
_symmetry_cell_setting 'orthorhombic'
loop_
_space_group_symop_operation_xyz
x,y,z
1/2-x,1/2-y,z
1/2+x,-y,-z
-x,1/2+y,-z
-x,-y,-z
1/2+x,1/2+y,-z
1/2-x,y,z
x,1/2-y,z
loop_
_atom_site_type_symbol
_atom_site_label
_atom_site_fract_x
_atom_site_fract_y
_atom_site_fract_z
Si Si1 0.950754 0.586950 0.963287
Si Si2 0.054099 0.076122 0.461484
Si Si3 0.250000 0.925202 0.593036
Si Si4 0.951942 0.087592 0.808567
Si Si5 0.450306 0.914101 0.882038
Si Si6 0.250000 0.574570 0.678620
Si Si7 0.051813 0.423529 0.266658
O O1 0.750000 0.594839 0.962435
O O2 0.021458 0.750000 0.965564
O O3 0.006387 0.525214 0.923131
O O4 0.000000 0.500000 0.000000
O O5 0.250000 0.041755 0.452654
O O6 0.042710 0.250000 0.465955
O O7 0.918404 0.032785 0.429804
O O8 0.000000 0.000000 0.500000
O O9 0.250000 0.750000 0.594112
O O10 0.250000 0.977037 0.635806
O O11 0.750000 0.096168 0.805795
O O12 0.021429 0.250000 0.808097
O O13 0.004952 0.996482 0.772248
O O14 0.990264 0.008079 0.847312
O O15 0.250000 0.904877 0.879577
O O16 0.521026 0.750000 0.879893
O O17 0.250000 0.750000 0.677736
O O18 0.419510 0.532841 0.701154
O O19 0.250000 0.459798 0.274292
O O20 0.044031 0.250000 0.262538
#
# Coordination Sequence:
#
# PCOD9448007 Si02
#       7
#     8   8   4   8   8   4   8
#     4  10  21  37  57  79 104 137 174 211 255 307
#     4  10  19  31  51  77 106 143 183 224 275 328
#     4   9  18  32  49  77 111 139 177 233 279 319
#     4  10  21  36  54  78 107 138 172 214 264 315
#     4  10  21  36  55  79 106 136 173 216 259 308
#     4   9  18  32  53  79 107 139 181 225 271 327
#     4   9  18  33  54  78 104 137 177 222 269 321
#
# _framework density 18.313255999999999
#
# number of rings (size 3 to 8) (size 9 to 14) (size 15 to 20)
#    0.000    2.333    0.833    1.500    1.167    4.333 
#    0.000    3.333    0.000    2.000    0.000    2.333 
#    0.000    0.000    0.000    0.000    0.000    0.000 
#
# Total GULP energy -267667.836938 kJ/mol
# GULP energy per Si atom -5576.413270 kJ/mol
# Density = 1.827157 g / cm^3
# Si number density = 18.313256 Si / 1000 Ang^3
#
#
#
# Elastic Constant Matrix: (Units=GPa)
#
#
# Indices 1 2 3 4 5 6 
#
# 1 96.9436 30.9648 72.9065 0.0000 0.0000 0.0000
# 2 30.9648 34.3372 53.3089 0.0000 0.0000 0.0000
# 3 72.9065 53.3089 200.0556 0.0000 0.0000 0.0000
# 4 0.0000 0.0000 0.0000 21.7966 0.0000 0.0000
# 5 0.0000 0.0000 0.0000 0.0000 36.5182 0.0000
# 6 0.0000 0.0000 0.0000 0.0000 0.0000 16.3556
#
#
#
# Elastic Compliance Matrix: (Units=1/GPa)
#
#
# Indices 1 2 3 4 5 6 
#
# 1 0.015683 -0.008988 -0.003320 0.000000 0.000000 0.000000
# 2 -0.008988 0.054823 -0.011333 0.000000 0.000000 0.000000
# 3 -0.003320 -0.011333 0.009229 0.000000 0.000000 0.000000
# 4 0.000000 0.000000 0.000000 0.045879 0.000000 0.000000
# 5 0.000000 0.000000 0.000000 0.000000 0.027384 0.000000
# 6 0.000000 0.000000 0.000000 0.000000 0.000000 0.061141
#
#
# Mechanical properties :
#
#
# Convention : Reuss Voigt Hill
#
# Bulk Modulus (GPa) = 30.81489 71.74409 51.27949
# Shear Modulus (GPa) = 18.36619 26.54447 22.45533
#
# Velocity S-wave (km/s) = 3.17028 3.81132 3.50548
# Velocity P-wave (km/s) = 5.50127 7.65698 6.66683
#
# Compressibility (1/GPa) = 0.03245185
#
# Stress axis : x y z
#
# Youngs Moduli (GPa) = 63.76222 18.24045 108.35786
#
# Poissons Ratio (x) = 0.16394 0.35980
# Poissons Ratio (y) = 0.57309 1.22805
# Poissons Ratio (z) = 0.21172 0.20672
#
# Static dielectric constant tensor:
#      x y z
#    x 1.637100 0.000000 0.000000 
#    y 0.000000 1.650810 0.000000 
#    z 0.000000 0.000000 1.629030 
# 
# From -- ./inp_files/33072.got.cif
#   From: 2010.05.17/outbox.cif.g08.bks.cpg/sg59_17_cif.got.tgz:33072.got - 2010.06.03 14:40:33.
