data_PCOD9448408
_publ_section_title
;
Structure prediction by ZEFSAII (Michael W. Deem and Ramdas Pophale) SiO2 
 PCOD9448408
Probable space group: P M M N
;
_chemical_formula_sum "Si O2"
_cell_formula_units_Z 64
_cell_length_a 7.765636
_cell_length_b 16.012700
_cell_length_c 24.674864
_cell_angle_alpha 90.000000
_cell_angle_beta 90.000000
_cell_angle_gamma 90.000000
_cell_volume 3068.289718
_symmetry_space_group_name_H-M "P M M N"
_symmetry_group_IT_number 59
_space_group.IT_coordinate_system_code '2'
_symmetry_cell_setting 'orthorhombic'
loop_
_space_group_symop_operation_xyz
x,y,z
1/2-x,1/2-y,z
1/2+x,-y,-z
-x,1/2+y,-z
-x,-y,-z
1/2+x,1/2+y,-z
1/2-x,y,z
x,1/2-y,z
loop_
_atom_site_type_symbol
_atom_site_label
_atom_site_fract_x
_atom_site_fract_y
_atom_site_fract_z
Si Si1 0.042238 0.903383 0.443552
Si Si2 0.960320 0.655340 0.058297
Si Si3 0.046839 0.840581 0.676920
Si Si4 0.456390 0.501185 0.743188
Si Si5 0.957968 0.844141 0.933644
Si Si6 0.544748 0.993738 0.134626
Si Si7 0.042008 0.841004 0.327738
Si Si8 0.546537 0.904142 0.561828
O O1 0.250000 0.904167 0.443657
O O2 0.983794 0.856520 0.389653
O O3 0.986981 0.869118 0.501876
O O4 0.980946 0.999795 0.438984
O O5 0.750000 0.654101 0.058387
O O6 0.011797 0.750000 0.073517
O O7 0.023196 0.582694 0.098012
O O8 0.013564 0.640306 0.995924
O O9 0.250000 0.837469 0.689068
O O10 0.971161 0.750000 0.690538
O O11 0.973800 0.919341 0.709735
O O12 0.030416 0.856831 0.612799
O O13 0.250000 0.511106 0.746694
O O14 0.525141 0.495677 0.804288
O O15 0.488599 0.417186 0.709801
O O16 0.750000 0.844009 0.933402
O O17 0.014665 0.750000 0.918311
O O18 0.016825 0.918226 0.895064
O O19 0.750000 0.980397 0.138492
O O20 0.250000 0.840806 0.328762
O O21 0.982433 0.750000 0.308759
O O22 0.750000 0.906842 0.570813
#
# Coordination Sequence:
#
# PCOD9448408 Si02
#       8
#     8   8   8   8   8   8   8   8
#     4   9  18  33  53  79 110 140 168 206 262 323
#     4   8  15  30  52  78 110 144 177 215 263 320
#     4  10  21  37  55  73 100 141 181 218 267 323
#     4  10  22  38  55  78 108 140 180 226 268 312
#     4   9  18  33  53  78 109 145 180 215 261 318
#     4  10  20  33  54  82 107 139 180 224 270 312
#     4  10  21  38  59  80 105 141 181 218 262 317
#     4  10  19  32  54  82 108 134 169 216 266 317
#
# _framework density 20.858526999999999
#
# number of rings (size 3 to 8) (size 9 to 14) (size 15 to 20)
#    0.000    2.500    1.250    1.500    0.000    3.750 
#    0.000    3.750    0.000    1.125    0.000    0.000 
#    0.000    0.000    0.000    0.000    0.000    0.000 
#
# Total GULP energy -357257.652515 kJ/mol
# GULP energy per Si atom -5582.150821 kJ/mol
# Density = 2.081105 g / cm^3
# Si number density = 20.858527 Si / 1000 Ang^3
#
#
#
# Elastic Constant Matrix: (Units=GPa)
#
#
# Indices 1 2 3 4 5 6 
#
# 1 25.6568 -1.8156 -1.4820 0.0000 0.0000 0.0000
# 2 -1.8156 160.2896 100.5193 0.0000 0.0000 0.0000
# 3 -1.4820 100.5193 143.1707 0.0000 0.0000 0.0000
# 4 0.0000 0.0000 0.0000 -11.6094 0.0000 0.0000
# 5 0.0000 0.0000 0.0000 0.0000 -1.7111 0.0000
# 6 0.0000 0.0000 0.0000 0.0000 0.0000 19.1240
#
#
#
# Elastic Compliance Matrix: (Units=1/GPa)
#
#
# Indices 1 2 3 4 5 6 
#
# 1 0.039009 0.000337 0.000167 0.000000 0.000000 0.000000
# 2 0.000337 0.011149 -0.007824 0.000000 0.000000 0.000000
# 3 0.000167 -0.007824 0.012480 0.000000 0.000000 0.000000
# 4 0.000000 0.000000 0.000000 -0.086137 0.000000 0.000000
# 5 0.000000 0.000000 0.000000 0.000000 -0.584427 0.000000
# 6 0.000000 0.000000 0.000000 0.000000 0.000000 0.052290
#
#
# Mechanical properties :
#
#
# Convention : Reuss Voigt Hill
#
# Bulk Modulus (GPa) = 20.83407 58.17338 39.50372
# Shear Modulus (GPa) = -9.52390 16.62041 3.54826
#
# Velocity S-wave (km/s) = -2.13913 2.82586 1.30568
# Velocity P-wave (km/s) = 1.97707 6.21267 4.61010
#
# Compressibility (1/GPa) = 0.04799831
#
# Stress axis : x y z
#
# Youngs Moduli (GPa) = 25.63479 89.69215 80.12939
#
# Poissons Ratio (x) = -0.03023 -0.01340
# Poissons Ratio (y) = -0.00864 0.62696
# Poissons Ratio (z) = -0.00429 0.70178
#
# Static dielectric constant tensor:
#      x y z
#    x 1.770220 0.000000 0.000000 
#    y 0.000000 1.755540 0.000000 
#    z 0.000000 0.000000 1.725260 
# 
# From -- ./inp_files/31553.got.cif
#   From: 2010.05.17/outbox.cif.g08.bks.cpg/sg59_16_cif.got.tgz:31553.got - 2010.06.03 14:40:33.
