data_PCOD9448190
_publ_section_title
;
Structure prediction by ZEFSAII (Michael W. Deem and Ramdas Pophale) SiO2 
 PCOD9448190
Probable space group: P M M N
;
_chemical_formula_sum "Si O2"
_cell_formula_units_Z 64
_cell_length_a 7.580746
_cell_length_b 29.308956
_cell_length_c 13.242087
_cell_angle_alpha 90.000000
_cell_angle_beta 90.000000
_cell_angle_gamma 90.000000
_cell_volume 2942.176560
_symmetry_space_group_name_H-M "P M M N"
_symmetry_group_IT_number 59
_space_group.IT_coordinate_system_code '2'
_symmetry_cell_setting 'orthorhombic'
loop_
_space_group_symop_operation_xyz
x,y,z
1/2-x,1/2-y,z
1/2+x,-y,-z
-x,1/2+y,-z
-x,-y,-z
1/2+x,1/2+y,-z
1/2-x,y,z
x,1/2-y,z
loop_
_atom_site_type_symbol
_atom_site_label
_atom_site_fract_x
_atom_site_fract_y
_atom_site_fract_z
Si Si1 0.466081 0.301858 0.529847
Si Si2 0.458587 0.049762 0.229263
Si Si3 0.956776 0.599922 0.965336
Si Si4 0.047546 0.801384 0.916313
Si Si5 0.034680 0.387563 0.639643
Si Si6 0.949323 0.694964 0.689381
Si Si7 0.461815 0.049962 0.456276
Si Si8 0.035638 0.053975 0.830384
O O1 0.250000 0.301437 0.524142
O O2 0.524703 0.250000 0.544197
O O3 0.518222 0.335668 0.618751
O O4 0.523594 0.319858 0.418775
O O5 0.250000 0.059550 0.237314
O O6 0.533255 0.081564 0.140410
O O7 0.531983 0.055505 0.342464
O O8 0.479848 0.997437 0.194262
O O9 0.750000 0.588332 0.962969
O O10 0.968986 0.654659 0.971173
O O11 0.029095 0.573455 0.062589
O O12 0.250000 0.798932 0.946926
O O13 0.969750 0.750000 0.929313
O O14 0.039655 0.812316 0.796241
O O15 0.250000 0.388699 0.641492
O O16 0.974434 0.415236 0.541103
O O17 0.975362 0.412680 0.740449
O O18 0.750000 0.676608 0.699782
O O19 0.939852 0.750000 0.678616
O O20 0.250000 0.055098 0.451427
O O21 0.500000 0.000000 0.500000
O O22 0.250000 0.054261 0.830733
#
# Coordination Sequence:
#
# PCOD9448190 Si02
#       8
#     8   8   8   8   8   8   8   8
#     4   8  14  25  45  74 103 134 172 208 249 304
#     4  10  21  35  54  79 106 138 176 217 262 316
#     4  10  22  37  55  79 104 136 180 219 259 311
#     4  10  21  36  53  76 106 138 172 213 263 312
#     4   9  17  29  48  73 105 138 168 211 260 306
#     4   8  14  26  47  72  98 131 167 204 248 298
#     4  10  19  32  51  75 104 136 169 209 259 314
#     4  10  20  36  55  76 104 139 175 218 268 309
#
# _framework density 21.752604000000002
#
# number of rings (size 3 to 8) (size 9 to 14) (size 15 to 20)
#    0.000    2.625    1.250    1.500    1.750    1.750 
#    0.000    0.625    0.000    3.000    0.000    0.000 
#    0.000    0.000    0.000    0.000    0.000    0.000 
#
# Total GULP energy -357109.327512 kJ/mol
# GULP energy per Si atom -5579.833242 kJ/mol
# Density = 2.170309 g / cm^3
# Si number density = 21.752604 Si / 1000 Ang^3
#
#
#
# Elastic Constant Matrix: (Units=GPa)
#
#
# Indices 1 2 3 4 5 6 
#
# 1 44.8893 -8.3773 8.7370 0.0000 0.0000 0.0000
# 2 -8.3773 83.8190 44.2351 0.0000 0.0000 0.0000
# 3 8.7370 44.2351 125.4308 0.0000 0.0000 0.0000
# 4 0.0000 0.0000 0.0000 19.3762 0.0000 0.0000
# 5 0.0000 0.0000 0.0000 0.0000 -29.7734 0.0000
# 6 0.0000 0.0000 0.0000 0.0000 0.0000 16.4764
#
#
#
# Elastic Compliance Matrix: (Units=1/GPa)
#
#
# Indices 1 2 3 4 5 6 
#
# 1 0.023609 0.003966 -0.003043 0.000000 0.000000 0.000000
# 2 0.003966 0.015325 -0.005681 0.000000 0.000000 0.000000
# 3 -0.003043 -0.005681 0.010188 0.000000 0.000000 0.000000
# 4 0.000000 0.000000 0.000000 0.051610 0.000000 0.000000
# 5 0.000000 0.000000 0.000000 0.000000 -0.033587 0.000000
# 6 0.000000 0.000000 0.000000 0.000000 0.000000 0.060693
#
#
# Mechanical properties :
#
#
# Convention : Reuss Voigt Hill
#
# Bulk Modulus (GPa) = 25.24894 38.14763 31.69829
# Shear Modulus (GPa) = 33.21026 15.18547 24.19787
#
# Velocity S-wave (km/s) = 3.91157 2.64502 3.33890
# Velocity P-wave (km/s) = 5.65977 5.18684 5.42846
#
# Compressibility (1/GPa) = 0.03960563
#
# Stress axis : x y z
#
# Youngs Moduli (GPa) = 42.35608 65.25371 98.15570
#
# Poissons Ratio (x) = -0.25877 0.29869
# Poissons Ratio (y) = -0.16797 0.55760
# Poissons Ratio (z) = 0.12889 0.37069
#
# Static dielectric constant tensor:
#      x y z
#    x 1.753460 0.000000 0.000000 
#    y 0.000000 1.786020 0.000000 
#    z 0.000000 0.000000 1.789920 
# 
# From -- ./inp_files/14983.got.cif
#   From: 2010.05.17/outbox.cif.g08.bks.cpg/sg59_8_cif.got.tgz:14983.got - 2010.06.03 14:40:33.
