data_PCOD9448065
_publ_section_title
;
Structure prediction by ZEFSAII (Michael W. Deem and Ramdas Pophale) SiO2 
 PCOD9448065
Probable space group: P M M N
;
_chemical_formula_sum "Si O2"
_cell_formula_units_Z 64
_cell_length_a 30.456659
_cell_length_b 7.705524
_cell_length_c 15.656704
_cell_angle_alpha 90.000000
_cell_angle_beta 90.000000
_cell_angle_gamma 90.000000
_cell_volume 3674.386014
_symmetry_space_group_name_H-M "P M M N"
_symmetry_group_IT_number 59
_space_group.IT_coordinate_system_code '2'
_symmetry_cell_setting 'orthorhombic'
loop_
_space_group_symop_operation_xyz
x,y,z
1/2-x,1/2-y,z
1/2+x,-y,-z
-x,1/2+y,-z
-x,-y,-z
1/2+x,1/2+y,-z
1/2-x,y,z
x,1/2-y,z
loop_
_atom_site_type_symbol
_atom_site_label
_atom_site_fract_x
_atom_site_fract_y
_atom_site_fract_z
Si Si1 0.437846 0.040416 0.048289
Si Si2 0.701456 0.459624 0.712272
Si Si3 0.543977 0.047850 0.314493
Si Si4 0.298653 0.961350 0.487229
Si Si5 0.051700 0.549780 0.370180
Si Si6 0.394053 0.963360 0.535914
Si Si7 0.389641 0.451995 0.211725
Si Si8 0.969893 0.455108 0.126502
O O1 0.438816 0.250000 0.043621
O O2 0.401407 0.986174 0.116688
O O3 0.483785 0.975981 0.090069
O O4 0.435980 0.978313 0.950984
O O5 0.750000 0.514171 0.740955
O O6 0.699593 0.250000 0.714545
O O7 0.696675 0.509643 0.612707
O O8 0.661072 0.528712 0.765784
O O9 0.556066 0.250000 0.305440
O O10 0.578590 0.974864 0.382287
O O11 0.542489 0.970981 0.218872
O O12 0.494859 0.038623 0.352692
O O13 0.250000 0.019401 0.516452
O O14 0.298160 0.750000 0.490072
O O15 0.343174 0.018902 0.533371
O O16 0.041380 0.750000 0.388733
O O17 0.080155 0.481605 0.449875
O O18 0.081516 0.540555 0.285385
O O19 0.393994 0.750000 0.534370
O O20 0.402439 0.250000 0.216090
O O21 0.977096 0.250000 0.139170
#
# Coordination Sequence:
#
# PCOD9448065 Si02
#       8
#     8   8   8   8   8   8   8   8
#     4   9  18  31  45  63  86 114 150 187 226 269
#     4   9  17  30  48  69  94 122 153 189 225 268
#     4  10  19  32  46  63  92 122 153 193 234 269
#     4   8  13  24  43  66  90 115 147 185 220 256
#     4  11  20  30  44  65  92 125 163 187 214 268
#     4   9  17  28  44  65  90 123 156 186 220 269
#     4  11  20  31  47  68  95 124 153 190 232 272
#     4   9  17  30  45  63  86 115 149 187 230 269
#
# _framework density 17.417874000000001
#
# number of rings (size 3 to 8) (size 9 to 14) (size 15 to 20)
#    0.000    2.500    2.500    1.875    0.000    1.750 
#    0.000    0.625    0.000    0.000    0.000    0.875 
#    0.000    3.000    0.000    0.000    0.000    0.000 
#
# Total GULP energy -356781.091728 kJ/mol
# GULP energy per Si atom -5574.704558 kJ/mol
# Density = 1.737823 g / cm^3
# Si number density = 17.417874 Si / 1000 Ang^3
#
#
#
# Elastic Constant Matrix: (Units=GPa)
#
#
# Indices 1 2 3 4 5 6 
#
# 1 125.5627 -6.1227 72.8801 0.0000 0.0000 0.0000
# 2 -6.1227 24.2378 1.7906 0.0000 0.0000 0.0000
# 3 72.8801 1.7906 111.6588 0.0000 0.0000 0.0000
# 4 0.0000 0.0000 0.0000 8.6755 0.0000 0.0000
# 5 0.0000 0.0000 0.0000 0.0000 22.5715 0.0000
# 6 0.0000 0.0000 0.0000 0.0000 0.0000 14.4436
#
#
#
# Elastic Compliance Matrix: (Units=1/GPa)
#
#
# Indices 1 2 3 4 5 6 
#
# 1 0.013193 0.003974 -0.008675 0.000000 0.000000 0.000000
# 2 0.003974 0.042504 -0.003275 0.000000 0.000000 0.000000
# 3 -0.008675 -0.003275 0.014671 0.000000 0.000000 0.000000
# 4 0.000000 0.000000 0.000000 0.115267 0.000000 0.000000
# 5 0.000000 0.000000 0.000000 0.000000 0.044304 0.000000
# 6 0.000000 0.000000 0.000000 0.000000 0.000000 0.069235
#
#
# Mechanical properties :
#
#
# Convention : Reuss Voigt Hill
#
# Bulk Modulus (GPa) = 18.37756 44.28394 31.33075
# Shear Modulus (GPa) = 15.00313 21.99886 18.50099
#
# Velocity S-wave (km/s) = 2.93808 3.55773 3.26265
# Velocity P-wave (km/s) = 4.69933 6.50817 5.67626
#
# Compressibility (1/GPa) = 0.05441419
#
# Stress axis : x y z
#
# Youngs Moduli (GPa) = 75.79748 23.52741 68.16396
#
# Poissons Ratio (x) = -0.09349 0.59131
# Poissons Ratio (y) = -0.30119 0.22325
# Poissons Ratio (z) = 0.65753 0.07706
#
# Static dielectric constant tensor:
#      x y z
#    x 1.587930 0.000000 0.000000 
#    y 0.000000 1.635660 0.000000 
#    z 0.000000 0.000000 1.602180 
# 
# From -- ./inp_files/25099.got.cif
#   From: 2010.05.17/outbox.cif.g08.bks.cpg/sg59_13_cif.got.tgz:25099.got - 2010.06.03 14:40:33.
