data_PCOD9448535
_publ_section_title
;
Structure prediction by ZEFSAII (Michael W. Deem and Ramdas Pophale) SiO2 
 PCOD9448535
Probable space group: P M M N
;
_chemical_formula_sum "Si O2"
_cell_formula_units_Z 58
_cell_length_a 7.724735
_cell_length_b 24.043156
_cell_length_c 17.160836
_cell_angle_alpha 90.000000
_cell_angle_beta 90.000000
_cell_angle_gamma 90.000000
_cell_volume 3187.230736
_symmetry_space_group_name_H-M "P M M N"
_symmetry_group_IT_number 59
_space_group.IT_coordinate_system_code '2'
_symmetry_cell_setting 'orthorhombic'
loop_
_space_group_symop_operation_xyz
x,y,z
1/2-x,1/2-y,z
1/2+x,-y,-z
-x,1/2+y,-z
-x,-y,-z
1/2+x,1/2+y,-z
1/2-x,y,z
x,1/2-y,z
loop_
_atom_site_type_symbol
_atom_site_label
_atom_site_fract_x
_atom_site_fract_y
_atom_site_fract_z
Si Si1 0.040572 0.526699 0.886526
Si Si2 0.048842 0.335778 0.534734
Si Si3 0.453404 0.088619 0.963440
Si Si4 0.538148 0.006072 0.285437
Si Si5 0.546642 0.186941 0.855126
Si Si6 0.546645 0.620716 0.299617
Si Si7 0.457230 0.553873 0.550893
Si Si8 0.250000 0.750000 0.507974
O O1 0.250000 0.525675 0.888981
O O2 0.984304 0.531318 0.797372
O O3 0.983152 0.574402 0.946161
O O4 0.977260 0.466538 0.918815
O O5 0.250000 0.315755 0.536400
O O6 0.985007 0.347014 0.623786
O O7 0.045610 0.393999 0.489412
O O8 0.905039 0.297367 0.496017
O O9 0.250000 0.090330 0.947740
O O10 0.523211 0.145869 0.928584
O O11 0.750000 0.004755 0.284922
O O12 0.475856 0.941947 0.291258
O O13 0.485624 0.040626 0.360962
O O14 0.750000 0.191328 0.840945
O O15 0.477624 0.250000 0.865084
O O16 0.473449 0.155588 0.779292
O O17 0.750000 0.613243 0.314031
O O18 0.500000 0.500000 0.500000
O O19 0.250000 0.562248 0.550858
#
# Coordination Sequence:
#
# PCOD9448535 Si02
#       8
#     8   8   8   8   8   8   8   2
#     4   9  17  32  53  78 107 141 178 225 279 337
#     4  11  24  41  61  88 119 161 208 255 306 360
#     4  10  19  33  53  76 107 140 180 226 280 333
#     4   9  17  32  55  82 115 152 188 230 292 356
#     4  11  24  36  51  76 110 150 193 234 274 334
#     4  10  20  36  54  79 117 154 192 236 282 343
#     4  11  20  35  58  88 124 160 199 251 310 366
#     4  12  26  44  64  82 120 164 216 254 296 366
#
# _framework density 18.197616
#
# number of rings (size 3 to 8) (size 9 to 14) (size 15 to 20)
#    0.000    1.793    3.448    1.448    1.931    1.655 
#    0.000    1.379    0.000    0.000    1.793    0.000 
#    0.000    0.000    0.000    0.000    0.000    0.000 
#
# Total GULP energy -323074.985587 kJ/mol
# GULP energy per Si atom -5570.258372 kJ/mol
# Density = 1.815620 g / cm^3
# Si number density = 18.197616 Si / 1000 Ang^3
#
#
#
# Elastic Constant Matrix: (Units=GPa)
#
#
# Indices 1 2 3 4 5 6 
#
# 1 51.1464 6.9597 -3.5138 0.0000 0.0000 0.0000
# 2 6.9597 103.6141 30.8245 0.0000 0.0000 0.0000
# 3 -3.5138 30.8245 91.5153 0.0000 0.0000 0.0000
# 4 0.0000 0.0000 0.0000 -10.9644 0.0000 0.0000
# 5 0.0000 0.0000 0.0000 0.0000 16.4955 0.0000
# 6 0.0000 0.0000 0.0000 0.0000 0.0000 30.4202
#
#
#
# Elastic Compliance Matrix: (Units=1/GPa)
#
#
# Indices 1 2 3 4 5 6 
#
# 1 0.019881 -0.001736 0.001348 0.000000 0.000000 0.000000
# 2 -0.001736 0.010878 -0.003731 0.000000 0.000000 0.000000
# 3 0.001348 -0.003731 0.012235 0.000000 0.000000 0.000000
# 4 0.000000 0.000000 0.000000 -0.091205 0.000000 0.000000
# 5 0.000000 0.000000 0.000000 0.000000 0.060623 0.000000
# 6 0.000000 0.000000 0.000000 0.000000 0.000000 0.032873
#
#
# Mechanical properties :
#
#
# Convention : Reuss Voigt Hill
#
# Bulk Modulus (GPa) = 28.77184 34.97959 31.87572
# Shear Modulus (GPa) = 76.79606 21.32397 49.06001
#
# Velocity S-wave (km/s) = 6.50329 3.42687 5.19789
# Velocity P-wave (km/s) = 8.49915 5.90946 7.31974
#
# Compressibility (1/GPa) = 0.03475621
#
# Stress axis : x y z
#
# Youngs Moduli (GPa) = 50.30021 91.93176 81.72986
#
# Poissons Ratio (x) = 0.15963 -0.11019
# Poissons Ratio (y) = 0.08734 0.30489
# Poissons Ratio (z) = -0.06782 0.34295
#
# Static dielectric constant tensor:
#      x y z
#    x 1.664390 0.000000 0.000000 
#    y 0.000000 1.615950 0.000000 
#    z 0.000000 0.000000 1.624980 
# 
# From -- ./inp_files/21367.got.cif
#   From: 2010.05.17/outbox.cif.g08.bks.cpg/sg59_11_cif.got.tgz:21367.got - 2010.06.03 14:40:33.
