data_PCOD9448476
_publ_section_title
;
Structure prediction by ZEFSAII (Michael W. Deem and Ramdas Pophale) SiO2 
 PCOD9448476
Probable space group: P M M N
;
_chemical_formula_sum "Si O2"
_cell_formula_units_Z 64
_cell_length_a 32.446990
_cell_length_b 7.881346
_cell_length_c 12.517702
_cell_angle_alpha 90.000000
_cell_angle_beta 90.000000
_cell_angle_gamma 90.000000
_cell_volume 3201.101296
_symmetry_space_group_name_H-M "P M M N"
_symmetry_group_IT_number 59
_space_group.IT_coordinate_system_code '2'
_symmetry_cell_setting 'orthorhombic'
loop_
_space_group_symop_operation_xyz
x,y,z
1/2-x,1/2-y,z
1/2+x,-y,-z
-x,1/2+y,-z
-x,-y,-z
1/2+x,1/2+y,-z
1/2-x,y,z
x,1/2-y,z
loop_
_atom_site_type_symbol
_atom_site_label
_atom_site_fract_x
_atom_site_fract_y
_atom_site_fract_z
Si Si1 0.626573 0.041291 0.873601
Si Si2 0.940595 0.543763 0.245323
Si Si3 0.702766 0.454741 0.262743
Si Si4 0.483386 0.954304 0.383363
Si Si5 0.870940 0.946541 0.408712
Si Si6 0.108904 0.951893 0.359162
Si Si7 0.202963 0.542943 0.981811
Si Si8 0.048035 0.552225 0.994650
O O1 0.626782 0.250000 0.878034
O O2 0.629226 0.986239 0.750262
O O3 0.666289 0.985302 0.941402
O O4 0.583049 0.981416 0.925088
O O5 0.939138 0.750000 0.241043
O O6 0.906307 0.481837 0.329763
O O7 0.935910 0.478998 0.125513
O O8 0.984599 0.489360 0.293164
O O9 0.750000 0.499592 0.285711
O O10 0.699193 0.250000 0.267165
O O11 0.671365 0.531699 0.346057
O O12 0.693822 0.507413 0.140643
O O13 0.482202 0.750000 0.377522
O O14 0.437529 0.022039 0.368054
O O15 0.500000 0.000000 0.500000
O O16 0.881224 0.750000 0.422548
O O17 0.869846 0.020075 0.527236
O O18 0.105264 0.750000 0.346088
O O19 0.250000 0.489262 0.008366
O O20 0.203388 0.750000 0.983268
O O21 0.047058 0.750000 0.018446
O O22 0.000000 0.500000 0.000000
#
# Coordination Sequence:
#
# PCOD9448476 Si02
#       8
#     8   8   8   8   8   8   8   8
#     4   9  18  33  52  75 106 143 178 219 272 321
#     4  10  21  36  53  77 109 139 175 225 274 321
#     4   9  18  34  57  83 109 136 171 218 266 320
#     4  10  19  33  51  71 101 140 182 228 268 312
#     4  11  22  35  53  78 109 141 174 220 270 317
#     4  10  20  34  53  74 103 144 184 222 263 315
#     4   8  14  28  54  85 109 130 166 217 266 315
#     4  11  22  36  55  78 108 144 182 225 274 329
#
# _framework density 19.993119
#
# number of rings (size 3 to 8) (size 9 to 14) (size 15 to 20)
#    0.000    2.250    1.250    3.000    0.000    4.750 
#    0.000    3.125    0.000    3.000    0.000    0.000 
#    0.000    0.000    0.000    0.000    0.000    0.000 
#
# Total GULP energy -357180.515324 kJ/mol
# GULP energy per Si atom -5580.945552 kJ/mol
# Density = 1.994761 g / cm^3
# Si number density = 19.993119 Si / 1000 Ang^3
#
#
#
# Elastic Constant Matrix: (Units=GPa)
#
#
# Indices 1 2 3 4 5 6 
#
# 1 110.2197 6.3282 80.1962 0.0000 0.0000 0.0000
# 2 6.3282 12.9397 -3.6780 0.0000 0.0000 0.0000
# 3 80.1962 -3.6780 136.9388 0.0000 0.0000 0.0000
# 4 0.0000 0.0000 0.0000 13.3818 0.0000 0.0000
# 5 0.0000 0.0000 0.0000 0.0000 35.7136 0.0000
# 6 0.0000 0.0000 0.0000 0.0000 0.0000 16.6606
#
#
#
# Elastic Compliance Matrix: (Units=1/GPa)
#
#
# Indices 1 2 3 4 5 6 
#
# 1 0.017346 -0.011458 -0.010466 0.000000 0.000000 0.000000
# 2 -0.011458 0.085444 0.009005 0.000000 0.000000 0.000000
# 3 -0.010466 0.009005 0.013674 0.000000 0.000000 0.000000
# 4 0.000000 0.000000 0.000000 0.074728 0.000000 0.000000
# 5 0.000000 0.000000 0.000000 0.000000 0.028001 0.000000
# 6 0.000000 0.000000 0.000000 0.000000 0.000000 0.060022
#
#
# Mechanical properties :
#
#
# Convention : Reuss Voigt Hill
#
# Bulk Modulus (GPa) = 11.03435 47.31011 29.17223
# Shear Modulus (GPa) = 14.91377 24.96798 19.94087
#
# Velocity S-wave (km/s) = 2.73416 3.53771 3.16157
# Velocity P-wave (km/s) = 3.93682 6.35624 5.28679
#
# Compressibility (1/GPa) = 0.09062606
#
# Stress axis : x y z
#
# Youngs Moduli (GPa) = 57.65116 11.70354 73.13342
#
# Poissons Ratio (x) = 0.13410 0.76541
# Poissons Ratio (y) = 0.66055 -0.65856
# Poissons Ratio (z) = 0.60338 -0.10539
#
# Static dielectric constant tensor:
#      x y z
#    x 4.564130 0.000000 0.000000 
#    y 0.000000 1.728960 0.000000 
#    z 0.000000 0.000000 1.694950 
# 
# From -- ./inp_files/19306.got.cif
#   From: 2010.05.17/outbox.cif.g08.bks.cpg/sg59_10_cif.got.tgz:19306.got - 2010.06.03 14:40:33.
