data_PCOD9448002
_publ_section_title
;
Structure prediction by ZEFSAII (Michael W. Deem and Ramdas Pophale) SiO2 
 PCOD9448002
Probable space group: P M M N
;
_chemical_formula_sum "Si O2"
_cell_formula_units_Z 48
_cell_length_a 22.402406
_cell_length_b 10.048326
_cell_length_c 9.778046
_cell_angle_alpha 90.000000
_cell_angle_beta 90.000000
_cell_angle_gamma 90.000000
_cell_volume 2201.103459
_symmetry_space_group_name_H-M "P M M N"
_symmetry_group_IT_number 59
_space_group.IT_coordinate_system_code '2'
_symmetry_cell_setting 'orthorhombic'
loop_
_space_group_symop_operation_xyz
x,y,z
1/2-x,1/2-y,z
1/2+x,-y,-z
-x,1/2+y,-z
-x,-y,-z
1/2+x,1/2+y,-z
1/2-x,y,z
x,1/2-y,z
loop_
_atom_site_type_symbol
_atom_site_label
_atom_site_fract_x
_atom_site_fract_y
_atom_site_fract_z
Si Si1 0.179905 0.893035 0.251896
Si Si2 0.683662 0.909188 0.496975
Si Si3 0.078444 0.403491 0.879817
Si Si4 0.476553 0.103381 0.182848
Si Si5 0.445125 0.098516 0.483656
Si Si6 0.179019 0.595615 0.939517
O O1 0.250000 0.876538 0.226261
O O2 0.155582 0.750000 0.304045
O O3 0.157604 0.914312 0.098322
O O4 0.179728 0.007121 0.363556
O O5 0.750000 0.941523 0.435210
O O6 0.683706 0.750000 0.519393
O O7 0.616844 0.937010 0.440098
O O8 0.083734 0.250000 0.836943
O O9 0.024425 0.485338 0.812257
O O10 0.059083 0.402172 0.040845
O O11 0.139149 0.486741 0.864553
O O12 0.506864 0.250000 0.185004
O O13 0.436321 0.097577 0.318114
O O14 0.461552 0.250000 0.520497
O O15 0.500000 0.000000 0.500000
O O16 0.250000 0.569012 0.928557
O O17 0.169406 0.750000 0.897563
#
# Coordination Sequence:
#
# PCOD9448002 Si02
#       6
#     8   8   8   8   8   8
#     4   8  14  24  39  63  95 129 164 201 245 302
#     4   9  17  30  49  73 101 130 160 202 259 312
#     4  10  19  31  51  76  99 129 170 213 253 298
#     4   9  19  35  51  71 102 134 165 206 258 311
#     4  10  21  36  54  77 105 138 175 213 255 305
#     4   9  17  28  42  64  98 136 167 199 247 303
#
# _framework density 21.807241000000001
#
# number of rings (size 3 to 8) (size 9 to 14) (size 15 to 20)
#    0.000    2.833    0.000    2.500    0.000    4.333 
#    0.000    1.667    0.000    1.000    0.000    4.667 
#    0.000    0.000    0.000    0.000    0.000    0.000 
#
# Total GULP energy -267238.871114 kJ/mol
# GULP energy per Si atom -5567.476482 kJ/mol
# Density = 2.175761 g / cm^3
# Si number density = 21.807241 Si / 1000 Ang^3
#
#
#
# Elastic Constant Matrix: (Units=GPa)
#
#
# Indices 1 2 3 4 5 6 
#
# 1 136.7884 74.1507 -1.6327 0.0000 0.0000 0.0000
# 2 74.1507 86.0651 2.6054 0.0000 0.0000 0.0000
# 3 -1.6327 2.6054 52.3404 0.0000 0.0000 0.0000
# 4 0.0000 0.0000 0.0000 17.2509 0.0000 0.0000
# 5 0.0000 0.0000 0.0000 0.0000 20.6010 0.0000
# 6 0.0000 0.0000 0.0000 0.0000 0.0000 28.8872
#
#
#
# Elastic Compliance Matrix: (Units=1/GPa)
#
#
# Indices 1 2 3 4 5 6 
#
# 1 0.013771 -0.011896 0.001022 0.000000 0.000000 0.000000
# 2 -0.011896 0.021912 -0.001462 0.000000 0.000000 0.000000
# 3 0.001022 -0.001462 0.019210 0.000000 0.000000 0.000000
# 4 0.000000 0.000000 0.000000 0.057968 0.000000 0.000000
# 5 0.000000 0.000000 0.000000 0.000000 0.048541 0.000000
# 6 0.000000 0.000000 0.000000 0.000000 0.000000 0.034617
#
#
# Mechanical properties :
#
#
# Convention : Reuss Voigt Hill
#
# Bulk Modulus (GPa) = 33.08828 47.27119 40.17974
# Shear Modulus (GPa) = 21.66692 26.68584 24.17638
#
# Velocity S-wave (km/s) = 3.15551 3.50196 3.33324
# Velocity P-wave (km/s) = 5.33688 6.17054 5.76879
#
# Compressibility (1/GPa) = 0.03022218
#
# Stress axis : x y z
#
# Youngs Moduli (GPa) = 72.61505 45.63637 52.05534
#
# Poissons Ratio (x) = 0.54288 -0.05319
# Poissons Ratio (y) = 0.86381 0.07610
# Poissons Ratio (z) = -0.07419 0.06671
#
# Static dielectric constant tensor:
#      x y z
#    x 1.838770 0.000000 0.000000 
#    y 0.000000 1.934650 0.000000 
#    z 0.000000 0.000000 1.841910 
# 
# From -- ./inp_files/18608.got.cif
#   From: 2010.05.17/outbox.cif.g08.bks.cpg/sg59_10_cif.got.tgz:18608.got - 2010.06.03 14:40:33.
