data_PCOD9448278
_publ_section_title
;
Structure prediction by ZEFSAII (Michael W. Deem and Ramdas Pophale) SiO2 
 PCOD9448278
Probable space group: P M M N
;
_chemical_formula_sum "Si O2"
_cell_formula_units_Z 64
_cell_length_a 21.512718
_cell_length_b 18.854818
_cell_length_c 7.912569
_cell_angle_alpha 90.000000
_cell_angle_beta 90.000000
_cell_angle_gamma 90.000000
_cell_volume 3209.483440
_symmetry_space_group_name_H-M "P M M N"
_symmetry_group_IT_number 59
_space_group.IT_coordinate_system_code '2'
_symmetry_cell_setting 'orthorhombic'
loop_
_space_group_symop_operation_xyz
x,y,z
1/2-x,1/2-y,z
1/2+x,-y,-z
-x,1/2+y,-z
-x,-y,-z
1/2+x,1/2+y,-z
1/2-x,y,z
x,1/2-y,z
loop_
_atom_site_type_symbol
_atom_site_label
_atom_site_fract_x
_atom_site_fract_y
_atom_site_fract_z
Si Si1 0.591230 0.957559 0.722565
Si Si2 0.320751 0.607314 0.748371
Si Si3 0.552355 0.831576 0.939856
Si Si4 0.989325 0.549994 0.163382
Si Si5 0.682473 0.829034 0.130071
Si Si6 0.175097 0.562117 0.108934
Si Si7 0.641338 0.544635 0.352685
Si Si8 0.325596 0.828939 0.408474
O O1 0.555891 0.886789 0.784293
O O2 0.626127 0.945632 0.548310
O O3 0.542037 0.022327 0.710251
O O4 0.640460 0.987787 0.860390
O O5 0.250000 0.633190 0.771976
O O6 0.321249 0.527364 0.677386
O O7 0.349895 0.652435 0.596352
O O8 0.347612 0.599792 0.936529
O O9 0.534456 0.750000 0.906665
O O10 0.512193 0.870656 0.086721
O O11 0.623464 0.832051 0.007568
O O12 0.923625 0.537252 0.251929
O O13 0.000000 0.500000 0.000000
O O14 0.750000 0.837726 0.045167
O O15 0.680796 0.750000 0.206424
O O16 0.675043 0.888729 0.270605
O O17 0.250000 0.552346 0.097446
O O18 0.160455 0.612293 0.268198
O O19 0.250000 0.829464 0.419962
O O20 0.345042 0.750000 0.357768
#
# Coordination Sequence:
#
# PCOD9448278 Si02
#       8
#     8   8   8   8   8   8   8   8
#     4  11  21  34  55  82 110 143 184 233 279 339
#     4  10  19  32  52  77 107 143 183 222 271 329
#     4   9  19  36  57  79 107 143 186 234 280 333
#     4   9  19  36  56  78 101 137 187 226 278 331
#     4   9  18  33  52  77 111 151 191 228 272 326
#     4  10  20  34  54  82 113 149 188 228 276 335
#     4  11  20  32  54  80 110 144 183 232 278 328
#     4   9  18  33  51  74 105 138 177 225 274 329
#
# _framework density 19.940902999999999
#
# number of rings (size 3 to 8) (size 9 to 14) (size 15 to 20)
#    0.000    2.250    1.250    3.000    0.000    3.000 
#    0.000    3.125    0.000    7.500    0.000    0.000 
#    0.000    0.000    0.000    0.000    0.000    0.000 
#
# Total GULP energy -356669.379577 kJ/mol
# GULP energy per Si atom -5572.959056 kJ/mol
# Density = 1.989552 g / cm^3
# Si number density = 19.940903 Si / 1000 Ang^3
#
#
#
# Elastic Constant Matrix: (Units=GPa)
#
#
# Indices 1 2 3 4 5 6 
#
# 1 43.7766 14.1251 -10.6751 0.0000 0.0000 0.0000
# 2 14.1251 99.7121 11.7258 0.0000 0.0000 0.0000
# 3 -10.6751 11.7258 76.0220 0.0000 0.0000 0.0000
# 4 0.0000 0.0000 0.0000 22.8610 0.0000 0.0000
# 5 0.0000 0.0000 0.0000 0.0000 19.4871 0.0000
# 6 0.0000 0.0000 0.0000 0.0000 0.0000 22.7553
#
#
#
# Elastic Compliance Matrix: (Units=1/GPa)
#
#
# Indices 1 2 3 4 5 6 
#
# 1 0.025166 -0.004054 0.004159 0.000000 0.000000 0.000000
# 2 -0.004054 0.010867 -0.002245 0.000000 0.000000 0.000000
# 3 0.004159 -0.002245 0.014084 0.000000 0.000000 0.000000
# 4 0.000000 0.000000 0.000000 0.043743 0.000000 0.000000
# 5 0.000000 0.000000 0.000000 0.000000 0.051316 0.000000
# 6 0.000000 0.000000 0.000000 0.000000 0.000000 0.043946
#
#
# Mechanical properties :
#
#
# Convention : Reuss Voigt Hill
#
# Bulk Modulus (GPa) = 21.81670 27.76248 24.78959
# Shear Modulus (GPa) = 23.96001 26.64302 25.30152
#
# Velocity S-wave (km/s) = 3.47010 3.65923 3.56592
# Velocity P-wave (km/s) = 5.19807 5.63968 5.42337
#
# Compressibility (1/GPa) = 0.04583644
#
# Stress axis : x y z
#
# Youngs Moduli (GPa) = 39.73689 92.01986 71.00025
#
# Poissons Ratio (x) = 0.37305 -0.29530
# Poissons Ratio (y) = 0.16109 0.15943
# Poissons Ratio (z) = -0.16527 0.20663
#
# Static dielectric constant tensor:
#      x y z
#    x 1.738900 0.000000 0.000000 
#    y 0.000000 1.708690 0.000000 
#    z 0.000000 0.000000 1.719530 
# 
# From -- ./inp_files/11654.got.cif
#   From: 2010.05.17/outbox.cif.g08.bks.cpg/sg59_6_cif.got.tgz:11654.got - 2010.06.03 14:40:33.
