data_PCOD9448115
_publ_section_title
;
Structure prediction by ZEFSAII (Michael W. Deem and Ramdas Pophale) SiO2 
 PCOD9448115
Probable space group: P M M N
;
_chemical_formula_sum "Si O2"
_cell_formula_units_Z 48
_cell_length_a 9.140554
_cell_length_b 14.881281
_cell_length_c 16.436945
_cell_angle_alpha 90.000000
_cell_angle_beta 90.000000
_cell_angle_gamma 90.000000
_cell_volume 2235.805078
_symmetry_space_group_name_H-M "P M M N"
_symmetry_group_IT_number 59
_space_group.IT_coordinate_system_code '2'
_symmetry_cell_setting 'orthorhombic'
loop_
_space_group_symop_operation_xyz
x,y,z
1/2-x,1/2-y,z
1/2+x,-y,-z
-x,1/2+y,-z
-x,-y,-z
1/2+x,1/2+y,-z
1/2-x,y,z
x,1/2-y,z
loop_
_atom_site_type_symbol
_atom_site_label
_atom_site_fract_x
_atom_site_fract_y
_atom_site_fract_z
Si Si1 0.916311 0.642542 0.848701
Si Si2 0.572030 0.599160 0.497390
Si Si3 0.917392 0.391140 0.664319
Si Si4 0.582803 0.892606 0.672187
Si Si5 0.413479 0.143206 0.830582
Si Si6 0.082824 0.860345 0.009763
O O1 0.750000 0.605036 0.849913
O O2 0.905400 0.750000 0.856880
O O3 0.986513 0.626232 0.759814
O O4 0.006204 0.610467 0.926296
O O5 0.500000 0.500000 0.500000
O O6 0.750000 0.594598 0.494696
O O7 0.508279 0.640261 0.414615
O O8 0.527953 0.641572 0.584650
O O9 0.750000 0.359425 0.661301
O O10 0.913253 0.499803 0.663506
O O11 0.994863 0.367963 0.748549
O O12 0.750000 0.858817 0.679421
O O13 0.250000 0.105047 0.822038
O O14 0.400066 0.250000 0.843059
O O15 0.496072 0.108677 0.910383
O O16 0.250000 0.889978 0.013262
O O17 0.083215 0.750000 0.010172
#
# Coordination Sequence:
#
# PCOD9448115 Si02
#       6
#     8   8   8   8   8   8
#     4   9  16  29  50  72  94 123 159 196 233 275
#     4   9  16  29  48  69  95 128 166 203 239 284
#     4  10  19  32  50  71  97 128 161 199 243 290
#     4   8  16  30  48  71  97 126 161 199 236 277
#     4  10  20  34  52  73  95 121 157 199 240 286
#     4   9  17  30  48  70  96 125 156 190 232 284
#
# _framework density 21.468778
#
# number of rings (size 3 to 8) (size 9 to 14) (size 15 to 20)
#    0.000    2.833    0.000    3.000    0.000    3.000 
#    0.000    6.667    0.000    3.000    0.000    0.000 
#    0.000    0.000    0.000    0.000    0.000    0.000 
#
# Total GULP energy -267637.110753 kJ/mol
# GULP energy per Si atom -5575.773141 kJ/mol
# Density = 2.141991 g / cm^3
# Si number density = 21.468778 Si / 1000 Ang^3
#
#
#
# Elastic Constant Matrix: (Units=GPa)
#
#
# Indices 1 2 3 4 5 6 
#
# 1 137.7627 6.8434 110.2823 0.0000 0.0000 0.0000
# 2 6.8434 45.1708 3.3405 0.0000 0.0000 0.0000
# 3 110.2823 3.3405 270.5981 0.0000 0.0000 0.0000
# 4 0.0000 0.0000 0.0000 24.6662 0.0000 0.0000
# 5 0.0000 0.0000 0.0000 0.0000 21.0731 0.0000
# 6 0.0000 0.0000 0.0000 0.0000 0.0000 3.7245
#
#
#
# Elastic Compliance Matrix: (Units=1/GPa)
#
#
# Indices 1 2 3 4 5 6 
#
# 1 0.010852 -0.001318 -0.004406 0.000000 0.000000 0.000000
# 2 -0.001318 0.022319 0.000262 0.000000 0.000000 0.000000
# 3 -0.004406 0.000262 0.005488 0.000000 0.000000 0.000000
# 4 0.000000 0.000000 0.000000 0.040541 0.000000 0.000000
# 5 0.000000 0.000000 0.000000 0.000000 0.047454 0.000000
# 6 0.000000 0.000000 0.000000 0.000000 0.000000 0.268496
#
#
# Mechanical properties :
#
#
# Convention : Reuss Voigt Hill
#
# Bulk Modulus (GPa) = 36.05851 77.16266 56.61059
# Shear Modulus (GPa) = 12.03894 32.09711 22.06803
#
# Velocity S-wave (km/s) = 2.37062 3.87080 3.20959
# Velocity P-wave (km/s) = 4.93207 7.48313 6.33729
#
# Compressibility (1/GPa) = 0.02773270
#
# Stress axis : x y z
#
# Youngs Moduli (GPa) = 92.15120 44.80581 182.21254
#
# Poissons Ratio (x) = 0.05906 0.80289
# Poissons Ratio (y) = 0.12147 -0.04769
# Poissons Ratio (z) = 0.40605 -0.01173
#
# Static dielectric constant tensor:
#      x y z
#    x 1.757340 0.000000 0.000000 
#    y 0.000000 1.855350 0.000000 
#    z 0.000000 0.000000 1.809560 
# 
# From -- ./inp_files/20354.got.cif
#   From: 2010.05.17/outbox.cif.g08.bks.cpg/sg59_11_cif.got.tgz:20354.got - 2010.06.03 14:40:33.
