data_PCOD9448956
_publ_section_title
;
Structure prediction by ZEFSAII (Michael W. Deem and Ramdas Pophale) SiO2 
 PCOD9448956
Probable space group: P M M N
;
_chemical_formula_sum "Si O2"
_cell_formula_units_Z 48
_cell_length_a 8.378605
_cell_length_b 16.462406
_cell_length_c 17.345836
_cell_angle_alpha 90.000000
_cell_angle_beta 90.000000
_cell_angle_gamma 90.000000
_cell_volume 2392.545803
_symmetry_space_group_name_H-M "P M M N"
_symmetry_group_IT_number 59
_space_group.IT_coordinate_system_code '2'
_symmetry_cell_setting 'orthorhombic'
loop_
_space_group_symop_operation_xyz
x,y,z
1/2-x,1/2-y,z
1/2+x,-y,-z
-x,1/2+y,-z
-x,-y,-z
1/2+x,1/2+y,-z
1/2-x,y,z
x,1/2-y,z
loop_
_atom_site_type_symbol
_atom_site_label
_atom_site_fract_x
_atom_site_fract_y
_atom_site_fract_z
Si Si1 0.560328 0.001312 0.412537
Si Si2 0.556754 0.160893 0.672939
Si Si3 0.944234 0.097875 0.835317
Si Si4 0.556804 0.659691 0.679530
Si Si5 0.557453 0.157019 0.002265
Si Si6 0.442049 0.086612 0.161627
O O1 0.750000 0.002831 0.411247
O O2 0.499171 0.082867 0.370131
O O3 0.500000 0.000000 0.500000
O O4 0.502751 0.918435 0.371497
O O5 0.750000 0.158838 0.670494
O O6 0.505176 0.250000 0.643645
O O7 0.507014 0.151539 0.762574
O O8 0.750000 0.100964 0.837594
O O9 0.991500 0.005250 0.819499
O O10 0.000822 0.123909 0.919862
O O11 0.750000 0.658839 0.678200
O O12 0.503980 0.750000 0.654219
O O13 0.505333 0.644072 0.768319
O O14 0.750000 0.154829 0.000515
O O15 0.505546 0.250000 0.010462
O O16 0.501866 0.109330 0.077267
O O17 0.250000 0.089051 0.159621
#
# Coordination Sequence:
#
# PCOD9448956 Si02
#       6
#     8   8   8   8   8   8
#     4  12  26  44  67  93 126 160 196 246 301 366
#     4  10  20  39  68  95 122 160 205 250 302 365
#     4   9  17  33  57  83 114 155 202 247 295 355
#     4  10  21  40  66  93 123 160 204 253 305 362
#     4  10  20  32  48  77 116 156 202 251 295 345
#     4  10  19  34  57  82 114 156 201 248 299 355
#
# _framework density 20.06231
#
# number of rings (size 3 to 8) (size 9 to 14) (size 15 to 20)
#    0.000    1.833    1.667    3.000    0.000    5.000 
#    0.000    0.833    0.000    2.000    0.000    0.000 
#    0.000    0.000    0.000    0.000    0.000    0.000 
#
# Total GULP energy -267997.296261 kJ/mol
# GULP energy per Si atom -5583.277005 kJ/mol
# Density = 2.001665 g / cm^3
# Si number density = 20.062310 Si / 1000 Ang^3
#
#
#
# Elastic Constant Matrix: (Units=GPa)
#
#
# Indices 1 2 3 4 5 6 
#
# 1 26.4196 31.7046 17.5774 0.0000 0.0000 0.0000
# 2 31.7046 165.5481 65.6364 0.0000 0.0000 0.0000
# 3 17.5774 65.6364 128.7204 0.0000 0.0000 0.0000
# 4 0.0000 0.0000 0.0000 11.4637 0.0000 0.0000
# 5 0.0000 0.0000 0.0000 0.0000 29.4113 0.0000
# 6 0.0000 0.0000 0.0000 0.0000 0.0000 12.3235
#
#
#
# Elastic Compliance Matrix: (Units=1/GPa)
#
#
# Indices 1 2 3 4 5 6 
#
# 1 0.049742 -0.008565 -0.002425 0.000000 0.000000 0.000000
# 2 -0.008565 0.009046 -0.003443 0.000000 0.000000 0.000000
# 3 -0.002425 -0.003443 0.009856 0.000000 0.000000 0.000000
# 4 0.000000 0.000000 0.000000 0.087232 0.000000 0.000000
# 5 0.000000 0.000000 0.000000 0.000000 0.034001 0.000000
# 6 0.000000 0.000000 0.000000 0.000000 0.000000 0.081146
#
#
# Mechanical properties :
#
#
# Convention : Reuss Voigt Hill
#
# Bulk Modulus (GPa) = 25.13974 61.16943 43.15458
# Shear Modulus (GPa) = 15.96692 24.35767 20.16230
#
# Velocity S-wave (km/s) = 2.82417 3.48818 3.17359
# Velocity P-wave (km/s) = 4.81587 6.83952 5.91488
#
# Compressibility (1/GPa) = 0.03977766
#
# Stress axis : x y z
#
# Youngs Moduli (GPa) = 20.10363 110.54727 101.46470
#
# Poissons Ratio (x) = 0.94680 0.24608
# Poissons Ratio (y) = 0.17218 0.34935
# Poissons Ratio (z) = 0.04876 0.38062
#
# Static dielectric constant tensor:
#      x y z
#    x 1.697720 0.000000 0.000000 
#    y 0.000000 1.716470 0.000000 
#    z 0.000000 0.000000 1.703650 
# 
# From -- ./inp_files/23635.got.cif
#   From: 2010.05.17/outbox.cif.g08.bks.cpg/sg59_12_cif.got.tgz:23635.got - 2010.06.03 14:40:33.
