data_PCOD9448204
_publ_section_title
;
Structure prediction by ZEFSAII (Michael W. Deem and Ramdas Pophale) SiO2 
 PCOD9448204
Probable space group: P M M N
;
_chemical_formula_sum "Si O2"
_cell_formula_units_Z 48
_cell_length_a 20.180645
_cell_length_b 7.541829
_cell_length_c 15.272250
_cell_angle_alpha 90.000000
_cell_angle_beta 90.000000
_cell_angle_gamma 90.000000
_cell_volume 2324.420776
_symmetry_space_group_name_H-M "P M M N"
_symmetry_group_IT_number 59
_space_group.IT_coordinate_system_code '2'
_symmetry_cell_setting 'orthorhombic'
loop_
_space_group_symop_operation_xyz
x,y,z
1/2-x,1/2-y,z
1/2+x,-y,-z
-x,1/2+y,-z
-x,-y,-z
1/2+x,1/2+y,-z
1/2-x,y,z
x,1/2-y,z
loop_
_atom_site_type_symbol
_atom_site_label
_atom_site_fract_x
_atom_site_fract_y
_atom_site_fract_z
Si Si1 0.825045 0.966791 0.869719
Si Si2 0.173944 0.532763 0.600498
Si Si3 0.088279 0.541443 0.764564
Si Si4 0.058745 0.456486 0.253899
Si Si5 0.929448 0.461010 0.545276
Si Si6 0.674996 0.536164 0.069975
O O1 0.750000 0.023663 0.847873
O O2 0.823989 0.750000 0.868026
O O3 0.881101 0.031584 0.803342
O O4 0.839432 0.019139 0.970228
O O5 0.250000 0.474316 0.597243
O O6 0.174864 0.750000 0.600848
O O7 0.136439 0.471306 0.688441
O O8 0.129443 0.476335 0.518072
O O9 0.081047 0.750000 0.744030
O O10 0.123118 0.524012 0.857916
O O11 0.014263 0.464388 0.762129
O O12 0.054825 0.250000 0.227580
O O13 0.072703 0.464753 0.357092
O O14 0.923668 0.250000 0.552940
O O15 0.000000 0.500000 0.500000
O O16 0.750000 0.476871 0.092222
O O17 0.675160 0.750000 0.070868
#
# Coordination Sequence:
#
# PCOD9448204 Si02
#       6
#     8   8   8   8   8   8
#     4   8  16  33  55  76 104 142 177 213 260 310
#     4   9  18  33  52  74 102 137 173 206 251 312
#     4  10  19  32  51  76 105 138 173 211 258 313
#     4  10  20  35  55  79 104 136 177 215 257 313
#     4  11  21  36  56  77 104 139 174 212 259 309
#     4   9  18  33  52  75 104 139 177 216 259 306
#
# _framework density 20.650306
#
# number of rings (size 3 to 8) (size 9 to 14) (size 15 to 20)
#    0.000    2.500    1.667    2.000    0.000    3.000 
#    0.000    0.833    0.000    3.500    0.000    0.000 
#    0.000    0.000    0.000    0.000    0.000    0.000 
#
# Total GULP energy -267972.434203 kJ/mol
# GULP energy per Si atom -5582.759046 kJ/mol
# Density = 2.060331 g / cm^3
# Si number density = 20.650306 Si / 1000 Ang^3
#
#
#
# Elastic Constant Matrix: (Units=GPa)
#
#
# Indices 1 2 3 4 5 6 
#
# 1 226.3649 1.7073 132.1940 0.0000 0.0000 0.0000
# 2 1.7073 46.1279 -15.0005 0.0000 0.0000 0.0000
# 3 132.1940 -15.0005 140.0132 0.0000 0.0000 0.0000
# 4 0.0000 0.0000 0.0000 19.1339 0.0000 0.0000
# 5 0.0000 0.0000 0.0000 0.0000 41.7721 0.0000
# 6 0.0000 0.0000 0.0000 0.0000 0.0000 -6.5437
#
#
#
# Elastic Compliance Matrix: (Units=1/GPa)
#
#
# Indices 1 2 3 4 5 6 
#
# 1 0.010428 -0.003717 -0.010244 0.000000 0.000000 0.000000
# 2 -0.003717 0.023786 0.006058 0.000000 0.000000 0.000000
# 3 -0.010244 0.006058 0.017463 0.000000 0.000000 0.000000
# 4 0.000000 0.000000 0.000000 0.052263 0.000000 0.000000
# 5 0.000000 0.000000 0.000000 0.000000 0.023939 0.000000
# 6 0.000000 0.000000 0.000000 0.000000 0.000000 -0.152818
#
#
# Mechanical properties :
#
#
# Convention : Reuss Voigt Hill
#
# Bulk Modulus (GPa) = 27.87744 72.25640 50.06692
# Shear Modulus (GPa) = 1769.96183 30.44612 900.20398
#
# Velocity S-wave (km/s) = 29.30823 3.84391 20.90153
# Velocity P-wave (km/s) = 34.04153 7.40050 24.63324
#
# Compressibility (1/GPa) = 0.03587131
#
# Stress axis : x y z
#
# Youngs Moduli (GPa) = 95.89637 42.04074 57.26410
#
# Poissons Ratio (x) = 0.15627 0.58660
# Poissons Ratio (y) = 0.35647 -0.34691
# Poissons Ratio (z) = 0.98234 -0.25468
#
# Static dielectric constant tensor:
#      x y z
#    x 1.723870 0.000000 0.000000 
#    y 0.000000 1.785050 0.000000 
#    z 0.000000 0.000000 1.673150 
# 
# From -- ./inp_files/17623.got.cif
#   From: 2010.05.17/outbox.cif.g08.bks.cpg/sg59_9_cif.got.tgz:17623.got - 2010.06.03 14:40:33.
