data_PCOD9448373
_publ_section_title
;
Structure prediction by ZEFSAII (Michael W. Deem and Ramdas Pophale) SiO2 
 PCOD9448373
Probable space group: P M M N
;
_chemical_formula_sum "Si O2"
_cell_formula_units_Z 64
_cell_length_a 8.878928
_cell_length_b 20.945098
_cell_length_c 19.873436
_cell_angle_alpha 90.000000
_cell_angle_beta 90.000000
_cell_angle_gamma 90.000000
_cell_volume 3695.863233
_symmetry_space_group_name_H-M "P M M N"
_symmetry_group_IT_number 59
_space_group.IT_coordinate_system_code '2'
_symmetry_cell_setting 'orthorhombic'
loop_
_space_group_symop_operation_xyz
x,y,z
1/2-x,1/2-y,z
1/2+x,-y,-z
-x,1/2+y,-z
-x,-y,-z
1/2+x,1/2+y,-z
1/2-x,y,z
x,1/2-y,z
loop_
_atom_site_type_symbol
_atom_site_label
_atom_site_fract_x
_atom_site_fract_y
_atom_site_fract_z
Si Si1 0.429569 0.059518 0.540829
Si Si2 0.570458 0.127963 0.317514
Si Si3 0.929707 0.322233 0.464197
Si Si4 0.429395 0.822320 0.961347
Si Si5 0.930408 0.487046 0.674081
Si Si6 0.928176 0.863603 0.823016
Si Si7 0.926833 0.017230 0.827267
Si Si8 0.928345 0.560019 0.039196
O O1 0.250000 0.053447 0.541263
O O2 0.481046 0.124240 0.504710
O O3 0.495246 0.054666 0.616010
O O4 0.500000 0.000000 0.500000
O O5 0.750000 0.121838 0.308233
O O6 0.542330 0.168554 0.384511
O O7 0.497400 0.154147 0.249154
O O8 0.499333 0.058148 0.330478
O O9 0.750000 0.332328 0.474254
O O10 0.967247 0.250000 0.484129
O O11 0.250000 0.832232 0.961358
O O12 0.461264 0.750000 0.983792
O O13 0.490976 0.831212 0.885730
O O14 0.506398 0.875474 0.007487
O O15 0.750000 0.490902 0.665069
O O16 0.959557 0.463993 0.750264
O O17 0.750000 0.850820 0.824063
O O18 0.949066 0.940447 0.830920
O O19 0.750000 0.029136 0.841106
O O20 0.025732 0.051295 0.883220
O O21 0.750000 0.558377 0.030318
O O22 0.000000 0.500000 0.000000
#
# Coordination Sequence:
#
# PCOD9448373 Si02
#       8
#     8   8   8   8   8   8   8   8
#     4  12  23  36  58  85 114 148 190 237 285 336
#     4  10  19  32  53  80 114 153 191 232 276 332
#     4  10  22  39  57  80 113 152 192 234 283 337
#     4  11  24  40  58  81 112 151 194 238 285 339
#     4  10  20  35  57  84 115 147 185 234 285 337
#     4  10  20  34  54  80 114 153 190 232 278 333
#     4   9  19  35  56  84 115 146 184 230 280 333
#     4  12  23  36  59  86 115 149 188 234 282 335
#
# _framework density 17.316658
#
# number of rings (size 3 to 8) (size 9 to 14) (size 15 to 20)
#    0.000    1.500    2.500    4.500    0.000    4.750 
#    0.000    1.250    0.000    0.750    0.000    5.250 
#    0.000    0.000    0.000    0.000    0.000    0.000 
#
# Total GULP energy -357615.082311 kJ/mol
# GULP energy per Si atom -5587.735661 kJ/mol
# Density = 1.727724 g / cm^3
# Si number density = 17.316658 Si / 1000 Ang^3
#
#
#
# Elastic Constant Matrix: (Units=GPa)
#
#
# Indices 1 2 3 4 5 6 
#
# 1 116.3163 70.5830 69.7648 0.0000 0.0000 0.0000
# 2 70.5830 92.7552 58.1092 0.0000 0.0000 0.0000
# 3 69.7648 58.1092 100.0232 0.0000 0.0000 0.0000
# 4 0.0000 0.0000 0.0000 19.9062 0.0000 0.0000
# 5 0.0000 0.0000 0.0000 0.0000 33.4390 0.0000
# 6 0.0000 0.0000 0.0000 0.0000 0.0000 23.3511
#
#
#
# Elastic Compliance Matrix: (Units=1/GPa)
#
#
# Indices 1 2 3 4 5 6 
#
# 1 0.019103 -0.009731 -0.007671 0.000000 0.000000 0.000000
# 2 -0.009731 0.021907 -0.005940 0.000000 0.000000 0.000000
# 3 -0.007671 -0.005940 0.018799 0.000000 0.000000 0.000000
# 4 0.000000 0.000000 0.000000 0.050236 0.000000 0.000000
# 5 0.000000 0.000000 0.000000 0.000000 0.029905 0.000000
# 6 0.000000 0.000000 0.000000 0.000000 0.000000 0.042825
#
#
# Mechanical properties :
#
#
# Convention : Reuss Voigt Hill
#
# Bulk Modulus (GPa) = 76.18708 78.44542 77.31625
# Shear Modulus (GPa) = 21.38277 22.71511 22.04894
#
# Velocity S-wave (km/s) = 3.51780 3.62574 3.57217
# Velocity P-wave (km/s) = 7.78407 7.93264 7.85871
#
# Compressibility (1/GPa) = 0.01312559
#
# Stress axis : x y z
#
# Youngs Moduli (GPa) = 52.34755 45.64706 53.19507
#
# Poissons Ratio (x) = 0.44420 0.40805
# Poissons Ratio (y) = 0.50940 0.31597
# Poissons Ratio (z) = 0.40155 0.27114
#
# Static dielectric constant tensor:
#      x y z
#    x 1.577340 0.000000 0.000000 
#    y 0.000000 1.573030 0.000000 
#    z 0.000000 0.000000 1.592140 
# 
# From -- ./inp_files/26323.got.cif
#   From: 2010.05.17/outbox.cif.g08.bks.cpg/sg59_14_cif.got.tgz:26323.got - 2010.06.03 14:40:33.
