data_PCOD9448897
_publ_section_title
;
Structure prediction by ZEFSAII (Michael W. Deem and Ramdas Pophale) SiO2 
 PCOD9448897
Probable space group: P M M N
;
_chemical_formula_sum "Si O2"
_cell_formula_units_Z 64
_cell_length_a 7.612083
_cell_length_b 18.509603
_cell_length_c 20.675417
_cell_angle_alpha 90.000000
_cell_angle_beta 90.000000
_cell_angle_gamma 90.000000
_cell_volume 2913.096669
_symmetry_space_group_name_H-M "P M M N"
_symmetry_group_IT_number 59
_space_group.IT_coordinate_system_code '2'
_symmetry_cell_setting 'orthorhombic'
loop_
_space_group_symop_operation_xyz
x,y,z
1/2-x,1/2-y,z
1/2+x,-y,-z
-x,1/2+y,-z
-x,-y,-z
1/2+x,1/2+y,-z
1/2-x,y,z
x,1/2-y,z
loop_
_atom_site_type_symbol
_atom_site_label
_atom_site_fract_x
_atom_site_fract_y
_atom_site_fract_z
Si Si1 0.451465 0.903891 0.324536
Si Si2 0.041508 0.440743 0.917953
Si Si3 0.044532 0.937899 0.702958
Si Si4 0.547678 0.601728 0.943554
Si Si5 0.962760 0.331292 0.803074
Si Si6 0.038855 0.578249 0.469210
Si Si7 0.463346 0.169920 0.183992
Si Si8 0.035203 0.668459 0.589912
O O1 0.250000 0.879307 0.333019
O O2 0.529528 0.854472 0.268032
O O3 0.530421 0.909756 0.396579
O O4 0.452308 0.985224 0.296775
O O5 0.250000 0.453020 0.926013
O O6 0.959059 0.520312 0.914875
O O7 0.014056 0.390001 0.856654
O O8 0.972184 0.403875 0.984259
O O9 0.250000 0.952824 0.691557
O O10 0.977070 0.887521 0.644735
O O11 0.025399 0.891750 0.767647
O O12 0.750000 0.624222 0.951801
O O13 0.471765 0.652981 0.888426
O O14 0.750000 0.331893 0.800790
O O15 0.019931 0.250000 0.819657
O O16 0.250000 0.581992 0.465563
O O17 0.979354 0.638271 0.520383
O O18 0.000000 0.500000 0.500000
O O19 0.250000 0.167741 0.183679
O O20 0.518104 0.250000 0.205366
O O21 0.250000 0.668659 0.591426
O O22 0.976442 0.750000 0.602052
#
# Coordination Sequence:
#
# PCOD9448897 Si02
#       8
#     8   8   8   8   8   8   8   8
#     4  10  21  36  57  81 106 140 183 227 268 321
#     4  10  20  35  58  85 109 139 182 231 276 323
#     4  11  21  34  54  79 109 143 178 221 268 321
#     4   9  19  36  57  80 109 144 183 224 270 327
#     4  10  22  39  56  78 111 148 185 228 280 333
#     4  10  19  34  56  80 106 138 177 222 267 318
#     4  10  21  36  53  75 106 143 179 217 264 317
#     4   9  18  32  51  77 107 138 172 213 264 316
#
# _framework density 21.969747999999999
#
# number of rings (size 3 to 8) (size 9 to 14) (size 15 to 20)
#    0.000    2.125    1.250    1.875    0.000    6.500 
#    0.000    3.750    0.000    1.125    0.000    1.750 
#    0.000    0.000    0.000    0.000    0.000    0.000 
#
# Total GULP energy -357467.299287 kJ/mol
# GULP energy per Si atom -5585.426551 kJ/mol
# Density = 2.191974 g / cm^3
# Si number density = 21.969748 Si / 1000 Ang^3
#
#
#
# Elastic Constant Matrix: (Units=GPa)
#
#
# Indices 1 2 3 4 5 6 
#
# 1 52.7380 -9.8779 -3.9599 0.0000 0.0000 0.0000
# 2 -9.8779 31.9149 5.5816 0.0000 0.0000 0.0000
# 3 -3.9599 5.5816 106.5685 0.0000 0.0000 0.0000
# 4 0.0000 0.0000 0.0000 -5.6911 0.0000 0.0000
# 5 0.0000 0.0000 0.0000 0.0000 14.5234 0.0000
# 6 0.0000 0.0000 0.0000 0.0000 0.0000 7.6978
#
#
#
# Elastic Compliance Matrix: (Units=1/GPa)
#
#
# Indices 1 2 3 4 5 6 
#
# 1 0.020148 0.006161 0.000426 0.000000 0.000000 0.000000
# 2 0.006161 0.033507 -0.001526 0.000000 0.000000 0.000000
# 3 0.000426 -0.001526 0.009479 0.000000 0.000000 0.000000
# 4 0.000000 0.000000 0.000000 -0.175712 0.000000 0.000000
# 5 0.000000 0.000000 0.000000 0.000000 0.068854 0.000000
# 6 0.000000 0.000000 0.000000 0.000000 0.000000 0.129907
#
#
# Mechanical properties :
#
#
# Convention : Reuss Voigt Hill
#
# Bulk Modulus (GPa) = 13.65058 19.41209 16.53134
# Shear Modulus (GPa) = 49.76140 16.60453 33.18297
#
# Velocity S-wave (km/s) = 4.76436 2.75215 3.89059
# Velocity P-wave (km/s) = 6.04089 4.35363 5.26529
#
# Compressibility (1/GPa) = 0.07325696
#
# Stress axis : x y z
#
# Youngs Moduli (GPa) = 49.63349 29.84429 105.49203
#
# Poissons Ratio (x) = -0.18388 -0.04493
# Poissons Ratio (y) = -0.30581 0.16098
# Poissons Ratio (z) = -0.02114 0.04554
#
# Static dielectric constant tensor:
#      x y z
#    x 1.737000 0.000000 0.000000 
#    y 0.000000 1.757600 0.000000 
#    z 0.000000 0.000000 1.819390 
# 
# From -- ./inp_files/29553.got.cif
#   From: 2010.05.17/outbox.cif.g08.bks.cpg/sg59_15_cif.got.tgz:29553.got - 2010.06.03 14:40:33.
