data_PCOD9448822
_publ_section_title
;
Structure prediction by ZEFSAII (Michael W. Deem and Ramdas Pophale) SiO2 
 PCOD9448822
Probable space group: P M M N
;
_chemical_formula_sum "Si O2"
_cell_formula_units_Z 64
_cell_length_a 15.452474
_cell_length_b 17.523399
_cell_length_c 11.658951
_cell_angle_alpha 90.000000
_cell_angle_beta 90.000000
_cell_angle_gamma 90.000000
_cell_volume 3157.009206
_symmetry_space_group_name_H-M "P M M N"
_symmetry_group_IT_number 59
_space_group.IT_coordinate_system_code '2'
_symmetry_cell_setting 'orthorhombic'
loop_
_space_group_symop_operation_xyz
x,y,z
1/2-x,1/2-y,z
1/2+x,-y,-z
-x,1/2+y,-z
-x,-y,-z
1/2+x,1/2+y,-z
1/2-x,y,z
x,1/2-y,z
loop_
_atom_site_type_symbol
_atom_site_label
_atom_site_fract_x
_atom_site_fract_y
_atom_site_fract_z
Si Si1 0.155051 0.423164 0.630124
Si Si2 0.648539 0.392990 0.334336
Si Si3 0.353955 0.889484 0.927652
Si Si4 0.106445 0.834447 0.181745
Si Si5 0.649097 0.550582 0.994923
Si Si6 0.594457 0.665338 0.156787
Si Si7 0.475655 0.080395 0.443540
Si Si8 0.152435 0.001310 0.266969
O O1 0.250000 0.411352 0.580874
O O2 0.146769 0.514193 0.654983
O O3 0.146303 0.383909 0.752393
O O4 0.086093 0.386903 0.542544
O O5 0.750000 0.371134 0.362125
O O6 0.629243 0.365770 0.203598
O O7 0.562948 0.373982 0.410041
O O8 0.250000 0.894303 0.935365
O O9 0.379469 0.845502 0.043821
O O10 0.388059 0.975793 0.942234
O O11 0.141064 0.750000 0.213590
O O12 0.138885 0.909509 0.250039
O O13 0.003921 0.833791 0.198240
O O14 0.750000 0.560628 0.026634
O O15 0.647026 0.532842 0.861646
O O16 0.598131 0.623941 0.034931
O O17 0.628950 0.750000 0.149018
O O18 0.500000 0.000000 0.500000
O O19 0.416656 0.050141 0.338389
O O20 0.250000 0.011761 0.312807
#
# Coordination Sequence:
#
# PCOD9448822 Si02
#       8
#     8   8   8   8   8   8   8   8
#     4  10  19  34  54  76 109 145 186 234 277 326
#     4   9  17  30  51  80 108 138 180 230 277 328
#     4   9  17  30  51  76 105 143 182 220 270 333
#     4  10  21  33  49  78 115 150 184 223 277 341
#     4   9  18  32  51  78 109 140 179 224 275 335
#     4  11  22  34  52  81 113 145 185 231 287 345
#     4  10  20  33  53  80 109 141 182 231 283 322
#     4  10  21  35  55  83 113 149 190 234 283 336
#
# _framework density 20.272352000000001
#
# number of rings (size 3 to 8) (size 9 to 14) (size 15 to 20)
#    0.000    2.250    1.250    3.375    1.750    3.500 
#    0.000    0.000    0.000    1.500    0.000    4.375 
#    0.000    9.000    0.000    0.000    0.000    0.000 
#
# Total GULP energy -356419.074323 kJ/mol
# GULP energy per Si atom -5569.048036 kJ/mol
# Density = 2.022621 g / cm^3
# Si number density = 20.272352 Si / 1000 Ang^3
#
#
#
# Elastic Constant Matrix: (Units=GPa)
#
#
# Indices 1 2 3 4 5 6 
#
# 1 63.5247 0.2034 20.9879 0.0000 0.0000 0.0000
# 2 0.2034 37.7623 -1.8633 0.0000 0.0000 0.0000
# 3 20.9879 -1.8633 50.5519 0.0000 0.0000 0.0000
# 4 0.0000 0.0000 0.0000 7.2998 0.0000 0.0000
# 5 0.0000 0.0000 0.0000 0.0000 39.7471 0.0000
# 6 0.0000 0.0000 0.0000 0.0000 0.0000 7.2484
#
#
#
# Elastic Compliance Matrix: (Units=1/GPa)
#
#
# Indices 1 2 3 4 5 6 
#
# 1 0.018253 -0.000473 -0.007596 0.000000 0.000000 0.000000
# 2 -0.000473 0.026542 0.001175 0.000000 0.000000 0.000000
# 3 -0.007596 0.001175 0.022978 0.000000 0.000000 0.000000
# 4 0.000000 0.000000 0.000000 0.136990 0.000000 0.000000
# 5 0.000000 0.000000 0.000000 0.000000 0.025159 0.000000
# 6 0.000000 0.000000 0.000000 0.000000 0.000000 0.137962
#
#
# Mechanical properties :
#
#
# Convention : Reuss Voigt Hill
#
# Bulk Modulus (GPa) = 18.52356 21.16612 19.84484
# Shear Modulus (GPa) = 12.51041 19.69312 16.10177
#
# Velocity S-wave (km/s) = 2.48688 3.12015 2.82134
# Velocity P-wave (km/s) = 4.17172 4.84190 4.51925
#
# Compressibility (1/GPa) = 0.05398530
#
# Stress axis : x y z
#
# Youngs Moduli (GPa) = 54.78567 37.67625 43.51898
#
# Poissons Ratio (x) = 0.01783 0.33055
# Poissons Ratio (y) = 0.02592 -0.05112
# Poissons Ratio (z) = 0.41613 -0.04426
#
# Static dielectric constant tensor:
#      x y z
#    x 1.796820 0.000000 0.000000 
#    y 0.000000 1.710220 0.000000 
#    z 0.000000 0.000000 1.685340 
# 
# From -- ./inp_files/17187.got.cif
#   From: 2010.05.17/outbox.cif.g08.bks.cpg/sg59_9_cif.got.tgz:17187.got - 2010.06.03 14:40:33.
