data_PCOD9448791
_publ_section_title
;
Structure prediction by ZEFSAII (Michael W. Deem and Ramdas Pophale) SiO2 
 PCOD9448791
Probable space group: P M M N
;
_chemical_formula_sum "Si O2"
_cell_formula_units_Z 44
_cell_length_a 17.486412
_cell_length_b 7.779019
_cell_length_c 18.706967
_cell_angle_alpha 90.000000
_cell_angle_beta 90.000000
_cell_angle_gamma 90.000000
_cell_volume 2544.655054
_symmetry_space_group_name_H-M "P M M N"
_symmetry_group_IT_number 59
_space_group.IT_coordinate_system_code '2'
_symmetry_cell_setting 'orthorhombic'
loop_
_space_group_symop_operation_xyz
x,y,z
1/2-x,1/2-y,z
1/2+x,-y,-z
-x,1/2+y,-z
-x,-y,-z
1/2+x,1/2+y,-z
1/2-x,y,z
x,1/2-y,z
loop_
_atom_site_type_symbol
_atom_site_label
_atom_site_fract_x
_atom_site_fract_y
_atom_site_fract_z
Si Si1 0.839493 0.250000 0.613279
Si Si2 0.547145 0.950604 0.570297
Si Si3 0.343207 0.439861 0.974281
Si Si4 0.342352 0.750000 0.073295
Si Si5 0.836753 0.043002 0.184762
Si Si6 0.592659 0.250000 0.768975
Si Si7 0.480675 0.548216 0.725072
O O1 0.750000 0.250000 0.597001
O O2 0.883111 0.417570 0.582389
O O3 0.852895 0.250000 0.699191
O O4 0.570613 0.750000 0.567076
O O5 0.493377 0.971134 0.640309
O O6 0.500000 0.000000 0.500000
O O7 0.250000 0.445288 0.974184
O O8 0.367893 0.250000 0.995719
O O9 0.369829 0.584237 0.029020
O O10 0.364647 0.475660 0.892130
O O11 0.250000 0.750000 0.070906
O O12 0.367008 0.750000 0.154970
O O13 0.750000 0.981187 0.197523
O O14 0.833564 0.250000 0.178819
O O15 0.896686 0.001132 0.246544
O O16 0.540235 0.419359 0.761495
O O17 0.494439 0.750000 0.742399
#
# Coordination Sequence:
#
# PCOD9448791 Si02
#       7
#     4   8   8   4   8   4   8
#     4  10  21  38  60  88 115 145 193 238 272 320
#     4  10  19  36  61  86 114 155 186 219 278 341
#     4   9  17  29  48  72  97 131 171 214 268 324
#     4  10  19  34  52  72  99 131 177 226 270 316
#     4   9  16  31  54  75 100 135 175 219 265 317
#     4  10  21  36  55  76 102 144 182 224 271 320
#     4   9  20  35  53  77 108 140 178 217 263 330
#
# _framework density 17.291145
#
# number of rings (size 3 to 8) (size 9 to 14) (size 15 to 20)
#    0.000    2.545    1.818    0.273    1.273    1.091 
#    0.000    1.818    0.000    3.273    0.000    0.000 
#    0.000    0.000    0.000    0.000    0.000    0.000 
#
# Total GULP energy -245276.993565 kJ/mol
# GULP energy per Si atom -5574.477126 kJ/mol
# Density = 1.725179 g / cm^3
# Si number density = 17.291145 Si / 1000 Ang^3
#
#
#
# Elastic Constant Matrix: (Units=GPa)
#
#
# Indices 1 2 3 4 5 6 
#
# 1 75.6352 56.7580 63.6535 0.0000 0.0000 0.0000
# 2 56.7580 119.2540 71.8038 0.0000 0.0000 0.0000
# 3 63.6535 71.8038 106.3869 0.0000 0.0000 0.0000
# 4 0.0000 0.0000 0.0000 5.0375 0.0000 0.0000
# 5 0.0000 0.0000 0.0000 0.0000 23.2421 0.0000
# 6 0.0000 0.0000 0.0000 0.0000 0.0000 11.8640
#
#
#
# Elastic Compliance Matrix: (Units=1/GPa)
#
#
# Indices 1 2 3 4 5 6 
#
# 1 0.028685 -0.005590 -0.013390 0.000000 0.000000 0.000000
# 2 -0.005590 0.015215 -0.006925 0.000000 0.000000 0.000000
# 3 -0.013390 -0.006925 0.022085 0.000000 0.000000 0.000000
# 4 0.000000 0.000000 0.000000 0.198511 0.000000 0.000000
# 5 0.000000 0.000000 0.000000 0.000000 0.043025 0.000000
# 6 0.000000 0.000000 0.000000 0.000000 0.000000 0.084289
#
#
# Mechanical properties :
#
#
# Convention : Reuss Voigt Hill
#
# Bulk Modulus (GPa) = 70.54273 76.18965 73.36619
# Shear Modulus (GPa) = 11.15211 15.29944 13.22578
#
# Velocity S-wave (km/s) = 2.54236 2.97781 2.76866
# Velocity P-wave (km/s) = 7.03589 7.48208 7.26241
#
# Compressibility (1/GPa) = 0.01417580
#
# Stress axis : x y z
#
# Youngs Moduli (GPa) = 34.86133 65.72246 45.28031
#
# Poissons Ratio (x) = 0.36741 0.60629
# Poissons Ratio (y) = 0.19489 0.31355
# Poissons Ratio (z) = 0.46679 0.45510
#
# Static dielectric constant tensor:
#      x y z
#    x 1.573600 0.000000 0.000000 
#    y 0.000000 1.608150 0.000000 
#    z 0.000000 0.000000 1.562440 
# 
# From -- ./inp_files/27315.got.cif
#   From: 2010.05.17/outbox.cif.g08.bks.cpg/sg59_14_cif.got.tgz:27315.got - 2010.06.03 14:40:33.
