data_PCOD9448242
_publ_section_title
;
Structure prediction by ZEFSAII (Michael W. Deem and Ramdas Pophale) SiO2 
 PCOD9448242
Probable space group: P M M N
;
_chemical_formula_sum "Si O2"
_cell_formula_units_Z 64
_cell_length_a 9.431106
_cell_length_b 22.654761
_cell_length_c 16.805081
_cell_angle_alpha 90.000000
_cell_angle_beta 90.000000
_cell_angle_gamma 90.000000
_cell_volume 3590.564404
_symmetry_space_group_name_H-M "P M M N"
_symmetry_group_IT_number 59
_space_group.IT_coordinate_system_code '2'
_symmetry_cell_setting 'orthorhombic'
loop_
_space_group_symop_operation_xyz
x,y,z
1/2-x,1/2-y,z
1/2+x,-y,-z
-x,1/2+y,-z
-x,-y,-z
1/2+x,1/2+y,-z
1/2-x,y,z
x,1/2-y,z
loop_
_atom_site_type_symbol
_atom_site_label
_atom_site_fract_x
_atom_site_fract_y
_atom_site_fract_z
Si Si1 0.584326 0.645435 0.840581
Si Si2 0.914681 0.009346 0.375298
Si Si3 0.585465 0.413984 0.536798
Si Si4 0.081296 0.449804 0.947326
Si Si5 0.088055 0.320512 0.463775
Si Si6 0.084713 0.965803 0.808635
Si Si7 0.408080 0.819627 0.688995
Si Si8 0.918066 0.815754 0.018778
O O1 0.750000 0.646703 0.817616
O O2 0.391565 0.750000 0.678956
O O3 0.483009 0.670367 0.772491
O O4 0.569252 0.679515 0.923151
O O5 0.750000 0.990276 0.375307
O O6 0.943878 0.032388 0.286130
O O7 0.017632 0.956130 0.397674
O O8 0.929658 0.053620 0.450383
O O9 0.750000 0.404146 0.550390
O O10 0.500414 0.353475 0.530620
O O11 0.250000 0.450193 0.969891
O O12 0.071438 0.473011 0.856305
O O13 0.029641 0.381343 0.953707
O O14 0.000000 0.500000 0.000000
O O15 0.250000 0.340548 0.464093
O O16 0.084377 0.250000 0.471844
O O17 0.014119 0.337237 0.380667
O O18 0.250000 0.946830 0.819573
O O19 0.974757 0.920794 0.848643
O O20 0.250000 0.846701 0.682262
O O21 0.750000 0.815330 0.038358
O O22 0.974157 0.750000 0.043334
#
# Coordination Sequence:
#
# PCOD9448242 Si02
#       8
#     8   8   8   8   8   8   8   8
#     4  11  20  30  48  72 101 136 173 215 261 314
#     4   9  19  34  50  72 102 135 170 214 266 321
#     4  10  19  32  52  75 102 135 172 215 267 319
#     4  10  19  34  55  78 105 138 178 225 272 318
#     4  10  20  33  50  72  99 135 176 215 258 313
#     4  10  20  33  52  76 104 137 173 218 270 321
#     4  10  20  32  45  65  98 137 175 216 260 311
#     4   9  18  32  50  74 104 138 176 217 265 320
#
# _framework density 17.824496
#
# number of rings (size 3 to 8) (size 9 to 14) (size 15 to 20)
#    0.000    2.125    1.250    2.625    0.000    4.000 
#    0.000    0.000    0.000    1.875    0.000    3.500 
#    0.000    0.000    0.000    0.000    0.000    0.000 
#
# Total GULP energy -356503.437585 kJ/mol
# GULP energy per Si atom -5570.366212 kJ/mol
# Density = 1.778393 g / cm^3
# Si number density = 17.824496 Si / 1000 Ang^3
#
#
#
# Elastic Constant Matrix: (Units=GPa)
#
#
# Indices 1 2 3 4 5 6 
#
# 1 70.4468 31.0118 14.9363 0.0000 0.0000 0.0000
# 2 31.0118 73.9035 16.5751 0.0000 0.0000 0.0000
# 3 14.9363 16.5751 30.5797 0.0000 0.0000 0.0000
# 4 0.0000 0.0000 0.0000 31.1188 0.0000 0.0000
# 5 0.0000 0.0000 0.0000 0.0000 11.6437 0.0000
# 6 0.0000 0.0000 0.0000 0.0000 0.0000 25.2624
#
#
#
# Elastic Compliance Matrix: (Units=1/GPa)
#
#
# Indices 1 2 3 4 5 6 
#
# 1 0.018161 -0.006411 -0.005396 0.000000 0.000000 0.000000
# 2 -0.006411 0.017667 -0.006445 0.000000 0.000000 0.000000
# 3 -0.005396 -0.006445 0.038830 0.000000 0.000000 0.000000
# 4 0.000000 0.000000 0.000000 0.032135 0.000000 0.000000
# 5 0.000000 0.000000 0.000000 0.000000 0.085883 0.000000
# 6 0.000000 0.000000 0.000000 0.000000 0.000000 0.039585
#
#
# Mechanical properties :
#
#
# Convention : Reuss Voigt Hill
#
# Bulk Modulus (GPa) = 26.20842 33.33070 29.76956
# Shear Modulus (GPa) = 17.76317 21.09879 19.43098
#
# Velocity S-wave (km/s) = 3.16026 3.44422 3.30529
# Velocity P-wave (km/s) = 5.29640 5.87851 5.59503
#
# Compressibility (1/GPa) = 0.03815567
#
# Stress axis : x y z
#
# Youngs Moduli (GPa) = 55.06229 56.60380 25.75324
#
# Poissons Ratio (x) = 0.36287 0.13896
# Poissons Ratio (y) = 0.35299 0.16597
# Poissons Ratio (z) = 0.29711 0.36479
#
# Static dielectric constant tensor:
#      x y z
#    x 1.579650 0.000000 0.000000 
#    y 0.000000 1.684780 0.000000 
#    z 0.000000 0.000000 1.600120 
# 
# From -- ./inp_files/26236.got.cif
#   From: 2010.05.17/outbox.cif.g08.bks.cpg/sg59_14_cif.got.tgz:26236.got - 2010.06.03 14:40:33.
