data_PCOD9448464
_publ_section_title
;
Structure prediction by ZEFSAII (Michael W. Deem and Ramdas Pophale) SiO2 
 PCOD9448464
Probable space group: P M M N
;
_chemical_formula_sum "Si O2"
_cell_formula_units_Z 56
_cell_length_a 13.289828
_cell_length_b 10.824519
_cell_length_c 22.187271
_cell_angle_alpha 90.000000
_cell_angle_beta 90.000000
_cell_angle_gamma 90.000000
_cell_volume 3191.771961
_symmetry_space_group_name_H-M "P M M N"
_symmetry_group_IT_number 59
_space_group.IT_coordinate_system_code '2'
_symmetry_cell_setting 'orthorhombic'
loop_
_space_group_symop_operation_xyz
x,y,z
1/2-x,1/2-y,z
1/2+x,-y,-z
-x,1/2+y,-z
-x,-y,-z
1/2+x,1/2+y,-z
1/2-x,y,z
x,1/2-y,z
loop_
_atom_site_type_symbol
_atom_site_label
_atom_site_fract_x
_atom_site_fract_y
_atom_site_fract_z
Si Si1 0.054918 0.106603 0.721078
Si Si2 0.363935 0.885206 0.799334
Si Si3 0.007838 0.391477 0.584480
Si Si4 0.514839 0.963402 0.899432
Si Si5 0.863872 0.891552 0.013780
Si Si6 0.630043 0.608243 0.538499
Si Si7 0.362925 0.603593 0.201772
O O1 0.080853 0.250000 0.737184
O O2 0.059468 0.093988 0.649404
O O3 0.939795 0.084681 0.743027
O O4 0.116866 0.002063 0.756090
O O5 0.250000 0.894613 0.823286
O O6 0.373078 0.750000 0.768897
O O7 0.445418 0.889633 0.852647
O O8 0.965987 0.250000 0.582722
O O9 0.926314 0.499595 0.574659
O O10 0.086925 0.400966 0.529641
O O11 0.435809 0.039051 0.939886
O O12 0.586109 0.045531 0.857032
O O13 0.585746 0.896873 0.947772
O O14 0.750000 0.942071 0.012113
O O15 0.859221 0.750000 0.033102
O O16 0.750000 0.592238 0.539668
O O17 0.607507 0.750000 0.559094
O O18 0.250000 0.555868 0.212066
O O19 0.357394 0.750000 0.192718
#
# Coordination Sequence:
#
# PCOD9448464 Si02
#       7
#     8   8   8   8   8   8   8
#     4   9  19  34  53  77 102 131 168 209 251 294
#     4  10  21  36  53  74 101 133 167 204 248 298
#     4   9  18  33  52  75 103 134 171 213 255 301
#     4  10  19  33  50  68  95 129 162 198 248 304
#     4  10  20  32  48  71  95 121 159 207 252 295
#     4   9  18  32  50  73 103 138 172 209 255 304
#     4   9  17  30  48  70  96 126 162 204 248 295
#
# _framework density 17.545112
#
# number of rings (size 3 to 8) (size 9 to 14) (size 15 to 20)
#    0.000    2.571    0.000    1.714    0.000    2.857 
#    0.000    2.857    0.000   10.714    0.000    0.000 
#    0.000    0.000    0.000    0.000    0.000    0.000 
#
# Total GULP energy -311827.046653 kJ/mol
# GULP energy per Si atom -5568.340119 kJ/mol
# Density = 1.750518 g / cm^3
# Si number density = 17.545112 Si / 1000 Ang^3
#
#
#
# Elastic Constant Matrix: (Units=GPa)
#
#
# Indices 1 2 3 4 5 6 
#
# 1 54.1612 11.3913 -20.5890 0.0000 0.0000 0.0000
# 2 11.3913 68.2088 12.8783 0.0000 0.0000 0.0000
# 3 -20.5890 12.8783 38.0808 0.0000 0.0000 0.0000
# 4 0.0000 0.0000 0.0000 7.2411 0.0000 0.0000
# 5 0.0000 0.0000 0.0000 0.0000 6.8993 0.0000
# 6 0.0000 0.0000 0.0000 0.0000 0.0000 18.2408
#
#
#
# Elastic Compliance Matrix: (Units=1/GPa)
#
#
# Indices 1 2 3 4 5 6 
#
# 1 0.026487 -0.007614 0.016896 0.000000 0.000000 0.000000
# 2 -0.007614 0.017849 -0.010153 0.000000 0.000000 0.000000
# 3 0.016896 -0.010153 0.038828 0.000000 0.000000 0.000000
# 4 0.000000 0.000000 0.000000 0.138100 0.000000 0.000000
# 5 0.000000 0.000000 0.000000 0.000000 0.144943 0.000000
# 6 0.000000 0.000000 0.000000 0.000000 0.000000 0.054822
#
#
# Mechanical properties :
#
#
# Convention : Reuss Voigt Hill
#
# Bulk Modulus (GPa) = 12.28141 18.64578 15.46360
# Shear Modulus (GPa) = 11.11326 16.92759 14.02042
#
# Velocity S-wave (km/s) = 2.51950 3.10950 2.82992
# Velocity P-wave (km/s) = 3.93433 4.85205 4.41709
#
# Compressibility (1/GPa) = 0.08142385
#
# Stress axis : x y z
#
# Youngs Moduli (GPa) = 37.75367 56.02467 25.75437
#
# Poissons Ratio (x) = 0.42655 -0.43514
# Poissons Ratio (y) = 0.28744 0.26148
# Poissons Ratio (z) = -0.63787 0.56880
#
# Static dielectric constant tensor:
#      x y z
#    x 1.598410 0.000000 0.000000 
#    y 0.000000 1.612790 0.000000 
#    z 0.000000 0.000000 1.575440 
# 
# From -- ./inp_files/30057.got.cif
#   From: 2010.05.17/outbox.cif.g08.bks.cpg/sg59_16_cif.got.tgz:30057.got - 2010.06.03 14:40:33.
