data_PCOD9448192
_publ_section_title
;
Structure prediction by ZEFSAII (Michael W. Deem and Ramdas Pophale) SiO2 
 PCOD9448192
Probable space group: P M M N
;
_chemical_formula_sum "Si O2"
_cell_formula_units_Z 40
_cell_length_a 29.952134
_cell_length_b 8.073317
_cell_length_c 7.535187
_cell_angle_alpha 90.000000
_cell_angle_beta 90.000000
_cell_angle_gamma 90.000000
_cell_volume 1822.106721
_symmetry_space_group_name_H-M "P M M N"
_symmetry_group_IT_number 59
_space_group.IT_coordinate_system_code '2'
_symmetry_cell_setting 'orthorhombic'
loop_
_space_group_symop_operation_xyz
x,y,z
1/2-x,1/2-y,z
1/2+x,-y,-z
-x,1/2+y,-z
-x,-y,-z
1/2+x,1/2+y,-z
1/2-x,y,z
x,1/2-y,z
loop_
_atom_site_type_symbol
_atom_site_label
_atom_site_fract_x
_atom_site_fract_y
_atom_site_fract_z
Si Si1 0.550468 0.441075 0.780121
Si Si2 0.545333 0.949293 0.181241
Si Si3 0.353671 0.428426 0.292017
Si Si4 0.301655 0.750000 0.720651
Si Si5 0.355679 0.065128 0.707943
Si Si6 0.198199 0.750000 0.285126
O O1 0.557471 0.250000 0.727540
O O2 0.500870 0.498023 0.723377
O O3 0.593265 0.544404 0.723747
O O4 0.548467 0.457759 0.993937
O O5 0.541693 0.750000 0.148664
O O6 0.591782 0.977376 0.279688
O O7 0.341631 0.250000 0.213752
O O8 0.343538 0.423398 0.501154
O O9 0.327500 0.586609 0.220318
O O10 0.250000 0.750000 0.770499
O O11 0.326855 0.584729 0.783834
O O12 0.303842 0.750000 0.502786
O O13 0.349520 0.250000 0.785423
O O14 0.250000 0.750000 0.235893
#
# Coordination Sequence:
#
# PCOD9448192 Si02
#       6
#     8   8   8   4   8   4
#     4  10  19  32  51  75 104 139 176 213 255 306
#     4   9  19  34  50  73 104 138 177 214 253 307
#     4  10  19  33  53  77 105 136 170 211 260 307
#     4   9  18  32  53  79 105 135 171 213 262 311
#     4   9  19  34  52  76 105 135 170 213 258 305
#     4   9  18  34  53  77 107 135 171 217 260 307
#
# _framework density 21.952611000000001
#
# number of rings (size 3 to 8) (size 9 to 14) (size 15 to 20)
#    0.000    2.600    1.000    0.600    1.400    2.400 
#    0.000    4.000    0.000    2.400    0.000    2.800 
#    0.000    0.000    0.000    0.000    0.000    0.000 
#
# Total GULP energy -223237.894715 kJ/mol
# GULP energy per Si atom -5580.947368 kJ/mol
# Density = 2.190265 g / cm^3
# Si number density = 21.952611 Si / 1000 Ang^3
#
#
#
# Elastic Constant Matrix: (Units=GPa)
#
#
# Indices 1 2 3 4 5 6 
#
# 1 152.4214 107.5575 -6.5971 0.0000 0.0000 0.0000
# 2 107.5575 161.3507 4.2554 0.0000 0.0000 0.0000
# 3 -6.5971 4.2554 45.9129 0.0000 0.0000 0.0000
# 4 0.0000 0.0000 0.0000 1660.1245 0.0000 0.0000
# 5 0.0000 0.0000 0.0000 0.0000 42.1912 0.0000
# 6 0.0000 0.0000 0.0000 0.0000 0.0000 23.9552
#
#
#
# Elastic Compliance Matrix: (Units=1/GPa)
#
#
# Indices 1 2 3 4 5 6 
#
# 1 0.012694 -0.008531 0.002615 0.000000 0.000000 0.000000
# 2 -0.008531 0.011946 -0.002333 0.000000 0.000000 0.000000
# 3 0.002615 -0.002333 0.022372 0.000000 0.000000 0.000000
# 4 0.000000 0.000000 0.000000 0.000602 0.000000 0.000000
# 5 0.000000 0.000000 0.000000 0.000000 0.023702 0.000000
# 6 0.000000 0.000000 0.000000 0.000000 0.000000 0.041745
#
#
# Mechanical properties :
#
#
# Convention : Reuss Voigt Hill
#
# Bulk Modulus (GPa) = 32.77214 63.34628 48.05921
# Shear Modulus (GPa) = 35.78347 362.21882 199.00114
#
# Velocity S-wave (km/s) = 4.04175 12.85918 9.53138
# Velocity P-wave (km/s) = 6.06151 15.79230 11.96116
#
# Compressibility (1/GPa) = 0.03051372
#
# Stress axis : x y z
#
# Youngs Moduli (GPa) = 78.77975 83.71169 44.69821
#
# Poissons Ratio (x) = 0.71411 -0.11687
# Poissons Ratio (y) = 0.67204 0.10428
# Poissons Ratio (z) = -0.20598 0.19529
#
# Static dielectric constant tensor:
#      x y z
#    x 1.779060 0.000000 0.000000 
#    y 0.000000 1.807040 0.000000 
#    z 0.000000 0.000000 1.816780 
# 
# From -- ./inp_files/5898.got.cif
#   From: 2010.05.17/outbox.cif.g08.bks.cpg/sg59_3_cif.got.tgz:5898.got - 2010.06.03 14:40:33.
