data_PCOD9448145
_publ_section_title
;
Structure prediction by ZEFSAII (Michael W. Deem and Ramdas Pophale) SiO2 
 PCOD9448145
Probable space group: P M M N
;
_chemical_formula_sum "Si O2"
_cell_formula_units_Z 48
_cell_length_a 8.767096
_cell_length_b 18.752829
_cell_length_c 14.928471
_cell_angle_alpha 90.000000
_cell_angle_beta 90.000000
_cell_angle_gamma 90.000000
_cell_volume 2454.357852
_symmetry_space_group_name_H-M "P M M N"
_symmetry_group_IT_number 59
_space_group.IT_coordinate_system_code '2'
_symmetry_cell_setting 'orthorhombic'
loop_
_space_group_symop_operation_xyz
x,y,z
1/2-x,1/2-y,z
1/2+x,-y,-z
-x,1/2+y,-z
-x,-y,-z
1/2+x,1/2+y,-z
1/2-x,y,z
x,1/2-y,z
loop_
_atom_site_type_symbol
_atom_site_label
_atom_site_fract_x
_atom_site_fract_y
_atom_site_fract_z
Si Si1 0.568826 0.328691 0.335345
Si Si2 0.573466 0.851626 0.853273
Si Si3 0.933562 0.522885 0.595308
Si Si4 0.424338 0.987113 0.093939
Si Si5 0.065816 0.750000 0.214846
Si Si6 0.067275 0.250000 0.985709
Si Si7 0.436526 0.595654 0.259279
O O1 0.750000 0.335257 0.347858
O O2 0.521067 0.250000 0.370395
O O3 0.528837 0.329068 0.229713
O O4 0.489635 0.398206 0.377212
O O5 0.750000 0.830454 0.836706
O O6 0.528944 0.816962 0.948764
O O7 0.571915 0.936681 0.857497
O O8 0.750000 0.523143 0.593443
O O9 0.983778 0.462128 0.666955
O O10 0.000000 0.500000 0.500000
O O11 0.250000 0.966243 0.077358
O O12 0.493556 0.930558 0.162042
O O13 0.500000 0.000000 0.000000
O O14 0.250000 0.750000 0.211180
O O15 0.017774 0.822037 0.266133
O O16 0.009518 0.750000 0.111440
O O17 0.250000 0.250000 0.972072
O O18 0.250000 0.592888 0.258115
#
# Coordination Sequence:
#
# PCOD9448145 Si02
#       7
#     8   8   8   8   4   4   8
#     4  11  23  39  62  94 125 154 198 251 306 368
#     4  10  19  33  54  78 115 161 201 243 303 364
#     4  11  23  44  69  93 124 161 205 256 317 383
#     4  10  19  32  50  78 111 154 203 246 296 358
#     4  10  20  36  58  83 114 159 208 251 300 354
#     4  10  20  32  50  81 120 163 204 249 308 362
#     4   9  19  37  60  83 116 159 203 248 301 366
#
# _framework density 19.557048999999999
#
# number of rings (size 3 to 8) (size 9 to 14) (size 15 to 20)
#    0.000    1.833    2.500    2.000    0.000    2.333 
#    1.500    1.667    0.000    0.000    0.000    0.000 
#    0.000    0.000    0.000    0.000    0.000    0.000 
#
# Total GULP energy -267782.314861 kJ/mol
# GULP energy per Si atom -5578.798226 kJ/mol
# Density = 1.951254 g / cm^3
# Si number density = 19.557049 Si / 1000 Ang^3
#
#
#
# Elastic Constant Matrix: (Units=GPa)
#
#
# Indices 1 2 3 4 5 6 
#
# 1 34.7890 36.3387 27.7298 0.0000 0.0000 0.0000
# 2 36.3387 165.9449 63.3282 0.0000 0.0000 0.0000
# 3 27.7298 63.3282 105.8136 0.0000 0.0000 0.0000
# 4 0.0000 0.0000 0.0000 17.4928 0.0000 0.0000
# 5 0.0000 0.0000 0.0000 0.0000 30.4287 0.0000
# 6 0.0000 0.0000 0.0000 0.0000 0.0000 20.6752
#
#
#
# Elastic Compliance Matrix: (Units=1/GPa)
#
#
# Indices 1 2 3 4 5 6 
#
# 1 0.040853 -0.006299 -0.006936 0.000000 0.000000 0.000000
# 2 -0.006299 0.008781 -0.003605 0.000000 0.000000 0.000000
# 3 -0.006936 -0.003605 0.013426 0.000000 0.000000 0.000000
# 4 0.000000 0.000000 0.000000 0.057166 0.000000 0.000000
# 5 0.000000 0.000000 0.000000 0.000000 0.032864 0.000000
# 6 0.000000 0.000000 0.000000 0.000000 0.000000 0.048367
#
#
# Mechanical properties :
#
#
# Convention : Reuss Voigt Hill
#
# Bulk Modulus (GPa) = 34.03662 62.37120 48.20391
# Shear Modulus (GPa) = 20.41401 25.66274 23.03837
#
# Velocity S-wave (km/s) = 3.23432 3.62636 3.43594
# Velocity P-wave (km/s) = 5.60262 7.03528 6.35942
#
# Compressibility (1/GPa) = 0.02938012
#
# Stress axis : x y z
#
# Youngs Moduli (GPa) = 24.47796 113.88138 74.48448
#
# Poissons Ratio (x) = 0.71734 0.51664
# Poissons Ratio (y) = 0.15419 0.26849
# Poissons Ratio (z) = 0.16978 0.41050
#
# Static dielectric constant tensor:
#      x y z
#    x 1.679610 0.000000 0.000000 
#    y 0.000000 1.735910 0.000000 
#    z 0.000000 0.000000 1.669090 
# 
# From -- ./inp_files/20611.got.cif
#   From: 2010.05.17/outbox.cif.g08.bks.cpg/sg59_11_cif.got.tgz:20611.got - 2010.06.03 14:40:33.
