data_PCOD9448413
_publ_section_title
;
Structure prediction by ZEFSAII (Michael W. Deem and Ramdas Pophale) SiO2 
 PCOD9448413
Probable space group: P M M N
;
_chemical_formula_sum "Si O2"
_cell_formula_units_Z 64
_cell_length_a 8.427928
_cell_length_b 18.274752
_cell_length_c 22.187908
_cell_angle_alpha 90.000000
_cell_angle_beta 90.000000
_cell_angle_gamma 90.000000
_cell_volume 3417.343739
_symmetry_space_group_name_H-M "P M M N"
_symmetry_group_IT_number 59
_space_group.IT_coordinate_system_code '2'
_symmetry_cell_setting 'orthorhombic'
loop_
_space_group_symop_operation_xyz
x,y,z
1/2-x,1/2-y,z
1/2+x,-y,-z
-x,1/2+y,-z
-x,-y,-z
1/2+x,1/2+y,-z
1/2-x,y,z
x,1/2-y,z
loop_
_atom_site_type_symbol
_atom_site_label
_atom_site_fract_x
_atom_site_fract_y
_atom_site_fract_z
Si Si1 0.563596 0.539986 0.187722
Si Si2 0.437765 0.391727 0.240876
Si Si3 0.556469 0.833752 0.504070
Si Si4 0.442168 0.086503 0.374324
Si Si5 0.940137 0.165356 0.732154
Si Si6 0.440776 0.420428 0.615000
Si Si7 0.061759 0.667867 0.881174
Si Si8 0.562795 0.519465 0.934232
O O1 0.750000 0.527551 0.197150
O O2 0.469770 0.476647 0.223896
O O3 0.513904 0.617762 0.214068
O O4 0.521491 0.527838 0.117962
O O5 0.250000 0.377102 0.236342
O O6 0.491327 0.380972 0.309582
O O7 0.525448 0.346093 0.189378
O O8 0.750000 0.833546 0.504306
O O9 0.504264 0.750000 0.496436
O O10 0.504925 0.867250 0.567862
O O11 0.506965 0.883992 0.448019
O O12 0.250000 0.084916 0.373921
O O13 0.501793 0.003610 0.379964
O O14 0.750000 0.162135 0.736415
O O15 0.990063 0.250000 0.733129
O O16 0.993552 0.126904 0.670315
O O17 0.250000 0.419203 0.617678
O O18 0.250000 0.660239 0.890823
O O19 0.012653 0.750000 0.897683
O O20 0.975046 0.603635 0.917277
O O21 0.750000 0.507136 0.930616
O O22 0.500000 0.500000 0.000000
#
# Coordination Sequence:
#
# PCOD9448413 Si02
#       8
#     8   8   8   8   8   8   8   8
#     4  11  21  36  59  85 116 149 186 231 279 336
#     4  10  19  32  54  82 112 147 189 233 281 340
#     4   9  19  35  52  74 105 142 187 238 290 344
#     4  10  20  34  55  79 107 143 185 235 287 346
#     4  11  23  38  57  82 113 147 186 235 290 345
#     4  11  21  34  56  80 106 143 187 237 288 347
#     4  10  21  37  58  86 121 157 195 241 289 334
#     4  11  22  39  64  91 122 159 200 239 279 333
#
# _framework density 18.727996000000001
#
# number of rings (size 3 to 8) (size 9 to 14) (size 15 to 20)
#    0.000    1.625    1.250    6.000    0.000    3.500 
#    0.000    2.500    0.000    5.625    0.000    0.000 
#    0.000    0.000    0.000    0.000    0.000    0.000 
#
# Total GULP energy -357588.773248 kJ/mol
# GULP energy per Si atom -5587.324582 kJ/mol
# Density = 1.868537 g / cm^3
# Si number density = 18.727996 Si / 1000 Ang^3
#
#
#
# Elastic Constant Matrix: (Units=GPa)
#
#
# Indices 1 2 3 4 5 6 
#
# 1 24.3558 -2.9862 1.4634 0.0000 0.0000 0.0000
# 2 -2.9862 51.7751 22.0037 0.0000 0.0000 0.0000
# 3 1.4634 22.0037 118.1139 0.0000 0.0000 0.0000
# 4 0.0000 0.0000 0.0000 16.9810 0.0000 0.0000
# 5 0.0000 0.0000 0.0000 0.0000 25.6823 0.0000
# 6 0.0000 0.0000 0.0000 0.0000 0.0000 22.4120
#
#
#
# Elastic Compliance Matrix: (Units=1/GPa)
#
#
# Indices 1 2 3 4 5 6 
#
# 1 0.041468 0.002835 -0.001042 0.000000 0.000000 0.000000
# 2 0.002835 0.021169 -0.003979 0.000000 0.000000 0.000000
# 3 -0.001042 -0.003979 0.009221 0.000000 0.000000 0.000000
# 4 0.000000 0.000000 0.000000 0.058889 0.000000 0.000000
# 5 0.000000 0.000000 0.000000 0.000000 0.038937 0.000000
# 6 0.000000 0.000000 0.000000 0.000000 0.000000 0.044619
#
#
# Mechanical properties :
#
#
# Convention : Reuss Voigt Hill
#
# Bulk Modulus (GPa) = 14.81802 26.13406 20.47604
# Shear Modulus (GPa) = 20.73227 24.59933 22.66580
#
# Velocity S-wave (km/s) = 3.33080 3.62816 3.48266
# Velocity P-wave (km/s) = 4.76673 5.61572 5.20855
#
# Compressibility (1/GPa) = 0.06748540
#
# Stress axis : x y z
#
# Youngs Moduli (GPa) = 24.11487 47.23959 108.45384
#
# Poissons Ratio (x) = -0.13390 0.11299
# Poissons Ratio (y) = -0.06835 0.43150
# Poissons Ratio (z) = 0.02512 0.18795
#
# Static dielectric constant tensor:
#      x y z
#    x 1.639240 0.000000 0.000000 
#    y 0.000000 1.629850 0.000000 
#    z 0.000000 0.000000 1.638390 
# 
# From -- ./inp_files/29602.got.cif
#   From: 2010.05.17/outbox.cif.g08.bks.cpg/sg59_15_cif.got.tgz:29602.got - 2010.06.03 14:40:33.
