data_PCOD9448540
_publ_section_title
;
Structure prediction by ZEFSAII (Michael W. Deem and Ramdas Pophale) SiO2 
 PCOD9448540
Probable space group: P M M N
;
_chemical_formula_sum "Si O2"
_cell_formula_units_Z 48
_cell_length_a 7.608028
_cell_length_b 26.897299
_cell_length_c 11.902563
_cell_angle_alpha 90.000000
_cell_angle_beta 90.000000
_cell_angle_gamma 90.000000
_cell_volume 2435.685787
_symmetry_space_group_name_H-M "P M M N"
_symmetry_group_IT_number 59
_space_group.IT_coordinate_system_code '2'
_symmetry_cell_setting 'orthorhombic'
loop_
_space_group_symop_operation_xyz
x,y,z
1/2-x,1/2-y,z
1/2+x,-y,-z
-x,1/2+y,-z
-x,-y,-z
1/2+x,1/2+y,-z
1/2-x,y,z
x,1/2-y,z
loop_
_atom_site_type_symbol
_atom_site_label
_atom_site_fract_x
_atom_site_fract_y
_atom_site_fract_z
Si Si1 0.455982 0.502450 0.369344
Si Si2 0.965313 0.306933 0.129792
Si Si3 0.548451 0.098118 0.758394
Si Si4 0.539704 0.942031 0.001272
Si Si5 0.535023 0.306821 0.870551
Si Si6 0.946954 0.402008 0.238885
O O1 0.500000 0.500000 0.500000
O O2 0.250000 0.509102 0.355431
O O3 0.534977 0.552663 0.312557
O O4 0.491881 0.449459 0.310316
O O5 0.750000 0.309049 0.129643
O O6 0.015014 0.250000 0.153803
O O7 0.031034 0.347394 0.220457
O O8 0.019990 0.318034 0.000111
O O9 0.750000 0.105339 0.719563
O O10 0.470515 0.153130 0.779053
O O11 0.544662 0.078709 0.886086
O O12 0.750000 0.933650 0.000539
O O13 0.454750 0.920344 0.889566
O O14 0.500000 0.000000 0.000000
O O15 0.750000 0.308885 0.870949
O O16 0.484650 0.250000 0.846744
O O17 0.750000 0.393242 0.279419
#
# Coordination Sequence:
#
# PCOD9448540 Si02
#       6
#     8   8   8   8   8   8
#     4  11  24  39  55  74 101 136 181 228 272 322
#     4   8  14  25  46  78 111 141 170 202 247 305
#     4  10  19  33  53  77 104 136 172 214 260 311
#     4  12  22  31  47  75 109 142 173 207 257 316
#     4   8  13  24  46  77 109 137 167 204 249 302
#     4  11  20  33  55  79 108 140 174 217 262 310
#
# _framework density 19.706973999999999
#
# number of rings (size 3 to 8) (size 9 to 14) (size 15 to 20)
#    0.000    2.000    3.333    3.500    0.000    0.667 
#    0.000    0.000    0.000    4.500    0.000    4.667 
#    0.000    0.000    0.000    0.000    0.000    0.000 
#
# Total GULP energy -267317.480874 kJ/mol
# GULP energy per Si atom -5569.114185 kJ/mol
# Density = 1.966212 g / cm^3
# Si number density = 19.706974 Si / 1000 Ang^3
#
#
#
# Elastic Constant Matrix: (Units=GPa)
#
#
# Indices 1 2 3 4 5 6 
#
# 1 56.7912 5.3686 -6.2678 0.0000 0.0000 0.0000
# 2 5.3686 200.1141 67.3846 0.0000 0.0000 0.0000
# 3 -6.2678 67.3846 88.4426 0.0000 0.0000 0.0000
# 4 0.0000 0.0000 0.0000 10.2169 0.0000 0.0000
# 5 0.0000 0.0000 0.0000 0.0000 11.7568 0.0000
# 6 0.0000 0.0000 0.0000 0.0000 0.0000 10.9086
#
#
#
# Elastic Compliance Matrix: (Units=1/GPa)
#
#
# Indices 1 2 3 4 5 6 
#
# 1 0.017968 -0.001225 0.002207 0.000000 0.000000 0.000000
# 2 -0.001225 0.006805 -0.005272 0.000000 0.000000 0.000000
# 3 0.002207 -0.005272 0.015480 0.000000 0.000000 0.000000
# 4 0.000000 0.000000 0.000000 0.097877 0.000000 0.000000
# 5 0.000000 0.000000 0.000000 0.000000 0.085057 0.000000
# 6 0.000000 0.000000 0.000000 0.000000 0.000000 0.091671
#
#
# Mechanical properties :
#
#
# Convention : Reuss Voigt Hill
#
# Bulk Modulus (GPa) = 31.57317 53.14653 42.35985
# Shear Modulus (GPa) = 14.97027 25.16728 20.06878
#
# Velocity S-wave (km/s) = 2.75915 3.57750 3.19464
# Velocity P-wave (km/s) = 5.11924 6.64015 5.92867
#
# Compressibility (1/GPa) = 0.03167246
#
# Stress axis : x y z
#
# Youngs Moduli (GPa) = 55.65536 146.94734 64.60084
#
# Poissons Ratio (x) = 0.18003 -0.14256
# Poissons Ratio (y) = 0.06818 0.34056
# Poissons Ratio (z) = -0.12282 0.77466
#
# Static dielectric constant tensor:
#      x y z
#    x 1.774650 0.000000 0.000000 
#    y 0.000000 1.828590 0.000000 
#    z 0.000000 0.000000 1.665910 
# 
# From -- ./inp_files/14522.got.cif
#   From: 2010.05.17/outbox.cif.g08.bks.cpg/sg59_8_cif.got.tgz:14522.got - 2010.06.03 14:40:33.
