data_PCOD9448142
_publ_section_title
;
Structure prediction by ZEFSAII (Michael W. Deem and Ramdas Pophale) SiO2 
 PCOD9448142
Probable space group: P M M N
;
_chemical_formula_sum "Si O2"
_cell_formula_units_Z 64
_cell_length_a 13.397435
_cell_length_b 12.650303
_cell_length_c 19.619340
_cell_angle_alpha 90.000000
_cell_angle_beta 90.000000
_cell_angle_gamma 90.000000
_cell_volume 3325.117373
_symmetry_space_group_name_H-M "P M M N"
_symmetry_group_IT_number 59
_space_group.IT_coordinate_system_code '2'
_symmetry_cell_setting 'orthorhombic'
loop_
_space_group_symop_operation_xyz
x,y,z
1/2-x,1/2-y,z
1/2+x,-y,-z
-x,1/2+y,-z
-x,-y,-z
1/2+x,1/2+y,-z
1/2-x,y,z
x,1/2-y,z
loop_
_atom_site_type_symbol
_atom_site_label
_atom_site_fract_x
_atom_site_fract_y
_atom_site_fract_z
Si Si1 0.135581 0.526575 0.776901
Si Si2 0.370212 0.132017 0.655557
Si Si3 0.941799 0.631798 0.740415
Si Si4 0.938483 0.630783 0.116846
Si Si5 0.634861 0.019357 0.469000
Si Si6 0.863204 0.468013 0.844764
Si Si7 0.054731 0.130556 0.422976
Si Si8 0.633482 0.869431 0.968434
O O1 0.250000 0.558938 0.765912
O O2 0.103876 0.441854 0.718900
O O3 0.124132 0.460794 0.846345
O O4 0.054263 0.617900 0.769581
O O5 0.250000 0.140235 0.657470
O O6 0.412326 0.250000 0.659091
O O7 0.393714 0.070898 0.586339
O O8 0.903867 0.750000 0.755540
O O9 0.880518 0.540057 0.777974
O O10 0.944833 0.619855 0.658682
O O11 0.900853 0.750000 0.130962
O O12 0.932267 0.614772 0.035720
O O13 0.049957 0.617381 0.146199
O O14 0.750000 0.049490 0.459320
O O15 0.556560 0.111543 0.453001
O O16 0.618533 0.961050 0.540849
O O17 0.750000 0.428289 0.846848
O O18 0.880241 0.547598 0.908435
O O19 0.089146 0.250000 0.439575
O O20 0.750000 0.875223 0.990092
O O21 0.615590 0.750000 0.942888
#
# Coordination Sequence:
#
# PCOD9448142 Si02
#       8
#     8   8   8   8   8   8   8   8
#     4  10  19  32  50  77 108 137 170 210 262 320
#     4   9  16  27  46  71  98 129 164 200 244 300
#     4  10  21  36  54  78 106 137 175 217 261 310
#     4  10  20  33  52  78 107 139 177 223 269 312
#     4  10  20  35  54  78 106 136 172 212 259 314
#     4  10  21  36  54  75 104 143 185 223 261 306
#     4  10  21  36  55  80 108 137 173 218 264 311
#     4   9  17  31  53  80 106 134 172 218 268 319
#
# _framework density 19.247440999999998
#
# number of rings (size 3 to 8) (size 9 to 14) (size 15 to 20)
#    0.000    2.250    1.250    1.875    0.000    4.000 
#    0.000    2.500    0.000    0.000    0.000    7.000 
#    0.000    0.000    0.000    0.000    0.000    0.000 
#
# Total GULP energy -356898.607345 kJ/mol
# GULP energy per Si atom -5576.540740 kJ/mol
# Density = 1.920363 g / cm^3
# Si number density = 19.247441 Si / 1000 Ang^3
#
#
#
# Elastic Constant Matrix: (Units=GPa)
#
#
# Indices 1 2 3 4 5 6 
#
# 1 46.9598 -13.1233 -4.5173 0.0000 0.0000 0.0000
# 2 -13.1233 37.5796 9.3950 0.0000 0.0000 0.0000
# 3 -4.5173 9.3950 61.3422 0.0000 0.0000 0.0000
# 4 0.0000 0.0000 0.0000 20.3302 0.0000 0.0000
# 5 0.0000 0.0000 0.0000 0.0000 18.8067 0.0000
# 6 0.0000 0.0000 0.0000 0.0000 0.0000 12.5076
#
#
#
# Elastic Compliance Matrix: (Units=1/GPa)
#
#
# Indices 1 2 3 4 5 6 
#
# 1 0.023612 0.008122 0.000495 0.000000 0.000000 0.000000
# 2 0.008122 0.030463 -0.004068 0.000000 0.000000 0.000000
# 3 0.000495 -0.004068 0.016961 0.000000 0.000000 0.000000
# 4 0.000000 0.000000 0.000000 0.049188 0.000000 0.000000
# 5 0.000000 0.000000 0.000000 0.000000 0.053173 0.000000
# 6 0.000000 0.000000 0.000000 0.000000 0.000000 0.079951
#
#
# Mechanical properties :
#
#
# Convention : Reuss Voigt Hill
#
# Bulk Modulus (GPa) = 12.47887 14.37672 13.42779
# Shear Modulus (GPa) = 18.45276 20.60404 19.52840
#
# Velocity S-wave (km/s) = 3.09967 3.27537 3.18873
# Velocity P-wave (km/s) = 4.39409 4.66795 4.53309
#
# Compressibility (1/GPa) = 0.08013549
#
# Stress axis : x y z
#
# Youngs Moduli (GPa) = 42.35103 32.82631 58.95736
#
# Poissons Ratio (x) = -0.26661 -0.02918
# Poissons Ratio (y) = -0.34397 0.23981
# Poissons Ratio (z) = -0.02096 0.13352
#
# Static dielectric constant tensor:
#      x y z
#    x 1.678080 0.000000 0.000000 
#    y 0.000000 1.667670 0.000000 
#    z 0.000000 0.000000 1.683540 
# 
# From -- ./inp_files/27663.got.cif
#   From: 2010.05.17/outbox.cif.g08.bks.cpg/sg59_14_cif.got.tgz:27663.got - 2010.06.03 14:40:33.
