data_PCOD9448377
_publ_section_title
;
Structure prediction by ZEFSAII (Michael W. Deem and Ramdas Pophale) SiO2 
 PCOD9448377
Probable space group: P M M N
;
_chemical_formula_sum "Si O2"
_cell_formula_units_Z 48
_cell_length_a 22.722080
_cell_length_b 7.580624
_cell_length_c 12.293707
_cell_angle_alpha 90.000000
_cell_angle_beta 90.000000
_cell_angle_gamma 90.000000
_cell_volume 2117.560849
_symmetry_space_group_name_H-M "P M M N"
_symmetry_group_IT_number 59
_space_group.IT_coordinate_system_code '2'
_symmetry_cell_setting 'orthorhombic'
loop_
_space_group_symop_operation_xyz
x,y,z
1/2-x,1/2-y,z
1/2+x,-y,-z
-x,1/2+y,-z
-x,-y,-z
1/2+x,1/2+y,-z
1/2-x,y,z
x,1/2-y,z
loop_
_atom_site_type_symbol
_atom_site_label
_atom_site_fract_x
_atom_site_fract_y
_atom_site_fract_z
Si Si1 0.185501 0.536433 0.610128
Si Si2 0.345472 0.534917 0.367753
Si Si3 0.021299 0.961282 0.378436
Si Si4 0.918455 0.544506 0.227304
Si Si5 0.314353 0.533877 0.127978
Si Si6 0.568962 0.055034 0.990562
O O1 0.250000 0.485556 0.650323
O O2 0.181417 0.750000 0.610455
O O3 0.178908 0.478138 0.484661
O O4 0.134338 0.468433 0.687175
O O5 0.343820 0.750000 0.369971
O O6 0.412936 0.474874 0.362703
O O7 0.315624 0.484055 0.255320
O O8 0.021999 0.750000 0.367302
O O9 0.975620 0.028519 0.289516
O O10 0.000000 0.000000 0.500000
O O11 0.927708 0.750000 0.199534
O O12 0.908692 0.447280 0.114649
O O13 0.250000 0.478832 0.082165
O O14 0.315250 0.750000 0.120610
O O15 0.376159 0.469228 0.075133
O O16 0.564641 0.250000 0.942124
O O17 0.500000 0.000000 0.000000
#
# Coordination Sequence:
#
# PCOD9448377 Si02
#       6
#     8   8   8   8   8   8
#     4  10  20  34  55  83 114 151 194 235 282 349
#     4   9  16  30  54  83 114 144 181 234 292 349
#     4  10  19  32  53  81 113 146 184 230 284 350
#     4  11  23  38  57  84 117 152 191 238 295 356
#     4   9  18  34  58  87 116 150 197 252 304 352
#     4  11  23  40  63  89 120 157 201 253 304 362
#
# _framework density 22.667590000000001
#
# number of rings (size 3 to 8) (size 9 to 14) (size 15 to 20)
#    0.000    2.000    1.667    2.500    0.000    6.333 
#    0.000    1.667    0.000    2.500    0.000    0.000 
#    0.000    0.000    0.000    0.000    0.000    0.000 
#
# Total GULP energy -267939.268508 kJ/mol
# GULP energy per Si atom -5582.068094 kJ/mol
# Density = 2.261600 g / cm^3
# Si number density = 22.667590 Si / 1000 Ang^3
#
#
#
# Elastic Constant Matrix: (Units=GPa)
#
#
# Indices 1 2 3 4 5 6 
#
# 1 180.2366 7.9250 41.4149 0.0000 0.0000 0.0000
# 2 7.9250 51.2818 -6.6598 0.0000 0.0000 0.0000
# 3 41.4149 -6.6598 98.9536 0.0000 0.0000 0.0000
# 4 0.0000 0.0000 0.0000 9.6860 0.0000 0.0000
# 5 0.0000 0.0000 0.0000 0.0000 19.7239 0.0000
# 6 0.0000 0.0000 0.0000 0.0000 0.0000 15.5085
#
#
#
# Elastic Compliance Matrix: (Units=1/GPa)
#
#
# Indices 1 2 3 4 5 6 
#
# 1 0.006225 -0.001312 -0.002694 0.000000 0.000000 0.000000
# 2 -0.001312 0.019948 0.001892 0.000000 0.000000 0.000000
# 3 -0.002694 0.001892 0.011360 0.000000 0.000000 0.000000
# 4 0.000000 0.000000 0.000000 0.103242 0.000000 0.000000
# 5 0.000000 0.000000 0.000000 0.000000 0.050700 0.000000
# 6 0.000000 0.000000 0.000000 0.000000 0.000000 0.064481
#
#
# Mechanical properties :
#
#
# Convention : Reuss Voigt Hill
#
# Bulk Modulus (GPa) = 30.02445 46.20358 38.11402
# Shear Modulus (GPa) = 18.43075 28.16982 23.30028
#
# Velocity S-wave (km/s) = 2.85456 3.52907 3.20958
# Velocity P-wave (km/s) = 4.91315 6.08549 5.53047
#
# Compressibility (1/GPa) = 0.03330619
#
# Stress axis : x y z
#
# Youngs Moduli (GPa) = 160.64583 50.12918 88.02517
#
# Poissons Ratio (x) = 0.06576 0.23710
# Poissons Ratio (y) = 0.21073 -0.16651
# Poissons Ratio (z) = 0.43271 -0.09482
#
# Static dielectric constant tensor:
#      x y z
#    x 1.851320 0.000000 0.000000 
#    y 0.000000 1.852460 0.000000 
#    z 0.000000 0.000000 1.796210 
# 
# From -- ./inp_files/18591.got.cif
#   From: 2010.05.17/outbox.cif.g08.bks.cpg/sg59_10_cif.got.tgz:18591.got - 2010.06.03 14:40:33.
