data_PCOD9448268
_publ_section_title
;
Structure prediction by ZEFSAII (Michael W. Deem and Ramdas Pophale) SiO2 
 PCOD9448268
Probable space group: P M M N
;
_chemical_formula_sum "Si O2"
_cell_formula_units_Z 64
_cell_length_a 20.576411
_cell_length_b 8.589456
_cell_length_c 20.687238
_cell_angle_alpha 90.000000
_cell_angle_beta 90.000000
_cell_angle_gamma 90.000000
_cell_volume 3656.266104
_symmetry_space_group_name_H-M "P M M N"
_symmetry_group_IT_number 59
_space_group.IT_coordinate_system_code '2'
_symmetry_cell_setting 'orthorhombic'
loop_
_space_group_symop_operation_xyz
x,y,z
1/2-x,1/2-y,z
1/2+x,-y,-z
-x,1/2+y,-z
-x,-y,-z
1/2+x,1/2+y,-z
1/2-x,y,z
x,1/2-y,z
loop_
_atom_site_type_symbol
_atom_site_label
_atom_site_fract_x
_atom_site_fract_y
_atom_site_fract_z
Si Si1 0.176406 0.437903 0.433418
Si Si2 0.582896 0.061635 0.831358
Si Si3 0.434453 0.439433 0.810371
Si Si4 0.099832 0.063532 0.307558
Si Si5 0.932529 0.434770 0.471298
Si Si6 0.824817 0.437933 0.947976
Si Si7 0.324357 0.061787 0.909452
Si Si8 0.043330 0.063350 0.666068
O O1 0.250000 0.488846 0.445113
O O2 0.173621 0.250000 0.438506
O O3 0.153270 0.478286 0.360920
O O4 0.125902 0.507612 0.483956
O O5 0.583784 0.250000 0.829134
O O6 0.506952 0.012617 0.832898
O O7 0.611909 0.999077 0.764257
O O8 0.625057 0.010571 0.892760
O O9 0.434015 0.250000 0.811482
O O10 0.377251 0.493584 0.857416
O O11 0.426745 0.485382 0.735273
O O12 0.093548 0.250000 0.305693
O O13 0.031482 0.991571 0.330791
O O14 0.936246 0.250000 0.472059
O O15 0.925305 0.493311 0.397882
O O16 0.000000 0.500000 0.500000
O O17 0.750000 0.482582 0.932686
O O18 0.827137 0.250000 0.951086
O O19 0.840633 0.504073 0.018601
O O20 0.250000 0.012208 0.894943
O O21 0.325207 0.250000 0.909488
O O22 0.044993 0.250000 0.662174
#
# Coordination Sequence:
#
# PCOD9448268 Si02
#       8
#     8   8   8   8   8   8   8   8
#     4  10  22  39  56  78 111 146 179 221 272 323
#     4   9  18  32  49  69  99 136 169 207 256 309
#     4   8  16  31  50  73 100 129 165 208 255 307
#     4  10  19  32  52  77 105 136 173 216 261 314
#     4  12  23  36  58  84 109 142 184 226 268 320
#     4   9  18  32  48  68  96 131 170 209 253 309
#     4   9  17  31  51  72  95 127 168 211 254 306
#     4  10  19  34  56  79 105 137 174 217 264 318
#
# _framework density 17.504196
#
# number of rings (size 3 to 8) (size 9 to 14) (size 15 to 20)
#    0.000    2.375    1.250    2.625    0.000    2.250 
#    0.000    3.750    0.000    2.250    0.000    0.000 
#    0.000    0.000    0.000    0.000    0.000    0.000 
#
# Total GULP energy -356995.872298 kJ/mol
# GULP energy per Si atom -5578.060505 kJ/mol
# Density = 1.746436 g / cm^3
# Si number density = 17.504196 Si / 1000 Ang^3
#
#
#
# Elastic Constant Matrix: (Units=GPa)
#
#
# Indices 1 2 3 4 5 6 
#
# 1 126.9990 36.1559 115.4062 0.0000 0.0000 0.0000
# 2 36.1559 27.8262 35.7993 0.0000 0.0000 0.0000
# 3 115.4062 35.7993 169.7843 0.0000 0.0000 0.0000
# 4 0.0000 0.0000 0.0000 30.9334 0.0000 0.0000
# 5 0.0000 0.0000 0.0000 0.0000 30.2201 0.0000
# 6 0.0000 0.0000 0.0000 0.0000 0.0000 18.2020
#
#
#
# Elastic Compliance Matrix: (Units=1/GPa)
#
#
# Indices 1 2 3 4 5 6 
#
# 1 0.024003 -0.013994 -0.013364 0.000000 0.000000 0.000000
# 2 -0.013994 0.057473 -0.002606 0.000000 0.000000 0.000000
# 3 -0.013364 -0.002606 0.015524 0.000000 0.000000 0.000000
# 4 0.000000 0.000000 0.000000 0.032328 0.000000 0.000000
# 5 0.000000 0.000000 0.000000 0.000000 0.033091 0.000000
# 6 0.000000 0.000000 0.000000 0.000000 0.000000 0.054939
#
#
# Mechanical properties :
#
#
# Convention : Reuss Voigt Hill
#
# Bulk Modulus (GPa) = 26.97596 77.70358 52.33977
# Shear Modulus (GPa) = 17.26266 25.02099 21.14182
#
# Velocity S-wave (km/s) = 3.14379 3.78488 3.47913
# Velocity P-wave (km/s) = 5.35000 7.97422 6.79009
#
# Compressibility (1/GPa) = 0.03707005
#
# Stress axis : x y z
#
# Youngs Moduli (GPa) = 41.66224 17.39934 64.41841
#
# Poissons Ratio (x) = 0.24348 0.86092
# Poissons Ratio (y) = 0.58301 0.16790
# Poissons Ratio (z) = 0.55679 0.04535
#
# Static dielectric constant tensor:
#      x y z
#    x 1.586910 0.000000 0.000000 
#    y 0.000000 1.596500 0.000000 
#    z 0.000000 0.000000 1.587860 
# 
# From -- ./inp_files/28222.got.cif
#   From: 2010.05.17/outbox.cif.g08.bks.cpg/sg59_15_cif.got.tgz:28222.got - 2010.06.03 14:40:33.
