data_PCOD9448372
_publ_section_title
;
Structure prediction by ZEFSAII (Michael W. Deem and Ramdas Pophale) SiO2 
 PCOD9448372
Probable space group: P M M N
;
_chemical_formula_sum "Si O2"
_cell_formula_units_Z 64
_cell_length_a 19.223481
_cell_length_b 19.543977
_cell_length_c 9.061375
_cell_angle_alpha 90.000000
_cell_angle_beta 90.000000
_cell_angle_gamma 90.000000
_cell_volume 3404.388223
_symmetry_space_group_name_H-M "P M M N"
_symmetry_group_IT_number 59
_space_group.IT_coordinate_system_code '2'
_symmetry_cell_setting 'orthorhombic'
loop_
_space_group_symop_operation_xyz
x,y,z
1/2-x,1/2-y,z
1/2+x,-y,-z
-x,1/2+y,-z
-x,-y,-z
1/2+x,1/2+y,-z
1/2-x,y,z
x,1/2-y,z
loop_
_atom_site_type_symbol
_atom_site_label
_atom_site_fract_x
_atom_site_fract_y
_atom_site_fract_z
Si Si1 0.827134 0.445918 0.605746
Si Si2 0.068892 0.918411 0.648717
Si Si3 0.670870 0.171123 0.162228
Si Si4 0.949572 0.669995 0.757182
Si Si5 0.146349 0.671388 0.167252
Si Si6 0.935206 0.528983 0.096359
Si Si7 0.830962 0.565971 0.845144
Si Si8 0.013780 0.175122 0.904779
O O1 0.750000 0.450332 0.532632
O O2 0.893914 0.441957 0.500291
O O3 0.828431 0.377953 0.705684
O O4 0.833771 0.510088 0.715290
O O5 0.122371 0.866282 0.724564
O O6 0.995748 0.877394 0.648455
O O7 0.066430 0.981429 0.761672
O O8 0.750000 0.168110 0.212921
O O9 0.648761 0.250000 0.150471
O O10 0.667610 0.144332 0.994545
O O11 0.942557 0.750000 0.713226
O O12 0.877287 0.631307 0.794677
O O13 0.989359 0.669798 0.916322
O O14 0.170154 0.750000 0.183523
O O15 0.062871 0.672310 0.161709
O O16 0.947077 0.607373 0.143810
O O17 0.868886 0.532568 0.987727
O O18 0.000000 0.500000 0.000000
O O19 0.750000 0.582451 0.873796
O O20 0.044842 0.250000 0.871622
#
# Coordination Sequence:
#
# PCOD9448372 Si02
#       8
#     8   8   8   8   8   8   8   8
#     4  11  25  39  52  80 123 160 195 239 290 351
#     4  12  22  35  58  82 121 153 190 239 300 348
#     4  10  19  32  53  80 110 152 199 235 279 345
#     4  10  20  37  61  88 114 145 191 250 303 349
#     4  10  19  34  56  79 113 156 195 235 281 340
#     4  11  19  36  61  91 114 151 192 241 296 350
#     4  10  22  40  61  86 116 154 199 244 290 352
#     4   9  17  33  57  84 114 142 183 239 292 340
#
# _framework density 18.799265999999999
#
# number of rings (size 3 to 8) (size 9 to 14) (size 15 to 20)
#    0.000    1.625    3.750    2.625    0.000    4.500 
#    0.000    0.000    0.000    0.000    0.000    0.000 
#    0.000    0.000    0.000    0.000    0.000    0.000 
#
# Total GULP energy -357131.459607 kJ/mol
# GULP energy per Si atom -5580.179056 kJ/mol
# Density = 1.875648 g / cm^3
# Si number density = 18.799266 Si / 1000 Ang^3
#
#
#
# Elastic Constant Matrix: (Units=GPa)
#
#
# Indices 1 2 3 4 5 6 
#
# 1 107.3062 44.6063 26.9966 0.0000 0.0000 0.0000
# 2 44.6063 108.2117 19.9215 0.0000 0.0000 0.0000
# 3 26.9966 19.9215 29.5203 0.0000 0.0000 0.0000
# 4 0.0000 0.0000 0.0000 2.4757 0.0000 0.0000
# 5 0.0000 0.0000 0.0000 0.0000 14.6675 0.0000
# 6 0.0000 0.0000 0.0000 0.0000 0.0000 26.2609
#
#
#
# Elastic Compliance Matrix: (Units=1/GPa)
#
#
# Indices 1 2 3 4 5 6 
#
# 1 0.013286 -0.003699 -0.009653 0.000000 0.000000 0.000000
# 2 -0.003699 0.011582 -0.004433 0.000000 0.000000 0.000000
# 3 -0.009653 -0.004433 0.045695 0.000000 0.000000 0.000000
# 4 0.000000 0.000000 0.000000 0.403922 0.000000 0.000000
# 5 0.000000 0.000000 0.000000 0.000000 0.068178 0.000000
# 6 0.000000 0.000000 0.000000 0.000000 0.000000 0.038079
#
#
# Mechanical properties :
#
#
# Convention : Reuss Voigt Hill
#
# Bulk Modulus (GPa) = 28.57879 47.56524 38.07201
# Shear Modulus (GPa) = 7.96207 18.91507 13.43857
#
# Velocity S-wave (km/s) = 2.06022 3.17544 2.67656
# Velocity P-wave (km/s) = 4.57104 6.22906 5.46331
#
# Compressibility (1/GPa) = 0.03499099
#
# Stress axis : x y z
#
# Youngs Moduli (GPa) = 75.26982 86.33953 21.88439
#
# Poissons Ratio (x) = 0.31940 0.21126
# Poissons Ratio (y) = 0.27845 0.09701
# Poissons Ratio (z) = 0.72660 0.38275
#
# Static dielectric constant tensor:
#      x y z
#    x 1.691540 0.000000 0.000000 
#    y 0.000000 1.670560 0.000000 
#    z 0.000000 0.000000 1.648260 
# 
# From -- ./inp_files/10675.got.cif
#   From: 2010.05.17/outbox.cif.g08.bks.cpg/sg59_6_cif.got.tgz:10675.got - 2010.06.03 14:40:33.
