data_PCOD9448490
_publ_section_title
;
Structure prediction by ZEFSAII (Michael W. Deem and Ramdas Pophale) SiO2 
 PCOD9448490
Probable space group: P M M N
;
_chemical_formula_sum "Si O2"
_cell_formula_units_Z 48
_cell_length_a 7.365963
_cell_length_b 16.432801
_cell_length_c 17.852275
_cell_angle_alpha 90.000000
_cell_angle_beta 90.000000
_cell_angle_gamma 90.000000
_cell_volume 2160.900138
_symmetry_space_group_name_H-M "P M M N"
_symmetry_group_IT_number 59
_space_group.IT_coordinate_system_code '2'
_symmetry_cell_setting 'orthorhombic'
loop_
_space_group_symop_operation_xyz
x,y,z
1/2-x,1/2-y,z
1/2+x,-y,-z
-x,1/2+y,-z
-x,-y,-z
1/2+x,1/2+y,-z
1/2-x,y,z
x,1/2-y,z
loop_
_atom_site_type_symbol
_atom_site_label
_atom_site_fract_x
_atom_site_fract_y
_atom_site_fract_z
Si Si1 0.027849 0.250000 0.563681
Si Si2 0.461625 0.082789 0.162505
Si Si3 0.030739 0.103821 0.843617
Si Si4 0.971520 0.750000 0.263311
Si Si5 0.471400 0.343319 0.315717
Si Si6 0.033319 0.409130 0.470876
Si Si7 0.529215 0.844397 0.991515
O O1 0.250000 0.250000 0.562914
O O2 0.970835 0.250000 0.650481
O O3 0.968480 0.333044 0.521730
O O4 0.250000 0.106462 0.158805
O O5 0.538571 0.128403 0.234694
O O6 0.475328 0.987088 0.175884
O O7 0.536417 0.105978 0.080805
O O8 0.250000 0.106844 0.844620
O O9 0.970376 0.170868 0.783704
O O10 0.966421 0.124316 0.927705
O O11 0.750000 0.750000 0.263598
O O12 0.250000 0.347666 0.313550
O O13 0.519426 0.250000 0.330332
O O14 0.533158 0.396947 0.385853
O O15 0.250000 0.399499 0.468820
O O16 0.000000 0.500000 0.500000
O O17 0.750000 0.849036 0.994024
O O18 0.480992 0.750000 0.982420
#
# Coordination Sequence:
#
# PCOD9448490 Si02
#       7
#     4   8   8   4   8   8   8
#     4   9  18  34  55  76 100 136 177 209 247 309
#     4  10  20  31  50  77 102 126 161 206 250 294
#     4  10  19  33  52  72  98 130 166 207 245 287
#     4   9  18  32  51  72  94 128 171 205 237 287
#     4   9  17  33  54  75 100 133 170 205 243 296
#     4  10  20  35  56  79 104 134 171 214 258 305
#     4   9  16  30  51  73  96 129 170 204 236 285
#
# _framework density 22.212966000000002
#
# number of rings (size 3 to 8) (size 9 to 14) (size 15 to 20)
#    0.000    2.500    1.667    1.000    2.333    2.000 
#    0.000    0.833    0.000    5.000    0.000    0.000 
#    0.000    0.000    0.000    0.000    0.000    0.000 
#
# Total GULP energy -268169.832911 kJ/mol
# GULP energy per Si atom -5586.871519 kJ/mol
# Density = 2.216241 g / cm^3
# Si number density = 22.212966 Si / 1000 Ang^3
#
#
#
# Elastic Constant Matrix: (Units=GPa)
#
#
# Indices 1 2 3 4 5 6 
#
# 1 79.2978 -10.7626 10.2307 0.0000 0.0000 0.0000
# 2 -10.7626 98.4236 46.9342 0.0000 0.0000 0.0000
# 3 10.2307 46.9342 153.9217 0.0000 0.0000 0.0000
# 4 0.0000 0.0000 0.0000 -4.1135 0.0000 0.0000
# 5 0.0000 0.0000 0.0000 0.0000 -14.0649 0.0000
# 6 0.0000 0.0000 0.0000 0.0000 0.0000 8.9919
#
#
#
# Elastic Compliance Matrix: (Units=1/GPa)
#
#
# Indices 1 2 3 4 5 6 
#
# 1 0.013102 0.002162 -0.001530 0.000000 0.000000 0.000000
# 2 0.002162 0.012246 -0.003878 0.000000 0.000000 0.000000
# 3 -0.001530 -0.003878 0.007781 0.000000 0.000000 0.000000
# 4 0.000000 0.000000 0.000000 -0.243102 0.000000 0.000000
# 5 0.000000 0.000000 0.000000 0.000000 -0.071099 0.000000
# 6 0.000000 0.000000 0.000000 0.000000 0.000000 0.111211
#
#
# Mechanical properties :
#
#
# Convention : Reuss Voigt Hill
#
# Bulk Modulus (GPa) = 37.54160 47.16086 42.35123
# Shear Modulus (GPa) = -32.36425 17.17876 -7.59274
#
# Velocity S-wave (km/s) = -3.82121 2.78396 -1.85083
# Velocity P-wave (km/s) = 1.59103 5.62239 3.81313
#
# Compressibility (1/GPa) = 0.02663712
#
# Stress axis : x y z
#
# Youngs Moduli (GPa) = 76.32665 81.66102 128.51955
#
# Poissons Ratio (x) = -0.17658 0.19666
# Poissons Ratio (y) = -0.16504 0.49836
# Poissons Ratio (z) = 0.11679 0.31666
#
# Static dielectric constant tensor:
#      x y z
#    x 1.867500 0.000000 0.000000 
#    y 0.000000 1.751040 0.000000 
#    z 0.000000 0.000000 1.804270 
# 
# From -- ./inp_files/25615.got.cif
#   From: 2010.05.17/outbox.cif.g08.bks.cpg/sg59_13_cif.got.tgz:25615.got - 2010.06.03 14:40:33.
