data_PCOD9448744
_publ_section_title
;
Structure prediction by ZEFSAII (Michael W. Deem and Ramdas Pophale) SiO2 
 PCOD9448744
Probable space group: P M M N
;
_chemical_formula_sum "Si O2"
_cell_formula_units_Z 56
_cell_length_a 16.593470
_cell_length_b 7.795416
_cell_length_c 20.107312
_cell_angle_alpha 90.000000
_cell_angle_beta 90.000000
_cell_angle_gamma 90.000000
_cell_volume 2600.941160
_symmetry_space_group_name_H-M "P M M N"
_symmetry_group_IT_number 59
_space_group.IT_coordinate_system_code '2'
_symmetry_cell_setting 'orthorhombic'
loop_
_space_group_symop_operation_xyz
x,y,z
1/2-x,1/2-y,z
1/2+x,-y,-z
-x,1/2+y,-z
-x,-y,-z
1/2+x,1/2+y,-z
1/2-x,y,z
x,1/2-y,z
loop_
_atom_site_type_symbol
_atom_site_label
_atom_site_fract_x
_atom_site_fract_y
_atom_site_fract_z
Si Si1 0.662353 0.046265 0.353334
Si Si2 0.000164 0.546312 0.577259
Si Si3 0.846861 0.546406 0.071368
Si Si4 0.597118 0.541340 0.214294
Si Si5 0.337824 0.956122 0.345008
Si Si6 0.842406 0.543505 0.927757
Si Si7 0.415506 0.544188 0.212484
O O1 0.750000 0.975932 0.374425
O O2 0.663834 0.250000 0.366861
O O3 0.581379 0.974037 0.387745
O O4 0.652034 0.020643 0.274378
O O5 0.004078 0.750000 0.583964
O O6 0.916285 0.493370 0.611204
O O7 0.000000 0.500000 0.500000
O O8 0.750000 0.530091 0.071709
O O9 0.865820 0.750000 0.072341
O O10 0.879683 0.477051 0.140783
O O11 0.874445 0.478131 0.999289
O O12 0.601061 0.750000 0.214116
O O13 0.505744 0.485317 0.228283
O O14 0.250000 0.019919 0.368271
O O15 0.332993 0.750000 0.342461
O O16 0.355983 0.019812 0.269943
O O17 0.750000 0.482370 0.919268
O O18 0.839456 0.750000 0.932767
O O19 0.891519 0.499859 0.862325
O O20 0.415941 0.750000 0.216376
#
# Coordination Sequence:
#
# PCOD9448744 Si02
#       7
#     8   8   8   8   8   8   8
#     4  10  22  40  61  87 120 155 188 229 287 344
#     4  11  24  42  65  92 124 156 192 236 283 343
#     4   8  15  29  48  72 103 140 185 237 289 337
#     4  10  19  33  56  82 109 145 192 240 284 338
#     4  10  21  39  62  87 120 160 197 240 296 348
#     4   9  18  32  49  70 101 144 192 238 286 344
#     4  10  20  33  52  80 113 146 188 241 294 342
#
# _framework density 21.530666
#
# number of rings (size 3 to 8) (size 9 to 14) (size 15 to 20)
#    0.000    2.286    1.429    2.143    0.000    4.857 
#    0.000    2.143    0.000    0.857    0.000    0.000 
#    0.000    0.000    0.000    0.000    0.000    0.000 
#
# Total GULP energy -312492.160670 kJ/mol
# GULP energy per Si atom -5580.217155 kJ/mol
# Density = 2.148166 g / cm^3
# Si number density = 21.530666 Si / 1000 Ang^3
#
#
#
# Elastic Constant Matrix: (Units=GPa)
#
#
# Indices 1 2 3 4 5 6 
#
# 1 101.0541 12.5000 84.5533 0.0000 0.0000 0.0000
# 2 12.5000 27.8921 -0.8258 0.0000 0.0000 0.0000
# 3 84.5533 -0.8258 133.2959 0.0000 0.0000 0.0000
# 4 0.0000 0.0000 0.0000 24.9620 0.0000 0.0000
# 5 0.0000 0.0000 0.0000 0.0000 4.5774 0.0000
# 6 0.0000 0.0000 0.0000 0.0000 0.0000 9.2892
#
#
#
# Elastic Compliance Matrix: (Units=1/GPa)
#
#
# Indices 1 2 3 4 5 6 
#
# 1 0.024191 -0.011298 -0.015415 0.000000 0.000000 0.000000
# 2 -0.011298 0.041135 0.007421 0.000000 0.000000 0.000000
# 3 -0.015415 0.007421 0.017326 0.000000 0.000000 0.000000
# 4 0.000000 0.000000 0.000000 0.040061 0.000000 0.000000
# 5 0.000000 0.000000 0.000000 0.000000 0.218466 0.000000
# 6 0.000000 0.000000 0.000000 0.000000 0.000000 0.107652
#
#
# Mechanical properties :
#
#
# Convention : Reuss Voigt Hill
#
# Bulk Modulus (GPa) = 22.69137 50.52191 36.60664
# Shear Modulus (GPa) = 9.95808 18.83336 14.39572
#
# Velocity S-wave (km/s) = 2.15293 2.96078 2.58856
# Velocity P-wave (km/s) = 4.09171 5.93332 5.09639
#
# Compressibility (1/GPa) = 0.04406963
#
# Stress axis : x y z
#
# Youngs Moduli (GPa) = 41.33721 24.31001 57.71551
#
# Poissons Ratio (x) = 0.27465 0.88970
# Poissons Ratio (y) = 0.46702 -0.42833
# Poissons Ratio (z) = 0.63722 -0.18041
#
# Static dielectric constant tensor:
#      x y z
#    x 1.801560 0.000000 0.000000 
#    y 0.000000 1.792470 0.000000 
#    z 0.000000 0.000000 1.760660 
# 
# From -- ./inp_files/30381.got.cif
#   From: 2010.05.17/outbox.cif.g08.bks.cpg/sg59_16_cif.got.tgz:30381.got - 2010.06.03 14:40:33.
