data_PCOD9448366
_publ_section_title
;
Structure prediction by ZEFSAII (Michael W. Deem and Ramdas Pophale) SiO2 
 PCOD9448366
Probable space group: P M M N
;
_chemical_formula_sum "Si O2"
_cell_formula_units_Z 48
_cell_length_a 19.375557
_cell_length_b 8.593048
_cell_length_c 15.334428
_cell_angle_alpha 90.000000
_cell_angle_beta 90.000000
_cell_angle_gamma 90.000000
_cell_volume 2553.106990
_symmetry_space_group_name_H-M "P M M N"
_symmetry_group_IT_number 59
_space_group.IT_coordinate_system_code '2'
_symmetry_cell_setting 'orthorhombic'
loop_
_space_group_symop_operation_xyz
x,y,z
1/2-x,1/2-y,z
1/2+x,-y,-z
-x,1/2+y,-z
-x,-y,-z
1/2+x,1/2+y,-z
1/2-x,y,z
x,1/2-y,z
loop_
_atom_site_type_symbol
_atom_site_label
_atom_site_fract_x
_atom_site_fract_y
_atom_site_fract_z
Si Si1 0.073282 0.064291 0.628269
Si Si2 0.672532 0.062582 0.225184
Si Si3 0.446573 0.935682 0.126669
Si Si4 0.407506 0.937073 0.940365
Si Si5 0.073231 0.064162 0.317985
Si Si6 0.171225 0.439849 0.469542
O O1 0.066036 0.250000 0.623601
O O2 0.119059 0.010068 0.546072
O O3 0.116816 0.017529 0.713403
O O4 0.997664 0.991909 0.636874
O O5 0.750000 0.014027 0.248101
O O6 0.667241 0.250000 0.235893
O O7 0.654767 0.026779 0.124633
O O8 0.445062 0.750000 0.134328
O O9 0.523902 0.988518 0.101247
O O10 0.425193 0.005105 0.219012
O O11 0.402178 0.984078 0.041477
O O12 0.417275 0.750000 0.939377
O O13 0.072155 0.250000 0.316407
O O14 0.137446 0.013006 0.377700
O O15 0.250000 0.493628 0.481538
O O16 0.172593 0.250000 0.472088
#
# Coordination Sequence:
#
# PCOD9448366 Si02
#       6
#     8   8   8   8   8   8
#     4  11  21  35  57  83 109 140 181 230 277 325
#     4  10  20  34  53  79 112 147 181 220 273 335
#     4  10  19  32  53  80 107 139 180 224 266 313
#     4   9  18  33  52  75 107 144 178 217 268 323
#     4  11  21  35  57  82 109 143 182 227 274 325
#     4   9  20  38  57  78 107 144 183 224 275 329
#
# _framework density 18.800623999999999
#
# number of rings (size 3 to 8) (size 9 to 14) (size 15 to 20)
#    0.000    2.000    1.667    2.500    0.000    1.667 
#    0.000    3.333    0.000    7.000    0.000    0.000 
#    0.000    0.000    0.000    0.000    0.000    0.000 
#
# Total GULP energy -267873.081556 kJ/mol
# GULP energy per Si atom -5580.689199 kJ/mol
# Density = 1.875783 g / cm^3
# Si number density = 18.800624 Si / 1000 Ang^3
#
#
#
# Elastic Constant Matrix: (Units=GPa)
#
#
# Indices 1 2 3 4 5 6 
#
# 1 36.2668 3.9321 26.4482 0.0000 0.0000 0.0000
# 2 3.9321 17.4366 19.4821 0.0000 0.0000 0.0000
# 3 26.4482 19.4821 132.8000 0.0000 0.0000 0.0000
# 4 0.0000 0.0000 0.0000 15.8364 0.0000 0.0000
# 5 0.0000 0.0000 0.0000 0.0000 15.8038 0.0000
# 6 0.0000 0.0000 0.0000 0.0000 0.0000 9.9963
#
#
#
# Elastic Compliance Matrix: (Units=1/GPa)
#
#
# Indices 1 2 3 4 5 6 
#
# 1 0.032259 -0.000115 -0.006408 0.000000 0.000000 0.000000
# 2 -0.000115 0.068595 -0.010040 0.000000 0.000000 0.000000
# 3 -0.006408 -0.010040 0.010279 0.000000 0.000000 0.000000
# 4 0.000000 0.000000 0.000000 0.063145 0.000000 0.000000
# 5 0.000000 0.000000 0.000000 0.000000 0.063276 0.000000
# 6 0.000000 0.000000 0.000000 0.000000 0.000000 0.100037
#
#
# Mechanical properties :
#
#
# Convention : Reuss Voigt Hill
#
# Bulk Modulus (GPa) = 12.81941 31.80312 22.31126
# Shear Modulus (GPa) = 12.60337 17.43669 15.02003
#
# Velocity S-wave (km/s) = 2.59196 3.04872 2.82957
# Velocity P-wave (km/s) = 3.97380 5.41716 4.75061
#
# Compressibility (1/GPa) = 0.07800673
#
# Stress axis : x y z
#
# Youngs Moduli (GPa) = 30.99919 14.57842 97.28398
#
# Poissons Ratio (x) = 0.00168 0.62337
# Poissons Ratio (y) = 0.00357 0.97674
# Poissons Ratio (z) = 0.19863 0.14637
#
# Static dielectric constant tensor:
#      x y z
#    x 1.623350 0.000000 0.000000 
#    y 0.000000 1.645170 0.000000 
#    z 0.000000 0.000000 1.676170 
# 
# From -- ./inp_files/20773.got.cif
#   From: 2010.05.17/outbox.cif.g08.bks.cpg/sg59_11_cif.got.tgz:20773.got - 2010.06.03 14:40:33.
