data_PCOD9448772
_publ_section_title
;
Structure prediction by ZEFSAII (Michael W. Deem and Ramdas Pophale) SiO2 
 PCOD9448772
Probable space group: P M M N
;
_chemical_formula_sum "Si O2"
_cell_formula_units_Z 64
_cell_length_a 8.874070
_cell_length_b 31.475064
_cell_length_c 12.069519
_cell_angle_alpha 90.000000
_cell_angle_beta 90.000000
_cell_angle_gamma 90.000000
_cell_volume 3371.160540
_symmetry_space_group_name_H-M "P M M N"
_symmetry_group_IT_number 59
_space_group.IT_coordinate_system_code '2'
_symmetry_cell_setting 'orthorhombic'
loop_
_space_group_symop_operation_xyz
x,y,z
1/2-x,1/2-y,z
1/2+x,-y,-z
-x,1/2+y,-z
-x,-y,-z
1/2+x,1/2+y,-z
1/2-x,y,z
x,1/2-y,z
loop_
_atom_site_type_symbol
_atom_site_label
_atom_site_fract_x
_atom_site_fract_y
_atom_site_fract_z
Si Si1 0.929180 0.622879 0.364268
Si Si2 0.426392 0.863424 0.128440
Si Si3 0.428943 0.966960 0.414205
Si Si4 0.076028 0.067592 0.004981
Si Si5 0.072979 0.995874 0.162783
Si Si6 0.419919 0.301512 0.270129
Si Si7 0.073998 0.800570 0.953612
Si Si8 0.570444 0.299698 0.501151
O O1 0.750000 0.621547 0.373247
O O2 0.980042 0.624103 0.235870
O O3 0.998697 0.579995 0.416790
O O4 0.992329 0.665721 0.420704
O O5 0.250000 0.864716 0.157560
O O6 0.463760 0.895286 0.028066
O O7 0.468893 0.818733 0.073379
O O8 0.250000 0.963308 0.432413
O O9 0.500000 0.000000 0.500000
O O10 0.452342 0.985705 0.290467
O O11 0.250000 0.081229 0.996288
O O12 0.053037 0.044245 0.122134
O O13 0.038181 0.032057 0.912145
O O14 0.250000 0.985070 0.137672
O O15 0.250000 0.316602 0.290661
O O16 0.416462 0.250000 0.263693
O O17 0.480386 0.316834 0.151660
O O18 0.524652 0.310940 0.374910
O O19 0.250000 0.811433 0.936503
O O20 0.061078 0.750000 0.955176
O O21 0.750000 0.302016 0.514794
O O22 0.525142 0.250000 0.520756
#
# Coordination Sequence:
#
# PCOD9448772 Si02
#       8
#     8   8   8   8   8   8   8   8
#     4  12  25  41  62  89 121 159 203 252 306 363
#     4  11  22  37  57  83 117 156 197 246 300 356
#     4  11  23  42  65  88 120 161 203 248 302 363
#     4  10  19  33  57  86 112 144 187 235 288 348
#     4   9  19  36  59  84 112 147 188 234 285 344
#     4   9  17  32  56  84 114 148 188 239 296 349
#     4   9  19  36  57  81 113 156 201 241 287 349
#     4  10  21  39  64  91 121 161 206 250 300 360
#
# _framework density 18.984559999999998
#
# number of rings (size 3 to 8) (size 9 to 14) (size 15 to 20)
#    0.000    1.875    1.250    3.000    0.000    4.750 
#    2.250    1.250    0.000    0.000    0.000    0.000 
#    0.000    0.000    0.000    0.000    0.000    0.000 
#
# Total GULP energy -357052.863995 kJ/mol
# GULP energy per Si atom -5578.951000 kJ/mol
# Density = 1.894135 g / cm^3
# Si number density = 18.984560 Si / 1000 Ang^3
#
#
#
# Elastic Constant Matrix: (Units=GPa)
#
#
# Indices 1 2 3 4 5 6 
#
# 1 85.0334 49.9781 40.7014 0.0000 0.0000 0.0000
# 2 49.9781 76.3328 51.6961 0.0000 0.0000 0.0000
# 3 40.7014 51.6961 60.9034 0.0000 0.0000 0.0000
# 4 0.0000 0.0000 0.0000 32.3168 0.0000 0.0000
# 5 0.0000 0.0000 0.0000 0.0000 29.0098 0.0000
# 6 0.0000 0.0000 0.0000 0.0000 0.0000 27.7844
#
#
#
# Elastic Compliance Matrix: (Units=1/GPa)
#
#
# Indices 1 2 3 4 5 6 
#
# 1 0.019803 -0.009416 -0.005242 0.000000 0.000000 0.000000
# 2 -0.009416 0.035292 -0.023664 0.000000 0.000000 0.000000
# 3 -0.005242 -0.023664 0.040009 0.000000 0.000000 0.000000
# 4 0.000000 0.000000 0.000000 0.030944 0.000000 0.000000
# 5 0.000000 0.000000 0.000000 0.000000 0.034471 0.000000
# 6 0.000000 0.000000 0.000000 0.000000 0.000000 0.035991
#
#
# Mechanical properties :
#
#
# Convention : Reuss Voigt Hill
#
# Bulk Modulus (GPa) = 54.16935 56.33564 55.25249
# Shear Modulus (GPa) = 17.90143 23.14846 20.52494
#
# Velocity S-wave (km/s) = 3.07408 3.49568 3.29163
# Velocity P-wave (km/s) = 6.41835 6.78468 6.60406
#
# Compressibility (1/GPa) = 0.01846062
#
# Stress axis : x y z
#
# Youngs Moduli (GPa) = 50.49653 28.33532 24.99432
#
# Poissons Ratio (x) = 0.26680 0.13102
# Poissons Ratio (y) = 0.47547 0.59146
# Poissons Ratio (z) = 0.26471 0.67052
#
# Static dielectric constant tensor:
#      x y z
#    x 1.648410 0.000000 0.000000 
#    y 0.000000 1.706000 0.000000 
#    z 0.000000 0.000000 1.649940 
# 
# From -- ./inp_files/15074.got.cif
#   From: 2010.05.17/outbox.cif.g08.bks.cpg/sg59_8_cif.got.tgz:15074.got - 2010.06.03 14:40:33.
