data_PCOD9448360
_publ_section_title
;
Structure prediction by ZEFSAII (Michael W. Deem and Ramdas Pophale) SiO2 
 PCOD9448360
Probable space group: P M M N
;
_chemical_formula_sum "Si O2"
_cell_formula_units_Z 40
_cell_length_a 20.066144
_cell_length_b 8.918577
_cell_length_c 12.982082
_cell_angle_alpha 90.000000
_cell_angle_beta 90.000000
_cell_angle_gamma 90.000000
_cell_volume 2323.292223
_symmetry_space_group_name_H-M "P M M N"
_symmetry_group_IT_number 59
_space_group.IT_coordinate_system_code '2'
_symmetry_cell_setting 'orthorhombic'
loop_
_space_group_symop_operation_xyz
x,y,z
1/2-x,1/2-y,z
1/2+x,-y,-z
-x,1/2+y,-z
-x,-y,-z
1/2+x,1/2+y,-z
1/2-x,y,z
x,1/2-y,z
loop_
_atom_site_type_symbol
_atom_site_label
_atom_site_fract_x
_atom_site_fract_y
_atom_site_fract_z
Si Si1 0.671591 0.427621 0.886341
Si Si2 0.895079 0.571690 0.690138
Si Si3 0.073237 0.929639 0.514996
Si Si4 0.947981 0.072495 0.257915
Si Si5 0.431631 0.071777 0.957712
O O1 0.750000 0.450030 0.902718
O O2 0.657346 0.250000 0.887344
O O3 0.649566 0.495482 0.776862
O O4 0.628032 0.507708 0.973548
O O5 0.884934 0.750000 0.686936
O O6 0.884555 0.500884 0.577191
O O7 0.972831 0.546277 0.722373
O O8 0.069797 0.750000 0.503323
O O9 0.089490 0.961249 0.634507
O O10 0.000000 0.000000 0.500000
O O11 0.940495 0.250000 0.235892
O O12 0.925107 0.977469 0.160832
O O13 0.435265 0.250000 0.967842
O O14 0.500000 0.000000 0.000000
#
# Coordination Sequence:
#
# PCOD9448360 Si02
#       5
#     8   8   8   8   8
#     4  11  24  40  58  80 109 147 189 233 284 341
#     4  10  19  32  53  79 110 144 179 223 275 331
#     4   9  17  29  48  75 109 142 176 219 267 322
#     4   9  18  32  51  79 111 144 181 224 275 325
#     4  12  23  35  56  82 112 148 187 233 281 334
#
# _framework density 17.216947999999999
#
# number of rings (size 3 to 8) (size 9 to 14) (size 15 to 20)
#    0.000    1.800    2.000    4.800    0.000    5.600 
#    0.000    0.000    0.000    1.200    0.000    8.400 
#    0.000    0.000    0.000    0.000    0.000    0.000 
#
# Total GULP energy -223236.192764 kJ/mol
# GULP energy per Si atom -5580.904819 kJ/mol
# Density = 1.717776 g / cm^3
# Si number density = 17.216948 Si / 1000 Ang^3
#
#
#
# Elastic Constant Matrix: (Units=GPa)
#
#
# Indices 1 2 3 4 5 6 
#
# 1 51.3162 61.4369 54.8239 0.0000 0.0000 0.0000
# 2 61.4369 129.2091 100.4758 0.0000 0.0000 0.0000
# 3 54.8239 100.4758 165.0280 0.0000 0.0000 0.0000
# 4 0.0000 0.0000 0.0000 36.4067 0.0000 0.0000
# 5 0.0000 0.0000 0.0000 0.0000 18.3975 0.0000
# 6 0.0000 0.0000 0.0000 0.0000 0.0000 20.1966
#
#
#
# Elastic Compliance Matrix: (Units=1/GPa)
#
#
# Indices 1 2 3 4 5 6 
#
# 1 0.046442 -0.019153 -0.003768 0.000000 0.000000 0.000000
# 2 -0.019153 0.022597 -0.007395 0.000000 0.000000 0.000000
# 3 -0.003768 -0.007395 0.011814 0.000000 0.000000 0.000000
# 4 0.000000 0.000000 0.000000 0.027467 0.000000 0.000000
# 5 0.000000 0.000000 0.000000 0.000000 0.054355 0.000000
# 6 0.000000 0.000000 0.000000 0.000000 0.000000 0.049513
#
#
# Mechanical properties :
#
#
# Convention : Reuss Voigt Hill
#
# Bulk Modulus (GPa) = 49.45165 86.55851 68.00508
# Shear Modulus (GPa) = 17.88520 23.58793 20.73656
#
# Velocity S-wave (km/s) = 3.22656 3.70542 3.47425
# Velocity P-wave (km/s) = 6.53192 8.28802 7.46181
#
# Compressibility (1/GPa) = 0.02022177
#
# Stress axis : x y z
#
# Youngs Moduli (GPa) = 21.53207 44.25375 84.64768
#
# Poissons Ratio (x) = 0.84759 0.31891
# Poissons Ratio (y) = 0.41240 0.62598
# Poissons Ratio (z) = 0.08112 0.32726
#
# Static dielectric constant tensor:
#      x y z
#    x 1.512160 0.000000 0.000000 
#    y 0.000000 1.557780 0.000000 
#    z 0.000000 0.000000 1.633440 
# 
# From -- ./inp_files/14025.got.cif
#   From: 2010.05.17/outbox.cif.g08.bks.cpg/sg59_8_cif.got.tgz:14025.got - 2010.06.03 14:40:33.
