data_PCOD9448059
_publ_section_title
;
Structure prediction by ZEFSAII (Michael W. Deem and Ramdas Pophale) SiO2 
 PCOD9448059
Probable space group: P M M N
;
_chemical_formula_sum "Si O2"
_cell_formula_units_Z 44
_cell_length_a 13.964115
_cell_length_b 10.254369
_cell_length_c 16.736851
_cell_angle_alpha 90.000000
_cell_angle_beta 90.000000
_cell_angle_gamma 90.000000
_cell_volume 2396.603051
_symmetry_space_group_name_H-M "P M M N"
_symmetry_group_IT_number 59
_space_group.IT_coordinate_system_code '2'
_symmetry_cell_setting 'orthorhombic'
loop_
_space_group_symop_operation_xyz
x,y,z
1/2-x,1/2-y,z
1/2+x,-y,-z
-x,1/2+y,-z
-x,-y,-z
1/2+x,1/2+y,-z
1/2-x,y,z
x,1/2-y,z
loop_
_atom_site_type_symbol
_atom_site_label
_atom_site_fract_x
_atom_site_fract_y
_atom_site_fract_z
Si Si1 0.144145 0.750000 0.733303
Si Si2 0.353391 0.497307 0.845553
Si Si3 0.064611 0.900073 0.188027
Si Si4 0.510378 0.750000 0.594288
Si Si5 0.861989 0.515154 0.650552
Si Si6 0.910765 0.404700 0.988112
Si Si7 0.859840 0.250000 0.549365
O O1 0.250000 0.750000 0.695448
O O2 0.137681 0.877205 0.788564
O O3 0.062004 0.750000 0.668675
O O4 0.250000 0.432271 0.828933
O O5 0.450892 0.416947 0.830863
O O6 0.349923 0.552258 0.935875
O O7 0.083064 0.750000 0.210482
O O8 0.097001 0.991600 0.260270
O O9 0.119248 0.925702 0.103997
O O10 0.577321 0.623605 0.604065
O O11 0.442972 0.750000 0.516689
O O12 0.750000 0.551241 0.655305
O O13 0.869367 0.378642 0.603564
O O14 0.932610 0.250000 0.994744
O O15 0.000000 0.500000 0.000000
O O16 0.750000 0.250000 0.516645
#
# Coordination Sequence:
#
# PCOD9448059 Si02
#       7
#     4   8   8   4   8   8   4
#     4  10  19  31  54  84 110 143 191 238 284 338
#     4  10  19  33  53  81 115 151 197 247 290 337
#     4  10  20  36  57  83 115 158 197 237 291 348
#     4  12  22  40  64  88 118 149 188 235 295 339
#     4  11  23  40  62  89 119 152 192 235 283 344
#     4   9  18  31  51  77 108 150 197 241 286 334
#     4  10  23  43  66  90 116 146 185 233 291 357
#
# _framework density 18.359317999999998
#
# number of rings (size 3 to 8) (size 9 to 14) (size 15 to 20)
#    0.000    1.818    3.636    1.091    0.000    1.091 
#    0.000    1.818    0.000    1.091    0.000    0.000 
#    0.000    0.000    0.000    0.000    0.000    0.000 
#
# Total GULP energy -245186.100342 kJ/mol
# GULP energy per Si atom -5572.411371 kJ/mol
# Density = 1.831753 g / cm^3
# Si number density = 18.359318 Si / 1000 Ang^3
#
#
#
# Elastic Constant Matrix: (Units=GPa)
#
#
# Indices 1 2 3 4 5 6 
#
# 1 119.0609 28.7904 52.3603 0.0000 0.0000 0.0000
# 2 28.7904 66.4545 21.1950 0.0000 0.0000 0.0000
# 3 52.3603 21.1950 96.7374 0.0000 0.0000 0.0000
# 4 0.0000 0.0000 0.0000 21.2545 0.0000 0.0000
# 5 0.0000 0.0000 0.0000 0.0000 -36.1118 0.0000
# 6 0.0000 0.0000 0.0000 0.0000 0.0000 -17.1325
#
#
#
# Elastic Compliance Matrix: (Units=1/GPa)
#
#
# Indices 1 2 3 4 5 6 
#
# 1 0.011646 -0.003263 -0.005589 0.000000 0.000000 0.000000
# 2 -0.003263 0.017093 -0.001979 0.000000 0.000000 0.000000
# 3 -0.005589 -0.001979 0.013796 0.000000 0.000000 0.000000
# 4 0.000000 0.000000 0.000000 0.047049 0.000000 0.000000
# 5 0.000000 0.000000 0.000000 0.000000 -0.027692 0.000000
# 6 0.000000 0.000000 0.000000 0.000000 0.000000 -0.058369
#
#
# Mechanical properties :
#
#
# Convention : Reuss Voigt Hill
#
# Bulk Modulus (GPa) = 47.90775 54.10493 51.00634
# Shear Modulus (GPa) = 155.56371 5.59584 80.57978
#
# Velocity S-wave (km/s) = 9.21503 1.74773 6.63217
# Velocity P-wave (km/s) = 11.80566 5.79713 9.30001
#
# Compressibility (1/GPa) = 0.02087345
#
# Stress axis : x y z
#
# Youngs Moduli (GPa) = 85.86796 58.50465 72.48652
#
# Poissons Ratio (x) = 0.19090 0.40509
# Poissons Ratio (y) = 0.28018 0.14344
# Poissons Ratio (z) = 0.47987 0.11577
#
# Static dielectric constant tensor:
#      x y z
#    x 1.648280 0.000000 0.000000 
#    y 0.000000 1.603260 0.000000 
#    z 0.000000 0.000000 1.632330 
# 
# From -- ./inp_files/27333.got.cif
#   From: 2010.05.17/outbox.cif.g08.bks.cpg/sg59_14_cif.got.tgz:27333.got - 2010.06.03 14:40:33.
