data_PCOD9448311
_publ_section_title
;
Structure prediction by ZEFSAII (Michael W. Deem and Ramdas Pophale) SiO2 
 PCOD9448311
Probable space group: P M M N
;
_chemical_formula_sum "Si O2"
_cell_formula_units_Z 56
_cell_length_a 16.193067
_cell_length_b 8.435943
_cell_length_c 20.328776
_cell_angle_alpha 90.000000
_cell_angle_beta 90.000000
_cell_angle_gamma 90.000000
_cell_volume 2776.987852
_symmetry_space_group_name_H-M "P M M N"
_symmetry_group_IT_number 59
_space_group.IT_coordinate_system_code '2'
_symmetry_cell_setting 'orthorhombic'
loop_
_space_group_symop_operation_xyz
x,y,z
1/2-x,1/2-y,z
1/2+x,-y,-z
-x,1/2+y,-z
-x,-y,-z
1/2+x,1/2+y,-z
1/2-x,y,z
x,1/2-y,z
loop_
_atom_site_type_symbol
_atom_site_label
_atom_site_fract_x
_atom_site_fract_y
_atom_site_fract_z
Si Si1 0.605162 0.937408 0.714001
Si Si2 0.150253 0.433448 0.428597
Si Si3 0.411437 0.564461 0.704179
Si Si4 0.655016 0.559305 0.429898
Si Si5 0.659187 0.438115 0.850971
Si Si6 0.998456 0.060907 0.074159
Si Si7 0.341895 0.943955 0.840773
O O1 0.628563 0.750000 0.715738
O O2 0.624507 0.003678 0.641303
O O3 0.507044 0.948245 0.723949
O O4 0.649348 0.023267 0.773800
O O5 0.250000 0.431514 0.430942
O O6 0.120840 0.250000 0.426204
O O7 0.123337 0.502656 0.499121
O O8 0.391956 0.750000 0.695636
O O9 0.395360 0.485345 0.634314
O O10 0.358488 0.502979 0.765672
O O11 0.750000 0.505026 0.420600
O O12 0.656948 0.750000 0.435634
O O13 0.750000 0.495025 0.873020
O O14 0.655544 0.250000 0.860768
O O15 0.582105 0.513280 0.888529
O O16 0.993455 0.250000 0.073448
O O17 0.917208 0.001644 0.113386
O O18 0.000000 0.000000 0.000000
O O19 0.250000 0.990902 0.862395
O O20 0.344505 0.750000 0.839794
#
# Coordination Sequence:
#
# PCOD9448311 Si02
#       7
#     8   8   8   8   8   8   8
#     4  10  19  34  57  83 109 146 197 246 292 350
#     4   8  15  29  49  72 102 142 188 238 291 348
#     4  10  19  32  52  80 110 143 189 240 290 345
#     4   9  18  32  48  70 103 145 191 237 290 350
#     4  11  24  41  62  90 124 161 199 244 299 352
#     4  11  23  42  66  94 125 159 197 238 288 349
#     4   9  18  35  59  85 116 153 190 231 285 346
#
# _framework density 20.165734
#
# number of rings (size 3 to 8) (size 9 to 14) (size 15 to 20)
#    0.000    2.286    1.429    2.571    0.000    4.286 
#    0.000    2.143    0.000    3.000    0.000    0.000 
#    0.000    0.000    0.000    0.000    0.000    0.000 
#
# Total GULP energy -312447.619841 kJ/mol
# GULP energy per Si atom -5579.421783 kJ/mol
# Density = 2.011984 g / cm^3
# Si number density = 20.165734 Si / 1000 Ang^3
#
#
#
# Elastic Constant Matrix: (Units=GPa)
#
#
# Indices 1 2 3 4 5 6 
#
# 1 98.7342 18.3650 65.6546 0.0000 0.0000 0.0000
# 2 18.3650 14.2494 14.4586 0.0000 0.0000 0.0000
# 3 65.6546 14.4586 141.0131 0.0000 0.0000 0.0000
# 4 0.0000 0.0000 0.0000 29.2970 0.0000 0.0000
# 5 0.0000 0.0000 0.0000 0.0000 -1.8903 0.0000
# 6 0.0000 0.0000 0.0000 0.0000 0.0000 14.2379
#
#
#
# Elastic Compliance Matrix: (Units=1/GPa)
#
#
# Indices 1 2 3 4 5 6 
#
# 1 0.017371 -0.015829 -0.006465 0.000000 0.000000 0.000000
# 2 -0.015829 0.092750 -0.002140 0.000000 0.000000 0.000000
# 3 -0.006465 -0.002140 0.010321 0.000000 0.000000 0.000000
# 4 0.000000 0.000000 0.000000 0.034133 0.000000 0.000000
# 5 0.000000 0.000000 0.000000 0.000000 -0.529018 0.000000
# 6 0.000000 0.000000 0.000000 0.000000 0.000000 0.070235
#
#
# Mechanical properties :
#
#
# Convention : Reuss Voigt Hill
#
# Bulk Modulus (GPa) = 13.97141 50.10588 32.03864
# Shear Modulus (GPa) = -21.60006 18.69682 -1.45162
#
# Velocity S-wave (km/s) = -3.27636 3.04823 -0.84936
# Velocity P-wave (km/s) = 2.71466 6.10655 3.86785
#
# Compressibility (1/GPa) = 0.07157475
#
# Stress axis : x y z
#
# Youngs Moduli (GPa) = 57.56587 10.78163 96.88932
#
# Poissons Ratio (x) = 0.17066 0.62639
# Poissons Ratio (y) = 0.91119 0.20738
# Poissons Ratio (z) = 0.37216 0.02308
#
# Static dielectric constant tensor:
#      x y z
#    x 1.727420 0.000000 0.000000 
#    y 0.000000 1.712630 0.000000 
#    z 0.000000 0.000000 1.723320 
# 
# From -- ./inp_files/30380.got.cif
#   From: 2010.05.17/outbox.cif.g08.bks.cpg/sg59_16_cif.got.tgz:30380.got - 2010.06.03 14:40:33.
