data_PCOD9448852
_publ_section_title
;
Structure prediction by ZEFSAII (Michael W. Deem and Ramdas Pophale) SiO2 
 PCOD9448852
Probable space group: P M M N
;
_chemical_formula_sum "Si O2"
_cell_formula_units_Z 64
_cell_length_a 9.026286
_cell_length_b 15.331419
_cell_length_c 24.835702
_cell_angle_alpha 90.000000
_cell_angle_beta 90.000000
_cell_angle_gamma 90.000000
_cell_volume 3436.907811
_symmetry_space_group_name_H-M "P M M N"
_symmetry_group_IT_number 59
_space_group.IT_coordinate_system_code '2'
_symmetry_cell_setting 'orthorhombic'
loop_
_space_group_symop_operation_xyz
x,y,z
1/2-x,1/2-y,z
1/2+x,-y,-z
-x,1/2+y,-z
-x,-y,-z
1/2+x,1/2+y,-z
1/2-x,y,z
x,1/2-y,z
loop_
_atom_site_type_symbol
_atom_site_label
_atom_site_fract_x
_atom_site_fract_y
_atom_site_fract_z
Si Si1 0.073209 0.848388 0.236310
Si Si2 0.428844 0.147200 0.504345
Si Si3 0.418315 0.092282 0.105181
Si Si4 0.572719 0.007839 0.295808
Si Si5 0.571709 0.015140 0.420908
Si Si6 0.920207 0.113088 0.881946
Si Si7 0.080599 0.852644 0.000679
Si Si8 0.926998 0.849270 0.780386
O O1 0.250000 0.868484 0.234890
O O2 0.054640 0.750000 0.255957
O O3 0.017219 0.853807 0.174370
O O4 0.991008 0.918125 0.272423
O O5 0.250000 0.147810 0.500039
O O6 0.474917 0.250000 0.509122
O O7 0.496980 0.094461 0.453718
O O8 0.467348 0.079879 0.553251
O O9 0.250000 0.123348 0.096849
O O10 0.501162 0.102754 0.049109
O O11 0.480498 0.140562 0.157746
O O12 0.416336 0.991039 0.121005
O O13 0.750000 0.008130 0.292259
O O14 0.530681 0.018307 0.358294
O O15 0.506553 0.084102 0.258901
O O16 0.750000 0.023886 0.425736
O O17 0.750000 0.146758 0.884265
O O18 0.988319 0.135787 0.939860
O O19 0.250000 0.886222 0.003633
O O20 0.083614 0.750000 0.989242
O O21 0.750000 0.868374 0.781303
O O22 0.947921 0.750000 0.762803
#
# Coordination Sequence:
#
# PCOD9448852 Si02
#       8
#     8   8   8   8   8   8   8   8
#     4  10  20  37  61  83 107 145 191 235 279 332
#     4   9  18  35  60  87 114 148 189 229 269 316
#     4  10  19  34  55  75  99 134 176 224 278 334
#     4  11  23  38  57  83 118 154 188 230 279 331
#     4   9  20  37  56  82 117 155 187 223 274 326
#     4   9  17  33  55  76 100 134 176 221 274 336
#     4  10  20  32  48  74 104 132 168 217 274 338
#     4  10  21  38  59  80 106 145 192 238 283 334
#
# _framework density 18.621390000000002
#
# number of rings (size 3 to 8) (size 9 to 14) (size 15 to 20)
#    0.000    2.250    1.250    1.500    0.000    5.500 
#    0.000    4.375    0.000    1.500    0.000    0.000 
#    0.000    0.000    0.000    0.000    0.000    0.000 
#
# Total GULP energy -356853.432079 kJ/mol
# GULP energy per Si atom -5575.834876 kJ/mol
# Density = 1.857901 g / cm^3
# Si number density = 18.621390 Si / 1000 Ang^3
#
#
#
# Elastic Constant Matrix: (Units=GPa)
#
#
# Indices 1 2 3 4 5 6 
#
# 1 19.9969 18.2070 22.1955 0.0000 0.0000 0.0000
# 2 18.2070 94.3383 21.5007 0.0000 0.0000 0.0000
# 3 22.1955 21.5007 88.8971 0.0000 0.0000 0.0000
# 4 0.0000 0.0000 0.0000 -104.6104 0.0000 0.0000
# 5 0.0000 0.0000 0.0000 0.0000 22.4733 0.0000
# 6 0.0000 0.0000 0.0000 0.0000 0.0000 16.3450
#
#
#
# Elastic Compliance Matrix: (Units=1/GPa)
#
#
# Indices 1 2 3 4 5 6 
#
# 1 0.079327 -0.011426 -0.017043 0.000000 0.000000 0.000000
# 2 -0.011426 0.012864 -0.000259 0.000000 0.000000 0.000000
# 3 -0.017043 -0.000259 0.015567 0.000000 0.000000 0.000000
# 4 0.000000 0.000000 0.000000 -0.009559 0.000000 0.000000
# 5 0.000000 0.000000 0.000000 0.000000 0.044497 0.000000
# 6 0.000000 0.000000 0.000000 0.000000 0.000000 0.061181
#
#
# Mechanical properties :
#
#
# Convention : Reuss Voigt Hill
#
# Bulk Modulus (GPa) = 19.87912 36.33763 28.10838
# Shear Modulus (GPa) = 17.97921 -3.73649 7.12136
#
# Velocity S-wave (km/s) = 3.11064 -1.41807 1.95770
# Velocity P-wave (km/s) = 4.85799 4.10793 4.49862
#
# Compressibility (1/GPa) = 0.05030403
#
# Stress axis : x y z
#
# Youngs Moduli (GPa) = 12.60603 77.73503 64.23982
#
# Poissons Ratio (x) = 0.88818 1.09482
# Poissons Ratio (y) = 0.14403 0.01661
# Poissons Ratio (z) = 0.21484 0.02010
#
# Static dielectric constant tensor:
#      x y z
#    x 1.646520 0.000000 0.000000 
#    y 0.000000 1.648690 0.000000 
#    z 0.000000 0.000000 1.648430 
# 
# From -- ./inp_files/31458.got.cif
#   From: 2010.05.17/outbox.cif.g08.bks.cpg/sg59_16_cif.got.tgz:31458.got - 2010.06.03 14:40:33.
