data_PCOD9448848
_publ_section_title
;
Structure prediction by ZEFSAII (Michael W. Deem and Ramdas Pophale) SiO2 
 PCOD9448848
Probable space group: P M M N
;
_chemical_formula_sum "Si O2"
_cell_formula_units_Z 48
_cell_length_a 19.869511
_cell_length_b 11.511562
_cell_length_c 10.614366
_cell_angle_alpha 90.000000
_cell_angle_beta 90.000000
_cell_angle_gamma 90.000000
_cell_volume 2427.814465
_symmetry_space_group_name_H-M "P M M N"
_symmetry_group_IT_number 59
_space_group.IT_coordinate_system_code '2'
_symmetry_cell_setting 'orthorhombic'
loop_
_space_group_symop_operation_xyz
x,y,z
1/2-x,1/2-y,z
1/2+x,-y,-z
-x,1/2+y,-z
-x,-y,-z
1/2+x,1/2+y,-z
1/2-x,y,z
x,1/2-y,z
loop_
_atom_site_type_symbol
_atom_site_label
_atom_site_fract_x
_atom_site_fract_y
_atom_site_fract_z
Si Si1 0.329175 0.539686 0.724148
Si Si2 0.440997 0.120703 0.639020
Si Si3 0.929373 0.874855 0.918550
Si Si4 0.061317 0.448464 0.352533
Si Si5 0.409628 0.879647 0.964915
Si Si6 0.174911 0.617048 0.440665
O O1 0.250000 0.524903 0.752518
O O2 0.369358 0.420519 0.693289
O O3 0.368565 0.605126 0.834880
O O4 0.334639 0.607735 0.591505
O O5 0.458738 0.250000 0.682009
O O6 0.493905 0.021587 0.676834
O O7 0.443708 0.116329 0.486345
O O8 0.903937 0.750000 0.970470
O O9 0.009549 0.878387 0.946287
O O10 0.922667 0.873956 0.768235
O O11 0.897609 0.997087 0.964165
O O12 0.119375 0.541789 0.374159
O O13 0.392488 0.750000 0.018298
O O14 0.250000 0.573310 0.413811
O O15 0.169705 0.750000 0.402690
#
# Coordination Sequence:
#
# PCOD9448848 Si02
#       6
#     8   8   8   8   8   8
#     4  10  20  36  56  82 115 149 186 236 293 346
#     4  10  20  32  52  84 116 149 190 234 286 346
#     4  10  21  38  58  81 112 150 189 235 285 338
#     4  10  19  34  54  81 111 152 187 236 279 345
#     4  10  21  37  57  83 111 147 193 239 285 337
#     4   9  18  32  53  82 114 147 185 233 288 341
#
# _framework density 19.770869000000001
#
# number of rings (size 3 to 8) (size 9 to 14) (size 15 to 20)
#    0.000    2.167    1.667    1.500    0.000    3.333 
#    0.000    0.833    0.000    2.500    0.000    0.000 
#    0.000    0.000    0.000    0.000    0.000    0.000 
#
# Total GULP energy -267536.066689 kJ/mol
# GULP energy per Si atom -5573.668056 kJ/mol
# Density = 1.972587 g / cm^3
# Si number density = 19.770869 Si / 1000 Ang^3
#
#
#
# Elastic Constant Matrix: (Units=GPa)
#
#
# Indices 1 2 3 4 5 6 
#
# 1 62.3238 33.0099 2.0746 0.0000 0.0000 0.0000
# 2 33.0099 136.8278 33.7614 0.0000 0.0000 0.0000
# 3 2.0746 33.7614 30.7327 0.0000 0.0000 0.0000
# 4 0.0000 0.0000 0.0000 -1.3224 0.0000 0.0000
# 5 0.0000 0.0000 0.0000 0.0000 16.8920 0.0000
# 6 0.0000 0.0000 0.0000 0.0000 0.0000 6.2953
#
#
#
# Elastic Compliance Matrix: (Units=1/GPa)
#
#
# Indices 1 2 3 4 5 6 
#
# 1 0.018970 -0.005845 0.005140 0.000000 0.000000 0.000000
# 2 -0.005845 0.011827 -0.012598 0.000000 0.000000 0.000000
# 3 0.005140 -0.012598 0.046031 0.000000 0.000000 0.000000
# 4 0.000000 0.000000 0.000000 -0.756225 0.000000 0.000000
# 5 0.000000 0.000000 0.000000 0.000000 0.059200 0.000000
# 6 0.000000 0.000000 0.000000 0.000000 0.000000 0.158850
#
#
# Mechanical properties :
#
#
# Convention : Reuss Voigt Hill
#
# Bulk Modulus (GPa) = 19.91122 40.84178 30.37650
# Shear Modulus (GPa) = -11.96168 15.10887 1.57359
#
# Velocity S-wave (km/s) = -2.46237 2.76741 0.89311
# Velocity P-wave (km/s) = 1.41720 5.56002 4.05723
#
# Compressibility (1/GPa) = 0.05022294
#
# Stress axis : x y z
#
# Youngs Moduli (GPa) = 52.71518 84.55231 21.72443
#
# Poissons Ratio (x) = 0.49419 -0.11167
# Poissons Ratio (y) = 0.30811 0.27368
# Poissons Ratio (z) = -0.27097 1.06519
#
# Static dielectric constant tensor:
#      x y z
#    x 1.679460 0.000000 0.000000 
#    y 0.000000 1.744890 0.000000 
#    z 0.000000 0.000000 1.713490 
# 
# From -- ./inp_files/17624.got.cif
#   From: 2010.05.17/outbox.cif.g08.bks.cpg/sg59_9_cif.got.tgz:17624.got - 2010.06.03 14:40:33.
