data_PCOD9448051
_publ_section_title
;
Structure prediction by ZEFSAII (Michael W. Deem and Ramdas Pophale) SiO2 
 PCOD9448051
Probable space group: P M M N
;
_chemical_formula_sum "Si O2"
_cell_formula_units_Z 64
_cell_length_a 8.553233
_cell_length_b 22.311657
_cell_length_c 17.004937
_cell_angle_alpha 90.000000
_cell_angle_beta 90.000000
_cell_angle_gamma 90.000000
_cell_volume 3245.167777
_symmetry_space_group_name_H-M "P M M N"
_symmetry_group_IT_number 59
_space_group.IT_coordinate_system_code '2'
_symmetry_cell_setting 'orthorhombic'
loop_
_space_group_symop_operation_xyz
x,y,z
1/2-x,1/2-y,z
1/2+x,-y,-z
-x,1/2+y,-z
-x,-y,-z
1/2+x,1/2+y,-z
1/2-x,y,z
x,1/2-y,z
loop_
_atom_site_type_symbol
_atom_site_label
_atom_site_fract_x
_atom_site_fract_y
_atom_site_fract_z
Si Si1 0.558738 0.681307 0.293357
Si Si2 0.066645 0.938381 0.577972
Si Si3 0.570905 0.081410 0.026045
Si Si4 0.068231 0.318182 0.127848
Si Si5 0.929448 0.992319 0.838357
Si Si6 0.063128 0.426700 0.593068
Si Si7 0.430718 0.380122 0.279039
Si Si8 0.568483 0.610964 0.142856
O O1 0.750000 0.680885 0.294935
O O2 0.509707 0.750000 0.310450
O O3 0.504363 0.628635 0.353270
O O4 0.513185 0.660587 0.205004
O O5 0.250000 0.944131 0.560120
O O6 0.979698 0.919294 0.498571
O O7 0.037072 0.891154 0.646551
O O8 0.008492 0.004326 0.607874
O O9 0.750000 0.061927 0.027220
O O10 0.545339 0.140598 0.078458
O O11 0.469932 0.032576 0.074508
O O12 0.518969 0.100993 0.939260
O O13 0.250000 0.339152 0.116838
O O14 0.059306 0.250000 0.103028
O O15 0.035269 0.325673 0.220405
O O16 0.750000 0.012889 0.835966
O O17 0.043491 0.046321 0.816255
O O18 0.946999 0.937392 0.778829
O O19 0.250000 0.426853 0.603044
O O20 0.250000 0.376879 0.304711
O O21 0.750000 0.621657 0.125668
#
# Coordination Sequence:
#
# PCOD9448051 Si02
#       8
#     8   8   8   8   8   8   8   8
#     4   9  19  36  57  79 103 137 182 225 264 313
#     4  10  19  31  52  82 110 135 166 208 261 317
#     4  11  22  35  52  77 108 140 178 223 271 320
#     4   9  19  37  57  75 100 137 179 219 261 311
#     4  10  20  35  54  78 109 142 176 217 270 323
#     4   9  18  34  55  78 104 134 171 214 259 309
#     4   9  18  32  52  78 105 134 168 208 255 309
#     4  11  21  34  54  79 106 137 177 223 270 319
#
# _framework density 19.721630000000001
#
# number of rings (size 3 to 8) (size 9 to 14) (size 15 to 20)
#    0.000    2.250    0.000    4.125    0.000    4.750 
#    0.000    3.125    0.000    6.750    0.000    0.000 
#    0.000    0.000    0.000    0.000    0.000    0.000 
#
# Total GULP energy -356909.110151 kJ/mol
# GULP energy per Si atom -5576.704846 kJ/mol
# Density = 1.967674 g / cm^3
# Si number density = 19.721630 Si / 1000 Ang^3
#
#
#
# Elastic Constant Matrix: (Units=GPa)
#
#
# Indices 1 2 3 4 5 6 
#
# 1 20.5609 4.9114 8.6512 0.0000 0.0000 0.0000
# 2 4.9114 70.2747 23.6008 0.0000 0.0000 0.0000
# 3 8.6512 23.6008 70.4109 0.0000 0.0000 0.0000
# 4 0.0000 0.0000 0.0000 23.1598 0.0000 0.0000
# 5 0.0000 0.0000 0.0000 0.0000 24.4702 0.0000
# 6 0.0000 0.0000 0.0000 0.0000 0.0000 17.1031
#
#
#
# Elastic Compliance Matrix: (Units=1/GPa)
#
#
# Indices 1 2 3 4 5 6 
#
# 1 0.051459 -0.001660 -0.005766 0.000000 0.000000 0.000000
# 2 -0.001660 0.016088 -0.005189 0.000000 0.000000 0.000000
# 3 -0.005766 -0.005189 0.016650 0.000000 0.000000 0.000000
# 4 0.000000 0.000000 0.000000 0.043178 0.000000 0.000000
# 5 0.000000 0.000000 0.000000 0.000000 0.040866 0.000000
# 6 0.000000 0.000000 0.000000 0.000000 0.000000 0.058469
#
#
# Mechanical properties :
#
#
# Convention : Reuss Voigt Hill
#
# Bulk Modulus (GPa) = 16.95845 26.17480 21.56663
# Shear Modulus (GPa) = 18.40971 21.21883 19.81427
#
# Velocity S-wave (km/s) = 3.05860 3.28368 3.17313
# Velocity P-wave (km/s) = 4.59249 5.26095 4.93805
#
# Compressibility (1/GPa) = 0.05896765
#
# Stress axis : x y z
#
# Youngs Moduli (GPa) = 19.43304 62.15646 60.06007
#
# Poissons Ratio (x) = 0.10317 0.34632
# Poissons Ratio (y) = 0.03226 0.31163
# Poissons Ratio (z) = 0.11205 0.32251
#
# Static dielectric constant tensor:
#      x y z
#    x 1.688200 0.000000 0.000000 
#    y 0.000000 1.729050 0.000000 
#    z 0.000000 0.000000 1.709080 
# 
# From -- ./inp_files/26270.got.cif
#   From: 2010.05.17/outbox.cif.g08.bks.cpg/sg59_14_cif.got.tgz:26270.got - 2010.06.03 14:40:33.
