data_PCOD9448437
_publ_section_title
;
Structure prediction by ZEFSAII (Michael W. Deem and Ramdas Pophale) SiO2 
 PCOD9448437
Probable space group: P M M N
;
_chemical_formula_sum "Si O2"
_cell_formula_units_Z 48
_cell_length_a 13.256098
_cell_length_b 13.655683
_cell_length_c 13.707593
_cell_angle_alpha 90.000000
_cell_angle_beta 90.000000
_cell_angle_gamma 90.000000
_cell_volume 2481.363181
_symmetry_space_group_name_H-M "P M M N"
_symmetry_group_IT_number 59
_space_group.IT_coordinate_system_code '2'
_symmetry_cell_setting 'orthorhombic'
loop_
_space_group_symop_operation_xyz
x,y,z
1/2-x,1/2-y,z
1/2+x,-y,-z
-x,1/2+y,-z
-x,-y,-z
1/2+x,1/2+y,-z
1/2-x,y,z
x,1/2-y,z
loop_
_atom_site_type_symbol
_atom_site_label
_atom_site_fract_x
_atom_site_fract_y
_atom_site_fract_z
Si Si1 0.750000 0.860064 0.147984
Si Si2 0.538534 0.970183 0.891938
Si Si3 0.133957 0.043266 0.605501
Si Si4 0.363682 0.138337 0.405812
Si Si5 0.464455 0.364309 0.774038
Si Si6 0.750000 0.861358 0.914915
Si Si7 0.059394 0.862213 0.723812
O O1 0.750000 0.750000 0.189865
O O2 0.643184 0.900767 0.181297
O O3 0.750000 0.855399 0.032413
O O4 0.645980 0.916305 0.891733
O O5 0.458323 0.902017 0.833285
O O6 0.545226 0.068694 0.827213
O O7 0.500000 0.000000 0.000000
O O8 0.250000 0.076926 0.622059
O O9 0.117657 0.059192 0.490741
O O10 0.052780 0.110473 0.661458
O O11 0.121699 0.936631 0.654882
O O12 0.250000 0.124745 0.367744
O O13 0.368280 0.250000 0.447518
O O14 0.447901 0.133344 0.323978
O O15 0.478187 0.250000 0.792066
O O16 0.750000 0.750000 0.875302
O O17 0.094998 0.750000 0.722235
#
# Coordination Sequence:
#
# PCOD9448437 Si02
#       7
#     4   8   8   8   8   4   8
#     4   9  16  28  52  78 102 138 179 225 279 335
#     4  11  23  37  57  85 112 145 192 238 286 340
#     4  10  19  32  55  83 113 148 190 238 284 336
#     4   9  18  33  55  85 114 142 184 237 287 337
#     4  10  19  33  54  81 112 143 182 233 288 338
#     4  11  22  38  61  82 108 148 190 233 284 347
#     4  10  22  37  54  79 116 154 191 235 287 345
#
# _framework density 19.344204999999999
#
# number of rings (size 3 to 8) (size 9 to 14) (size 15 to 20)
#    0.000    2.000    2.500    1.500    1.167    1.667 
#    0.000    0.417    0.000    0.000    0.000    0.000 
#    0.000    0.000    0.000    0.000    0.000    0.000 
#
# Total GULP energy -267516.387214 kJ/mol
# GULP energy per Si atom -5573.258067 kJ/mol
# Density = 1.930018 g / cm^3
# Si number density = 19.344205 Si / 1000 Ang^3
#
#
#
# Elastic Constant Matrix: (Units=GPa)
#
#
# Indices 1 2 3 4 5 6 
#
# 1 57.6988 27.4555 9.7790 0.0000 0.0000 0.0000
# 2 27.4555 114.7210 20.7248 0.0000 0.0000 0.0000
# 3 9.7790 20.7248 65.9550 0.0000 0.0000 0.0000
# 4 0.0000 0.0000 0.0000 25.0311 0.0000 0.0000
# 5 0.0000 0.0000 0.0000 0.0000 20.5444 0.0000
# 6 0.0000 0.0000 0.0000 0.0000 0.0000 29.4559
#
#
#
# Elastic Compliance Matrix: (Units=1/GPa)
#
#
# Indices 1 2 3 4 5 6 
#
# 1 0.019703 -0.004440 -0.001526 0.000000 0.000000 0.000000
# 2 -0.004440 0.010242 -0.002560 0.000000 0.000000 0.000000
# 3 -0.001526 -0.002560 0.016193 0.000000 0.000000 0.000000
# 4 0.000000 0.000000 0.000000 0.039950 0.000000 0.000000
# 5 0.000000 0.000000 0.000000 0.000000 0.048675 0.000000
# 6 0.000000 0.000000 0.000000 0.000000 0.000000 0.033949
#
#
# Mechanical properties :
#
#
# Convention : Reuss Voigt Hill
#
# Bulk Modulus (GPa) = 34.38160 39.36594 36.87377
# Shear Modulus (GPa) = 25.58092 27.03397 26.30744
#
# Velocity S-wave (km/s) = 3.64044 3.74240 3.69177
# Velocity P-wave (km/s) = 5.95672 6.25048 6.10537
#
# Compressibility (1/GPa) = 0.02908533
#
# Stress axis : x y z
#
# Youngs Moduli (GPa) = 50.75470 97.63938 61.75681
#
# Poissons Ratio (x) = 0.43348 0.09425
# Poissons Ratio (y) = 0.22533 0.15810
# Poissons Ratio (z) = 0.07746 0.24995
#
# Static dielectric constant tensor:
#      x y z
#    x 1.689580 0.000000 0.000000 
#    y 0.000000 1.707040 0.000000 
#    z 0.000000 0.000000 1.732440 
# 
# From -- ./inp_files/22449.got.cif
#   From: 2010.05.17/outbox.cif.g08.bks.cpg/sg59_12_cif.got.tgz:22449.got - 2010.06.03 14:40:33.
