data_PCOD9448245
_publ_section_title
;
Structure prediction by ZEFSAII (Michael W. Deem and Ramdas Pophale) SiO2 
 PCOD9448245
Probable space group: P M M N
;
_chemical_formula_sum "Si O2"
_cell_formula_units_Z 56
_cell_length_a 15.100683
_cell_length_b 7.509689
_cell_length_c 22.331873
_cell_angle_alpha 90.000000
_cell_angle_beta 90.000000
_cell_angle_gamma 90.000000
_cell_volume 2532.466400
_symmetry_space_group_name_H-M "P M M N"
_symmetry_group_IT_number 59
_space_group.IT_coordinate_system_code '2'
_symmetry_cell_setting 'orthorhombic'
loop_
_space_group_symop_operation_xyz
x,y,z
1/2-x,1/2-y,z
1/2+x,-y,-z
-x,1/2+y,-z
-x,-y,-z
1/2+x,1/2+y,-z
1/2-x,y,z
x,1/2-y,z
loop_
_atom_site_type_symbol
_atom_site_label
_atom_site_fract_x
_atom_site_fract_y
_atom_site_fract_z
Si Si1 0.346826 0.543803 0.620846
Si Si2 0.648416 0.466653 0.966760
Si Si3 0.350497 0.964578 0.256172
Si Si4 0.535988 0.038185 0.855478
Si Si5 0.963366 0.962582 0.627651
Si Si6 0.349566 0.465134 0.481677
Si Si7 0.348682 0.536138 0.897209
O O1 0.250000 0.463865 0.634739
O O2 0.343027 0.750000 0.640116
O O3 0.439251 0.464379 0.643387
O O4 0.357075 0.538141 0.548623
O O5 0.750000 0.513100 0.950728
O O6 0.644560 0.250000 0.968082
O O7 0.580046 0.531859 0.916955
O O8 0.631943 0.527975 0.034761
O O9 0.250000 0.030534 0.251703
O O10 0.347343 0.750000 0.251969
O O11 0.412001 0.031854 0.202108
O O12 0.394814 0.008263 0.319247
O O13 0.550150 0.250000 0.856381
O O14 0.431180 0.009390 0.855864
O O15 0.973581 0.750000 0.619848
O O16 0.922087 0.030781 0.565414
O O17 0.250000 0.507906 0.459583
O O18 0.355338 0.250000 0.486007
O O19 0.250000 0.473246 0.880090
O O20 0.344743 0.750000 0.899754
#
# Coordination Sequence:
#
# PCOD9448245 Si02
#       7
#     8   8   8   8   8   8   8
#     4   9  18  32  50  74 102 130 163 203 245 291
#     4   8  14  27  49  75 102 132 164 200 247 301
#     4  10  22  38  54  74  99 127 163 205 246 292
#     4  10  19  32  52  75  99 130 167 207 249 291
#     4  10  20  34  52  73 100 135 170 204 244 289
#     4   9  17  29  47  73 102 130 162 202 249 297
#     4   9  18  32  50  74 103 133 165 201 244 297
#
# _framework density 22.112832000000001
#
# number of rings (size 3 to 8) (size 9 to 14) (size 15 to 20)
#    0.000    2.714    0.000    2.571    0.000    4.571 
#    0.000    2.143    0.000    4.714    0.000    0.000 
#    0.000    0.000    0.000    0.000    0.000    0.000 
#
# Total GULP energy -312612.131644 kJ/mol
# GULP energy per Si atom -5582.359494 kJ/mol
# Density = 2.206250 g / cm^3
# Si number density = 22.112832 Si / 1000 Ang^3
#
#
#
# Elastic Constant Matrix: (Units=GPa)
#
#
# Indices 1 2 3 4 5 6 
#
# 1 131.0143 -5.8104 31.9737 0.0000 0.0000 0.0000
# 2 -5.8104 57.6818 -10.6694 0.0000 0.0000 0.0000
# 3 31.9737 -10.6694 30.3300 0.0000 0.0000 0.0000
# 4 0.0000 0.0000 0.0000 -13.0185 0.0000 0.0000
# 5 0.0000 0.0000 0.0000 0.0000 37.2353 0.0000
# 6 0.0000 0.0000 0.0000 0.0000 0.0000 12.5109
#
#
#
# Elastic Compliance Matrix: (Units=1/GPa)
#
#
# Indices 1 2 3 4 5 6 
#
# 1 0.010335 -0.001042 -0.011262 0.000000 0.000000 0.000000
# 2 -0.001042 0.018648 0.007658 0.000000 0.000000 0.000000
# 3 -0.011262 0.007658 0.047537 0.000000 0.000000 0.000000
# 4 0.000000 0.000000 0.000000 -0.076814 0.000000 0.000000
# 5 0.000000 0.000000 0.000000 0.000000 0.026856 0.000000
# 6 0.000000 0.000000 0.000000 0.000000 0.000000 0.079931
#
#
# Mechanical properties :
#
#
# Convention : Reuss Voigt Hill
#
# Bulk Modulus (GPa) = 14.87443 27.77931 21.32687
# Shear Modulus (GPa) = 36.18144 20.91435 28.54789
#
# Velocity S-wave (km/s) = 4.04941 3.07872 3.59696
# Velocity P-wave (km/s) = 5.34835 5.02273 5.18810
#
# Compressibility (1/GPa) = 0.06722945
#
# Stress axis : x y z
#
# Youngs Moduli (GPa) = 96.75965 53.62469 21.03645
#
# Poissons Ratio (x) = 0.05588 0.23690
# Poissons Ratio (y) = 0.10082 -0.16111
# Poissons Ratio (z) = 1.08966 -0.41068
#
# Static dielectric constant tensor:
#      x y z
#    x 1.847810 0.000000 0.000000 
#    y 0.000000 1.836610 0.000000 
#    z 0.000000 0.000000 1.767880 
# 
# From -- ./inp_files/29079.got.cif
#   From: 2010.05.17/outbox.cif.g08.bks.cpg/sg59_15_cif.got.tgz:29079.got - 2010.06.03 14:40:33.
