data_PCOD9448457
_publ_section_title
;
Structure prediction by ZEFSAII (Michael W. Deem and Ramdas Pophale) SiO2 
 PCOD9448457
Probable space group: P M M N
;
_chemical_formula_sum "Si O2"
_cell_formula_units_Z 52
_cell_length_a 7.857499
_cell_length_b 23.312290
_cell_length_c 16.064223
_cell_angle_alpha 90.000000
_cell_angle_beta 90.000000
_cell_angle_gamma 90.000000
_cell_volume 2942.584857
_symmetry_space_group_name_H-M "P M M N"
_symmetry_group_IT_number 59
_space_group.IT_coordinate_system_code '2'
_symmetry_cell_setting 'orthorhombic'
loop_
_space_group_symop_operation_xyz
x,y,z
1/2-x,1/2-y,z
1/2+x,-y,-z
-x,1/2+y,-z
-x,-y,-z
1/2+x,1/2+y,-z
1/2-x,y,z
x,1/2-y,z
loop_
_atom_site_type_symbol
_atom_site_label
_atom_site_fract_x
_atom_site_fract_y
_atom_site_fract_z
Si Si1 0.056006 0.180413 0.433988
Si Si2 0.750000 0.319583 0.555082
Si Si3 0.250000 0.887115 0.272969
Si Si4 0.955790 0.815799 0.754778
Si Si5 0.448708 0.578804 0.865574
Si Si6 0.250000 0.682014 0.099557
Si Si7 0.937441 0.611089 0.041515
Si Si8 0.948068 0.961792 0.210028
O O1 0.250000 0.160336 0.449399
O O2 0.061844 0.250000 0.434302
O O3 0.001804 0.165553 0.339748
O O4 0.916914 0.163606 0.501798
O O5 0.750000 0.250000 0.564040
O O6 0.750000 0.350035 0.643777
O O7 0.250000 0.845633 0.191976
O O8 0.418107 0.926705 0.265013
O O9 0.750000 0.815943 0.759943
O O10 0.012959 0.750000 0.767587
O O11 0.026416 0.860545 0.820580
O O12 0.250000 0.568767 0.883143
O O13 0.502845 0.527416 0.804637
O O14 0.542840 0.579741 0.953509
O O15 0.250000 0.750000 0.103713
O O16 0.414892 0.657465 0.052492
O O17 0.750000 0.637608 0.046525
O O18 0.954320 0.567129 0.118188
O O19 0.750000 0.958941 0.238059
#
# Coordination Sequence:
#
# PCOD9448457 Si02
#       8
#     8   4   4   8   8   4   8   8
#     4   8  16  32  52  77 108 138 169 212 260 310
#     4  10  19  32  57  88 107 132 177 217 264 328
#     4  10  21  36  58  80 105 142 174 222 278 310
#     4   9  19  34  51  77 111 143 175 212 263 324
#     4  11  21  33  53  82 106 140 184 226 264 307
#     4  10  21  38  53  76 113 144 175 217 270 326
#     4  10  20  36  55  76 106 142 185 225 267 302
#     4   9  21  37  54  78 105 139 183 231 264 309
#
# _framework density 17.671538999999999
#
# number of rings (size 3 to 8) (size 9 to 14) (size 15 to 20)
#    0.000    2.462    0.769    2.077    3.231    1.846 
#    0.000    0.000    0.000    3.692    0.000    0.000 
#    0.000    0.000    0.000    0.000    0.000    0.000 
#
# Total GULP energy -290026.803521 kJ/mol
# GULP energy per Si atom -5577.438529 kJ/mol
# Density = 1.763132 g / cm^3
# Si number density = 17.671539 Si / 1000 Ang^3
#
#
#
# Elastic Constant Matrix: (Units=GPa)
#
#
# Indices 1 2 3 4 5 6 
#
# 1 78.9465 19.3065 21.7994 0.0000 0.0000 0.0000
# 2 19.3065 56.9744 -7.2378 0.0000 0.0000 0.0000
# 3 21.7994 -7.2378 42.9363 0.0000 0.0000 0.0000
# 4 0.0000 0.0000 0.0000 11.8788 0.0000 0.0000
# 5 0.0000 0.0000 0.0000 0.0000 -6.5240 0.0000
# 6 0.0000 0.0000 0.0000 0.0000 0.0000 13.2562
#
#
#
# Elastic Compliance Matrix: (Units=1/GPa)
#
#
# Indices 1 2 3 4 5 6 
#
# 1 0.017122 -0.007057 -0.009883 0.000000 0.000000 0.000000
# 2 -0.007057 0.020845 0.007097 0.000000 0.000000 0.000000
# 3 -0.009883 0.007097 0.029504 0.000000 0.000000 0.000000
# 4 0.000000 0.000000 0.000000 0.084184 0.000000 0.000000
# 5 0.000000 0.000000 0.000000 0.000000 -0.153279 0.000000
# 6 0.000000 0.000000 0.000000 0.000000 0.000000 0.075436
#
#
# Mechanical properties :
#
#
# Convention : Reuss Voigt Hill
#
# Bulk Modulus (GPa) = 20.92719 27.39925 24.16322
# Shear Modulus (GPa) = 45.69319 13.38812 29.54065
#
# Velocity S-wave (km/s) = 5.09049 2.75546 4.09302
# Velocity P-wave (km/s) = 6.81313 5.06575 6.00336
#
# Compressibility (1/GPa) = 0.04778472
#
# Stress axis : x y z
#
# Youngs Moduli (GPa) = 58.40603 47.97364 33.89353
#
# Poissons Ratio (x) = 0.33856 0.33495
# Poissons Ratio (y) = 0.41219 -0.24054
# Poissons Ratio (z) = 0.57720 -0.34047
#
# Static dielectric constant tensor:
#      x y z
#    x 1.638520 0.000000 0.000000 
#    y 0.000000 1.590530 0.000000 
#    z 0.000000 0.000000 1.579210 
# 
# From -- ./inp_files/20859.got.cif
#   From: 2010.05.17/outbox.cif.g08.bks.cpg/sg59_11_cif.got.tgz:20859.got - 2010.06.03 14:40:33.
