data_PCOD9448031
_publ_section_title
;
Structure prediction by ZEFSAII (Michael W. Deem and Ramdas Pophale) SiO2 
 PCOD9448031
Probable space group: P M M N
;
_chemical_formula_sum "Si O2"
_cell_formula_units_Z 40
_cell_length_a 8.888059
_cell_length_b 10.383763
_cell_length_c 25.115040
_cell_angle_alpha 90.000000
_cell_angle_beta 90.000000
_cell_angle_gamma 90.000000
_cell_volume 2317.904669
_symmetry_space_group_name_H-M "P M M N"
_symmetry_group_IT_number 59
_space_group.IT_coordinate_system_code '2'
_symmetry_cell_setting 'orthorhombic'
loop_
_space_group_symop_operation_xyz
x,y,z
1/2-x,1/2-y,z
1/2+x,-y,-z
-x,1/2+y,-z
-x,-y,-z
1/2+x,1/2+y,-z
1/2-x,y,z
x,1/2-y,z
loop_
_atom_site_type_symbol
_atom_site_label
_atom_site_fract_x
_atom_site_fract_y
_atom_site_fract_z
Si Si1 0.067705 0.599474 0.541973
Si Si2 0.422834 0.593833 0.661493
Si Si3 0.427202 0.404308 0.229080
Si Si4 0.567582 0.250000 0.054595
Si Si5 0.930954 0.250000 0.931476
Si Si6 0.569529 0.499277 0.122143
O O1 0.250000 0.595847 0.540297
O O2 0.023713 0.750000 0.533045
O O3 0.022773 0.559555 0.602283
O O4 0.000000 0.500000 0.500000
O O5 0.250000 0.550651 0.668209
O O6 0.420654 0.750000 0.661421
O O7 0.519787 0.553645 0.712185
O O8 0.250000 0.425903 0.222444
O O9 0.455195 0.250000 0.224803
O O10 0.517689 0.473104 0.182297
O O11 0.750000 0.250000 0.054580
O O12 0.520025 0.376743 0.086587
O O13 0.518788 0.250000 0.993347
O O14 0.750000 0.250000 0.930222
O O15 0.994376 0.374967 0.902202
O O16 0.750000 0.509302 0.119818
#
# Coordination Sequence:
#
# PCOD9448031 Si02
#       6
#     8   8   8   4   4   8
#     4   9  18  32  51  77 108 141 178 218 263 314
#     4   8  15  29  49  73 102 137 175 218 264 312
#     4  10  19  31  51  81 109 134 172 224 273 313
#     4   9  20  37  59  83 107 137 180 221 260 313
#     4  11  23  39  55  79 113 143 174 221 268 313
#     4  11  21  37  58  81 107 143 181 215 262 322
#
# _framework density 17.256965000000001
#
# number of rings (size 3 to 8) (size 9 to 14) (size 15 to 20)
#    0.000    2.400    1.000    3.300    0.000    2.000 
#    0.000    5.000    2.200    0.000    0.000    0.000 
#    0.000    0.000    0.000    0.000    0.000    0.000 
#
# Total GULP energy -223082.963082 kJ/mol
# GULP energy per Si atom -5577.074077 kJ/mol
# Density = 1.721769 g / cm^3
# Si number density = 17.256965 Si / 1000 Ang^3
#
#
#
# Elastic Constant Matrix: (Units=GPa)
#
#
# Indices 1 2 3 4 5 6 
#
# 1 47.8475 40.4749 55.9686 0.0000 0.0000 0.0000
# 2 40.4749 100.4173 70.5970 0.0000 0.0000 0.0000
# 3 55.9686 70.5970 165.2871 0.0000 0.0000 0.0000
# 4 0.0000 0.0000 0.0000 22.6481 0.0000 0.0000
# 5 0.0000 0.0000 0.0000 0.0000 29.6535 0.0000
# 6 0.0000 0.0000 0.0000 0.0000 0.0000 18.8227
#
#
#
# Elastic Compliance Matrix: (Units=1/GPa)
#
#
# Indices 1 2 3 4 5 6 
#
# 1 0.040019 -0.009437 -0.009520 0.000000 0.000000 0.000000
# 2 -0.009437 0.016458 -0.003834 0.000000 0.000000 0.000000
# 3 -0.009520 -0.003834 0.010911 0.000000 0.000000 0.000000
# 4 0.000000 0.000000 0.000000 0.044154 0.000000 0.000000
# 5 0.000000 0.000000 0.000000 0.000000 0.033723 0.000000
# 6 0.000000 0.000000 0.000000 0.000000 0.000000 0.053127
#
#
# Mechanical properties :
#
#
# Convention : Reuss Voigt Hill
#
# Bulk Modulus (GPa) = 45.86039 71.95924 58.90982
# Shear Modulus (GPa) = 19.90112 23.99228 21.94670
#
# Velocity S-wave (km/s) = 3.39960 3.73271 3.57004
# Velocity P-wave (km/s) = 6.48401 7.76960 7.15573
#
# Compressibility (1/GPa) = 0.02180531
#
# Stress axis : x y z
#
# Youngs Moduli (GPa) = 24.98827 60.76251 91.64916
#
# Poissons Ratio (x) = 0.57343 0.87251
# Poissons Ratio (y) = 0.23582 0.35136
# Poissons Ratio (z) = 0.23789 0.23295
#
# Static dielectric constant tensor:
#      x y z
#    x 1.578540 0.000000 0.000000 
#    y 0.000000 1.561790 0.000000 
#    z 0.000000 0.000000 1.586970 
# 
# From -- ./inp_files/32414.got.cif
#   From: 2010.05.17/outbox.cif.g08.bks.cpg/sg59_17_cif.got.tgz:32414.got - 2010.06.03 14:40:33.
