data_PCOD9448354
_publ_section_title
;
Structure prediction by ZEFSAII (Michael W. Deem and Ramdas Pophale) SiO2 
 PCOD9448354
Probable space group: P M M N
;
_chemical_formula_sum "Si O2"
_cell_formula_units_Z 48
_cell_length_a 8.933085
_cell_length_b 26.608912
_cell_length_c 11.973321
_cell_angle_alpha 90.000000
_cell_angle_beta 90.000000
_cell_angle_gamma 90.000000
_cell_volume 2846.054482
_symmetry_space_group_name_H-M "P M M N"
_symmetry_group_IT_number 59
_space_group.IT_coordinate_system_code '2'
_symmetry_cell_setting 'orthorhombic'
loop_
_space_group_symop_operation_xyz
x,y,z
1/2-x,1/2-y,z
1/2+x,-y,-z
-x,1/2+y,-z
-x,-y,-z
1/2+x,1/2+y,-z
1/2-x,y,z
x,1/2-y,z
loop_
_atom_site_type_symbol
_atom_site_label
_atom_site_fract_x
_atom_site_fract_y
_atom_site_fract_z
Si Si1 0.578461 0.541094 0.168365
Si Si2 0.069793 0.691816 0.167573
Si Si3 0.073367 0.891659 0.344653
Si Si4 0.071700 0.052730 0.458167
Si Si5 0.425268 0.123479 0.018899
Si Si6 0.574535 0.072787 0.219326
O O1 0.750000 0.550435 0.208794
O O2 0.463899 0.563582 0.257804
O O3 0.560624 0.481765 0.159990
O O4 0.560503 0.572670 0.055671
O O5 0.250000 0.688226 0.156461
O O6 0.028368 0.750000 0.179109
O O7 0.029304 0.658424 0.276176
O O8 0.996092 0.666329 0.059277
O O9 0.250000 0.890262 0.369088
O O10 0.981265 0.904753 0.454678
O O11 0.250000 0.047486 0.457629
O O12 0.010637 0.066862 0.336181
O O13 0.000000 0.000000 0.500000
O O14 0.250000 0.132955 0.036440
O O15 0.507102 0.113672 0.135432
O O16 0.750000 0.081932 0.239694
#
# Coordination Sequence:
#
# PCOD9448354 Si02
#       6
#     8   8   8   8   8   8
#     4   9  18  31  48  71 104 142 177 214 255 307
#     4   9  19  37  60  83 106 135 174 220 270 322
#     4  10  19  32  53  79 106 139 178 221 266 312
#     4  12  23  35  51  74 107 146 184 221 261 314
#     4  10  20  33  50  77 108 138 175 219 267 316
#     4  11  21  33  50  73 105 146 183 215 257 312
#
# _framework density 16.865454
#
# number of rings (size 3 to 8) (size 9 to 14) (size 15 to 20)
#    0.000    1.833    1.667    3.500    0.000    2.333 
#    0.000    0.000    0.000    1.000    0.000    2.333 
#    0.000    0.000    0.000    0.000    0.000    0.000 
#
# Total GULP energy -267876.456785 kJ/mol
# GULP energy per Si atom -5580.759516 kJ/mol
# Density = 1.682707 g / cm^3
# Si number density = 16.865454 Si / 1000 Ang^3
#
#
#
# Elastic Constant Matrix: (Units=GPa)
#
#
# Indices 1 2 3 4 5 6 
#
# 1 96.2062 50.6877 60.9823 0.0000 0.0000 0.0000
# 2 50.6877 94.5344 54.1673 0.0000 0.0000 0.0000
# 3 60.9823 54.1673 95.3422 0.0000 0.0000 0.0000
# 4 0.0000 0.0000 0.0000 11.6463 0.0000 0.0000
# 5 0.0000 0.0000 0.0000 0.0000 32.0239 0.0000
# 6 0.0000 0.0000 0.0000 0.0000 0.0000 19.7796
#
#
#
# Elastic Compliance Matrix: (Units=1/GPa)
#
#
# Indices 1 2 3 4 5 6 
#
# 1 0.018809 -0.004732 -0.009342 0.000000 0.000000 0.000000
# 2 -0.004732 0.016874 -0.006560 0.000000 0.000000 0.000000
# 3 -0.009342 -0.006560 0.020191 0.000000 0.000000 0.000000
# 4 0.000000 0.000000 0.000000 0.085865 0.000000 0.000000
# 5 0.000000 0.000000 0.000000 0.000000 0.031227 0.000000
# 6 0.000000 0.000000 0.000000 0.000000 0.000000 0.050557
#
#
# Mechanical properties :
#
#
# Convention : Reuss Voigt Hill
#
# Bulk Modulus (GPa) = 68.46690 68.63970 68.55330
# Shear Modulus (GPa) = 18.54182 20.70632 19.62407
#
# Velocity S-wave (km/s) = 3.31931 3.50771 3.41481
# Velocity P-wave (km/s) = 7.44141 7.56255 7.50222
#
# Compressibility (1/GPa) = 0.01460560
#
# Stress axis : x y z
#
# Youngs Moduli (GPa) = 53.16509 59.26137 49.52715
#
# Poissons Ratio (x) = 0.28044 0.46269
# Poissons Ratio (y) = 0.25159 0.32490
# Poissons Ratio (z) = 0.49668 0.38876
#
# Static dielectric constant tensor:
#      x y z
#    x 1.576250 0.000000 0.000000 
#    y 0.000000 1.558160 0.000000 
#    z 0.000000 0.000000 1.568610 
# 
# From -- ./inp_files/14319.got.cif
#   From: 2010.05.17/outbox.cif.g08.bks.cpg/sg59_8_cif.got.tgz:14319.got - 2010.06.03 14:40:33.
