data_PCOD9448157
_publ_section_title
;
Structure prediction by ZEFSAII (Michael W. Deem and Ramdas Pophale) SiO2 
 PCOD9448157
Probable space group: P M M N
;
_chemical_formula_sum "Si O2"
_cell_formula_units_Z 56
_cell_length_a 16.988100
_cell_length_b 7.393290
_cell_length_c 20.061185
_cell_angle_alpha 90.000000
_cell_angle_beta 90.000000
_cell_angle_gamma 90.000000
_cell_volume 2519.643708
_symmetry_space_group_name_H-M "P M M N"
_symmetry_group_IT_number 59
_space_group.IT_coordinate_system_code '2'
_symmetry_cell_setting 'orthorhombic'
loop_
_space_group_symop_operation_xyz
x,y,z
1/2-x,1/2-y,z
1/2+x,-y,-z
-x,1/2+y,-z
-x,-y,-z
1/2+x,1/2+y,-z
1/2-x,y,z
x,1/2-y,z
loop_
_atom_site_type_symbol
_atom_site_label
_atom_site_fract_x
_atom_site_fract_y
_atom_site_fract_z
Si Si1 0.659400 0.529092 0.154291
Si Si2 0.750000 0.528910 0.931428
Si Si3 0.750000 0.528116 0.776934
Si Si4 0.663533 0.529524 0.406212
Si Si5 0.390899 0.040240 0.314974
Si Si6 0.406934 0.033793 0.986254
Si Si7 0.416435 0.033766 0.464175
Si Si8 0.936648 0.531280 0.282910
O O1 0.750000 0.472297 0.152058
O O2 0.659365 0.750000 0.154657
O O3 0.613963 0.470048 0.088221
O O4 0.616324 0.470757 0.221478
O O5 0.750000 0.750000 0.933820
O O6 0.750000 0.471950 0.854022
O O7 0.667104 0.471098 0.966964
O O8 0.750000 0.750000 0.779515
O O9 0.675158 0.465630 0.733892
O O10 0.750000 0.475574 0.383703
O O11 0.661176 0.750000 0.406683
O O12 0.645908 0.468911 0.481037
O O13 0.599247 0.468431 0.353174
O O14 0.369210 0.250000 0.324991
O O15 0.403794 0.961559 0.389511
O O16 0.474233 0.029672 0.278559
O O17 0.399882 0.250000 0.987408
O O18 0.500000 0.000000 0.000000
O O19 0.409953 0.250000 0.459399
O O20 0.500000 0.000000 0.500000
O O21 0.936014 0.750000 0.283538
#
# Coordination Sequence:
#
# PCOD9448157 Si02
#       8
#     8   4   4   8   8   8   8   8
#     4   9  17  32  54  79 106 135 171 213 257 307
#     4   9  18  36  59  79 106 146 185 216 259 325
#     4   9  20  36  53  75 102 138 181 218 251 301
#     4   9  17  29  48  74  98 126 167 208 246 295
#     4  10  21  35  52  74 102 136 174 216 259 304
#     4  10  20  35  57  83 109 141 178 218 264 316
#     4  10  19  32  51  73  99 131 168 214 260 302
#     4  10  19  32  53  77 102 131 166 211 260 309
#
# _framework density 22.225363999999999
#
# number of rings (size 3 to 8) (size 9 to 14) (size 15 to 20)
#    0.000    2.429    2.143    0.429    3.000    1.714 
#    0.000    0.714    0.000    4.714    0.000    0.000 
#    0.000    0.000    0.000    0.000    0.000    0.000 
#
# Total GULP energy -312560.720705 kJ/mol
# GULP energy per Si atom -5581.441441 kJ/mol
# Density = 2.217478 g / cm^3
# Si number density = 22.225364 Si / 1000 Ang^3
#
#
#
# Elastic Constant Matrix: (Units=GPa)
#
#
# Indices 1 2 3 4 5 6 
#
# 1 171.5385 -5.8071 83.6473 0.0000 0.0000 0.0000
# 2 -5.8071 76.3951 7.5466 0.0000 0.0000 0.0000
# 3 83.6473 7.5466 172.9641 0.0000 0.0000 0.0000
# 4 0.0000 0.0000 0.0000 -4.6845 0.0000 0.0000
# 5 0.0000 0.0000 0.0000 0.0000 39.6605 0.0000
# 6 0.0000 0.0000 0.0000 0.0000 0.0000 12.0753
#
#
#
# Elastic Compliance Matrix: (Units=1/GPa)
#
#
# Indices 1 2 3 4 5 6 
#
# 1 0.007698 0.000957 -0.003764 0.000000 0.000000 0.000000
# 2 0.000957 0.013265 -0.001042 0.000000 0.000000 0.000000
# 3 -0.003764 -0.001042 0.007648 0.000000 0.000000 0.000000
# 4 0.000000 0.000000 0.000000 -0.213469 0.000000 0.000000
# 5 0.000000 0.000000 0.000000 0.000000 0.025214 0.000000
# 6 0.000000 0.000000 0.000000 0.000000 0.000000 0.082814
#
#
# Mechanical properties :
#
#
# Convention : Reuss Voigt Hill
#
# Bulk Modulus (GPa) = 47.81809 65.74123 56.77966
# Shear Modulus (GPa) = -80.43551 31.77765 -24.32893
#
# Velocity S-wave (km/s) = -6.02241 3.78536 -3.31213
# Velocity P-wave (km/s) = 5.17662 6.98204 3.31296
#
# Compressibility (1/GPa) = 0.02091259
#
# Stress axis : x y z
#
# Youngs Moduli (GPa) = 129.91011 75.38358 130.76166
#
# Poissons Ratio (x) = -0.07214 0.49224
# Poissons Ratio (y) = -0.12432 0.13620
# Poissons Ratio (z) = 0.48903 0.07852
#
# Static dielectric constant tensor:
#      x y z
#    x 1.800100 0.000000 0.000000 
#    y 0.000000 1.866460 0.000000 
#    z 0.000000 0.000000 1.749720 
# 
# From -- ./inp_files/30519.got.cif
#   From: 2010.05.17/outbox.cif.g08.bks.cpg/sg59_16_cif.got.tgz:30519.got - 2010.06.03 14:40:33.
