data_PCOD9448909
_publ_section_title
;
Structure prediction by ZEFSAII (Michael W. Deem and Ramdas Pophale) SiO2 
 PCOD9448909
Probable space group: P M M N
;
_chemical_formula_sum "Si O2"
_cell_formula_units_Z 64
_cell_length_a 28.939582
_cell_length_b 18.622601
_cell_length_c 6.596511
_cell_angle_alpha 90.000000
_cell_angle_beta 90.000000
_cell_angle_gamma 90.000000
_cell_volume 3555.059578
_symmetry_space_group_name_H-M "P M M N"
_symmetry_group_IT_number 59
_space_group.IT_coordinate_system_code '2'
_symmetry_cell_setting 'orthorhombic'
loop_
_space_group_symop_operation_xyz
x,y,z
1/2-x,1/2-y,z
1/2+x,-y,-z
-x,1/2+y,-z
-x,-y,-z
1/2+x,1/2+y,-z
1/2-x,y,z
x,1/2-y,z
loop_
_atom_site_type_symbol
_atom_site_label
_atom_site_fract_x
_atom_site_fract_y
_atom_site_fract_z
Si Si1 0.471664 0.330369 0.815332
Si Si2 0.655889 0.943951 0.200077
Si Si3 0.196338 0.834114 0.741068
Si Si4 0.698381 0.451011 0.911012
Si Si5 0.364857 0.932011 0.476056
Si Si6 0.966285 0.041286 0.654611
Si Si7 0.119430 0.167510 0.528991
Si Si8 0.919659 0.591179 0.864239
O O1 0.491250 0.250000 0.805360
O O2 0.506252 0.393774 0.756731
O O3 0.428100 0.333281 0.660360
O O4 0.452010 0.347782 0.038484
O O5 0.658155 0.871369 0.332174
O O6 0.643328 0.004048 0.364805
O O7 0.614587 0.931664 0.042490
O O8 0.694648 0.979574 0.058381
O O9 0.250000 0.844687 0.675256
O O10 0.189563 0.750000 0.780617
O O11 0.160979 0.863841 0.573703
O O12 0.190596 0.882400 0.942686
O O13 0.750000 0.447068 0.823742
O O14 0.660494 0.451100 0.734728
O O15 0.419641 0.927078 0.445170
O O16 0.948701 0.978559 0.803026
O O17 0.000000 0.000000 0.500000
O O18 0.130834 0.250000 0.483171
O O19 0.108101 0.122427 0.327293
#
# Coordination Sequence:
#
# PCOD9448909 Si02
#       8
#     8   8   8   8   8   8   8   8
#     4  10  22  35  50  77 112 148 198 244 287 340
#     4  10  19  36  56  85 112 139 183 233 284 342
#     4   9  20  38  60  87 118 154 196 243 298 359
#     4  10  20  36  60  86 113 145 183 231 289 350
#     4  11  21  36  58  84 116 151 196 247 290 344
#     4  12  21  37  58  80 113 162 204 246 295 352
#     4  10  19  34  56  81 109 141 185 237 286 338
#     4  11  19  37  58  78 109 153 194 244 290 345
#
# _framework density 18.002511999999999
#
# number of rings (size 3 to 8) (size 9 to 14) (size 15 to 20)
#    0.000    1.625    3.750    1.875    0.000    2.000 
#    0.000    1.250    0.000    0.375    0.000    0.000 
#    0.000    0.000    0.000    0.000    0.000    0.000 
#
# Total GULP energy -356820.833661 kJ/mol
# GULP energy per Si atom -5575.325526 kJ/mol
# Density = 1.796154 g / cm^3
# Si number density = 18.002512 Si / 1000 Ang^3
#
#
#
# Elastic Constant Matrix: (Units=GPa)
#
#
# Indices 1 2 3 4 5 6 
#
# 1 73.9607 32.0795 36.0537 0.0000 0.0000 0.0000
# 2 32.0795 127.6909 42.9787 0.0000 0.0000 0.0000
# 3 36.0537 42.9787 86.3037 0.0000 0.0000 0.0000
# 4 0.0000 0.0000 0.0000 17.9881 0.0000 0.0000
# 5 0.0000 0.0000 0.0000 0.0000 15.2569 0.0000
# 6 0.0000 0.0000 0.0000 0.0000 0.0000 26.3559
#
#
#
# Elastic Compliance Matrix: (Units=1/GPa)
#
#
# Indices 1 2 3 4 5 6 
#
# 1 0.017537 -0.002331 -0.006166 0.000000 0.000000 0.000000
# 2 -0.002331 0.009718 -0.003866 0.000000 0.000000 0.000000
# 3 -0.006166 -0.003866 0.016088 0.000000 0.000000 0.000000
# 4 0.000000 0.000000 0.000000 0.055592 0.000000 0.000000
# 5 0.000000 0.000000 0.000000 0.000000 0.065544 0.000000
# 6 0.000000 0.000000 0.000000 0.000000 0.000000 0.037942
#
#
# Mechanical properties :
#
#
# Convention : Reuss Voigt Hill
#
# Bulk Modulus (GPa) = 53.70886 56.68658 55.19772
# Shear Modulus (GPa) = 21.42681 23.70973 22.56827
#
# Velocity S-wave (km/s) = 3.45369 3.63302 3.54449
# Velocity P-wave (km/s) = 6.76778 7.01106 6.89049
#
# Compressibility (1/GPa) = 0.01861890
#
# Stress axis : x y z
#
# Youngs Moduli (GPa) = 57.02201 102.90040 62.15846
#
# Poissons Ratio (x) = 0.23982 0.38324
# Poissons Ratio (y) = 0.13289 0.24030
# Poissons Ratio (z) = 0.35157 0.39781
#
# Static dielectric constant tensor:
#      x y z
#    x 1.615020 0.000000 0.000000 
#    y 0.000000 1.623690 0.000000 
#    z 0.000000 0.000000 1.618690 
# 
# From -- ./inp_files/4637.got.cif
#   From: 2010.05.17/outbox.cif.g08.bks.cpg/sg59_3_cif.got.tgz:4637.got - 2010.06.03 14:40:33.
