data_PCOD9448726
_publ_section_title
;
Structure prediction by ZEFSAII (Michael W. Deem and Ramdas Pophale) SiO2 
 PCOD9448726
Probable space group: P M M N
;
_chemical_formula_sum "Si O2"
_cell_formula_units_Z 56
_cell_length_a 8.671389
_cell_length_b 24.796393
_cell_length_c 15.033118
_cell_angle_alpha 90.000000
_cell_angle_beta 90.000000
_cell_angle_gamma 90.000000
_cell_volume 3232.408547
_symmetry_space_group_name_H-M "P M M N"
_symmetry_group_IT_number 59
_space_group.IT_coordinate_system_code '2'
_symmetry_cell_setting 'orthorhombic'
loop_
_space_group_symop_operation_xyz
x,y,z
1/2-x,1/2-y,z
1/2+x,-y,-z
-x,1/2+y,-z
-x,-y,-z
1/2+x,1/2+y,-z
1/2-x,y,z
x,1/2-y,z
loop_
_atom_site_type_symbol
_atom_site_label
_atom_site_fract_x
_atom_site_fract_y
_atom_site_fract_z
Si Si1 0.065898 0.065381 0.627011
Si Si2 0.934360 0.750000 0.288547
Si Si3 0.932888 0.549866 0.671346
Si Si4 0.933829 0.366009 0.462087
Si Si5 0.565315 0.750000 0.499264
Si Si6 0.433495 0.638670 0.218802
Si Si7 0.933741 0.428239 0.946271
Si Si8 0.067618 0.537119 0.865311
O O1 0.250000 0.061915 0.622325
O O2 0.004118 0.102040 0.546603
O O3 0.014454 0.094971 0.717591
O O4 0.994822 0.005665 0.627848
O O5 0.750000 0.750000 0.279730
O O6 0.970765 0.750000 0.393645
O O7 0.003867 0.803246 0.244853
O O8 0.750000 0.552690 0.659251
O O9 0.012974 0.600084 0.623295
O O10 0.975960 0.547919 0.775384
O O11 0.750000 0.365571 0.469728
O O12 0.996650 0.305090 0.461753
O O13 0.750000 0.750000 0.509186
O O14 0.250000 0.635871 0.234843
O O15 0.462553 0.622674 0.116543
O O16 0.750000 0.440876 0.940709
O O17 0.024912 0.478121 0.903220
O O18 0.970211 0.424328 0.050688
O O19 0.250000 0.539815 0.846172
#
# Coordination Sequence:
#
# PCOD9448726 Si02
#       8
#     8   4   8   8   4   8   8   8
#     4  12  23  37  56  84 118 153 189 233 285 343
#     4  11  23  37  57  82 114 151 192 236 283 337
#     4  12  24  39  57  83 118 155 193 238 289 345
#     4  12  25  41  61  84 112 151 194 239 288 342
#     4  11  23  41  61  84 114 149 192 238 283 335
#     4  11  21  35  57  84 115 152 191 232 282 340
#     4   9  19  34  54  82 115 148 184 229 282 337
#     4  10  19  33  55  83 114 148 187 231 280 338
#
# _framework density 17.324543999999999
#
# number of rings (size 3 to 8) (size 9 to 14) (size 15 to 20)
#    0.000    1.000    2.857    5.571    0.000    1.714 
#    0.000    0.000    0.000    0.857    0.000    4.000 
#    0.000    0.000    0.000    0.000    0.000    0.000 
#
# Total GULP energy -313016.887302 kJ/mol
# GULP energy per Si atom -5589.587273 kJ/mol
# Density = 1.728511 g / cm^3
# Si number density = 17.324544 Si / 1000 Ang^3
#
#
#
# Elastic Constant Matrix: (Units=GPa)
#
#
# Indices 1 2 3 4 5 6 
#
# 1 81.1500 37.1798 18.8293 0.0000 0.0000 0.0000
# 2 37.1798 114.4640 38.1683 0.0000 0.0000 0.0000
# 3 18.8293 38.1683 63.4709 0.0000 0.0000 0.0000
# 4 0.0000 0.0000 0.0000 19.3499 0.0000 0.0000
# 5 0.0000 0.0000 0.0000 0.0000 26.1920 0.0000
# 6 0.0000 0.0000 0.0000 0.0000 0.0000 29.2538
#
#
#
# Elastic Compliance Matrix: (Units=1/GPa)
#
#
# Indices 1 2 3 4 5 6 
#
# 1 0.014650 -0.004139 -0.001857 0.000000 0.000000 0.000000
# 2 -0.004139 0.012097 -0.006047 0.000000 0.000000 0.000000
# 3 -0.001857 -0.006047 0.019942 0.000000 0.000000 0.000000
# 4 0.000000 0.000000 0.000000 0.051680 0.000000 0.000000
# 5 0.000000 0.000000 0.000000 0.000000 0.038180 0.000000
# 6 0.000000 0.000000 0.000000 0.000000 0.000000 0.034184
#
#
# Mechanical properties :
#
#
# Convention : Reuss Voigt Hill
#
# Bulk Modulus (GPa) = 44.24043 49.71550 46.97797
# Shear Modulus (GPa) = 24.70926 25.95299 25.33113
#
# Velocity S-wave (km/s) = 3.78068 3.87466 3.82796
# Velocity P-wave (km/s) = 6.68205 6.98400 6.83469
#
# Compressibility (1/GPa) = 0.02260376
#
# Stress axis : x y z
#
# Youngs Moduli (GPa) = 68.25823 82.66374 50.14471
#
# Poissons Ratio (x) = 0.34218 0.09311
# Poissons Ratio (y) = 0.28255 0.30321
# Poissons Ratio (z) = 0.12675 0.49984
#
# Static dielectric constant tensor:
#      x y z
#    x 1.581410 0.000000 0.000000 
#    y 0.000000 1.560020 0.000000 
#    z 0.000000 0.000000 1.600310 
# 
# From -- ./inp_files/21110.got.cif
#   From: 2010.05.17/outbox.cif.g08.bks.cpg/sg59_11_cif.got.tgz:21110.got - 2010.06.03 14:40:33.
