data_PCOD9448713
_publ_section_title
;
Structure prediction by ZEFSAII (Michael W. Deem and Ramdas Pophale) SiO2 
 PCOD9448713
Probable space group: P M M N
;
_chemical_formula_sum "Si O2"
_cell_formula_units_Z 64
_cell_length_a 8.849469
_cell_length_b 20.546277
_cell_length_c 20.397638
_cell_angle_alpha 90.000000
_cell_angle_beta 90.000000
_cell_angle_gamma 90.000000
_cell_volume 3708.772817
_symmetry_space_group_name_H-M "P M M N"
_symmetry_group_IT_number 59
_space_group.IT_coordinate_system_code '2'
_symmetry_cell_setting 'orthorhombic'
loop_
_space_group_symop_operation_xyz
x,y,z
1/2-x,1/2-y,z
1/2+x,-y,-z
-x,1/2+y,-z
-x,-y,-z
1/2+x,1/2+y,-z
1/2-x,y,z
x,1/2-y,z
loop_
_atom_site_type_symbol
_atom_site_label
_atom_site_fract_x
_atom_site_fract_y
_atom_site_fract_z
Si Si1 0.069863 0.079768 0.161914
Si Si2 0.432165 0.324537 0.911501
Si Si3 0.070379 0.456478 0.664246
Si Si4 0.067723 0.439045 0.813220
Si Si5 0.429401 0.404837 0.311126
Si Si6 0.931038 0.824277 0.563827
Si Si7 0.929531 0.066678 0.528355
Si Si8 0.930847 0.325238 0.054360
O O1 0.250000 0.077951 0.153177
O O2 0.037071 0.107536 0.234933
O O3 0.996925 0.124861 0.106896
O O4 0.005792 0.006305 0.162345
O O5 0.250000 0.327113 0.917846
O O6 0.472865 0.250000 0.893498
O O7 0.477123 0.377945 0.857807
O O8 0.504646 0.339052 0.981982
O O9 0.250000 0.450482 0.655349
O O10 0.028685 0.430012 0.736439
O O11 0.023013 0.532301 0.666463
O O12 0.986140 0.425329 0.602848
O O13 0.250000 0.446192 0.816441
O O14 0.250000 0.420970 0.315626
O O15 0.459368 0.346835 0.361381
O O16 0.750000 0.829409 0.553219
O O17 0.977012 0.750000 0.553409
O O18 0.013253 0.874193 0.516057
O O19 0.750000 0.061237 0.526373
O O20 0.000000 0.000000 0.500000
O O21 0.750000 0.329841 0.053251
O O22 0.972344 0.250000 0.070190
#
# Coordination Sequence:
#
# PCOD9448713 Si02
#       8
#     8   8   8   8   8   8   8   8
#     4  10  20  33  53  81 110 142 181 221 265 319
#     4   9  18  35  58  80 103 137 181 226 271 322
#     4  10  19  33  55  82 109 139 177 221 269 323
#     4   9  19  35  55  81 112 140 174 223 275 326
#     4   9  18  33  53  77 106 140 178 219 265 319
#     4  10  21  37  56  80 111 144 180 225 276 328
#     4  12  23  36  57  82 108 143 187 229 269 321
#     4  10  21  36  53  75 105 142 182 224 271 324
#
# _framework density 17.256381000000001
#
# number of rings (size 3 to 8) (size 9 to 14) (size 15 to 20)
#    0.000    2.125    1.250    2.250    0.000    3.500 
#    0.000    1.875    0.000    2.250    0.000    0.000 
#    0.000    0.000    0.000    0.000    0.000    0.000 
#
# Total GULP energy -357169.430682 kJ/mol
# GULP energy per Si atom -5580.772354 kJ/mol
# Density = 1.721710 g / cm^3
# Si number density = 17.256381 Si / 1000 Ang^3
#
#
#
# Elastic Constant Matrix: (Units=GPa)
#
#
# Indices 1 2 3 4 5 6 
#
# 1 53.7934 59.0385 59.6156 0.0000 0.0000 0.0000
# 2 59.0385 130.2378 108.8279 0.0000 0.0000 0.0000
# 3 59.6156 108.8279 145.0916 0.0000 0.0000 0.0000
# 4 0.0000 0.0000 0.0000 28.8345 0.0000 0.0000
# 5 0.0000 0.0000 0.0000 0.0000 25.8377 0.0000
# 6 0.0000 0.0000 0.0000 0.0000 0.0000 23.3098
#
#
#
# Elastic Compliance Matrix: (Units=1/GPa)
#
#
# Indices 1 2 3 4 5 6 
#
# 1 0.039876 -0.011749 -0.007571 0.000000 0.000000 0.000000
# 2 -0.011749 0.024034 -0.013199 0.000000 0.000000 0.000000
# 3 -0.007571 -0.013199 0.019903 0.000000 0.000000 0.000000
# 4 0.000000 0.000000 0.000000 0.034681 0.000000 0.000000
# 5 0.000000 0.000000 0.000000 0.000000 0.038703 0.000000
# 6 0.000000 0.000000 0.000000 0.000000 0.000000 0.042900
#
#
# Mechanical properties :
#
#
# Convention : Reuss Voigt Hill
#
# Bulk Modulus (GPa) = 53.26881 87.12076 70.19479
# Shear Modulus (GPa) = 18.42335 22.37246 20.39790
#
# Velocity S-wave (km/s) = 3.27100 3.60457 3.44182
# Velocity P-wave (km/s) = 6.72324 8.24133 7.52069
#
# Compressibility (1/GPa) = 0.01877271
#
# Stress axis : x y z
#
# Youngs Moduli (GPa) = 25.07805 41.60789 50.24253
#
# Poissons Ratio (x) = 0.48887 0.38040
# Poissons Ratio (y) = 0.29465 0.66317
# Poissons Ratio (z) = 0.18987 0.54920
#
# Static dielectric constant tensor:
#      x y z
#    x 1.578270 0.000000 0.000000 
#    y 0.000000 1.558150 0.000000 
#    z 0.000000 0.000000 1.583690 
# 
# From -- ./inp_files/28182.got.cif
#   From: 2010.05.17/outbox.cif.g08.bks.cpg/sg59_15_cif.got.tgz:28182.got - 2010.06.03 14:40:33.
