data_PCOD9448811
_publ_section_title
;
Structure prediction by ZEFSAII (Michael W. Deem and Ramdas Pophale) SiO2 
 PCOD9448811
Probable space group: P M M N
;
_chemical_formula_sum "Si O2"
_cell_formula_units_Z 64
_cell_length_a 7.481020
_cell_length_b 30.716984
_cell_length_c 12.947022
_cell_angle_alpha 90.000000
_cell_angle_beta 90.000000
_cell_angle_gamma 90.000000
_cell_volume 2975.152785
_symmetry_space_group_name_H-M "P M M N"
_symmetry_group_IT_number 59
_space_group.IT_coordinate_system_code '2'
_symmetry_cell_setting 'orthorhombic'
loop_
_space_group_symop_operation_xyz
x,y,z
1/2-x,1/2-y,z
1/2+x,-y,-z
-x,1/2+y,-z
-x,-y,-z
1/2+x,1/2+y,-z
1/2-x,y,z
x,1/2-y,z
loop_
_atom_site_type_symbol
_atom_site_label
_atom_site_fract_x
_atom_site_fract_y
_atom_site_fract_z
Si Si1 0.965973 0.822433 0.845125
Si Si2 0.965891 0.438009 0.666024
Si Si3 0.531625 0.702592 0.615812
Si Si4 0.468994 0.034843 0.297979
Si Si5 0.035683 0.419603 0.098474
Si Si6 0.958922 0.203312 0.927305
Si Si7 0.038812 0.109522 0.453295
Si Si8 0.537489 0.392040 0.872997
O O1 0.750000 0.821221 0.847408
O O2 0.020746 0.802873 0.736009
O O3 0.022681 0.872763 0.856141
O O4 0.030444 0.799254 0.948413
O O5 0.750000 0.439277 0.670023
O O6 0.028295 0.487973 0.661429
O O7 0.031902 0.415816 0.771543
O O8 0.015610 0.410316 0.566229
O O9 0.750000 0.703000 0.612360
O O10 0.471942 0.750000 0.577214
O O11 0.469110 0.658665 0.559331
O O12 0.250000 0.034882 0.300161
O O13 0.524522 0.043999 0.179570
O O14 0.531367 0.074458 0.370396
O O15 0.250000 0.419892 0.100743
O O16 0.985870 0.419354 0.978442
O O17 0.750000 0.203649 0.898460
O O18 0.036716 0.250000 0.893847
O O19 0.036008 0.157061 0.889198
O O20 0.250000 0.112570 0.430963
O O21 0.750000 0.387448 0.859928
#
# Coordination Sequence:
#
# PCOD9448811 Si02
#       8
#     8   8   8   8   8   8   8   8
#     4   9  15  26  46  72  99 124 152 190 238 293
#     4  10  21  36  52  70  97 134 171 206 245 287
#     4   9  16  27  47  74 100 126 156 193 244 299
#     4   9  17  32  54  77 100 127 159 201 253 297
#     4   9  16  29  51  76 101 127 156 194 242 294
#     4   9  17  29  45  65  91 125 162 197 236 282
#     4  10  19  34  54  74  99 128 164 206 245 291
#     4   9  19  34  48  67  98 131 162 198 242 289
#
# _framework density 21.511500999999999
#
# number of rings (size 3 to 8) (size 9 to 14) (size 15 to 20)
#    0.000    2.750    1.250    0.750    0.000    1.750 
#    0.000    2.500    0.000    1.875    0.000    0.000 
#    0.000    0.000    0.000    0.000    0.000    0.000 
#
# Total GULP energy -357095.950418 kJ/mol
# GULP energy per Si atom -5579.624225 kJ/mol
# Density = 2.146254 g / cm^3
# Si number density = 21.511501 Si / 1000 Ang^3
#
#
#
# Elastic Constant Matrix: (Units=GPa)
#
#
# Indices 1 2 3 4 5 6 
#
# 1 56.4465 9.0746 -5.1384 0.0000 0.0000 0.0000
# 2 9.0746 165.1609 80.5729 0.0000 0.0000 0.0000
# 3 -5.1384 80.5729 113.4750 0.0000 0.0000 0.0000
# 4 0.0000 0.0000 0.0000 10.4864 0.0000 0.0000
# 5 0.0000 0.0000 0.0000 0.0000 15.9877 0.0000
# 6 0.0000 0.0000 0.0000 0.0000 0.0000 5.0177
#
#
#
# Elastic Compliance Matrix: (Units=1/GPa)
#
#
# Indices 1 2 3 4 5 6 
#
# 1 0.018277 -0.002154 0.002357 0.000000 0.000000 0.000000
# 2 -0.002154 0.009517 -0.006855 0.000000 0.000000 0.000000
# 3 0.002357 -0.006855 0.013787 0.000000 0.000000 0.000000
# 4 0.000000 0.000000 0.000000 0.095362 0.000000 0.000000
# 5 0.000000 0.000000 0.000000 0.000000 0.062548 0.000000
# 6 0.000000 0.000000 0.000000 0.000000 0.000000 0.199295
#
#
# Mechanical properties :
#
#
# Convention : Reuss Voigt Hill
#
# Bulk Modulus (GPa) = 35.36519 56.01117 45.68818
# Shear Modulus (GPa) = 11.86194 23.00322 17.43258
#
# Velocity S-wave (km/s) = 2.35079 3.27363 2.84981
# Velocity P-wave (km/s) = 4.88304 6.35478 5.66689
#
# Compressibility (1/GPa) = 0.02827639
#
# Stress axis : x y z
#
# Youngs Moduli (GPa) = 54.71423 105.07039 72.53248
#
# Poissons Ratio (x) = 0.22633 -0.17097
# Poissons Ratio (y) = 0.11786 0.49724
# Poissons Ratio (z) = -0.12897 0.72030
#
# Static dielectric constant tensor:
#      x y z
#    x 1.825540 0.000000 0.000000 
#    y 0.000000 1.815220 0.000000 
#    z 0.000000 0.000000 1.734390 
# 
# From -- ./inp_files/15051.got.cif
#   From: 2010.05.17/outbox.cif.g08.bks.cpg/sg59_8_cif.got.tgz:15051.got - 2010.06.03 14:40:33.
