data_PCOD9448979
_publ_section_title
;
Structure prediction by ZEFSAII (Michael W. Deem and Ramdas Pophale) SiO2 
 PCOD9448979
Probable space group: P M M N
;
_chemical_formula_sum "Si O2"
_cell_formula_units_Z 40
_cell_length_a 13.283956
_cell_length_b 26.106655
_cell_length_c 5.346097
_cell_angle_alpha 90.000000
_cell_angle_beta 90.000000
_cell_angle_gamma 90.000000
_cell_volume 1854.024602
_symmetry_space_group_name_H-M "P M M N"
_symmetry_group_IT_number 59
_space_group.IT_coordinate_system_code '2'
_symmetry_cell_setting 'orthorhombic'
loop_
_space_group_symop_operation_xyz
x,y,z
1/2-x,1/2-y,z
1/2+x,-y,-z
-x,1/2+y,-z
-x,-y,-z
1/2+x,1/2+y,-z
1/2-x,y,z
x,1/2-y,z
loop_
_atom_site_type_symbol
_atom_site_label
_atom_site_fract_x
_atom_site_fract_y
_atom_site_fract_z
Si Si1 0.979718 0.937363 0.633554
Si Si2 0.447066 0.810279 0.031681
Si Si3 0.134654 0.492404 0.759376
Si Si4 0.634178 0.140778 0.487668
Si Si5 0.864808 0.621072 0.998692
O O1 0.061185 0.907721 0.465525
O O2 0.906378 0.980063 0.519213
O O3 0.054835 0.963957 0.836547
O O4 0.903331 0.893511 0.722670
O O5 0.458638 0.750000 0.994042
O O6 0.380921 0.821932 0.276946
O O7 0.554424 0.837597 0.086190
O O8 0.399908 0.834771 0.778430
O O9 0.250000 0.509018 0.775840
O O10 0.128619 0.435707 0.878043
O O11 0.750000 0.125358 0.470157
O O12 0.750000 0.638167 0.013243
#
# Coordination Sequence:
#
# PCOD9448979 Si02
#       5
#     8   8   8   8   8
#     4  10  20  35  57  87 123 157 204 250 299 365
#     4  11  24  42  63  91 121 157 207 259 307 365
#     4  10  19  34  57  85 119 161 203 246 303 363
#     4  11  23  41  64  91 124 160 201 253 309 367
#     4  10  21  38  59  84 119 162 203 252 308 363
#
# _framework density 21.574687999999998
#
# number of rings (size 3 to 8) (size 9 to 14) (size 15 to 20)
#    0.000    1.600    2.000    3.000    0.000    2.800 
#    0.000    0.000    0.000    2.400    0.000    0.000 
#    0.000    0.000    0.000    0.000    0.000    0.000 
#
# Total GULP energy -222885.099847 kJ/mol
# GULP energy per Si atom -5572.127496 kJ/mol
# Density = 2.152558 g / cm^3
# Si number density = 21.574688 Si / 1000 Ang^3
#
#
#
# Elastic Constant Matrix: (Units=GPa)
#
#
# Indices 1 2 3 4 5 6 
#
# 1 128.1939 15.6444 30.7577 0.0000 0.0000 0.0000
# 2 15.6444 78.2561 11.2784 0.0000 0.0000 0.0000
# 3 30.7577 11.2784 64.8249 0.0000 0.0000 0.0000
# 4 0.0000 0.0000 0.0000 26.4856 0.0000 0.0000
# 5 0.0000 0.0000 0.0000 0.0000 19.2068 0.0000
# 6 0.0000 0.0000 0.0000 0.0000 0.0000 22.7231
#
#
#
# Elastic Compliance Matrix: (Units=1/GPa)
#
#
# Indices 1 2 3 4 5 6 
#
# 1 0.008912 -0.001202 -0.004019 0.000000 0.000000 0.000000
# 2 -0.001202 0.013269 -0.001738 0.000000 0.000000 0.000000
# 3 -0.004019 -0.001738 0.017636 0.000000 0.000000 0.000000
# 4 0.000000 0.000000 0.000000 0.037756 0.000000 0.000000
# 5 0.000000 0.000000 0.000000 0.000000 0.052065 0.000000
# 6 0.000000 0.000000 0.000000 0.000000 0.000000 0.044008
#
#
# Mechanical properties :
#
#
# Convention : Reuss Voigt Hill
#
# Bulk Modulus (GPa) = 38.61398 42.95954 40.78676
# Shear Modulus (GPa) = 25.48448 27.92273 26.70360
#
# Velocity S-wave (km/s) = 3.44062 3.60145 3.52195
# Velocity P-wave (km/s) = 5.80693 6.10321 5.95691
#
# Compressibility (1/GPa) = 0.02589736
#
# Stress axis : x y z
#
# Youngs Moduli (GPa) = 112.21145 75.36116 56.70347
#
# Poissons Ratio (x) = 0.09061 0.22790
# Poissons Ratio (y) = 0.13491 0.09856
# Poissons Ratio (z) = 0.45100 0.13099
#
# Static dielectric constant tensor:
#      x y z
#    x 1.745150 0.000000 0.000000 
#    y 0.000000 1.828830 0.000000 
#    z 0.000000 0.000000 1.933580 
# 
# From -- ./inp_files/1392.got.cif
#   From: 2010.05.17/outbox.cif.g08.bks.cpg/sg59_1_cif.got.tgz:1392.got - 2010.06.03 14:40:33.
