data_PCOD9448137
_publ_section_title
;
Structure prediction by ZEFSAII (Michael W. Deem and Ramdas Pophale) SiO2 
 PCOD9448137
Probable space group: P M M N
;
_chemical_formula_sum "Si O2"
_cell_formula_units_Z 56
_cell_length_a 19.566722
_cell_length_b 7.470722
_cell_length_c 18.591417
_cell_angle_alpha 90.000000
_cell_angle_beta 90.000000
_cell_angle_gamma 90.000000
_cell_volume 2717.647612
_symmetry_space_group_name_H-M "P M M N"
_symmetry_group_IT_number 59
_space_group.IT_coordinate_system_code '2'
_symmetry_cell_setting 'orthorhombic'
loop_
_space_group_symop_operation_xyz
x,y,z
1/2-x,1/2-y,z
1/2+x,-y,-z
-x,1/2+y,-z
-x,-y,-z
1/2+x,1/2+y,-z
1/2-x,y,z
x,1/2-y,z
loop_
_atom_site_type_symbol
_atom_site_label
_atom_site_fract_x
_atom_site_fract_y
_atom_site_fract_z
Si Si1 0.937524 0.462648 0.690047
Si Si2 0.833128 0.957351 0.968274
Si Si3 0.171887 0.033841 0.187843
Si Si4 0.170716 0.469777 0.874185
Si Si5 0.575873 0.464215 0.529350
Si Si6 0.083710 0.039004 0.739785
Si Si7 0.671833 0.033257 0.401484
O O1 0.948044 0.250000 0.680248
O O2 0.878006 0.487267 0.747665
O O3 0.919468 0.534179 0.610806
O O4 0.009279 0.536516 0.720091
O O5 0.750000 0.958702 0.967508
O O6 0.855370 0.750000 0.968776
O O7 0.853125 0.033971 0.890628
O O8 0.852077 0.032423 0.046277
O O9 0.250000 0.972730 0.199963
O O10 0.174175 0.250000 0.182760
O O11 0.250000 0.521553 0.862169
O O12 0.170729 0.250000 0.875461
O O13 0.122402 0.532835 0.809962
O O14 0.500000 0.500000 0.500000
O O15 0.585447 0.250000 0.531843
O O16 0.630509 0.532304 0.471410
O O17 0.074442 0.250000 0.754025
O O18 0.131688 0.019657 0.670303
O O19 0.750000 0.971613 0.400339
O O20 0.672353 0.250000 0.403231
#
# Coordination Sequence:
#
# PCOD9448137 Si02
#       7
#     8   8   8   8   8   8   8
#     4  10  21  34  50  74 103 134 164 199 251 307
#     4   7  11  23  44  69  95 124 162 206 248 289
#     4   9  18  33  53  75  97 125 168 216 252 290
#     4   8  13  23  44  72  98 127 164 206 248 287
#     4  10  20  36  55  73  97 133 171 204 244 298
#     4  10  19  32  50  75 104 133 168 205 244 294
#     4  10  21  35  52  75 101 131 167 207 252 299
#
# _framework density 20.606057
#
# number of rings (size 3 to 8) (size 9 to 14) (size 15 to 20)
#    0.000    2.857    1.429    2.143    0.000    2.857 
#    0.000    2.143    0.000    0.857    0.000    2.000 
#    0.000    0.000    0.000    0.000    0.000    0.000 
#
# Total GULP energy -312339.339483 kJ/mol
# GULP energy per Si atom -5577.488205 kJ/mol
# Density = 2.055916 g / cm^3
# Si number density = 20.606057 Si / 1000 Ang^3
#
#
#
# Elastic Constant Matrix: (Units=GPa)
#
#
# Indices 1 2 3 4 5 6 
#
# 1 107.3063 -14.3402 87.2401 0.0000 0.0000 0.0000
# 2 -14.3402 52.7372 -10.3485 0.0000 0.0000 0.0000
# 3 87.2401 -10.3485 226.2792 0.0000 0.0000 0.0000
# 4 0.0000 0.0000 0.0000 -12.4057 0.0000 0.0000
# 5 0.0000 0.0000 0.0000 0.0000 26.3227 0.0000
# 6 0.0000 0.0000 0.0000 0.0000 0.0000 0.8512
#
#
#
# Elastic Compliance Matrix: (Units=1/GPa)
#
#
# Indices 1 2 3 4 5 6 
#
# 1 0.013962 0.002765 -0.005257 0.000000 0.000000 0.000000
# 2 0.002765 0.019681 -0.000166 0.000000 0.000000 0.000000
# 3 -0.005257 -0.000166 0.006438 0.000000 0.000000 0.000000
# 4 0.000000 0.000000 0.000000 -0.080608 0.000000 0.000000
# 5 0.000000 0.000000 0.000000 0.000000 0.037990 0.000000
# 6 0.000000 0.000000 0.000000 0.000000 0.000000 1.174827
#
#
# Mechanical properties :
#
#
# Convention : Reuss Voigt Hill
#
# Bulk Modulus (GPa) = 28.76291 56.82505 42.79398
# Shear Modulus (GPa) = 4.20453 24.53840 14.37146
#
# Velocity S-wave (km/s) = 1.42999 3.45459 2.64377
# Velocity P-wave (km/s) = 4.08843 6.59917 5.48927
#
# Compressibility (1/GPa) = 0.03476700
#
# Stress axis : x y z
#
# Youngs Moduli (GPa) = 71.62175 50.80971 155.31918
#
# Poissons Ratio (x) = -0.14049 0.81645
# Poissons Ratio (y) = -0.19804 0.02578
# Poissons Ratio (z) = 0.37648 0.00843
#
# Static dielectric constant tensor:
#      x y z
#    x 1.690990 0.000000 0.000000 
#    y 0.000000 1.787240 0.000000 
#    z 0.000000 0.000000 1.745790 
# 
# From -- ./inp_files/28101.got.cif
#   From: 2010.05.17/outbox.cif.g08.bks.cpg/sg59_15_cif.got.tgz:28101.got - 2010.06.03 14:40:33.
