data_PCOD9448049
_publ_section_title
;
Structure prediction by ZEFSAII (Michael W. Deem and Ramdas Pophale) SiO2 
 PCOD9448049
Probable space group: P M M N
;
_chemical_formula_sum "Si O2"
_cell_formula_units_Z 64
_cell_length_a 14.853918
_cell_length_b 19.364212
_cell_length_c 11.825494
_cell_angle_alpha 90.000000
_cell_angle_beta 90.000000
_cell_angle_gamma 90.000000
_cell_volume 3401.419075
_symmetry_space_group_name_H-M "P M M N"
_symmetry_group_IT_number 59
_space_group.IT_coordinate_system_code '2'
_symmetry_cell_setting 'orthorhombic'
loop_
_space_group_symop_operation_xyz
x,y,z
1/2-x,1/2-y,z
1/2+x,-y,-z
-x,1/2+y,-z
-x,-y,-z
1/2+x,1/2+y,-z
1/2-x,y,z
x,1/2-y,z
loop_
_atom_site_type_symbol
_atom_site_label
_atom_site_fract_x
_atom_site_fract_y
_atom_site_fract_z
Si Si1 0.646837 0.644014 0.216746
Si Si2 0.643959 0.672141 0.956149
Si Si3 0.653019 0.036347 0.735815
Si Si4 0.482409 0.454444 0.112023
Si Si5 0.396539 0.022810 0.502733
Si Si6 0.449610 0.172109 0.554627
Si Si7 0.650272 0.481469 0.246162
Si Si8 0.649334 0.170274 0.612624
O O1 0.750000 0.660156 0.253450
O O2 0.577906 0.668588 0.312516
O O3 0.640625 0.561134 0.205985
O O4 0.633171 0.673033 0.092217
O O5 0.750000 0.655585 0.934194
O O6 0.626518 0.750000 0.913151
O O7 0.576948 0.613531 0.911136
O O8 0.750000 0.020864 0.787861
O O9 0.643067 0.117831 0.716677
O O10 0.574230 0.003549 0.805642
O O11 0.649117 0.005860 0.609116
O O12 0.574016 0.439580 0.180678
O O13 0.500000 0.500000 0.000000
O O14 0.396482 0.106434 0.504878
O O15 0.500000 0.000000 0.500000
O O16 0.359368 0.990360 0.618579
O O17 0.429259 0.250000 0.513939
O O18 0.557345 0.159309 0.542151
O O19 0.750000 0.456428 0.219036
O O20 0.750000 0.158504 0.560898
O O21 0.646253 0.250000 0.646975
#
# Coordination Sequence:
#
# PCOD9448049 Si02
#       8
#     8   8   8   8   8   8   8   8
#     4   9  17  32  54  82 113 145 184 236 296 350
#     4  10  21  37  57  83 116 156 201 247 296 351
#     4  11  22  38  60  85 114 151 188 239 296 346
#     4  12  23  37  60  87 117 152 198 244 287 348
#     4  11  19  36  58  82 112 148 194 238 286 354
#     4  10  19  31  52  81 114 147 183 234 293 345
#     4  10  20  35  58  86 117 150 190 242 294 349
#     4   9  18  32  51  78 110 143 181 228 287 350
#
# _framework density 18.815677000000001
#
# number of rings (size 3 to 8) (size 9 to 14) (size 15 to 20)
#    0.000    1.750    3.750    1.875    0.000    1.750 
#    0.000    0.625    0.000    1.875    0.000    0.000 
#    0.000    0.000    0.000    0.000    0.000    0.000 
#
# Total GULP energy -356870.873810 kJ/mol
# GULP energy per Si atom -5576.107403 kJ/mol
# Density = 1.877285 g / cm^3
# Si number density = 18.815677 Si / 1000 Ang^3
#
#
#
# Elastic Constant Matrix: (Units=GPa)
#
#
# Indices 1 2 3 4 5 6 
#
# 1 109.1692 33.8157 30.6524 0.0000 0.0000 0.0000
# 2 33.8157 99.6376 26.1612 0.0000 0.0000 0.0000
# 3 30.6524 26.1612 58.9554 0.0000 0.0000 0.0000
# 4 0.0000 0.0000 0.0000 9.8650 0.0000 0.0000
# 5 0.0000 0.0000 0.0000 0.0000 14.2946 0.0000
# 6 0.0000 0.0000 0.0000 0.0000 0.0000 19.3040
#
#
#
# Elastic Compliance Matrix: (Units=1/GPa)
#
#
# Indices 1 2 3 4 5 6 
#
# 1 0.011288 -0.002592 -0.004719 0.000000 0.000000 0.000000
# 2 -0.002592 0.011955 -0.003957 0.000000 0.000000 0.000000
# 3 -0.004719 -0.003957 0.021171 0.000000 0.000000 0.000000
# 4 0.000000 0.000000 0.000000 0.101369 0.000000 0.000000
# 5 0.000000 0.000000 0.000000 0.000000 0.069956 0.000000
# 6 0.000000 0.000000 0.000000 0.000000 0.000000 0.051803
#
#
# Mechanical properties :
#
#
# Convention : Reuss Voigt Hill
#
# Bulk Modulus (GPa) = 45.70740 49.89119 47.79929
# Shear Modulus (GPa) = 16.81400 20.50157 18.65779
#
# Velocity S-wave (km/s) = 2.99259 3.30449 3.15240
# Velocity P-wave (km/s) = 6.02376 6.41349 6.22168
#
# Compressibility (1/GPa) = 0.02187830
#
# Stress axis : x y z
#
# Youngs Moduli (GPa) = 88.59057 83.64605 47.23361
#
# Poissons Ratio (x) = 0.21681 0.22288
# Poissons Ratio (y) = 0.22963 0.18692
# Poissons Ratio (z) = 0.41803 0.33102
#
# Static dielectric constant tensor:
#      x y z
#    x 1.699820 0.000000 0.000000 
#    y 0.000000 1.687340 0.000000 
#    z 0.000000 0.000000 1.647220 
# 
# From -- ./inp_files/17204.got.cif
#   From: 2010.05.17/outbox.cif.g08.bks.cpg/sg59_9_cif.got.tgz:17204.got - 2010.06.03 14:40:33.
