data_PCOD9448805
_publ_section_title
;
Structure prediction by ZEFSAII (Michael W. Deem and Ramdas Pophale) SiO2 
 PCOD9448805
Probable space group: P M M N
;
_chemical_formula_sum "Si O2"
_cell_formula_units_Z 64
_cell_length_a 8.834210
_cell_length_b 19.483520
_cell_length_c 21.166216
_cell_angle_alpha 90.000000
_cell_angle_beta 90.000000
_cell_angle_gamma 90.000000
_cell_volume 3643.161000
_symmetry_space_group_name_H-M "P M M N"
_symmetry_group_IT_number 59
_space_group.IT_coordinate_system_code '2'
_symmetry_cell_setting 'orthorhombic'
loop_
_space_group_symop_operation_xyz
x,y,z
1/2-x,1/2-y,z
1/2+x,-y,-z
-x,1/2+y,-z
-x,-y,-z
1/2+x,1/2+y,-z
1/2-x,y,z
x,1/2-y,z
loop_
_atom_site_type_symbol
_atom_site_label
_atom_site_fract_x
_atom_site_fract_y
_atom_site_fract_z
Si Si1 0.432552 0.411233 0.796568
Si Si2 0.430542 0.669905 0.320217
Si Si3 0.432074 0.068811 0.030607
Si Si4 0.426895 0.166629 0.548008
Si Si5 0.434173 0.328167 0.921284
Si Si6 0.566986 0.433375 0.169276
Si Si7 0.067795 0.670477 0.720978
Si Si8 0.569465 0.832260 0.590105
O O1 0.250000 0.407375 0.793079
O O2 0.499922 0.376130 0.734726
O O3 0.482453 0.369634 0.859031
O O4 0.473826 0.490774 0.805690
O O5 0.250000 0.668198 0.316967
O O6 0.479483 0.750000 0.312257
O O7 0.483746 0.645904 0.389605
O O8 0.250000 0.064030 0.031171
O O9 0.493950 0.077630 0.101031
O O10 0.477338 0.131054 0.984307
O O11 0.500000 0.000000 0.000000
O O12 0.250000 0.148268 0.554667
O O13 0.433710 0.250000 0.545861
O O14 0.482307 0.141961 0.478988
O O15 0.250000 0.327077 0.919990
O O16 0.488092 0.250000 0.920217
O O17 0.750000 0.431363 0.162630
O O18 0.520480 0.376418 0.220365
O O19 0.250000 0.670222 0.718552
O O20 0.018172 0.750000 0.728711
O O21 0.007327 0.642301 0.654056
O O22 0.750000 0.842564 0.593437
O O23 0.542432 0.750000 0.590118
#
# Coordination Sequence:
#
# PCOD9448805 Si02
#       8
#     8   8   8   8   8   8   8   8
#     4  10  19  34  54  71  95 136 177 211 245 295
#     4  10  20  31  45  72 107 134 163 211 261 305
#     4  11  21  36  57  79 104 134 168 210 255 303
#     4   8  14  26  45  69  97 133 173 209 251 303
#     4   9  18  33  54  79 102 129 170 212 249 294
#     4  10  21  37  55  77 103 135 176 210 245 303
#     4   9  18  32  51  76 107 138 166 206 261 312
#     4   8  14  26  46  72 101 131 169 215 254 298
#
# _framework density 17.567162
#
# number of rings (size 3 to 8) (size 9 to 14) (size 15 to 20)
#    0.000    2.625    1.250    1.875    0.000    3.250 
#    0.000    2.500    0.000    2.625    0.000    0.000 
#    0.000    0.000    0.000    0.000    0.000    0.000 
#
# Total GULP energy -356733.624597 kJ/mol
# GULP energy per Si atom -5573.962884 kJ/mol
# Density = 1.752718 g / cm^3
# Si number density = 17.567162 Si / 1000 Ang^3
#
#
#
# Elastic Constant Matrix: (Units=GPa)
#
#
# Indices 1 2 3 4 5 6 
#
# 1 13.6099 19.6998 39.6552 0.0000 0.0000 0.0000
# 2 19.6998 88.1119 76.5674 0.0000 0.0000 0.0000
# 3 39.6552 76.5674 204.0338 0.0000 0.0000 0.0000
# 4 0.0000 0.0000 0.0000 13.8804 0.0000 0.0000
# 5 0.0000 0.0000 0.0000 0.0000 32.7560 0.0000
# 6 0.0000 0.0000 0.0000 0.0000 0.0000 12.6753
#
#
#
# Elastic Compliance Matrix: (Units=1/GPa)
#
#
# Indices 1 2 3 4 5 6 
#
# 1 0.181432 -0.014723 -0.029737 0.000000 0.000000 0.000000
# 2 -0.014723 0.018036 -0.003907 0.000000 0.000000 0.000000
# 3 -0.029737 -0.003907 0.012147 0.000000 0.000000 0.000000
# 4 0.000000 0.000000 0.000000 0.072044 0.000000 0.000000
# 5 0.000000 0.000000 0.000000 0.000000 0.030529 0.000000
# 6 0.000000 0.000000 0.000000 0.000000 0.000000 0.078894
#
#
# Mechanical properties :
#
#
# Convention : Reuss Voigt Hill
#
# Bulk Modulus (GPa) = 8.70470 64.17782 36.44126
# Shear Modulus (GPa) = 9.46775 23.18456 16.32615
#
# Velocity S-wave (km/s) = 2.32404 3.63680 3.05184
# Velocity P-wave (km/s) = 3.48818 7.36527 5.76258
#
# Compressibility (1/GPa) = 0.11488045
#
# Stress axis : x y z
#
# Youngs Moduli (GPa) = 5.51172 55.44518 82.32584
#
# Poissons Ratio (x) = 0.81631 2.44815
# Poissons Ratio (y) = 0.08115 0.32163
# Poissons Ratio (z) = 0.16390 0.21661
#
# Static dielectric constant tensor:
#      x y z
#    x 1.593040 0.000000 0.000000 
#    y 0.000000 1.592060 0.000000 
#    z 0.000000 0.000000 1.600040 
# 
# From -- ./inp_files/26201.got.cif
#   From: 2010.05.17/outbox.cif.g08.bks.cpg/sg59_14_cif.got.tgz:26201.got - 2010.06.03 14:40:33.
