data_PCOD9448063
_publ_section_title
;
Structure prediction by ZEFSAII (Michael W. Deem and Ramdas Pophale) SiO2 
 PCOD9448063
Probable space group: P M M N
;
_chemical_formula_sum "Si O2"
_cell_formula_units_Z 58
_cell_length_a 19.082486
_cell_length_b 17.457264
_cell_length_c 9.451851
_cell_angle_alpha 90.000000
_cell_angle_beta 90.000000
_cell_angle_gamma 90.000000
_cell_volume 3148.676181
_symmetry_space_group_name_H-M "P M M N"
_symmetry_group_IT_number 59
_space_group.IT_coordinate_system_code '2'
_symmetry_cell_setting 'orthorhombic'
loop_
_space_group_symop_operation_xyz
x,y,z
1/2-x,1/2-y,z
1/2+x,-y,-z
-x,1/2+y,-z
-x,-y,-z
1/2+x,1/2+y,-z
1/2-x,y,z
x,1/2-y,z
loop_
_atom_site_type_symbol
_atom_site_label
_atom_site_fract_x
_atom_site_fract_y
_atom_site_fract_z
Si Si1 0.171845 0.446738 0.751044
Si Si2 0.416456 0.995787 0.495839
Si Si3 0.108564 0.665448 0.383431
Si Si4 0.041478 0.659010 0.085738
Si Si5 0.826069 0.424388 0.010583
Si Si6 0.669831 0.553149 0.769335
Si Si7 0.750000 0.250000 0.683339
Si Si8 0.885933 0.841617 0.012190
O O1 0.250000 0.439505 0.690432
O O2 0.115855 0.461365 0.630225
O O3 0.171172 0.520254 0.854640
O O4 0.155549 0.375733 0.853889
O O5 0.393522 0.906034 0.488539
O O6 0.500000 0.000000 0.500000
O O7 0.382678 0.035165 0.357508
O O8 0.085777 0.750000 0.440356
O O9 0.059386 0.643651 0.250396
O O10 0.186895 0.684156 0.326095
O O11 0.039985 0.750000 0.073164
O O12 0.106417 0.628109 0.996471
O O13 0.966161 0.630093 0.034973
O O14 0.750000 0.384031 0.008655
O O15 0.829813 0.480359 0.875178
O O16 0.750000 0.564685 0.720592
O O17 0.645105 0.622730 0.869068
O O18 0.883747 0.750000 0.010141
#
# Coordination Sequence:
#
# PCOD9448063 Si02
#       8
#     8   8   8   8   8   8   2   8
#     4  10  23  38  58  87 119 158 197 247 311 371
#     4  12  24  38  61  93 128 166 201 258 311 369
#     4   9  20  35  57  89 119 164 212 245 304 368
#     4  10  19  31  56  86 118 152 194 248 298 356
#     4   9  19  34  55  83 119 152 191 244 295 357
#     4  10  22  38  63  88 111 154 209 256 294 359
#     4   8  20  32  64  88 118 172 212 260 298 368
#     4  10  22  41  63  87 117 157 205 259 319 370
#
# _framework density 18.420439999999999
#
# number of rings (size 3 to 8) (size 9 to 14) (size 15 to 20)
#    0.414    1.655    1.379    2.483    4.828    2.483 
#    0.000    2.069    0.000    2.483    0.000    0.000 
#    0.000    0.000    0.000    0.000    0.000    0.000 
#
# Total GULP energy -322881.285806 kJ/mol
# GULP energy per Si atom -5566.918721 kJ/mol
# Density = 1.837851 g / cm^3
# Si number density = 18.420440 Si / 1000 Ang^3
#
#
#
# Elastic Constant Matrix: (Units=GPa)
#
#
# Indices 1 2 3 4 5 6 
#
# 1 136.3054 13.3080 43.0792 0.0000 0.0000 0.0000
# 2 13.3080 56.9593 19.9384 0.0000 0.0000 0.0000
# 3 43.0792 19.9384 84.4194 0.0000 0.0000 0.0000
# 4 0.0000 0.0000 0.0000 12.8116 0.0000 0.0000
# 5 0.0000 0.0000 0.0000 0.0000 24.1425 0.0000
# 6 0.0000 0.0000 0.0000 0.0000 0.0000 30.2045
#
#
#
# Elastic Compliance Matrix: (Units=1/GPa)
#
#
# Indices 1 2 3 4 5 6 
#
# 1 0.008762 -0.000525 -0.004347 0.000000 0.000000 0.000000
# 2 -0.000525 0.019170 -0.004260 0.000000 0.000000 0.000000
# 3 -0.004347 -0.004260 0.015070 0.000000 0.000000 0.000000
# 4 0.000000 0.000000 0.000000 0.078055 0.000000 0.000000
# 5 0.000000 0.000000 0.000000 0.000000 0.041421 0.000000
# 6 0.000000 0.000000 0.000000 0.000000 0.000000 0.033108
#
#
# Mechanical properties :
#
#
# Convention : Reuss Voigt Hill
#
# Bulk Modulus (GPa) = 40.42388 47.81505 44.11946
# Shear Modulus (GPa) = 22.51294 26.85561 24.68427
#
# Velocity S-wave (km/s) = 3.49975 3.82242 3.66464
# Velocity P-wave (km/s) = 6.19062 6.74501 6.47375
#
# Compressibility (1/GPa) = 0.02473785
#
# Stress axis : x y z
#
# Youngs Moduli (GPa) = 114.13421 52.16427 66.35745
#
# Poissons Ratio (x) = 0.02741 0.28845
# Poissons Ratio (y) = 0.05997 0.28265
# Poissons Ratio (z) = 0.49614 0.22220
#
# Static dielectric constant tensor:
#      x y z
#    x 1.677810 0.000000 0.000000 
#    y 0.000000 1.642330 0.000000 
#    z 0.000000 0.000000 1.630970 
# 
# From -- ./inp_files/10512.got.cif
#   From: 2010.05.17/outbox.cif.g08.bks.cpg/sg59_6_cif.got.tgz:10512.got - 2010.06.03 14:40:33.
