data_PCOD9448866
_publ_section_title
;
Structure prediction by ZEFSAII (Michael W. Deem and Ramdas Pophale) SiO2 
 PCOD9448866
Probable space group: P M M N
;
_chemical_formula_sum "Si O2"
_cell_formula_units_Z 48
_cell_length_a 18.208756
_cell_length_b 16.998982
_cell_length_c 8.289509
_cell_angle_alpha 90.000000
_cell_angle_beta 90.000000
_cell_angle_gamma 90.000000
_cell_volume 2565.854336
_symmetry_space_group_name_H-M "P M M N"
_symmetry_group_IT_number 59
_space_group.IT_coordinate_system_code '2'
_symmetry_cell_setting 'orthorhombic'
loop_
_space_group_symop_operation_xyz
x,y,z
1/2-x,1/2-y,z
1/2+x,-y,-z
-x,1/2+y,-z
-x,-y,-z
1/2+x,1/2+y,-z
1/2-x,y,z
x,1/2-y,z
loop_
_atom_site_type_symbol
_atom_site_label
_atom_site_fract_x
_atom_site_fract_y
_atom_site_fract_z
Si Si1 0.085805 0.907070 0.119998
Si Si2 0.837404 0.543436 0.060105
Si Si3 0.543157 0.961278 0.647465
Si Si4 0.663131 0.999138 0.423111
Si Si5 0.958447 0.841768 0.902930
Si Si6 0.661778 0.337538 0.566892
O O1 0.124644 0.858299 0.262025
O O2 0.039326 0.975086 0.210174
O O3 0.030009 0.857759 0.012577
O O4 0.143821 0.958299 0.017684
O O5 0.750000 0.559429 0.044205
O O6 0.857073 0.535405 0.249589
O O7 0.889677 0.608233 0.975928
O O8 0.523960 0.879099 0.727741
O O9 0.500000 0.000000 0.500000
O O10 0.624791 0.956979 0.573575
O O11 0.750000 0.993015 0.437668
O O12 0.643281 0.091528 0.444812
O O13 0.941713 0.750000 0.896658
O O14 0.750000 0.338898 0.587145
O O15 0.640284 0.250000 0.513717
#
# Coordination Sequence:
#
# PCOD9448866 Si02
#       6
#     8   8   8   8   8   8
#     4  10  19  34  55  79 107 143 183 221 268 330
#     4  10  20  37  60  82 108 145 186 224 266 325
#     4  10  19  35  56  76 103 141 182 222 264 325
#     4   9  18  33  54  77 103 142 186 224 266 323
#     4  11  23  37  56  83 113 143 180 232 285 327
#     4   9  17  30  49  76 109 141 177 226 279 325
#
# _framework density 18.70722
#
# number of rings (size 3 to 8) (size 9 to 14) (size 15 to 20)
#    0.000    2.167    0.000    5.000    0.000    4.333 
#    0.000   11.667    0.000    5.000    0.000    0.000 
#    0.000    0.000    0.000    0.000    0.000    0.000 
#
# Total GULP energy -267649.961018 kJ/mol
# GULP energy per Si atom -5576.040855 kJ/mol
# Density = 1.866464 g / cm^3
# Si number density = 18.707220 Si / 1000 Ang^3
#
#
#
# Elastic Constant Matrix: (Units=GPa)
#
#
# Indices 1 2 3 4 5 6 
#
# 1 71.9999 35.0213 26.2112 0.0000 0.0000 0.0000
# 2 35.0213 106.0199 42.2941 0.0000 0.0000 0.0000
# 3 26.2112 42.2941 77.0668 0.0000 0.0000 0.0000
# 4 0.0000 0.0000 0.0000 18.6205 0.0000 0.0000
# 5 0.0000 0.0000 0.0000 0.0000 33.8969 0.0000
# 6 0.0000 0.0000 0.0000 0.0000 0.0000 21.7095
#
#
#
# Elastic Compliance Matrix: (Units=1/GPa)
#
#
# Indices 1 2 3 4 5 6 
#
# 1 0.017259 -0.004301 -0.003509 0.000000 0.000000 0.000000
# 2 -0.004301 0.013148 -0.005753 0.000000 0.000000 0.000000
# 3 -0.003509 -0.005753 0.017326 0.000000 0.000000 0.000000
# 4 0.000000 0.000000 0.000000 0.053704 0.000000 0.000000
# 5 0.000000 0.000000 0.000000 0.000000 0.029501 0.000000
# 6 0.000000 0.000000 0.000000 0.000000 0.000000 0.046063
#
#
# Mechanical properties :
#
#
# Convention : Reuss Voigt Hill
#
# Bulk Modulus (GPa) = 48.52823 51.34887 49.93855
# Shear Modulus (GPa) = 23.69712 24.94938 24.32325
#
# Velocity S-wave (km/s) = 3.56299 3.65592 3.60975
# Velocity P-wave (km/s) = 6.55162 6.73270 6.64278
#
# Compressibility (1/GPa) = 0.02060656
#
# Stress axis : x y z
#
# Youngs Moduli (GPa) = 57.94241 76.05835 57.71536
#
# Poissons Ratio (x) = 0.32712 0.20255
# Poissons Ratio (y) = 0.24921 0.33202
# Poissons Ratio (z) = 0.20335 0.43754
#
# Static dielectric constant tensor:
#      x y z
#    x 1.715300 0.000000 0.000000 
#    y 0.000000 1.646710 0.000000 
#    z 0.000000 0.000000 1.666670 
# 
# From -- ./inp_files/10386.got.cif
#   From: 2010.05.17/outbox.cif.g08.bks.cpg/sg59_6_cif.got.tgz:10386.got - 2010.06.03 14:40:33.
