data_PCOD9448982
_publ_section_title
;
Structure prediction by ZEFSAII (Michael W. Deem and Ramdas Pophale) SiO2 
 PCOD9448982
Probable space group: P M M N
;
_chemical_formula_sum "Si O2"
_cell_formula_units_Z 56
_cell_length_a 13.447324
_cell_length_b 23.951335
_cell_length_c 8.277224
_cell_angle_alpha 90.000000
_cell_angle_beta 90.000000
_cell_angle_gamma 90.000000
_cell_volume 2665.939579
_symmetry_space_group_name_H-M "P M M N"
_symmetry_group_IT_number 59
_space_group.IT_coordinate_system_code '2'
_symmetry_cell_setting 'orthorhombic'
loop_
_space_group_symop_operation_xyz
x,y,z
1/2-x,1/2-y,z
1/2+x,-y,-z
-x,1/2+y,-z
-x,-y,-z
1/2+x,1/2+y,-z
1/2-x,y,z
x,1/2-y,z
loop_
_atom_site_type_symbol
_atom_site_label
_atom_site_fract_x
_atom_site_fract_y
_atom_site_fract_z
Si Si1 0.871076 0.959344 0.342926
Si Si2 0.370960 0.927327 0.156064
Si Si3 0.371195 0.457007 0.013312
Si Si4 0.369082 0.110262 0.335084
Si Si5 0.039852 0.687755 0.653084
Si Si6 0.130042 0.689264 0.011485
Si Si7 0.130456 0.924777 0.521565
O O1 0.750000 0.958926 0.342416
O O2 0.897634 0.924374 0.503077
O O3 0.901072 0.024033 0.364897
O O4 0.902617 0.937979 0.165913
O O5 0.250000 0.926097 0.153206
O O6 0.398614 0.940679 0.339550
O O7 0.399298 0.978262 0.040748
O O8 0.403530 0.865672 0.105480
O O9 0.250000 0.455278 0.015247
O O10 0.401268 0.421233 0.170019
O O11 0.250000 0.115022 0.333277
O O12 0.425220 0.169049 0.340841
O O13 0.054196 0.750000 0.585672
O O14 0.084296 0.687499 0.833306
O O15 0.092779 0.636629 0.563006
O O16 0.250000 0.686921 0.997407
O O17 0.104667 0.750000 0.084909
O O18 0.250000 0.922726 0.529231
#
# Coordination Sequence:
#
# PCOD9448982 Si02
#       7
#     8   8   8   8   8   8   8
#     4   9  17  33  60  90 118 148 182 229 288 346
#     4   9  16  30  54  84 118 152 184 222 273 335
#     4   9  16  31  57  85 113 145 182 228 284 338
#     4  10  21  40  61  83 113 146 189 242 289 337
#     4  11  24  39  55  80 110 149 199 240 280 332
#     4   9  18  34  54  76 108 150 192 231 274 332
#     4  10  19  34  57  86 122 153 181 226 280 341
#
# _framework density 21.005728000000001
#
# number of rings (size 3 to 8) (size 9 to 14) (size 15 to 20)
#    0.000    2.429    1.429    1.286    0.000    4.571 
#    2.571    2.857    0.000    0.000    0.000    4.000 
#    0.000    0.000    0.000    0.000    0.000    0.000 
#
# Total GULP energy -312829.237731 kJ/mol
# GULP energy per Si atom -5586.236388 kJ/mol
# Density = 2.095792 g / cm^3
# Si number density = 21.005728 Si / 1000 Ang^3
#
#
#
# Elastic Constant Matrix: (Units=GPa)
#
#
# Indices 1 2 3 4 5 6 
#
# 1 60.0595 15.5510 13.1997 0.0000 0.0000 0.0000
# 2 15.5510 93.9298 31.4819 0.0000 0.0000 0.0000
# 3 13.1997 31.4819 111.9199 0.0000 0.0000 0.0000
# 4 0.0000 0.0000 0.0000 25.9549 0.0000 0.0000
# 5 0.0000 0.0000 0.0000 0.0000 24.1968 0.0000
# 6 0.0000 0.0000 0.0000 0.0000 0.0000 28.9663
#
#
#
# Elastic Compliance Matrix: (Units=1/GPa)
#
#
# Indices 1 2 3 4 5 6 
#
# 1 0.017588 -0.002447 -0.001386 0.000000 0.000000 0.000000
# 2 -0.002447 0.012095 -0.003114 0.000000 0.000000 0.000000
# 3 -0.001386 -0.003114 0.009974 0.000000 0.000000 0.000000
# 4 0.000000 0.000000 0.000000 0.038528 0.000000 0.000000
# 5 0.000000 0.000000 0.000000 0.000000 0.041328 0.000000
# 6 0.000000 0.000000 0.000000 0.000000 0.000000 0.034523
#
#
# Mechanical properties :
#
#
# Convention : Reuss Voigt Hill
#
# Bulk Modulus (GPa) = 38.81405 42.93048 40.87226
# Shear Modulus (GPa) = 28.32567 29.53539 28.93053
#
# Velocity S-wave (km/s) = 3.67614 3.75382 3.71518
# Velocity P-wave (km/s) = 6.04455 6.26659 6.15657
#
# Compressibility (1/GPa) = 0.02576387
#
# Stress axis : x y z
#
# Youngs Moduli (GPa) = 56.85553 82.67888 100.25840
#
# Poissons Ratio (x) = 0.20235 0.13895
# Poissons Ratio (y) = 0.13915 0.31216
# Poissons Ratio (z) = 0.07880 0.25742
#
# Static dielectric constant tensor:
#      x y z
#    x 1.828430 0.000000 0.000000 
#    y 0.000000 1.713090 0.000000 
#    z 0.000000 0.000000 1.746480 
# 
# From -- ./inp_files/9340.got.cif
#   From: 2010.05.17/outbox.cif.g08.bks.cpg/sg59_5_cif.got.tgz:9340.got - 2010.06.03 14:40:33.
