data_PCOD9448694
_publ_section_title
;
Structure prediction by ZEFSAII (Michael W. Deem and Ramdas Pophale) SiO2 
 PCOD9448694
Probable space group: P M M N
;
_chemical_formula_sum "Si O2"
_cell_formula_units_Z 56
_cell_length_a 16.620528
_cell_length_b 7.775970
_cell_length_c 20.084067
_cell_angle_alpha 90.000000
_cell_angle_beta 90.000000
_cell_angle_gamma 90.000000
_cell_volume 2595.679422
_symmetry_space_group_name_H-M "P M M N"
_symmetry_group_IT_number 59
_space_group.IT_coordinate_system_code '2'
_symmetry_cell_setting 'orthorhombic'
loop_
_space_group_symop_operation_xyz
x,y,z
1/2-x,1/2-y,z
1/2+x,-y,-z
-x,1/2+y,-z
-x,-y,-z
1/2+x,1/2+y,-z
1/2-x,y,z
x,1/2-y,z
loop_
_atom_site_type_symbol
_atom_site_label
_atom_site_fract_x
_atom_site_fract_y
_atom_site_fract_z
Si Si1 0.662005 0.046030 0.351957
Si Si2 0.000843 0.546081 0.577378
Si Si3 0.842117 0.543373 0.072626
Si Si4 0.592778 0.541591 0.214065
Si Si5 0.337389 0.543486 0.346443
Si Si6 0.842304 0.456563 0.928667
Si Si7 0.410930 0.539748 0.211053
O O1 0.750000 0.974879 0.371364
O O2 0.664122 0.250000 0.365997
O O3 0.581806 0.973140 0.387467
O O4 0.649182 0.022205 0.273017
O O5 0.005609 0.750000 0.584106
O O6 0.916645 0.495070 0.611076
O O7 0.000000 0.500000 0.500000
O O8 0.750000 0.478589 0.072690
O O9 0.840054 0.750000 0.076198
O O10 0.884140 0.482475 0.139945
O O11 0.878632 0.499023 0.000790
O O12 0.596073 0.750000 0.214712
O O13 0.501489 0.487443 0.228301
O O14 0.250000 0.479869 0.370730
O O15 0.333178 0.750000 0.344324
O O16 0.353253 0.483397 0.270676
O O17 0.750000 0.521266 0.927778
O O18 0.839656 0.250000 0.924377
O O19 0.886688 0.519499 0.862563
O O20 0.409533 0.750000 0.209793
#
# Coordination Sequence:
#
# PCOD9448694 Si02
#       7
#     8   8   8   8   8   8   8
#     4  10  22  40  61  86 117 152 190 235 287 339
#     4  11  24  42  64  91 124 156 191 236 287 344
#     4   9  18  31  45  67 102 141 182 233 291 342
#     4  10  19  33  55  80 108 144 189 238 287 342
#     4  10  20  37  63  91 120 157 197 239 291 347
#     4   9  17  30  48  70  99 140 189 236 281 335
#     4   9  17  31  53  80 109 142 188 240 285 335
#
# _framework density 21.574311999999999
#
# number of rings (size 3 to 8) (size 9 to 14) (size 15 to 20)
#    0.000    2.286    1.429    1.286    0.000    5.143 
#    0.000    4.286    0.000    1.714    0.000    0.000 
#    0.000    0.000    0.000    0.000    0.000    0.000 
#
# Total GULP energy -312537.140559 kJ/mol
# GULP energy per Si atom -5581.020367 kJ/mol
# Density = 2.152521 g / cm^3
# Si number density = 21.574312 Si / 1000 Ang^3
#
#
#
# Elastic Constant Matrix: (Units=GPa)
#
#
# Indices 1 2 3 4 5 6 
#
# 1 165.5037 13.9663 77.0763 0.0000 0.0000 0.0000
# 2 13.9663 29.0272 -0.7533 0.0000 0.0000 0.0000
# 3 77.0763 -0.7533 135.5940 0.0000 0.0000 0.0000
# 4 0.0000 0.0000 0.0000 23.1892 0.0000 0.0000
# 5 0.0000 0.0000 0.0000 0.0000 12.7869 0.0000
# 6 0.0000 0.0000 0.0000 0.0000 0.0000 16.9118
#
#
#
# Elastic Compliance Matrix: (Units=1/GPa)
#
#
# Indices 1 2 3 4 5 6 
#
# 1 0.008730 -0.004330 -0.004986 0.000000 0.000000 0.000000
# 2 -0.004330 0.036603 0.002664 0.000000 0.000000 0.000000
# 3 -0.004986 0.002664 0.010224 0.000000 0.000000 0.000000
# 4 0.000000 0.000000 0.000000 0.043124 0.000000 0.000000
# 5 0.000000 0.000000 0.000000 0.000000 0.078205 0.000000
# 6 0.000000 0.000000 0.000000 0.000000 0.000000 0.059130
#
#
# Mechanical properties :
#
#
# Convention : Reuss Voigt Hill
#
# Bulk Modulus (GPa) = 23.66657 56.74480 40.20568
# Shear Modulus (GPa) = 18.98232 26.56662 22.77447
#
# Velocity S-wave (km/s) = 2.96946 3.51294 3.25257
# Velocity P-wave (km/s) = 4.76975 6.54320 5.72555
#
# Compressibility (1/GPa) = 0.04225370
#
# Stress axis : x y z
#
# Youngs Moduli (GPa) = 114.55174 27.32030 97.80764
#
# Poissons Ratio (x) = 0.11829 0.48770
# Poissons Ratio (y) = 0.49597 -0.26061
# Poissons Ratio (z) = 0.57119 -0.07279
#
# Static dielectric constant tensor:
#      x y z
#    x 1.807530 0.000000 0.000000 
#    y 0.000000 1.799630 0.000000 
#    z 0.000000 0.000000 1.758800 
# 
# From -- ./inp_files/30416.got.cif
#   From: 2010.05.17/outbox.cif.g08.bks.cpg/sg59_16_cif.got.tgz:30416.got - 2010.06.03 14:40:33.
