data_PCOD9448516
_publ_section_title
;
Structure prediction by ZEFSAII (Michael W. Deem and Ramdas Pophale) SiO2 
 PCOD9448516
Probable space group: P M M N
;
_chemical_formula_sum "Si O2"
_cell_formula_units_Z 64
_cell_length_a 20.029612
_cell_length_b 8.152328
_cell_length_c 19.941772
_cell_angle_alpha 90.000000
_cell_angle_beta 90.000000
_cell_angle_gamma 90.000000
_cell_volume 3256.251403
_symmetry_space_group_name_H-M "P M M N"
_symmetry_group_IT_number 59
_space_group.IT_coordinate_system_code '2'
_symmetry_cell_setting 'orthorhombic'
loop_
_space_group_symop_operation_xyz
x,y,z
1/2-x,1/2-y,z
1/2+x,-y,-z
-x,1/2+y,-z
-x,-y,-z
1/2+x,1/2+y,-z
1/2-x,y,z
x,1/2-y,z
loop_
_atom_site_type_symbol
_atom_site_label
_atom_site_fract_x
_atom_site_fract_y
_atom_site_fract_z
Si Si1 0.173555 0.944626 0.197952
Si Si2 0.585977 0.556663 0.927065
Si Si3 0.554231 0.552122 0.711819
Si Si4 0.825645 0.549942 0.481972
Si Si5 0.827533 0.947507 0.332362
Si Si6 0.548481 0.552001 0.560367
Si Si7 0.070024 0.551483 0.929442
Si Si8 0.923749 0.445778 0.215366
O O1 0.250000 0.009574 0.198218
O O2 0.177071 0.750000 0.204966
O O3 0.134855 0.981994 0.128258
O O4 0.126117 0.008768 0.257786
O O5 0.585238 0.750000 0.913862
O O6 0.508339 0.500555 0.924059
O O7 0.603712 0.521133 0.004422
O O8 0.550607 0.750000 0.710194
O O9 0.537752 0.492629 0.636391
O O10 0.496276 0.490181 0.761718
O O11 0.750000 0.494520 0.492948
O O12 0.824567 0.750000 0.481551
O O13 0.848134 0.498737 0.407284
O O14 0.877969 0.497327 0.537173
O O15 0.750000 0.993196 0.323985
O O16 0.831504 0.750000 0.330500
O O17 0.872758 0.017075 0.274260
O O18 0.500000 0.500000 0.500000
O O19 0.546463 0.750000 0.562223
O O20 0.071954 0.750000 0.936255
O O21 0.099069 0.497116 0.857908
O O22 0.930734 0.250000 0.209008
#
# Coordination Sequence:
#
# PCOD9448516 Si02
#       8
#     8   8   8   8   8   8   8   8
#     4  11  24  40  58  82 114 152 192 235 285 339
#     4  10  19  35  58  83 109 139 180 225 268 320
#     4  10  21  37  55  81 112 145 188 233 277 333
#     4   8  15  30  50  71  97 133 177 219 261 315
#     4   9  18  32  50  73 102 136 177 223 268 321
#     4  10  20  33  54  81 110 141 178 227 280 332
#     4   9  18  33  54  80 111 142 174 217 268 321
#     4  10  19  33  52  77 110 142 175 219 269 323
#
# _framework density 19.654501
#
# number of rings (size 3 to 8) (size 9 to 14) (size 15 to 20)
#    0.000    2.375    1.250    2.250    0.000    3.750 
#    0.000    1.875    0.000    1.875    0.000    0.000 
#    0.000    0.000    0.000    0.000    0.000    0.000 
#
# Total GULP energy -356904.440825 kJ/mol
# GULP energy per Si atom -5576.631888 kJ/mol
# Density = 1.960977 g / cm^3
# Si number density = 19.654501 Si / 1000 Ang^3
#
#
#
# Elastic Constant Matrix: (Units=GPa)
#
#
# Indices 1 2 3 4 5 6 
#
# 1 39.6707 1.3365 31.5248 0.0000 0.0000 0.0000
# 2 1.3365 5.0849 6.3734 0.0000 0.0000 0.0000
# 3 31.5248 6.3734 120.8093 0.0000 0.0000 0.0000
# 4 0.0000 0.0000 0.0000 21.8584 0.0000 0.0000
# 5 0.0000 0.0000 0.0000 0.0000 29.6311 0.0000
# 6 0.0000 0.0000 0.0000 0.0000 0.0000 20.9985
#
#
#
# Elastic Compliance Matrix: (Units=1/GPa)
#
#
# Indices 1 2 3 4 5 6 
#
# 1 0.031825 0.002189 -0.008420 0.000000 0.000000 0.000000
# 2 0.002189 0.210737 -0.011689 0.000000 0.000000 0.000000
# 3 -0.008420 -0.011689 0.011091 0.000000 0.000000 0.000000
# 4 0.000000 0.000000 0.000000 0.045749 0.000000 0.000000
# 5 0.000000 0.000000 0.000000 0.000000 0.033748 0.000000
# 6 0.000000 0.000000 0.000000 0.000000 0.000000 0.047622
#
#
# Mechanical properties :
#
#
# Convention : Reuss Voigt Hill
#
# Bulk Modulus (GPa) = 4.59108 27.11491 15.85300
# Shear Modulus (GPa) = 10.22042 22.91962 16.57002
#
# Velocity S-wave (km/s) = 2.28283 3.41856 2.90671
# Velocity P-wave (km/s) = 3.04785 5.42290 4.39871
#
# Compressibility (1/GPa) = 0.21781354
#
# Stress axis : x y z
#
# Youngs Moduli (GPa) = 31.42195 4.74525 90.16031
#
# Poissons Ratio (x) = -0.01039 0.75916
# Poissons Ratio (y) = -0.06879 1.05387
# Poissons Ratio (z) = 0.26458 0.05547
#
# Static dielectric constant tensor:
#      x y z
#    x 1.692090 0.000000 0.000000 
#    y 0.000000 1.701300 0.000000 
#    z 0.000000 0.000000 1.713270 
# 
# From -- ./inp_files/28135.got.cif
#   From: 2010.05.17/outbox.cif.g08.bks.cpg/sg59_15_cif.got.tgz:28135.got - 2010.06.03 14:40:33.
