data_PCOD9448762
_publ_section_title
;
Structure prediction by ZEFSAII (Michael W. Deem and Ramdas Pophale) SiO2 
 PCOD9448762
Probable space group: P M M N
;
_chemical_formula_sum "Si O2"
_cell_formula_units_Z 64
_cell_length_a 7.702729
_cell_length_b 24.004688
_cell_length_c 15.311871
_cell_angle_alpha 90.000000
_cell_angle_beta 90.000000
_cell_angle_gamma 90.000000
_cell_volume 2831.189545
_symmetry_space_group_name_H-M "P M M N"
_symmetry_group_IT_number 59
_space_group.IT_coordinate_system_code '2'
_symmetry_cell_setting 'orthorhombic'
loop_
_space_group_symop_operation_xyz
x,y,z
1/2-x,1/2-y,z
1/2+x,-y,-z
-x,1/2+y,-z
-x,-y,-z
1/2+x,1/2+y,-z
1/2-x,y,z
x,1/2-y,z
loop_
_atom_site_type_symbol
_atom_site_label
_atom_site_fract_x
_atom_site_fract_y
_atom_site_fract_z
Si Si1 0.462094 0.102744 0.361401
Si Si2 0.451448 0.631218 0.948325
Si Si3 0.039081 0.986245 0.287829
Si Si4 0.037378 0.187328 0.510279
Si Si5 0.545299 0.312975 0.879092
Si Si6 0.954720 0.639750 0.307843
Si Si7 0.040492 0.310575 0.215843
Si Si8 0.056892 0.486111 0.097849
O O1 0.250000 0.102179 0.362742
O O2 0.519056 0.039240 0.345341
O O3 0.518750 0.137666 0.445984
O O4 0.517557 0.140028 0.278827
O O5 0.250000 0.613876 0.955807
O O6 0.467216 0.681585 0.880845
O O7 0.551200 0.580609 0.902906
O O8 0.524277 0.648615 0.042516
O O9 0.250000 0.988614 0.285821
O O10 0.971216 0.993244 0.187615
O O11 0.986571 0.925799 0.321189
O O12 0.250000 0.186820 0.509211
O O13 0.984819 0.250000 0.484368
O O14 0.979177 0.173678 0.608616
O O15 0.750000 0.308762 0.898810
O O16 0.473399 0.250000 0.879224
O O17 0.528239 0.340406 0.784595
O O18 0.750000 0.649686 0.302388
O O19 0.250000 0.312823 0.210926
O O20 0.992978 0.250000 0.251782
O O21 0.250000 0.508962 0.103319
O O22 0.000000 0.500000 0.000000
#
# Coordination Sequence:
#
# PCOD9448762 Si02
#       8
#     8   8   8   8   8   8   8   8
#     4   9  17  34  58  84 114 151 190 230 279 344
#     4  11  22  36  55  81 114 151 190 234 289 347
#     4  10  21  38  58  81 115 154 194 235 282 342
#     4   9  18  34  58  88 118 147 184 235 293 348
#     4  10  22  40  59  80 111 154 198 235 283 349
#     4  11  23  37  57  87 118 148 191 244 293 337
#     4  10  19  33  56  85 114 147 189 233 278 336
#     4  11  22  37  56  81 113 151 198 244 285 339
#
# _framework density 22.605339000000001
#
# number of rings (size 3 to 8) (size 9 to 14) (size 15 to 20)
#    0.000    1.875    1.250    3.000    0.000    8.500 
#    0.000    0.000    0.000    2.250    0.000    0.000 
#    0.000    0.000    0.000    0.000    0.000    0.000 
#
# Total GULP energy -357452.170018 kJ/mol
# GULP energy per Si atom -5585.190157 kJ/mol
# Density = 2.255389 g / cm^3
# Si number density = 22.605339 Si / 1000 Ang^3
#
#
#
# Elastic Constant Matrix: (Units=GPa)
#
#
# Indices 1 2 3 4 5 6 
#
# 1 33.5760 -14.1811 -6.6060 0.0000 0.0000 0.0000
# 2 -14.1811 66.6850 0.6412 0.0000 0.0000 0.0000
# 3 -6.6060 0.6412 93.2873 0.0000 0.0000 0.0000
# 4 0.0000 0.0000 0.0000 34.1892 0.0000 0.0000
# 5 0.0000 0.0000 0.0000 0.0000 -6.6190 0.0000
# 6 0.0000 0.0000 0.0000 0.0000 0.0000 14.8058
#
#
#
# Elastic Compliance Matrix: (Units=1/GPa)
#
#
# Indices 1 2 3 4 5 6 
#
# 1 0.033210 0.007040 0.002303 0.000000 0.000000 0.000000
# 2 0.007040 0.016489 0.000385 0.000000 0.000000 0.000000
# 3 0.002303 0.000385 0.010880 0.000000 0.000000 0.000000
# 4 0.000000 0.000000 0.000000 0.029249 0.000000 0.000000
# 5 0.000000 0.000000 0.000000 0.000000 -0.151080 0.000000
# 6 0.000000 0.000000 0.000000 0.000000 0.000000 0.067541
#
#
# Mechanical properties :
#
#
# Convention : Reuss Voigt Hill
#
# Bulk Modulus (GPa) = 12.49426 17.02848 14.76137
# Shear Modulus (GPa) = 370.08114 22.72148 196.40131
#
# Velocity S-wave (km/s) = 12.80896 3.17383 9.33120
# Velocity P-wave (km/s) = 14.97659 4.58042 11.07426
#
# Compressibility (1/GPa) = 0.08003673
#
# Stress axis : x y z
#
# Youngs Moduli (GPa) = 30.11152 60.64526 91.91147
#
# Poissons Ratio (x) = -0.42696 -0.21170
# Poissons Ratio (y) = -0.21199 -0.03540
# Poissons Ratio (z) = -0.06936 -0.02336
#
# Static dielectric constant tensor:
#      x y z
#    x 1.849980 0.000000 0.000000 
#    y 0.000000 1.881480 0.000000 
#    z 0.000000 0.000000 1.842240 
# 
# From -- ./inp_files/21593.got.cif
#   From: 2010.05.17/outbox.cif.g08.bks.cpg/sg59_11_cif.got.tgz:21593.got - 2010.06.03 14:40:33.
