data_PCOD9448298
_publ_section_title
;
Structure prediction by ZEFSAII (Michael W. Deem and Ramdas Pophale) SiO2 
 PCOD9448298
Probable space group: P M M N
;
_chemical_formula_sum "Si O2"
_cell_formula_units_Z 64
_cell_length_a 26.571679
_cell_length_b 7.640221
_cell_length_c 13.719172
_cell_angle_alpha 90.000000
_cell_angle_beta 90.000000
_cell_angle_gamma 90.000000
_cell_volume 2785.177123
_symmetry_space_group_name_H-M "P M M N"
_symmetry_group_IT_number 59
_space_group.IT_coordinate_system_code '2'
_symmetry_cell_setting 'orthorhombic'
loop_
_space_group_symop_operation_xyz
x,y,z
1/2-x,1/2-y,z
1/2+x,-y,-z
-x,1/2+y,-z
-x,-y,-z
1/2+x,1/2+y,-z
1/2-x,y,z
x,1/2-y,z
loop_
_atom_site_type_symbol
_atom_site_label
_atom_site_fract_x
_atom_site_fract_y
_atom_site_fract_z
Si Si1 0.458525 0.458367 0.580387
Si Si2 0.013443 0.958030 0.891163
Si Si3 0.152093 0.464935 0.519811
Si Si4 0.192431 0.040281 0.095087
Si Si5 0.458010 0.949726 0.284108
Si Si6 0.375456 0.951712 0.906810
Si Si7 0.805963 0.961659 0.273235
Si Si8 0.345435 0.048958 0.305796
O O1 0.500000 0.500000 0.500000
O O2 0.451372 0.250000 0.592351
O O3 0.404682 0.525705 0.546380
O O4 0.488984 0.523886 0.674372
O O5 0.011104 0.750000 0.871225
O O6 0.070136 0.031372 0.881002
O O7 0.969593 0.046160 0.828768
O O8 0.000000 0.000000 0.000000
O O9 0.152000 0.250000 0.514631
O O10 0.183313 0.515192 0.615377
O O11 0.168925 0.527004 0.412306
O O12 0.250000 0.977524 0.077542
O O13 0.194499 0.250000 0.103748
O O14 0.172604 0.973298 0.201390
O O15 0.155846 0.010055 0.002422
O O16 0.451901 0.750000 0.319280
O O17 0.406492 0.045940 0.307775
O O18 0.386224 0.750000 0.926668
O O19 0.343186 0.970589 0.808811
O O20 0.750000 0.014215 0.245365
O O21 0.809470 0.750000 0.271502
O O22 0.327795 0.250000 0.306456
#
# Coordination Sequence:
#
# PCOD9448298 Si02
#       8
#     8   8   8   8   8   8   8   8
#     4  10  19  32  52  78 110 147 187 229 273 328
#     4  11  24  40  59  85 117 153 191 234 287 347
#     4   9  18  34  56  84 117 152 191 235 285 338
#     4  10  22  39  60  86 112 144 190 240 288 340
#     4  11  22  35  55  85 119 154 192 234 280 337
#     4  11  24  41  61  86 115 149 191 240 293 349
#     4  10  21  38  62  89 117 153 197 245 296 350
#     4  10  20  36  59  84 117 157 194 235 286 344
#
# _framework density 22.978791999999999
#
# number of rings (size 3 to 8) (size 9 to 14) (size 15 to 20)
#    0.000    1.750    1.250    3.000    0.000    8.500 
#    0.000    3.750    0.000    0.000    0.000    1.750 
#    0.000    0.000    0.000    0.000    0.000    0.000 
#
# Total GULP energy -357085.175916 kJ/mol
# GULP energy per Si atom -5579.455874 kJ/mol
# Density = 2.292649 g / cm^3
# Si number density = 22.978792 Si / 1000 Ang^3
#
#
#
# Elastic Constant Matrix: (Units=GPa)
#
#
# Indices 1 2 3 4 5 6 
#
# 1 61.4010 -1.7905 -6.8919 0.0000 0.0000 0.0000
# 2 -1.7905 53.0219 -6.7400 0.0000 0.0000 0.0000
# 3 -6.8919 -6.7400 106.0698 0.0000 0.0000 0.0000
# 4 0.0000 0.0000 0.0000 2.8274 0.0000 0.0000
# 5 0.0000 0.0000 0.0000 0.0000 37.4255 0.0000
# 6 0.0000 0.0000 0.0000 0.0000 0.0000 15.4598
#
#
#
# Elastic Compliance Matrix: (Units=1/GPa)
#
#
# Indices 1 2 3 4 5 6 
#
# 1 0.016431 0.000696 0.001112 0.000000 0.000000 0.000000
# 2 0.000696 0.019043 0.001255 0.000000 0.000000 0.000000
# 3 0.001112 0.001255 0.009580 0.000000 0.000000 0.000000
# 4 0.000000 0.000000 0.000000 0.353688 0.000000 0.000000
# 5 0.000000 0.000000 0.000000 0.000000 0.026720 0.000000
# 6 0.000000 0.000000 0.000000 0.000000 0.000000 0.064684
#
#
# Mechanical properties :
#
#
# Convention : Reuss Voigt Hill
#
# Bulk Modulus (GPa) = 19.53839 21.07198 20.30519
# Shear Modulus (GPa) = 9.97846 26.87021 18.42434
#
# Velocity S-wave (km/s) = 2.08612 3.42328 2.83467
# Velocity P-wave (km/s) = 3.78468 4.98149 4.42374
#
# Compressibility (1/GPa) = 0.05118128
#
# Stress axis : x y z
#
# Youngs Moduli (GPa) = 60.85880 52.51210 104.38666
#
# Poissons Ratio (x) = -0.03656 -0.11607
# Poissons Ratio (y) = -0.04237 -0.13104
# Poissons Ratio (z) = -0.06767 -0.06592
#
# Static dielectric constant tensor:
#      x y z
#    x 1.479820 0.000000 0.000000 
#    y 0.000000 1.852410 0.000000 
#    z 0.000000 0.000000 2.057430 
# 
# From -- ./inp_files/19357.got.cif
#   From: 2010.05.17/outbox.cif.g08.bks.cpg/sg59_10_cif.got.tgz:19357.got - 2010.06.03 14:40:33.
