data_PCOD9448039
_publ_section_title
;
Structure prediction by ZEFSAII (Michael W. Deem and Ramdas Pophale) SiO2 
 PCOD9448039
Probable space group: P M M N
;
_chemical_formula_sum "Si O2"
_cell_formula_units_Z 64
_cell_length_a 17.553679
_cell_length_b 9.011057
_cell_length_c 20.969438
_cell_angle_alpha 90.000000
_cell_angle_beta 90.000000
_cell_angle_gamma 90.000000
_cell_volume 3316.887031
_symmetry_space_group_name_H-M "P M M N"
_symmetry_group_IT_number 59
_space_group.IT_coordinate_system_code '2'
_symmetry_cell_setting 'orthorhombic'
loop_
_space_group_symop_operation_xyz
x,y,z
1/2-x,1/2-y,z
1/2+x,-y,-z
-x,1/2+y,-z
-x,-y,-z
1/2+x,1/2+y,-z
1/2-x,y,z
x,1/2-y,z
loop_
_atom_site_type_symbol
_atom_site_label
_atom_site_fract_x
_atom_site_fract_y
_atom_site_fract_z
Si Si1 0.382217 0.927689 0.383686
Si Si2 0.056973 0.076813 0.881523
Si Si3 0.872437 0.920773 0.747184
Si Si4 0.374601 0.573963 0.122638
Si Si5 0.666087 0.428487 0.018521
Si Si6 0.557926 0.080718 0.246359
Si Si7 0.049690 0.571503 0.611692
Si Si8 0.663658 0.575242 0.487576
O O1 0.379868 0.750000 0.386500
O O2 0.352186 0.985502 0.315407
O O3 0.469023 0.987437 0.391029
O O4 0.339565 0.002521 0.442657
O O5 0.071348 0.250000 0.888766
O O6 0.965912 0.052957 0.883973
O O7 0.100437 0.991901 0.937150
O O8 0.082488 0.021626 0.811729
O O9 0.848898 0.750000 0.740270
O O10 0.965378 0.923367 0.749875
O O11 0.847147 0.989669 0.814325
O O12 0.360179 0.750000 0.130822
O O13 0.340925 0.523868 0.055220
O O14 0.750000 0.470244 0.042875
O O15 0.660136 0.250000 0.018244
O O16 0.580000 0.250000 0.231978
O O17 0.583666 0.041704 0.317678
O O18 0.037865 0.750000 0.606574
O O19 0.104748 0.510592 0.557386
O O20 0.750000 0.562767 0.462827
O O21 0.643806 0.750000 0.491521
#
# Coordination Sequence:
#
# PCOD9448039 Si02
#       8
#     8   8   8   8   8   8   8   8
#     4  11  21  35  58  84 111 143 180 221 265 317
#     4  10  19  31  52  79 104 131 167 215 263 308
#     4   9  17  31  53  81 109 136 171 216 265 313
#     4   9  18  33  53  78 104 133 172 215 262 312
#     4  10  21  36  52  71 101 140 177 213 255 308
#     4   8  16  31  52  78 106 135 168 210 258 310
#     4  10  20  36  59  85 111 140 178 222 268 320
#     4  11  24  40  56  77 109 146 183 225 271 318
#
# _framework density 19.295200000000001
#
# number of rings (size 3 to 8) (size 9 to 14) (size 15 to 20)
#    0.000    2.250    0.000    4.125    0.000    5.750 
#    0.000    1.250    0.000    3.000    0.000    0.000 
#    0.000    0.000    0.000    0.000    0.000    0.000 
#
# Total GULP energy -357315.926407 kJ/mol
# GULP energy per Si atom -5583.061350 kJ/mol
# Density = 1.925128 g / cm^3
# Si number density = 19.295200 Si / 1000 Ang^3
#
#
#
# Elastic Constant Matrix: (Units=GPa)
#
#
# Indices 1 2 3 4 5 6 
#
# 1 31.2015 27.9771 27.2493 0.0000 0.0000 0.0000
# 2 27.9771 78.6637 38.5009 0.0000 0.0000 0.0000
# 3 27.2493 38.5009 101.5494 0.0000 0.0000 0.0000
# 4 0.0000 0.0000 0.0000 36.8901 0.0000 0.0000
# 5 0.0000 0.0000 0.0000 0.0000 -24.2687 0.0000
# 6 0.0000 0.0000 0.0000 0.0000 0.0000 5.3253
#
#
#
# Elastic Compliance Matrix: (Units=1/GPa)
#
#
# Indices 1 2 3 4 5 6 
#
# 1 0.052551 -0.014474 -0.008614 0.000000 0.000000 0.000000
# 2 -0.014474 0.019595 -0.003545 0.000000 0.000000 0.000000
# 3 -0.008614 -0.003545 0.013503 0.000000 0.000000 0.000000
# 4 0.000000 0.000000 0.000000 0.027108 0.000000 0.000000
# 5 0.000000 0.000000 0.000000 0.000000 -0.041205 0.000000
# 6 0.000000 0.000000 0.000000 0.000000 0.000000 0.187783
#
#
# Mechanical properties :
#
#
# Convention : Reuss Voigt Hill
#
# Bulk Modulus (GPa) = 30.88054 44.31879 37.59967
# Shear Modulus (GPa) = 15.46099 11.43515 13.44807
#
# Velocity S-wave (km/s) = 2.83377 2.43707 2.64287
# Velocity P-wave (km/s) = 5.17166 5.56217 5.37046
#
# Compressibility (1/GPa) = 0.03238286
#
# Stress axis : x y z
#
# Youngs Moduli (GPa) = 19.02928 51.03248 74.05809
#
# Poissons Ratio (x) = 0.73865 0.63790
# Poissons Ratio (y) = 0.27543 0.26256
# Poissons Ratio (z) = 0.16391 0.18093
#
# Static dielectric constant tensor:
#      x y z
#    x 1.672670 0.000000 0.000000 
#    y 0.000000 1.645650 0.000000 
#    z 0.000000 0.000000 1.668680 
# 
# From -- ./inp_files/30709.got.cif
#   From: 2010.05.17/outbox.cif.g08.bks.cpg/sg59_16_cif.got.tgz:30709.got - 2010.06.03 14:40:33.
