data_PCOD9448456
_publ_section_title
;
Structure prediction by ZEFSAII (Michael W. Deem and Ramdas Pophale) SiO2 
 PCOD9448456
Probable space group: P M M N
;
_chemical_formula_sum "Si O2"
_cell_formula_units_Z 46
_cell_length_a 11.879323
_cell_length_b 21.402746
_cell_length_c 9.458930
_cell_angle_alpha 90.000000
_cell_angle_beta 90.000000
_cell_angle_gamma 90.000000
_cell_volume 2404.934209
_symmetry_space_group_name_H-M "P M M N"
_symmetry_group_IT_number 59
_space_group.IT_coordinate_system_code '2'
_symmetry_cell_setting 'orthorhombic'
loop_
_space_group_symop_operation_xyz
x,y,z
1/2-x,1/2-y,z
1/2+x,-y,-z
-x,1/2+y,-z
-x,-y,-z
1/2+x,1/2+y,-z
1/2-x,y,z
x,1/2-y,z
loop_
_atom_site_type_symbol
_atom_site_label
_atom_site_fract_x
_atom_site_fract_y
_atom_site_fract_z
Si Si1 0.382090 0.870606 0.193080
Si Si2 0.997841 0.250000 0.302725
Si Si3 0.623760 0.058781 0.379380
Si Si4 0.880414 0.250000 0.603644
Si Si5 0.551989 0.918716 0.388008
Si Si6 0.250000 0.250000 0.343037
Si Si7 0.618751 0.358112 0.129425
Si Si8 0.750000 0.678038 0.383799
O O1 0.250000 0.887453 0.191225
O O2 0.394322 0.810000 0.294509
O O3 0.460775 0.922182 0.263087
O O4 0.419004 0.858405 0.032431
O O5 0.130306 0.250000 0.271066
O O6 0.964625 0.250000 0.469730
O O7 0.944363 0.190669 0.227126
O O8 0.750000 0.080409 0.422958
O O9 0.525259 0.089830 0.472479
O O10 0.610542 0.077131 0.215371
O O11 0.614111 0.984776 0.401739
O O12 0.750000 0.250000 0.550885
O O13 0.639740 0.863425 0.355013
O O14 0.250000 0.309356 0.448180
O O15 0.750000 0.339987 0.125608
O O16 0.750000 0.750000 0.324933
#
# Coordination Sequence:
#
# PCOD9448456 Si02
#       8
#     8   4   8   4   8   2   8   4
#     4  10  21  36  56  86 115 150 193 245 302 360
#     4  12  21  37  58  86 116 154 194 239 303 354
#     4  10  21  38  60  89 117 152 204 253 300 358
#     4  10  19  32  57  85 111 139 189 244 293 352
#     4  11  21  37  62  85 118 157 201 249 298 354
#     4  10  22  32  54  78 118 148 188 234 280 358
#     4  10  21  37  59  83 117 151 191 248 306 354
#     4  10  22  38  57  90 121 159 196 244 301 358
#
# _framework density 19.127343
#
# number of rings (size 3 to 8) (size 9 to 14) (size 15 to 20)
#    0.261    1.391    0.870    4.957    1.217    4.870 
#    0.000    0.870    0.000    0.000    0.000    0.000 
#    0.000    0.000    0.000    0.000    0.000    0.000 
#
# Total GULP energy -256573.532011 kJ/mol
# GULP energy per Si atom -5577.685479 kJ/mol
# Density = 1.908381 g / cm^3
# Si number density = 19.127343 Si / 1000 Ang^3
#
#
#
# Elastic Constant Matrix: (Units=GPa)
#
#
# Indices 1 2 3 4 5 6 
#
# 1 87.8013 22.9448 36.7861 0.0000 0.0000 0.0000
# 2 22.9448 46.9047 13.3738 0.0000 0.0000 0.0000
# 3 36.7861 13.3738 111.7425 0.0000 0.0000 0.0000
# 4 0.0000 0.0000 0.0000 18.2169 0.0000 0.0000
# 5 0.0000 0.0000 0.0000 0.0000 8.1544 0.0000
# 6 0.0000 0.0000 0.0000 0.0000 0.0000 11.3339
#
#
#
# Elastic Compliance Matrix: (Units=1/GPa)
#
#
# Indices 1 2 3 4 5 6 
#
# 1 0.014684 -0.006010 -0.004115 0.000000 0.000000 0.000000
# 2 -0.006010 0.024533 -0.000958 0.000000 0.000000 0.000000
# 3 -0.004115 -0.000958 0.010418 0.000000 0.000000 0.000000
# 4 0.000000 0.000000 0.000000 0.054894 0.000000 0.000000
# 5 0.000000 0.000000 0.000000 0.000000 0.122633 0.000000
# 6 0.000000 0.000000 0.000000 0.000000 0.000000 0.088231
#
#
# Mechanical properties :
#
#
# Convention : Reuss Voigt Hill
#
# Bulk Modulus (GPa) = 36.40272 43.62866 40.01569
# Shear Modulus (GPa) = 14.42109 19.09729 16.75919
#
# Velocity S-wave (km/s) = 2.74880 3.16322 2.96326
# Velocity P-wave (km/s) = 5.39885 6.01667 5.71612
#
# Compressibility (1/GPa) = 0.02747047
#
# Stress axis : x y z
#
# Youngs Moduli (GPa) = 68.10226 40.76178 95.98460
#
# Poissons Ratio (x) = 0.24497 0.39495
# Poissons Ratio (y) = 0.40928 0.09193
# Poissons Ratio (z) = 0.28022 0.03904
#
# Static dielectric constant tensor:
#      x y z
#    x 1.692630 0.000000 0.000000 
#    y 0.000000 1.710280 0.000000 
#    z 0.000000 0.000000 1.651390 
# 
# From -- ./inp_files/7631.got.cif
#   From: 2010.05.17/outbox.cif.g08.bks.cpg/sg59_4_cif.got.tgz:7631.got - 2010.06.03 14:40:33.
