data_PCOD9448754
_publ_section_title
;
Structure prediction by ZEFSAII (Michael W. Deem and Ramdas Pophale) SiO2 
 PCOD9448754
Probable space group: P M M N
;
_chemical_formula_sum "Si O2"
_cell_formula_units_Z 48
_cell_length_a 8.296892
_cell_length_b 19.706809
_cell_length_c 15.606396
_cell_angle_alpha 90.000000
_cell_angle_beta 90.000000
_cell_angle_gamma 90.000000
_cell_volume 2551.727928
_symmetry_space_group_name_H-M "P M M N"
_symmetry_group_IT_number 59
_space_group.IT_coordinate_system_code '2'
_symmetry_cell_setting 'orthorhombic'
loop_
_space_group_symop_operation_xyz
x,y,z
1/2-x,1/2-y,z
1/2+x,-y,-z
-x,1/2+y,-z
-x,-y,-z
1/2+x,1/2+y,-z
1/2-x,y,z
x,1/2-y,z
loop_
_atom_site_type_symbol
_atom_site_label
_atom_site_fract_x
_atom_site_fract_y
_atom_site_fract_z
Si Si1 0.946940 0.672125 0.392542
Si Si2 0.444927 0.428847 0.459936
Si Si3 0.057383 0.827564 0.873365
Si Si4 0.055394 0.171845 0.937564
Si Si5 0.942665 0.564339 0.735111
Si Si6 0.055016 0.413223 0.774089
O O1 0.750000 0.672789 0.391934
O O2 0.000770 0.750000 0.390533
O O3 0.998632 0.631553 0.477291
O O4 0.998222 0.630293 0.308564
O O5 0.500000 0.500000 0.500000
O O6 0.250000 0.428320 0.459291
O O7 0.502357 0.423142 0.362096
O O8 0.250000 0.826609 0.872771
O O9 0.998309 0.750000 0.859934
O O10 0.998591 0.878188 0.800563
O O11 0.000845 0.849211 0.968100
O O12 0.250000 0.171792 0.936693
O O13 0.002359 0.250000 0.923192
O O14 0.999256 0.123315 0.861145
O O15 0.750000 0.564504 0.732909
O O16 0.999414 0.490257 0.764971
O O17 0.250000 0.412712 0.774298
#
# Coordination Sequence:
#
# PCOD9448754 Si02
#       6
#     8   8   8   8   8   8
#     4   9  17  31  54  83 110 140 182 227 271 326
#     4  10  20  35  56  80 109 147 185 226 274 326
#     4  10  22  40  60  81 107 144 187 230 279 333
#     4   9  18  34  57  84 112 143 182 230 282 332
#     4  11  23  36  55  83 113 149 187 228 277 328
#     4  10  19  33  56  83 112 147 182 225 277 332
#
# _framework density 18.810784000000002
#
# number of rings (size 3 to 8) (size 9 to 14) (size 15 to 20)
#    0.000    2.167    1.667    1.500    0.000    5.667 
#    0.000    1.667    0.000    3.000    0.000    0.000 
#    0.000    0.000    0.000    0.000    0.000    0.000 
#
# Total GULP energy -267984.145060 kJ/mol
# GULP energy per Si atom -5583.003022 kJ/mol
# Density = 1.876797 g / cm^3
# Si number density = 18.810784 Si / 1000 Ang^3
#
#
#
# Elastic Constant Matrix: (Units=GPa)
#
#
# Indices 1 2 3 4 5 6 
#
# 1 11.9406 14.6203 24.2268 0.0000 0.0000 0.0000
# 2 14.6203 148.6266 124.5062 0.0000 0.0000 0.0000
# 3 24.2268 124.5062 218.1102 0.0000 0.0000 0.0000
# 4 0.0000 0.0000 0.0000 42.3803 0.0000 0.0000
# 5 0.0000 0.0000 0.0000 0.0000 16.6663 0.0000
# 6 0.0000 0.0000 0.0000 0.0000 0.0000 20.8754
#
#
#
# Elastic Compliance Matrix: (Units=1/GPa)
#
#
# Indices 1 2 3 4 5 6 
#
# 1 0.108207 -0.001103 -0.011389 0.000000 0.000000 0.000000
# 2 -0.001103 0.012906 -0.007245 0.000000 0.000000 0.000000
# 3 -0.011389 -0.007245 0.009985 0.000000 0.000000 0.000000
# 4 0.000000 0.000000 0.000000 0.023596 0.000000 0.000000
# 5 0.000000 0.000000 0.000000 0.000000 0.060001 0.000000
# 6 0.000000 0.000000 0.000000 0.000000 0.000000 0.047903
#
#
# Mechanical properties :
#
#
# Convention : Reuss Voigt Hill
#
# Bulk Modulus (GPa) = 10.91419 78.37599 44.64509
# Shear Modulus (GPa) = 15.03243 30.33934 22.68589
#
# Velocity S-wave (km/s) = 2.82997 4.02041 3.47652
# Velocity P-wave (km/s) = 4.06116 7.95660 6.31667
#
# Compressibility (1/GPa) = 0.09162382
#
# Stress axis : x y z
#
# Youngs Moduli (GPa) = 9.24154 77.48581 100.14632
#
# Poissons Ratio (x) = 0.08548 1.14061
# Poissons Ratio (y) = 0.01020 0.72551
# Poissons Ratio (z) = 0.10526 0.56135
#
# Static dielectric constant tensor:
#      x y z
#    x 1.658040 0.000000 0.000000 
#    y 0.000000 1.624480 0.000000 
#    z 0.000000 0.000000 1.642030 
# 
# From -- ./inp_files/20305.got.cif
#   From: 2010.05.17/outbox.cif.g08.bks.cpg/sg59_11_cif.got.tgz:20305.got - 2010.06.03 14:40:33.
