data_PCOD9448037
_publ_section_title
;
Structure prediction by ZEFSAII (Michael W. Deem and Ramdas Pophale) SiO2 
 PCOD9448037
Probable space group: P M M N
;
_chemical_formula_sum "Si O2"
_cell_formula_units_Z 48
_cell_length_a 19.622175
_cell_length_b 7.519163
_cell_length_c 15.038972
_cell_angle_alpha 90.000000
_cell_angle_beta 90.000000
_cell_angle_gamma 90.000000
_cell_volume 2218.885003
_symmetry_space_group_name_H-M "P M M N"
_symmetry_group_IT_number 59
_space_group.IT_coordinate_system_code '2'
_symmetry_cell_setting 'orthorhombic'
loop_
_space_group_symop_operation_xyz
x,y,z
1/2-x,1/2-y,z
1/2+x,-y,-z
-x,1/2+y,-z
-x,-y,-z
1/2+x,1/2+y,-z
1/2-x,y,z
x,1/2-y,z
loop_
_atom_site_type_symbol
_atom_site_label
_atom_site_fract_x
_atom_site_fract_y
_atom_site_fract_z
Si Si1 0.828439 0.967763 0.475551
Si Si2 0.916143 0.964880 0.643813
Si Si3 0.100855 0.465487 0.155206
Si Si4 0.048560 0.953852 0.877157
Si Si5 0.569557 0.541296 0.324109
Si Si6 0.824467 0.040446 0.016379
O O1 0.750000 0.023845 0.473034
O O2 0.829193 0.750000 0.475563
O O3 0.867506 0.025903 0.564754
O O4 0.872409 0.025486 0.390436
O O5 0.915103 0.750000 0.643818
O O6 0.893419 0.024005 0.742482
O O7 0.994852 0.019228 0.632453
O O8 0.098910 0.250000 0.156162
O O9 0.158944 0.522708 0.087763
O O10 0.027469 0.531998 0.118384
O O11 0.041844 0.750000 0.907878
O O12 0.066779 0.953978 0.772642
O O13 0.110673 0.037603 0.931384
O O14 0.580978 0.750000 0.308671
O O15 0.750000 0.965031 0.037362
O O16 0.822178 0.250000 0.038826
#
# Coordination Sequence:
#
# PCOD9448037 Si02
#       6
#     8   8   8   8   8   8
#     4   9  18  32  50  74 104 136 168 202 243 293
#     4   9  18  34  55  75  98 132 169 203 244 296
#     4   9  18  32  52  76  97 125 168 210 243 283
#     4   9  19  36  54  72  98 132 169 204 242 296
#     4  10  19  31  52  79 102 127 164 211 253 286
#     4  10  21  35  51  73 102 134 163 198 250 302
#
# _framework density 21.632484999999999
#
# number of rings (size 3 to 8) (size 9 to 14) (size 15 to 20)
#    0.000    2.667    0.000    2.500    0.000    5.000 
#    0.000    2.500    0.000    4.000    0.000    0.000 
#    0.000    0.000    0.000    0.000    0.000    0.000 
#
# Total GULP energy -268005.583951 kJ/mol
# GULP energy per Si atom -5583.449666 kJ/mol
# Density = 2.158325 g / cm^3
# Si number density = 21.632485 Si / 1000 Ang^3
#
#
#
# Elastic Constant Matrix: (Units=GPa)
#
#
# Indices 1 2 3 4 5 6 
#
# 1 94.3630 -9.9434 49.1516 0.0000 0.0000 0.0000
# 2 -9.9434 58.8796 -6.3804 0.0000 0.0000 0.0000
# 3 49.1516 -6.3804 65.0258 0.0000 0.0000 0.0000
# 4 0.0000 0.0000 0.0000 22.6026 0.0000 0.0000
# 5 0.0000 0.0000 0.0000 0.0000 8.7093 0.0000
# 6 0.0000 0.0000 0.0000 0.0000 0.0000 12.0946
#
#
#
# Elastic Compliance Matrix: (Units=1/GPa)
#
#
# Indices 1 2 3 4 5 6 
#
# 1 0.017618 0.001549 -0.013165 0.000000 0.000000 0.000000
# 2 0.001549 0.017302 0.000527 0.000000 0.000000 0.000000
# 3 -0.013165 0.000527 0.025381 0.000000 0.000000 0.000000
# 4 0.000000 0.000000 0.000000 0.044243 0.000000 0.000000
# 5 0.000000 0.000000 0.000000 0.000000 0.114820 0.000000
# 6 0.000000 0.000000 0.000000 0.000000 0.000000 0.082681
#
#
# Mechanical properties :
#
#
# Convention : Reuss Voigt Hill
#
# Bulk Modulus (GPa) = 26.23069 31.54712 28.88890
# Shear Modulus (GPa) = 14.83979 21.04400 17.94190
#
# Velocity S-wave (km/s) = 2.62199 3.12235 2.88305
# Velocity P-wave (km/s) = 4.61718 5.25487 4.94631
#
# Compressibility (1/GPa) = 0.03812328
#
# Stress axis : x y z
#
# Youngs Moduli (GPa) = 56.76028 57.79521 39.39890
#
# Poissons Ratio (x) = -0.08951 0.51869
# Poissons Ratio (y) = -0.08790 -0.02077
# Poissons Ratio (z) = 0.74725 -0.03047
#
# Static dielectric constant tensor:
#      x y z
#    x 1.774930 0.000000 0.000000 
#    y 0.000000 1.800030 0.000000 
#    z 0.000000 0.000000 1.767500 
# 
# From -- ./inp_files/20285.got.cif
#   From: 2010.05.17/outbox.cif.g08.bks.cpg/sg59_11_cif.got.tgz:20285.got - 2010.06.03 14:40:33.
