data_PCOD9448830
_publ_section_title
;
Structure prediction by ZEFSAII (Michael W. Deem and Ramdas Pophale) SiO2 
 PCOD9448830
Probable space group: P M M N
;
_chemical_formula_sum "Si O2"
_cell_formula_units_Z 64
_cell_length_a 7.499221
_cell_length_b 24.594157
_cell_length_c 15.146474
_cell_angle_alpha 90.000000
_cell_angle_beta 90.000000
_cell_angle_gamma 90.000000
_cell_volume 2793.570508
_symmetry_space_group_name_H-M "P M M N"
_symmetry_group_IT_number 59
_space_group.IT_coordinate_system_code '2'
_symmetry_cell_setting 'orthorhombic'
loop_
_space_group_symop_operation_xyz
x,y,z
1/2-x,1/2-y,z
1/2+x,-y,-z
-x,1/2+y,-z
-x,-y,-z
1/2+x,1/2+y,-z
1/2-x,y,z
x,1/2-y,z
loop_
_atom_site_type_symbol
_atom_site_label
_atom_site_fract_x
_atom_site_fract_y
_atom_site_fract_z
Si Si1 0.963276 0.872107 0.804324
Si Si2 0.963753 0.496017 0.215552
Si Si3 0.531279 0.812040 0.979740
Si Si4 0.042059 0.808383 0.251948
Si Si5 0.532292 0.811980 0.632109
Si Si6 0.466028 0.347701 0.561442
Si Si7 0.536693 0.970069 0.408043
Si Si8 0.547779 0.898136 0.122671
O O1 0.750000 0.866428 0.802422
O O2 0.030611 0.851774 0.709379
O O3 0.001612 0.935500 0.817976
O O4 0.024669 0.833574 0.883640
O O5 0.750000 0.503407 0.218208
O O6 0.030372 0.503116 0.316842
O O7 0.033989 0.544577 0.152925
O O8 0.750000 0.811284 0.983401
O O9 0.473188 0.750000 0.996455
O O10 0.468773 0.857531 0.049644
O O11 0.250000 0.811798 0.228824
O O12 0.971060 0.750000 0.220044
O O13 0.024519 0.811323 0.356990
O O14 0.948502 0.860166 0.209550
O O15 0.750000 0.813777 0.630725
O O16 0.481490 0.750000 0.651556
O O17 0.472586 0.828857 0.534618
O O18 0.250000 0.347265 0.560251
O O19 0.529170 0.408565 0.582296
O O20 0.750000 0.967785 0.400230
O O21 0.500000 0.000000 0.500000
O O22 0.750000 0.909719 0.092586
#
# Coordination Sequence:
#
# PCOD9448830 Si02
#       8
#     8   8   8   8   8   8   8   8
#     4  10  20  35  57  84 113 144 183 230 280 332
#     4  10  21  37  54  78 114 149 187 231 276 329
#     4   9  18  34  60  91 114 138 182 235 281 327
#     4  11  23  36  52  80 115 145 177 226 284 333
#     4   9  17  30  52  81 110 141 182 233 279 323
#     4  10  19  34  54  77 105 145 192 227 268 331
#     4  10  20  34  52  77 109 147 191 236 276 325
#     4  10  20  38  61  82 109 148 189 228 271 330
#
# _framework density 22.909751
#
# number of rings (size 3 to 8) (size 9 to 14) (size 15 to 20)
#    0.000    2.125    1.250    2.250    0.000    6.500 
#    0.000    1.250    0.000    3.000    0.000    0.000 
#    0.000    0.000    0.000    0.000    0.000    0.000 
#
# Total GULP energy -357609.468778 kJ/mol
# GULP energy per Si atom -5587.647950 kJ/mol
# Density = 2.285761 g / cm^3
# Si number density = 22.909751 Si / 1000 Ang^3
#
#
#
# Elastic Constant Matrix: (Units=GPa)
#
#
# Indices 1 2 3 4 5 6 
#
# 1 64.2200 -6.1742 0.2975 0.0000 0.0000 0.0000
# 2 -6.1742 115.3725 30.3132 0.0000 0.0000 0.0000
# 3 0.2975 30.3132 89.1246 0.0000 0.0000 0.0000
# 4 0.0000 0.0000 0.0000 33.9581 0.0000 0.0000
# 5 0.0000 0.0000 0.0000 0.0000 21.6184 0.0000
# 6 0.0000 0.0000 0.0000 0.0000 0.0000 -35.1467
#
#
#
# Elastic Compliance Matrix: (Units=1/GPa)
#
#
# Indices 1 2 3 4 5 6 
#
# 1 0.015663 0.000936 -0.000370 0.000000 0.000000 0.000000
# 2 0.000936 0.009574 -0.003259 0.000000 0.000000 0.000000
# 3 -0.000370 -0.003259 0.012330 0.000000 0.000000 0.000000
# 4 0.000000 0.000000 0.000000 0.029448 0.000000 0.000000
# 5 0.000000 0.000000 0.000000 0.000000 0.046257 0.000000
# 6 0.000000 0.000000 0.000000 0.000000 0.000000 -0.028452
#
#
# Mechanical properties :
#
#
# Convention : Reuss Voigt Hill
#
# Bulk Modulus (GPa) = 31.07667 35.28781 33.18224
# Shear Modulus (GPa) = 49.53678 20.37131 34.95405
#
# Velocity S-wave (km/s) = 4.65505 2.98518 3.91029
# Velocity P-wave (km/s) = 6.51820 5.22667 5.90784
#
# Compressibility (1/GPa) = 0.03217848
#
# Stress axis : x y z
#
# Youngs Moduli (GPa) = 63.84415 104.44910 81.10233
#
# Poissons Ratio (x) = -0.09772 0.03005
# Poissons Ratio (y) = -0.05973 0.26435
# Poissons Ratio (z) = 0.02365 0.34045
#
# Static dielectric constant tensor:
#      x y z
#    x 1.924910 0.000000 0.000000 
#    y 0.000000 1.788940 0.000000 
#    z 0.000000 0.000000 1.849900 
# 
# From -- ./inp_files/21527.got.cif
#   From: 2010.05.17/outbox.cif.g08.bks.cpg/sg59_11_cif.got.tgz:21527.got - 2010.06.03 14:40:33.
