data_PCOD9448405
_publ_section_title
;
Structure prediction by ZEFSAII (Michael W. Deem and Ramdas Pophale) SiO2 
 PCOD9448405
Probable space group: P M M N
;
_chemical_formula_sum "Si O2"
_cell_formula_units_Z 56
_cell_length_a 14.934573
_cell_length_b 9.286976
_cell_length_c 21.994853
_cell_angle_alpha 90.000000
_cell_angle_beta 90.000000
_cell_angle_gamma 90.000000
_cell_volume 3050.620589
_symmetry_space_group_name_H-M "P M M N"
_symmetry_group_IT_number 59
_space_group.IT_coordinate_system_code '2'
_symmetry_cell_setting 'orthorhombic'
loop_
_space_group_symop_operation_xyz
x,y,z
1/2-x,1/2-y,z
1/2+x,-y,-z
-x,1/2+y,-z
-x,-y,-z
1/2+x,1/2+y,-z
1/2-x,y,z
x,1/2-y,z
loop_
_atom_site_type_symbol
_atom_site_label
_atom_site_fract_x
_atom_site_fract_y
_atom_site_fract_z
Si Si1 0.350549 0.581080 0.682252
Si Si2 0.144237 0.578254 0.996221
Si Si3 0.892418 0.084557 0.559767
Si Si4 0.509689 0.921746 0.093928
Si Si5 0.109151 0.085301 0.559186
Si Si6 0.495018 0.422625 0.222804
Si Si7 0.646178 0.417280 0.696780
O O1 0.250000 0.562732 0.705717
O O2 0.364715 0.750000 0.668214
O O3 0.361209 0.494788 0.619965
O O4 0.421785 0.539696 0.733195
O O5 0.250000 0.541839 0.002607
O O6 0.139154 0.750000 0.982719
O O7 0.082828 0.553990 0.056122
O O8 0.091988 0.489244 0.944410
O O9 0.862833 0.250000 0.552586
O O10 0.863423 0.034547 0.626562
O O11 0.000604 0.082543 0.559409
O O12 0.861006 0.992302 0.502602
O O13 0.521072 0.750000 0.100382
O O14 0.503785 0.999805 0.158402
O O15 0.138332 0.250000 0.559980
O O16 0.491764 0.250000 0.215555
O O17 0.409674 0.483231 0.258708
O O18 0.750000 0.418157 0.713228
O O19 0.613835 0.250000 0.699300
#
# Coordination Sequence:
#
# PCOD9448405 Si02
#       7
#     8   8   8   8   8   8   8
#     4  10  22  39  57  77 105 146 192 235 286 346
#     4   9  19  38  63  90 121 156 193 233 277 328
#     4   9  18  33  53  78 109 143 181 226 286 352
#     4  10  21  37  60  90 122 156 194 233 281 333
#     4  10  19  32  54  81 108 138 180 234 290 344
#     4  11  23  39  59  83 116 154 193 237 284 334
#     4  10  21  38  59  81 108 147 192 237 288 345
#
# _framework density 18.356919999999999
#
# number of rings (size 3 to 8) (size 9 to 14) (size 15 to 20)
#    0.000    2.143    1.429    1.286    0.000    4.857 
#    0.000    4.286    0.000    0.000    0.000    0.000 
#    0.000    0.000    0.000    0.000    0.000    0.000 
#
# Total GULP energy -312619.408215 kJ/mol
# GULP energy per Si atom -5582.489432 kJ/mol
# Density = 1.831514 g / cm^3
# Si number density = 18.356920 Si / 1000 Ang^3
#
#
#
# Elastic Constant Matrix: (Units=GPa)
#
#
# Indices 1 2 3 4 5 6 
#
# 1 104.2267 48.4658 53.3305 0.0000 0.0000 0.0000
# 2 48.4658 70.8427 77.3964 0.0000 0.0000 0.0000
# 3 53.3305 77.3964 148.6398 0.0000 0.0000 0.0000
# 4 0.0000 0.0000 0.0000 28.8941 0.0000 0.0000
# 5 0.0000 0.0000 0.0000 0.0000 648.7835 0.0000
# 6 0.0000 0.0000 0.0000 0.0000 0.0000 21.5438
#
#
#
# Elastic Compliance Matrix: (Units=1/GPa)
#
#
# Indices 1 2 3 4 5 6 
#
# 1 0.014071 -0.009535 -0.000084 0.000000 0.000000 0.000000
# 2 -0.009535 0.039202 -0.016991 0.000000 0.000000 0.000000
# 3 -0.000084 -0.016991 0.015605 0.000000 0.000000 0.000000
# 4 0.000000 0.000000 0.000000 0.034609 0.000000 0.000000
# 5 0.000000 0.000000 0.000000 0.000000 0.001541 0.000000
# 6 0.000000 0.000000 0.000000 0.000000 0.000000 0.046417
#
#
# Mechanical properties :
#
#
# Convention : Reuss Voigt Hill
#
# Bulk Modulus (GPa) = 63.86458 75.78829 69.82643
# Shear Modulus (GPa) = 23.82245 149.47872 86.65058
#
# Velocity S-wave (km/s) = 3.60632 9.03360 6.87791
# Velocity P-wave (km/s) = 7.22542 12.25493 10.05958
#
# Compressibility (1/GPa) = 0.01565813
#
# Stress axis : x y z
#
# Youngs Moduli (GPa) = 71.06748 25.50868 64.08153
#
# Poissons Ratio (x) = 0.24323 0.00536
# Poissons Ratio (y) = 0.67763 1.08884
# Poissons Ratio (z) = 0.00595 0.43343
#
# Static dielectric constant tensor:
#      x y z
#    x 1.648970 0.000000 0.000000 
#    y 0.000000 1.620760 0.000000 
#    z 0.000000 0.000000 1.596660 
# 
# From -- ./inp_files/28983.got.cif
#   From: 2010.05.17/outbox.cif.g08.bks.cpg/sg59_15_cif.got.tgz:28983.got - 2010.06.03 14:40:33.
