data_PCOD9448586
_publ_section_title
;
Structure prediction by ZEFSAII (Michael W. Deem and Ramdas Pophale) SiO2 
 PCOD9448586
Probable space group: P M M N
;
_chemical_formula_sum "Si O2"
_cell_formula_units_Z 64
_cell_length_a 20.131006
_cell_length_b 18.185113
_cell_length_c 10.084548
_cell_angle_alpha 90.000000
_cell_angle_beta 90.000000
_cell_angle_gamma 90.000000
_cell_volume 3691.797911
_symmetry_space_group_name_H-M "P M M N"
_symmetry_group_IT_number 59
_space_group.IT_coordinate_system_code '2'
_symmetry_cell_setting 'orthorhombic'
loop_
_space_group_symop_operation_xyz
x,y,z
1/2-x,1/2-y,z
1/2+x,-y,-z
-x,1/2+y,-z
-x,-y,-z
1/2+x,1/2+y,-z
1/2-x,y,z
x,1/2-y,z
loop_
_atom_site_type_symbol
_atom_site_label
_atom_site_fract_x
_atom_site_fract_y
_atom_site_fract_z
Si Si1 0.328783 0.333911 0.015286
Si Si2 0.172894 0.041366 0.826270
Si Si3 0.373606 0.429740 0.263431
Si Si4 0.995033 0.335186 0.318969
Si Si5 0.970309 0.666613 0.386234
Si Si6 0.174105 0.393839 0.549157
Si Si7 0.069027 0.927524 0.891067
Si Si8 0.535744 0.443219 0.822739
O O1 0.250000 0.325510 0.996499
O O2 0.355950 0.250000 0.026388
O O3 0.339199 0.385934 0.143157
O O4 0.355169 0.383159 0.892586
O O5 0.250000 0.039146 0.859911
O O6 0.167238 0.047164 0.667721
O O7 0.137667 0.970603 0.884219
O O8 0.439682 0.381638 0.285995
O O9 0.333641 0.425415 0.401076
O O10 0.399521 0.511406 0.227804
O O11 0.006279 0.250000 0.290598
O O12 0.988219 0.342967 0.476958
O O13 0.938925 0.367467 0.223178
O O14 0.977975 0.750000 0.338470
O O15 0.891958 0.655305 0.424301
O O16 0.000135 0.608568 0.283459
O O17 0.250000 0.362276 0.562785
O O18 0.052669 0.902406 0.039741
O O19 0.016563 0.992407 0.857297
#
# Coordination Sequence:
#
# PCOD9448586 Si02
#       8
#     8   8   8   8   8   8   8   8
#     4  10  20  34  51  72 106 147 180 215 262 315
#     4  10  20  35  51  76 107 139 181 218 263 318
#     4  10  19  33  54  76 107 137 181 220 260 310
#     4   9  20  33  51  77 104 135 171 217 268 320
#     4  10  21  36  52  76 111 147 180 219 272 321
#     4  10  21  34  52  77 107 143 182 218 254 308
#     4  10  19  34  54  76 104 134 178 226 272 312
#     4  10  20  33  52  79 103 139 180 225 267 318
#
# _framework density 17.335726999999999
#
# number of rings (size 3 to 8) (size 9 to 14) (size 15 to 20)
#    0.000    2.125    2.500    0.750    1.750    3.250 
#    0.000    1.250    0.000    0.375    0.000    0.000 
#    0.000    2.000    0.000    0.000    0.000    0.000 
#
# Total GULP energy -356283.360472 kJ/mol
# GULP energy per Si atom -5566.927507 kJ/mol
# Density = 1.729627 g / cm^3
# Si number density = 17.335727 Si / 1000 Ang^3
#
#
#
# Elastic Constant Matrix: (Units=GPa)
#
#
# Indices 1 2 3 4 5 6 
#
# 1 42.6133 27.3046 28.5380 0.0000 0.0000 0.0000
# 2 27.3046 62.8220 44.9546 0.0000 0.0000 0.0000
# 3 28.5380 44.9546 100.7411 0.0000 0.0000 0.0000
# 4 0.0000 0.0000 0.0000 50.1453 0.0000 0.0000
# 5 0.0000 0.0000 0.0000 0.0000 20.8441 0.0000
# 6 0.0000 0.0000 0.0000 0.0000 0.0000 19.1360
#
#
#
# Elastic Compliance Matrix: (Units=1/GPa)
#
#
# Indices 1 2 3 4 5 6 
#
# 1 0.033824 -0.011525 -0.004439 0.000000 0.000000 0.000000
# 2 -0.011525 0.027312 -0.008923 0.000000 0.000000 0.000000
# 3 -0.004439 -0.008923 0.015166 0.000000 0.000000 0.000000
# 4 0.000000 0.000000 0.000000 0.019942 0.000000 0.000000
# 5 0.000000 0.000000 0.000000 0.000000 0.047975 0.000000
# 6 0.000000 0.000000 0.000000 0.000000 0.000000 0.052258
#
#
# Mechanical properties :
#
#
# Convention : Reuss Voigt Hill
#
# Bulk Modulus (GPa) = 37.69503 45.30785 41.50144
# Shear Modulus (GPa) = 19.60070 25.05038 22.32554
#
# Velocity S-wave (km/s) = 3.36617 3.80546 3.59253
# Velocity P-wave (km/s) = 6.07449 6.74544 6.41874
#
# Compressibility (1/GPa) = 0.02652869
#
# Stress axis : x y z
#
# Youngs Moduli (GPa) = 29.56476 36.61364 65.93817
#
# Poissons Ratio (x) = 0.42196 0.29270
# Poissons Ratio (y) = 0.34072 0.58837
# Poissons Ratio (z) = 0.13124 0.32671
#
# Static dielectric constant tensor:
#      x y z
#    x 1.619070 0.000000 0.000000 
#    y 0.000000 1.580100 0.000000 
#    z 0.000000 0.000000 1.636890 
# 
# From -- ./inp_files/11619.got.cif
#   From: 2010.05.17/outbox.cif.g08.bks.cpg/sg59_6_cif.got.tgz:11619.got - 2010.06.03 14:40:33.
