data_PCOD9448075
_publ_section_title
;
Structure prediction by ZEFSAII (Michael W. Deem and Ramdas Pophale) SiO2 
 PCOD9448075
Probable space group: P M M N
;
_chemical_formula_sum "Si O2"
_cell_formula_units_Z 48
_cell_length_a 7.804579
_cell_length_b 34.166567
_cell_length_c 7.276980
_cell_angle_alpha 90.000000
_cell_angle_beta 90.000000
_cell_angle_gamma 90.000000
_cell_volume 1940.447987
_symmetry_space_group_name_H-M "P M M N"
_symmetry_group_IT_number 59
_space_group.IT_coordinate_system_code '2'
_symmetry_cell_setting 'orthorhombic'
loop_
_space_group_symop_operation_xyz
x,y,z
1/2-x,1/2-y,z
1/2+x,-y,-z
-x,1/2+y,-z
-x,-y,-z
1/2+x,1/2+y,-z
1/2-x,y,z
x,1/2-y,z
loop_
_atom_site_type_symbol
_atom_site_label
_atom_site_fract_x
_atom_site_fract_y
_atom_site_fract_z
Si Si1 0.453285 0.122955 0.989054
Si Si2 0.551466 0.042068 0.921976
Si Si3 0.437123 0.456143 0.522378
Si Si4 0.451442 0.291493 0.542116
Si Si5 0.038626 0.125429 0.558752
Si Si6 0.545177 0.292506 0.970636
O O1 0.250000 0.119401 0.002052
O O2 0.526915 0.080647 0.047318
O O3 0.509917 0.125649 0.774196
O O4 0.496750 0.166236 0.063525
O O5 0.750000 0.040509 0.865499
O O6 0.435083 0.047855 0.743043
O O7 0.500000 0.000000 0.000000
O O8 0.500000 0.500000 0.500000
O O9 0.250000 0.455406 0.435958
O O10 0.524953 0.415049 0.470377
O O11 0.250000 0.291050 0.494817
O O12 0.530255 0.250000 0.484057
O O13 0.523061 0.333275 0.480225
O O14 0.465037 0.292513 0.765137
O O15 0.250000 0.124872 0.551603
O O16 0.750000 0.292518 0.950751
O O17 0.493981 0.250000 0.053465
#
# Coordination Sequence:
#
# PCOD9448075 Si02
#       6
#     8   8   8   8   8   8
#     4   9  16  27  41  58  82 114 150 186 226 273
#     4  11  21  34  51  71  95 124 157 195 239 287
#     4  10  19  32  48  68  94 125 160 196 234 277
#     4   8  12  19  32  49  71 103 140 175 215 264
#     4   7  12  22  36  54  78 107 140 179 220 263
#     4   9  15  21  31  51  79 110 144 181 221 267
#
# _framework density 24.736557000000001
#
# number of rings (size 3 to 8) (size 9 to 14) (size 15 to 20)
#    0.000    3.000    0.000    5.000    0.000    1.000 
#    0.000    0.833    0.000    0.000    0.000    0.000 
#    0.000    1.333    0.000    6.667    0.000   17.167 
#
# Total GULP energy -267344.864506 kJ/mol
# GULP energy per Si atom -5569.684677 kJ/mol
# Density = 2.468026 g / cm^3
# Si number density = 24.736557 Si / 1000 Ang^3
#
#
#
# Elastic Constant Matrix: (Units=GPa)
#
#
# Indices 1 2 3 4 5 6 
#
# 1 75.1802 15.0984 -14.7204 0.0000 0.0000 0.0000
# 2 15.0984 351.4871 8.3445 0.0000 0.0000 0.0000
# 3 -14.7204 8.3445 72.1167 0.0000 0.0000 0.0000
# 4 0.0000 0.0000 0.0000 -1.7506 0.0000 0.0000
# 5 0.0000 0.0000 0.0000 0.0000 -2.9343 0.0000
# 6 0.0000 0.0000 0.0000 0.0000 0.0000 30.7364
#
#
#
# Elastic Compliance Matrix: (Units=1/GPa)
#
#
# Indices 1 2 3 4 5 6 
#
# 1 0.014011 -0.000672 0.002938 0.000000 0.000000 0.000000
# 2 -0.000672 0.002885 -0.000471 0.000000 0.000000 0.000000
# 3 0.002938 -0.000471 0.014521 0.000000 0.000000 0.000000
# 4 0.000000 0.000000 0.000000 -0.571243 0.000000 0.000000
# 5 0.000000 0.000000 0.000000 0.000000 -0.340802 0.000000
# 6 0.000000 0.000000 0.000000 0.000000 0.000000 0.032535
#
#
# Mechanical properties :
#
#
# Convention : Reuss Voigt Hill
#
# Bulk Modulus (GPa) = 28.56532 57.35877 42.96204
# Shear Modulus (GPa) = -5.95228 37.88110 15.96441
#
# Velocity S-wave (km/s) = -1.55290 3.91753 2.54318
# Velocity P-wave (km/s) = 2.89094 6.61067 5.10189
#
# Compressibility (1/GPa) = 0.03500748
#
# Stress axis : x y z
#
# Youngs Moduli (GPa) = 71.37014 346.61034 68.86792
#
# Poissons Ratio (x) = 0.23279 -0.20232
# Poissons Ratio (y) = 0.04793 0.03243
# Poissons Ratio (z) = -0.20967 0.16323
#
# Static dielectric constant tensor:
#      x y z
#    x 1.903380 0.000000 0.000000 
#    y 0.000000 2.135800 0.000000 
#    z 0.000000 0.000000 2.333300 
# 
# From -- ./inp_files/14684.got.cif
#   From: 2010.05.17/outbox.cif.g08.bks.cpg/sg59_8_cif.got.tgz:14684.got - 2010.06.03 14:40:33.
