data_PCOD9448580
_publ_section_title
;
Structure prediction by ZEFSAII (Michael W. Deem and Ramdas Pophale) SiO2 
 PCOD9448580
Probable space group: P M M N
;
_chemical_formula_sum "Si O2"
_cell_formula_units_Z 64
_cell_length_a 8.770153
_cell_length_b 20.560951
_cell_length_c 20.544660
_cell_angle_alpha 90.000000
_cell_angle_beta 90.000000
_cell_angle_gamma 90.000000
_cell_volume 3704.668276
_symmetry_space_group_name_H-M "P M M N"
_symmetry_group_IT_number 59
_space_group.IT_coordinate_system_code '2'
_symmetry_cell_setting 'orthorhombic'
loop_
_space_group_symop_operation_xyz
x,y,z
1/2-x,1/2-y,z
1/2+x,-y,-z
-x,1/2+y,-z
-x,-y,-z
1/2+x,1/2+y,-z
1/2-x,y,z
x,1/2-y,z
loop_
_atom_site_type_symbol
_atom_site_label
_atom_site_fract_x
_atom_site_fract_y
_atom_site_fract_z
Si Si1 0.066797 0.580106 0.662405
Si Si2 0.933561 0.677119 0.928862
Si Si3 0.567423 0.438312 0.687289
Si Si4 0.932193 0.545922 0.174093
Si Si5 0.066213 0.675611 0.411283
Si Si6 0.934765 0.566686 0.028848
Si Si7 0.431408 0.606641 0.808018
Si Si8 0.432587 0.174882 0.445692
O O1 0.250000 0.577061 0.659998
O O2 0.023062 0.611170 0.732435
O O3 0.003369 0.506563 0.662998
O O4 0.003729 0.624089 0.604568
O O5 0.750000 0.677198 0.930639
O O6 0.988393 0.750000 0.941698
O O7 0.985464 0.653182 0.858121
O O8 0.986082 0.625662 0.983013
O O9 0.750000 0.443878 0.685609
O O10 0.513633 0.428133 0.761527
O O11 0.520607 0.378376 0.641321
O O12 0.750000 0.554221 0.182193
O O13 0.979572 0.574286 0.104434
O O14 0.961465 0.468249 0.171878
O O15 0.250000 0.672785 0.418123
O O16 0.026202 0.750000 0.392399
O O17 0.992279 0.662334 0.481388
O O18 0.750000 0.562898 0.027500
O O19 0.000000 0.500000 0.000000
O O20 0.250000 0.617380 0.812541
O O21 0.250000 0.169875 0.444313
O O22 0.474725 0.250000 0.429478
#
# Coordination Sequence:
#
# PCOD9448580 Si02
#       8
#     8   8   8   8   8   8   8   8
#     4  10  21  36  54  77 109 144 177 216 264 318
#     4  10  21  34  49  74 106 137 170 213 263 310
#     4  10  20  34  55  82 108 136 175 222 267 314
#     4   9  18  33  52  76 105 133 169 216 262 312
#     4   9  19  37  58  78 104 140 178 217 267 324
#     4  10  19  33  54  76 100 134 176 216 257 310
#     4   9  18  33  51  72  99 133 173 210 250 304
#     4  10  21  36  55  80 107 137 179 225 263 311
#
# _framework density 17.275500000000001
#
# number of rings (size 3 to 8) (size 9 to 14) (size 15 to 20)
#    0.000    2.375    1.250    1.875    0.000    6.000 
#    0.000    3.125    0.000    0.750    0.000    0.000 
#    0.000    0.000    0.000    0.000    0.000    0.000 
#
# Total GULP energy -357016.825182 kJ/mol
# GULP energy per Si atom -5578.387893 kJ/mol
# Density = 1.723618 g / cm^3
# Si number density = 17.275500 Si / 1000 Ang^3
#
#
#
# Elastic Constant Matrix: (Units=GPa)
#
#
# Indices 1 2 3 4 5 6 
#
# 1 25.2334 40.3369 42.1140 0.0000 0.0000 0.0000
# 2 40.3369 130.8611 111.2606 0.0000 0.0000 0.0000
# 3 42.1140 111.2606 152.9951 0.0000 0.0000 0.0000
# 4 0.0000 0.0000 0.0000 24.9462 0.0000 0.0000
# 5 0.0000 0.0000 0.0000 0.0000 30.4466 0.0000
# 6 0.0000 0.0000 0.0000 0.0000 0.0000 18.5660
#
#
#
# Elastic Compliance Matrix: (Units=1/GPa)
#
#
# Indices 1 2 3 4 5 6 
#
# 1 0.085084 -0.016541 -0.011391 0.000000 0.000000 0.000000
# 2 -0.016541 0.023236 -0.012344 0.000000 0.000000 0.000000
# 3 -0.011391 -0.012344 0.018649 0.000000 0.000000 0.000000
# 4 0.000000 0.000000 0.000000 0.040086 0.000000 0.000000
# 5 0.000000 0.000000 0.000000 0.000000 0.032844 0.000000
# 6 0.000000 0.000000 0.000000 0.000000 0.000000 0.053862
#
#
# Mechanical properties :
#
#
# Convention : Reuss Voigt Hill
#
# Bulk Modulus (GPa) = 21.54493 77.39029 49.46761
# Shear Modulus (GPa) = 14.29445 22.48363 18.38904
#
# Velocity S-wave (km/s) = 2.87965 3.61151 3.26614
# Velocity P-wave (km/s) = 4.85334 7.89212 6.55136
#
# Compressibility (1/GPa) = 0.04641463
#
# Stress axis : x y z
#
# Youngs Moduli (GPa) = 11.75310 43.03737 53.62309
#
# Poissons Ratio (x) = 0.71189 0.61085
# Poissons Ratio (y) = 0.19441 0.66193
# Poissons Ratio (z) = 0.13389 0.53126
#
# Static dielectric constant tensor:
#      x y z
#    x 1.583170 0.000000 0.000000 
#    y 0.000000 1.571980 0.000000 
#    z 0.000000 0.000000 1.574500 
# 
# From -- ./inp_files/26353.got.cif
#   From: 2010.05.17/outbox.cif.g08.bks.cpg/sg59_14_cif.got.tgz:26353.got - 2010.06.03 14:40:33.
