data_PCOD9448798
_publ_section_title
;
Structure prediction by ZEFSAII (Michael W. Deem and Ramdas Pophale) SiO2 
 PCOD9448798
Probable space group: P M M N
;
_chemical_formula_sum "Si O2"
_cell_formula_units_Z 64
_cell_length_a 14.027093
_cell_length_b 23.151926
_cell_length_c 10.827814
_cell_angle_alpha 90.000000
_cell_angle_beta 90.000000
_cell_angle_gamma 90.000000
_cell_volume 3516.378280
_symmetry_space_group_name_H-M "P M M N"
_symmetry_group_IT_number 59
_space_group.IT_coordinate_system_code '2'
_symmetry_cell_setting 'orthorhombic'
loop_
_space_group_symop_operation_xyz
x,y,z
1/2-x,1/2-y,z
1/2+x,-y,-z
-x,1/2+y,-z
-x,-y,-z
1/2+x,1/2+y,-z
1/2-x,y,z
x,1/2-y,z
loop_
_atom_site_type_symbol
_atom_site_label
_atom_site_fract_x
_atom_site_fract_y
_atom_site_fract_z
Si Si1 0.992459 0.315927 0.145343
Si Si2 0.641837 0.908536 0.217523
Si Si3 0.860130 0.318744 0.383991
Si Si4 0.986412 0.316407 0.859923
Si Si5 0.003693 0.522456 0.363889
Si Si6 0.464246 0.437773 0.150655
Si Si7 0.863652 0.126588 0.646489
Si Si8 0.355320 0.985641 0.976244
O O1 0.028688 0.250000 0.162229
O O2 0.062659 0.370810 0.155528
O O3 0.918061 0.327585 0.256889
O O4 0.954663 0.318200 0.003816
O O5 0.750000 0.890680 0.243836
O O6 0.577410 0.858162 0.159241
O O7 0.584306 0.935088 0.332397
O O8 0.644804 0.962625 0.123675
O O9 0.750000 0.336032 0.363437
O O10 0.862658 0.250000 0.408727
O O11 0.893713 0.349867 0.510068
O O12 0.011467 0.250000 0.833508
O O13 0.909419 0.337723 0.759695
O O14 0.002677 0.466489 0.277078
O O15 0.096110 0.562020 0.341465
O O16 0.000000 0.500000 0.500000
O O17 0.556480 0.444675 0.059680
O O18 0.383541 0.480170 0.099214
O O19 0.750000 0.129672 0.652294
O O20 0.250000 0.959038 0.980627
#
# Coordination Sequence:
#
# PCOD9448798 Si02
#       8
#     8   8   8   8   8   8   8   8
#     4  10  20  34  53  78 109 143 180 227 276 325
#     4   9  18  35  55  77 106 140 183 229 272 324
#     4   9  18  33  52  74 104 147 191 223 263 330
#     4  10  20  34  54  82 112 144 184 232 283 326
#     4  10  21  35  53  80 109 142 182 231 281 330
#     4  10  19  34  53  75 106 138 175 220 268 326
#     4  10  21  36  54  79 112 149 187 226 277 343
#     4   9  18  32  53  76  99 135 176 214 263 319
#
# _framework density 18.200544000000001
#
# number of rings (size 3 to 8) (size 9 to 14) (size 15 to 20)
#    0.000    2.375    1.250    1.125    1.750    3.000 
#    0.000    3.750    0.000    0.375    0.000    0.000 
#    0.000    4.500    0.000    0.000    0.000    0.000 
#
# Total GULP energy -356464.909467 kJ/mol
# GULP energy per Si atom -5569.764210 kJ/mol
# Density = 1.815912 g / cm^3
# Si number density = 18.200544 Si / 1000 Ang^3
#
#
#
# Elastic Constant Matrix: (Units=GPa)
#
#
# Indices 1 2 3 4 5 6 
#
# 1 68.7289 9.1890 26.2989 0.0000 0.0000 0.0000
# 2 9.1890 95.5307 33.8191 0.0000 0.0000 0.0000
# 3 26.2989 33.8191 99.4109 0.0000 0.0000 0.0000
# 4 0.0000 0.0000 0.0000 25.3144 0.0000 0.0000
# 5 0.0000 0.0000 0.0000 0.0000 12.3586 0.0000
# 6 0.0000 0.0000 0.0000 0.0000 0.0000 11.8544
#
#
#
# Elastic Compliance Matrix: (Units=1/GPa)
#
#
# Indices 1 2 3 4 5 6 
#
# 1 0.016189 -0.000047 -0.004267 0.000000 0.000000 0.000000
# 2 -0.000047 0.011901 -0.004036 0.000000 0.000000 0.000000
# 3 -0.004267 -0.004036 0.012561 0.000000 0.000000 0.000000
# 4 0.000000 0.000000 0.000000 0.039503 0.000000 0.000000
# 5 0.000000 0.000000 0.000000 0.000000 0.080915 0.000000
# 6 0.000000 0.000000 0.000000 0.000000 0.000000 0.084357
#
#
# Mechanical properties :
#
#
# Convention : Reuss Voigt Hill
#
# Bulk Modulus (GPa) = 41.75108 44.69830 43.22469
# Shear Modulus (GPa) = 18.51097 22.86305 20.68701
#
# Velocity S-wave (km/s) = 3.19259 3.54810 3.37503
# Velocity P-wave (km/s) = 6.04809 6.43408 6.24407
#
# Compressibility (1/GPa) = 0.02395148
#
# Stress axis : x y z
#
# Youngs Moduli (GPa) = 61.77094 84.02463 79.61023
#
# Poissons Ratio (x) = 0.00392 0.33968
# Poissons Ratio (y) = 0.00288 0.32134
# Poissons Ratio (z) = 0.26357 0.33916
#
# Static dielectric constant tensor:
#      x y z
#    x 1.627710 0.000000 0.000000 
#    y 0.000000 1.634620 0.000000 
#    z 0.000000 0.000000 1.646900 
# 
# From -- ./inp_files/9562.got.cif
#   From: 2010.05.17/outbox.cif.g08.bks.cpg/sg59_5_cif.got.tgz:9562.got - 2010.06.03 14:40:33.
