data_PCOD9448718
_publ_section_title
;
Structure prediction by ZEFSAII (Michael W. Deem and Ramdas Pophale) SiO2 
 PCOD9448718
Probable space group: P M M N
;
_chemical_formula_sum "Si O2"
_cell_formula_units_Z 64
_cell_length_a 7.592665
_cell_length_b 24.679266
_cell_length_c 15.801587
_cell_angle_alpha 90.000000
_cell_angle_beta 90.000000
_cell_angle_gamma 90.000000
_cell_volume 2960.923481
_symmetry_space_group_name_H-M "P M M N"
_symmetry_group_IT_number 59
_space_group.IT_coordinate_system_code '2'
_symmetry_cell_setting 'orthorhombic'
loop_
_space_group_symop_operation_xyz
x,y,z
1/2-x,1/2-y,z
1/2+x,-y,-z
-x,1/2+y,-z
-x,-y,-z
1/2+x,1/2+y,-z
1/2-x,y,z
x,1/2-y,z
loop_
_atom_site_type_symbol
_atom_site_label
_atom_site_fract_x
_atom_site_fract_y
_atom_site_fract_z
Si Si1 0.534722 0.114946 0.844112
Si Si2 0.959325 0.810323 0.510846
Si Si3 0.540037 0.996452 0.900238
Si Si4 0.960969 0.008607 0.598652
Si Si5 0.544952 0.893909 0.648245
Si Si6 0.036893 0.626238 0.343774
Si Si7 0.534265 0.187406 0.002902
Si Si8 0.953465 0.378227 0.165233
O O1 0.750000 0.114249 0.845882
O O2 0.479917 0.136557 0.752418
O O3 0.477130 0.152257 0.922026
O O4 0.478477 0.052563 0.857876
O O5 0.750000 0.807055 0.526889
O O6 0.032907 0.750000 0.520858
O O7 0.033231 0.853890 0.577876
O O8 0.982433 0.832076 0.415974
O O9 0.750000 0.993414 0.888206
O O10 0.465383 0.940979 0.862940
O O11 0.500000 0.000000 0.000000
O O12 0.750000 0.011607 0.611337
O O13 0.030345 0.954819 0.645028
O O14 0.028974 0.066386 0.629782
O O15 0.000000 0.000000 0.500000
O O16 0.750000 0.900492 0.625085
O O17 0.536158 0.871615 0.742782
O O18 0.250000 0.625802 0.343902
O O19 0.750000 0.186001 0.003196
O O20 0.481176 0.250000 0.998268
O O21 0.473506 0.158089 0.088841
O O22 0.750000 0.363494 0.175175
#
# Coordination Sequence:
#
# PCOD9448718 Si02
#       8
#     8   8   8   8   8   8   8   8
#     4   9  18  34  56  83 113 144 182 227 277 332
#     4  10  22  40  59  79 110 152 191 229 281 341
#     4  11  20  35  59  86 118 151 185 230 283 340
#     4  10  19  33  55  82 111 143 181 224 280 337
#     4  10  21  38  58  81 111 149 186 228 283 337
#     4  10  20  34  57  86 111 140 183 235 280 326
#     4   9  18  34  55  79 109 145 187 233 277 324
#     4  11  22  36  56  86 115 147 190 233 283 339
#
# _framework density 21.614877
#
# number of rings (size 3 to 8) (size 9 to 14) (size 15 to 20)
#    0.000    2.000    2.500    1.500    0.000    4.250 
#    0.000    3.750    0.000    1.125    0.000    0.000 
#    0.000    0.000    0.000    0.000    0.000    0.000 
#
# Total GULP energy -357561.057461 kJ/mol
# GULP energy per Si atom -5586.891523 kJ/mol
# Density = 2.156568 g / cm^3
# Si number density = 21.614877 Si / 1000 Ang^3
#
#
#
# Elastic Constant Matrix: (Units=GPa)
#
#
# Indices 1 2 3 4 5 6 
#
# 1 43.8181 -3.1683 -20.8948 0.0000 0.0000 0.0000
# 2 -3.1683 105.5118 18.6319 0.0000 0.0000 0.0000
# 3 -20.8948 18.6319 90.4602 0.0000 0.0000 0.0000
# 4 0.0000 0.0000 0.0000 4.7878 0.0000 0.0000
# 5 0.0000 0.0000 0.0000 0.0000 57.5528 0.0000
# 6 0.0000 0.0000 0.0000 0.0000 0.0000 13.1372
#
#
#
# Elastic Compliance Matrix: (Units=1/GPa)
#
#
# Indices 1 2 3 4 5 6 
#
# 1 0.025655 -0.000286 0.005985 0.000000 0.000000 0.000000
# 2 -0.000286 0.009839 -0.002093 0.000000 0.000000 0.000000
# 3 0.005985 -0.002093 0.012868 0.000000 0.000000 0.000000
# 4 0.000000 0.000000 0.000000 0.208865 0.000000 0.000000
# 5 0.000000 0.000000 0.000000 0.000000 0.017375 0.000000
# 6 0.000000 0.000000 0.000000 0.000000 0.000000 0.076120
#
#
# Mechanical properties :
#
#
# Convention : Reuss Voigt Hill
#
# Bulk Modulus (GPa) = 17.99439 25.43639 21.71539
# Shear Modulus (GPa) = 13.81084 31.44365 22.62724
#
# Velocity S-wave (km/s) = 2.53049 3.81822 3.23900
# Velocity P-wave (km/s) = 4.10864 5.58856 4.90474
#
# Compressibility (1/GPa) = 0.05557288
#
# Stress axis : x y z
#
# Youngs Moduli (GPa) = 38.97908 101.64115 77.71221
#
# Poissons Ratio (x) = 0.02912 -0.46510
# Poissons Ratio (y) = 0.01117 0.16262
# Poissons Ratio (z) = -0.23328 0.21269
#
# Static dielectric constant tensor:
#      x y z
#    x 1.834420 0.000000 0.000000 
#    y 0.000000 1.774930 0.000000 
#    z 0.000000 0.000000 1.745240 
# 
# From -- ./inp_files/21466.got.cif
#   From: 2010.05.17/outbox.cif.g08.bks.cpg/sg59_11_cif.got.tgz:21466.got - 2010.06.03 14:40:33.
