data_PCOD9448505
_publ_section_title
;
Structure prediction by ZEFSAII (Michael W. Deem and Ramdas Pophale) SiO2 
 PCOD9448505
Probable space group: P M M N
;
_chemical_formula_sum "Si O2"
_cell_formula_units_Z 64
_cell_length_a 32.046015
_cell_length_b 8.144691
_cell_length_c 12.512074
_cell_angle_alpha 90.000000
_cell_angle_beta 90.000000
_cell_angle_gamma 90.000000
_cell_volume 3265.712497
_symmetry_space_group_name_H-M "P M M N"
_symmetry_group_IT_number 59
_space_group.IT_coordinate_system_code '2'
_symmetry_cell_setting 'orthorhombic'
loop_
_space_group_symop_operation_xyz
x,y,z
1/2-x,1/2-y,z
1/2+x,-y,-z
-x,1/2+y,-z
-x,-y,-z
1/2+x,1/2+y,-z
1/2-x,y,z
x,1/2-y,z
loop_
_atom_site_type_symbol
_atom_site_label
_atom_site_fract_x
_atom_site_fract_y
_atom_site_fract_z
Si Si1 0.982954 0.052088 0.615035
Si Si2 0.048354 0.448407 0.989537
Si Si3 0.610742 0.055942 0.643725
Si Si4 0.631079 0.557990 0.414001
Si Si5 0.798589 0.445525 0.261371
Si Si6 0.297818 0.448491 0.978751
Si Si7 0.126444 0.446139 0.125578
Si Si8 0.939556 0.950256 0.249722
O O1 0.981763 0.250000 0.616436
O O2 0.936502 0.988760 0.633351
O O3 0.015357 0.998875 0.705711
O O4 0.000000 0.000000 0.500000
O O5 0.048204 0.250000 0.991673
O O6 0.081888 0.507689 0.078014
O O7 0.065141 0.502242 0.872666
O O8 0.000000 0.500000 0.000000
O O9 0.608563 0.250000 0.660556
O O10 0.631778 0.023159 0.529852
O O11 0.630750 0.981986 0.749499
O O12 0.622725 0.750000 0.431164
O O13 0.673131 0.532626 0.348409
O O14 0.594664 0.491509 0.335332
O O15 0.750000 0.485288 0.276594
O O16 0.804038 0.250000 0.270139
O O17 0.809644 0.500829 0.141497
O O18 0.250000 0.506003 0.999607
O O19 0.296969 0.250000 0.983185
O O20 0.333603 0.508831 0.059158
O O21 0.125797 0.250000 0.110788
O O22 0.937529 0.750000 0.249817
#
# Coordination Sequence:
#
# PCOD9448505 Si02
#       8
#     8   8   8   8   8   8   8   8
#     4  10  19  33  52  75 106 143 185 231 277 327
#     4  10  20  35  53  76 109 145 183 225 276 334
#     4  11  23  37  55  80 112 150 191 236 283 337
#     4  11  21  36  59  82 108 144 186 230 275 328
#     4  10  21  37  58  86 119 147 174 220 281 338
#     4   9  18  36  63  90 112 140 185 234 280 336
#     4  10  21  37  57  81 112 150 190 237 289 341
#     4   9  18  33  54  78 105 138 176 225 277 320
#
# _framework density 19.597562
#
# number of rings (size 3 to 8) (size 9 to 14) (size 15 to 20)
#    0.000    2.000    1.250    2.625    0.000    5.250 
#    0.000    3.750    0.000    2.250    0.000    0.000 
#    0.000    0.000    0.000    0.000    0.000    0.000 
#
# Total GULP energy -357326.038806 kJ/mol
# GULP energy per Si atom -5583.219356 kJ/mol
# Density = 1.955296 g / cm^3
# Si number density = 19.597562 Si / 1000 Ang^3
#
#
#
# Elastic Constant Matrix: (Units=GPa)
#
#
# Indices 1 2 3 4 5 6 
#
# 1 74.9269 11.4147 53.1770 0.0000 0.0000 0.0000
# 2 11.4147 8.6063 2.5277 0.0000 0.0000 0.0000
# 3 53.1770 2.5277 121.9614 0.0000 0.0000 0.0000
# 4 0.0000 0.0000 0.0000 20.2772 0.0000 0.0000
# 5 0.0000 0.0000 0.0000 0.0000 34.7668 0.0000
# 6 0.0000 0.0000 0.0000 0.0000 0.0000 19.6901
#
#
#
# Elastic Compliance Matrix: (Units=1/GPa)
#
#
# Indices 1 2 3 4 5 6 
#
# 1 0.025440 -0.030670 -0.010457 0.000000 0.000000 0.000000
# 2 -0.030670 0.153881 0.010184 0.000000 0.000000 0.000000
# 3 -0.010457 0.010184 0.012547 0.000000 0.000000 0.000000
# 4 0.000000 0.000000 0.000000 0.049317 0.000000 0.000000
# 5 0.000000 0.000000 0.000000 0.000000 0.028763 0.000000
# 6 0.000000 0.000000 0.000000 0.000000 0.000000 0.050787
#
#
# Mechanical properties :
#
#
# Convention : Reuss Voigt Hill
#
# Bulk Modulus (GPa) = 7.69339 37.74817 22.72078
# Shear Modulus (GPa) = 11.73848 24.17183 17.95515
#
# Velocity S-wave (km/s) = 2.45005 3.51580 3.03015
# Velocity P-wave (km/s) = 3.45513 5.98203 4.88480
#
# Compressibility (1/GPa) = 0.12998174
#
# Stress axis : x y z
#
# Youngs Moduli (GPa) = 39.30808 6.49852 79.69725
#
# Poissons Ratio (x) = 0.19931 0.83336
# Poissons Ratio (y) = 1.20560 -0.81160
# Poissons Ratio (z) = 0.41103 -0.06618
#
# Static dielectric constant tensor:
#      x y z
#    x 1.699010 0.000000 0.000000 
#    y 0.000000 1.690700 0.000000 
#    z 0.000000 0.000000 1.668960 
# 
# From -- ./inp_files/14951.got.cif
#   From: 2010.05.17/outbox.cif.g08.bks.cpg/sg59_8_cif.got.tgz:14951.got - 2010.06.03 14:40:33.
