data_PCOD9448530
_publ_section_title
;
Structure prediction by ZEFSAII (Michael W. Deem and Ramdas Pophale) SiO2 
 PCOD9448530
Probable space group: P M M N
;
_chemical_formula_sum "Si O2"
_cell_formula_units_Z 48
_cell_length_a 31.837500
_cell_length_b 9.363296
_cell_length_c 7.617591
_cell_angle_alpha 90.000000
_cell_angle_beta 90.000000
_cell_angle_gamma 90.000000
_cell_volume 2270.833863
_symmetry_space_group_name_H-M "P M M N"
_symmetry_group_IT_number 59
_space_group.IT_coordinate_system_code '2'
_symmetry_cell_setting 'orthorhombic'
loop_
_space_group_symop_operation_xyz
x,y,z
1/2-x,1/2-y,z
1/2+x,-y,-z
-x,1/2+y,-z
-x,-y,-z
1/2+x,1/2+y,-z
1/2-x,y,z
x,1/2-y,z
loop_
_atom_site_type_symbol
_atom_site_label
_atom_site_fract_x
_atom_site_fract_y
_atom_site_fract_z
Si Si1 0.496420 0.421062 0.684215
Si Si2 0.585797 0.411795 0.217160
Si Si3 0.590062 0.091591 0.802951
Si Si4 0.333529 0.084874 0.758976
Si Si5 0.750000 0.087006 0.814789
Si Si6 0.668142 0.587675 0.810814
Si Si7 0.250000 0.584675 0.756375
O O1 0.500000 0.500000 0.500000
O O2 0.490321 0.250000 0.672240
O O3 0.456529 0.496180 0.771781
O O4 0.541598 0.446634 0.772956
O O5 0.580384 0.250000 0.287925
O O6 0.624878 0.498421 0.296739
O O7 0.595806 0.397756 0.011629
O O8 0.597342 0.250000 0.726787
O O9 0.624793 0.979713 0.742728
O O10 0.334014 0.250000 0.702113
O O11 0.291802 0.000479 0.702911
O O12 0.332939 0.087943 0.974275
O O13 0.750000 0.250000 0.756411
O O14 0.792003 0.006275 0.758265
O O15 0.750000 0.086665 0.029079
O O16 0.673117 0.750000 0.753826
O O17 0.250000 0.750000 0.699602
#
# Coordination Sequence:
#
# PCOD9448530 Si02
#       7
#     8   8   8   8   4   8   4
#     4  11  23  38  54  74 100 131 167 208 253 303
#     4  10  19  33  53  76 101 131 167 208 252 299
#     4   9  19  34  52  74 101 132 167 206 251 300
#     4   9  16  26  41  65  97 131 164 201 245 293
#     4   9  15  23  37  59  94 133 164 197 242 291
#     4   9  16  25  41  66  96 128 164 203 244 290
#     4   9  15  23  37  61  94 131 166 201 242 289
#
# _framework density 21.137611
#
# number of rings (size 3 to 8) (size 9 to 14) (size 15 to 20)
#    0.000    2.500    0.000    3.000    0.000    8.000 
#    0.000    0.000    0.000    0.000    0.000    1.167 
#    0.000    6.667    0.000    0.000    0.000    0.000 
#
# Total GULP energy -267987.029735 kJ/mol
# GULP energy per Si atom -5583.063119 kJ/mol
# Density = 2.108950 g / cm^3
# Si number density = 21.137611 Si / 1000 Ang^3
#
#
#
# Elastic Constant Matrix: (Units=GPa)
#
#
# Indices 1 2 3 4 5 6 
#
# 1 183.7694 145.2737 -9.2914 0.0000 0.0000 0.0000
# 2 145.2737 223.9690 8.4500 0.0000 0.0000 0.0000
# 3 -9.2914 8.4500 33.9772 0.0000 0.0000 0.0000
# 4 0.0000 0.0000 0.0000 4.6410 0.0000 0.0000
# 5 0.0000 0.0000 0.0000 0.0000 -30.1290 0.0000
# 6 0.0000 0.0000 0.0000 0.0000 0.0000 42.9320
#
#
#
# Elastic Compliance Matrix: (Units=1/GPa)
#
#
# Indices 1 2 3 4 5 6 
#
# 1 0.012040 -0.008009 0.005284 0.000000 0.000000 0.000000
# 2 -0.008009 0.009835 -0.004636 0.000000 0.000000 0.000000
# 3 0.005284 -0.004636 0.032029 0.000000 0.000000 0.000000
# 4 0.000000 0.000000 0.000000 0.215469 0.000000 0.000000
# 5 0.000000 0.000000 0.000000 0.000000 -0.033191 0.000000
# 6 0.000000 0.000000 0.000000 0.000000 0.000000 0.023293
#
#
# Mechanical properties :
#
#
# Convention : Reuss Voigt Hill
#
# Bulk Modulus (GPa) = 25.52140 81.17561 53.34850
# Shear Modulus (GPa) = 17.40603 23.30771 20.35687
#
# Velocity S-wave (km/s) = 2.87272 3.32424 3.10669
# Velocity P-wave (km/s) = 4.80661 7.29526 6.17755
#
# Compressibility (1/GPa) = 0.03918281
#
# Stress axis : x y z
#
# Youngs Moduli (GPa) = 83.05664 101.68134 31.22129
#
# Poissons Ratio (x) = 0.81436 -0.16498
# Poissons Ratio (y) = 0.66519 0.14474
# Poissons Ratio (z) = -0.43889 0.47139
#
# Static dielectric constant tensor:
#      x y z
#    x 1.877530 0.000000 0.000000 
#    y 0.000000 1.729530 0.000000 
#    z 0.000000 0.000000 1.816140 
# 
# From -- ./inp_files/13001.got.cif
#   From: 2010.05.17/outbox.cif.g08.bks.cpg/sg59_7_cif.got.tgz:13001.got - 2010.06.03 14:40:33.
