data_PCOD9448813
_publ_section_title
;
Structure prediction by ZEFSAII (Michael W. Deem and Ramdas Pophale) SiO2 
 PCOD9448813
Probable space group: P M M N
;
_chemical_formula_sum "Si O2"
_cell_formula_units_Z 64
_cell_length_a 7.513234
_cell_length_b 31.346283
_cell_length_c 12.747599
_cell_angle_alpha 90.000000
_cell_angle_beta 90.000000
_cell_angle_gamma 90.000000
_cell_volume 3002.212016
_symmetry_space_group_name_H-M "P M M N"
_symmetry_group_IT_number 59
_space_group.IT_coordinate_system_code '2'
_symmetry_cell_setting 'orthorhombic'
loop_
_space_group_symop_operation_xyz
x,y,z
1/2-x,1/2-y,z
1/2+x,-y,-z
-x,1/2+y,-z
-x,-y,-z
1/2+x,1/2+y,-z
1/2-x,y,z
x,1/2-y,z
loop_
_atom_site_type_symbol
_atom_site_label
_atom_site_fract_x
_atom_site_fract_y
_atom_site_fract_z
Si Si1 0.961742 0.976817 0.110092
Si Si2 0.032323 0.554658 0.752670
Si Si3 0.540726 0.378428 0.640630
Si Si4 0.536531 0.049973 0.482497
Si Si5 0.957892 0.128868 0.095960
Si Si6 0.451415 0.880059 0.129369
Si Si7 0.964908 0.701308 0.742180
Si Si8 0.034824 0.298978 0.494780
O O1 0.750000 0.970242 0.117864
O O2 0.051754 0.931197 0.116480
O O3 0.018257 0.008364 0.203436
O O4 0.000000 0.000000 0.000000
O O5 0.250000 0.556235 0.752183
O O6 0.971232 0.562176 0.634106
O O7 0.967330 0.589722 0.835829
O O8 0.750000 0.388088 0.656652
O O9 0.466880 0.418008 0.572173
O O10 0.463214 0.372442 0.757046
O O11 0.525735 0.335134 0.574386
O O12 0.750000 0.055074 0.480904
O O13 0.500000 0.000000 0.500000
O O14 0.750000 0.118249 0.078371
O O15 0.969070 0.169697 0.169591
O O16 0.035902 0.135356 0.980076
O O17 0.250000 0.862172 0.133911
O O18 0.750000 0.699890 0.742947
O O19 0.019497 0.750000 0.761174
O O20 0.022956 0.689689 0.624001
O O21 0.250000 0.298802 0.495479
O O22 0.978021 0.250000 0.516969
#
# Coordination Sequence:
#
# PCOD9448813 Si02
#       8
#     8   8   8   8   8   8   8   8
#     4  11  20  33  52  74 103 142 183 223 268 317
#     4   9  18  32  50  72 100 134 169 213 263 306
#     4  10  21  36  56  81 110 145 185 229 272 323
#     4  10  20  34  51  74 105 139 178 220 267 320
#     4  10  19  34  54  75 103 136 172 215 262 311
#     4  10  21  37  53  75 109 144 180 225 268 309
#     4   9  19  36  56  80 109 134 163 213 269 318
#     4   9  19  37  60  84 110 140 175 220 275 332
#
# _framework density 21.317613000000001
#
# number of rings (size 3 to 8) (size 9 to 14) (size 15 to 20)
#    0.000    2.250    1.250    2.625    0.000    3.500 
#    0.000    3.125    0.000    3.750    0.000    0.000 
#    0.000    0.000    0.000    0.000    0.000    0.000 
#
# Total GULP energy -357424.871777 kJ/mol
# GULP energy per Si atom -5584.763622 kJ/mol
# Density = 2.126909 g / cm^3
# Si number density = 21.317613 Si / 1000 Ang^3
#
#
#
# Elastic Constant Matrix: (Units=GPa)
#
#
# Indices 1 2 3 4 5 6 
#
# 1 60.8218 -9.8223 -0.1763 0.0000 0.0000 0.0000
# 2 -9.8223 87.2282 75.1295 0.0000 0.0000 0.0000
# 3 -0.1763 75.1295 190.2802 0.0000 0.0000 0.0000
# 4 0.0000 0.0000 0.0000 37.2792 0.0000 0.0000
# 5 0.0000 0.0000 0.0000 0.0000 5.8416 0.0000
# 6 0.0000 0.0000 0.0000 0.0000 0.0000 24.9771
#
#
#
# Elastic Compliance Matrix: (Units=1/GPa)
#
#
# Indices 1 2 3 4 5 6 
#
# 1 0.016901 0.002863 -0.001115 0.000000 0.000000 0.000000
# 2 0.002863 0.017857 -0.007048 0.000000 0.000000 0.000000
# 3 -0.001115 -0.007048 0.008037 0.000000 0.000000 0.000000
# 4 0.000000 0.000000 0.000000 0.026825 0.000000 0.000000
# 5 0.000000 0.000000 0.000000 0.000000 0.171187 0.000000
# 6 0.000000 0.000000 0.000000 0.000000 0.000000 0.040037
#
#
# Mechanical properties :
#
#
# Convention : Reuss Voigt Hill
#
# Bulk Modulus (GPa) = 31.05995 52.06578 41.56287
# Shear Modulus (GPa) = 16.54676 31.83287 24.18981
#
# Velocity S-wave (km/s) = 2.78906 3.86847 3.37224
# Velocity P-wave (km/s) = 4.99735 6.66561 5.89083
#
# Compressibility (1/GPa) = 0.03219580
#
# Stress axis : x y z
#
# Youngs Moduli (GPa) = 59.16935 56.00058 124.42229
#
# Poissons Ratio (x) = -0.16035 0.13872
# Poissons Ratio (y) = -0.16942 0.87692
# Poissons Ratio (z) = 0.06597 0.39469
#
# Static dielectric constant tensor:
#      x y z
#    x 1.814060 0.000000 0.000000 
#    y 0.000000 1.758920 0.000000 
#    z 0.000000 0.000000 1.801410 
# 
# From -- ./inp_files/14980.got.cif
#   From: 2010.05.17/outbox.cif.g08.bks.cpg/sg59_8_cif.got.tgz:14980.got - 2010.06.03 14:40:33.
