data_PCOD9448263
_publ_section_title
;
Structure prediction by ZEFSAII (Michael W. Deem and Ramdas Pophale) SiO2 
 PCOD9448263
Probable space group: P M M N
;
_chemical_formula_sum "Si O2"
_cell_formula_units_Z 40
_cell_length_a 8.567039
_cell_length_b 26.781130
_cell_length_c 9.986527
_cell_angle_alpha 90.000000
_cell_angle_beta 90.000000
_cell_angle_gamma 90.000000
_cell_volume 2291.258674
_symmetry_space_group_name_H-M "P M M N"
_symmetry_group_IT_number 59
_space_group.IT_coordinate_system_code '2'
_symmetry_cell_setting 'orthorhombic'
loop_
_space_group_symop_operation_xyz
x,y,z
1/2-x,1/2-y,z
1/2+x,-y,-z
-x,1/2+y,-z
-x,-y,-z
1/2+x,1/2+y,-z
1/2-x,y,z
x,1/2-y,z
loop_
_atom_site_type_symbol
_atom_site_label
_atom_site_fract_x
_atom_site_fract_y
_atom_site_fract_z
Si Si1 0.561130 0.693074 0.857771
Si Si2 0.063073 0.807057 0.155682
Si Si3 0.060084 0.392841 0.342766
Si Si4 0.437134 0.502426 0.348027
Si Si5 0.936784 0.607303 0.346608
O O1 0.750000 0.691300 0.862545
O O2 0.516089 0.750000 0.821485
O O3 0.506010 0.652061 0.751157
O O4 0.497433 0.682591 0.005824
O O5 0.250000 0.809241 0.156468
O O6 0.015006 0.750000 0.189227
O O7 0.996744 0.847103 0.258679
O O8 0.250000 0.391409 0.344492
O O9 0.016537 0.448229 0.290097
O O10 0.009776 0.387766 0.497916
O O11 0.500000 0.500000 0.500000
O O12 0.250000 0.505317 0.349063
O O13 0.504133 0.553879 0.291331
O O14 0.750000 0.606621 0.346868
#
# Coordination Sequence:
#
# PCOD9448263 Si02
#       5
#     8   8   8   8   8
#     4   9  17  32  53  73  95 126 162 200 244 292
#     4  10  21  36  51  70  99 132 164 200 245 296
#     4   8  16  30  50  76 101 126 161 204 244 287
#     4   9  16  29  48  71 102 135 165 201 247 295
#     4  10  19  32  52  77 101 128 166 207 247 293
#
# _framework density 17.457653000000001
#
# number of rings (size 3 to 8) (size 9 to 14) (size 15 to 20)
#    0.000    2.800    0.000    3.000    0.000    2.000 
#    0.000    9.000    0.000    2.400    0.000    0.000 
#    0.000    0.000    0.000    0.000    0.000    0.000 
#
# Total GULP energy -222838.806544 kJ/mol
# GULP energy per Si atom -5570.970164 kJ/mol
# Density = 1.741792 g / cm^3
# Si number density = 17.457653 Si / 1000 Ang^3
#
#
#
# Elastic Constant Matrix: (Units=GPa)
#
#
# Indices 1 2 3 4 5 6 
#
# 1 32.3845 38.7499 23.1408 0.0000 0.0000 0.0000
# 2 38.7499 192.6019 102.0855 0.0000 0.0000 0.0000
# 3 23.1408 102.0855 76.6025 0.0000 0.0000 0.0000
# 4 0.0000 0.0000 0.0000 -20.0252 0.0000 0.0000
# 5 0.0000 0.0000 0.0000 0.0000 15.2909 0.0000
# 6 0.0000 0.0000 0.0000 0.0000 0.0000 21.4234
#
#
#
# Elastic Compliance Matrix: (Units=1/GPa)
#
#
# Indices 1 2 3 4 5 6 
#
# 1 0.041174 -0.005759 -0.004763 0.000000 0.000000 0.000000
# 2 -0.005759 0.018487 -0.022897 0.000000 0.000000 0.000000
# 3 -0.004763 -0.022897 0.045008 0.000000 0.000000 0.000000
# 4 0.000000 0.000000 0.000000 -0.049937 0.000000 0.000000
# 5 0.000000 0.000000 0.000000 0.000000 0.065398 0.000000
# 6 0.000000 0.000000 0.000000 0.000000 0.000000 0.046678
#
#
# Mechanical properties :
#
#
# Convention : Reuss Voigt Hill
#
# Bulk Modulus (GPa) = 26.43443 69.94903 48.19173
# Shear Modulus (GPa) = 20.30402 12.51201 16.40802
#
# Velocity S-wave (km/s) = 3.41404 2.68004 3.06906
# Velocity P-wave (km/s) = 5.54219 7.05207 6.34222
#
# Compressibility (1/GPa) = 0.03782945
#
# Stress axis : x y z
#
# Youngs Moduli (GPa) = 24.28738 54.09161 22.21839
#
# Poissons Ratio (x) = 0.31153 0.10582
# Poissons Ratio (y) = 0.13988 0.50874
# Poissons Ratio (z) = 0.11568 1.23856
#
# Static dielectric constant tensor:
#      x y z
#    x 1.589300 0.000000 0.000000 
#    y 0.000000 1.623440 0.000000 
#    z 0.000000 0.000000 1.557010 
# 
# From -- ./inp_files/5640.got.cif
#   From: 2010.05.17/outbox.cif.g08.bks.cpg/sg59_3_cif.got.tgz:5640.got - 2010.06.03 14:40:33.
