data_PCOD9448995
_publ_section_title
;
Structure prediction by ZEFSAII (Michael W. Deem and Ramdas Pophale) SiO2 
 PCOD9448995
Probable space group: P M M N
;
_chemical_formula_sum "Si O2"
_cell_formula_units_Z 64
_cell_length_a 8.714235
_cell_length_b 18.783514
_cell_length_c 20.546510
_cell_angle_alpha 90.000000
_cell_angle_beta 90.000000
_cell_angle_gamma 90.000000
_cell_volume 3363.134021
_symmetry_space_group_name_H-M "P M M N"
_symmetry_group_IT_number 59
_space_group.IT_coordinate_system_code '2'
_symmetry_cell_setting 'orthorhombic'
loop_
_space_group_symop_operation_xyz
x,y,z
1/2-x,1/2-y,z
1/2+x,-y,-z
-x,1/2+y,-z
-x,-y,-z
1/2+x,1/2+y,-z
1/2-x,y,z
x,1/2-y,z
loop_
_atom_site_type_symbol
_atom_site_label
_atom_site_fract_x
_atom_site_fract_y
_atom_site_fract_z
Si Si1 0.933224 0.167695 0.918724
Si Si2 0.568462 0.926647 0.970765
Si Si3 0.065395 0.931544 0.205866
Si Si4 0.932979 0.416643 0.172331
Si Si5 0.934932 0.090345 0.552983
Si Si6 0.066919 0.071465 0.413602
Si Si7 0.063079 0.670930 0.320905
Si Si8 0.564549 0.168322 0.298660
O O1 0.750000 0.163508 0.930980
O O2 0.971377 0.250000 0.905900
O O3 0.964811 0.118055 0.856619
O O4 0.020603 0.135701 0.980144
O O5 0.750000 0.935184 0.967750
O O6 0.506305 0.910463 0.898845
O O7 0.500000 0.000000 0.000000
O O8 0.250000 0.943651 0.209122
O O9 0.014800 0.888037 0.269197
O O10 0.981486 0.006028 0.198702
O O11 0.750000 0.412453 0.165334
O O12 0.982115 0.359795 0.227092
O O13 0.750000 0.091164 0.544852
O O14 0.979648 0.148200 0.606505
O O15 0.011387 0.101134 0.483221
O O16 0.976433 0.012373 0.581990
O O17 0.250000 0.074953 0.408477
O O18 0.996043 0.114966 0.353997
O O19 0.250000 0.671431 0.318346
O O20 0.009761 0.750000 0.304016
O O21 0.750000 0.166807 0.300881
O O22 0.514638 0.250000 0.309426
#
# Coordination Sequence:
#
# PCOD9448995 Si02
#       8
#     8   8   8   8   8   8   8   8
#     4  10  21  37  59  88 121 157 194 235 289 351
#     4  12  24  40  62  88 119 155 197 244 293 347
#     4  10  19  34  58  85 115 151 190 234 282 341
#     4  11  23  39  62  88 114 148 191 240 291 349
#     4   9  18  33  54  81 115 153 193 236 285 344
#     4  10  20  35  57  84 113 147 191 245 294 341
#     4   9  17  30  51  80 111 145 188 231 272 329
#     4  10  23  42  61  83 114 153 196 241 297 363
#
# _framework density 19.029869999999999
#
# number of rings (size 3 to 8) (size 9 to 14) (size 15 to 20)
#    0.000    1.875    1.250    3.000    0.000    5.500 
#    0.000    3.125    0.000    1.875    0.000    0.000 
#    0.000    0.000    0.000    0.000    0.000    0.000 
#
# Total GULP energy -357470.498512 kJ/mol
# GULP energy per Si atom -5585.476539 kJ/mol
# Density = 1.898656 g / cm^3
# Si number density = 19.029870 Si / 1000 Ang^3
#
#
#
# Elastic Constant Matrix: (Units=GPa)
#
#
# Indices 1 2 3 4 5 6 
#
# 1 27.6771 21.6726 29.2857 0.0000 0.0000 0.0000
# 2 21.6726 45.5316 16.6841 0.0000 0.0000 0.0000
# 3 29.2857 16.6841 101.2920 0.0000 0.0000 0.0000
# 4 0.0000 0.0000 0.0000 7.0028 0.0000 0.0000
# 5 0.0000 0.0000 0.0000 0.0000 27.2235 0.0000
# 6 0.0000 0.0000 0.0000 0.0000 0.0000 19.2300
#
#
#
# Elastic Compliance Matrix: (Units=1/GPa)
#
#
# Indices 1 2 3 4 5 6 
#
# 1 0.079526 -0.031319 -0.017834 0.000000 0.000000 0.000000
# 2 -0.031319 0.035707 0.003173 0.000000 0.000000 0.000000
# 3 -0.017834 0.003173 0.014506 0.000000 0.000000 0.000000
# 4 0.000000 0.000000 0.000000 0.142799 0.000000 0.000000
# 5 0.000000 0.000000 0.000000 0.000000 0.036733 0.000000
# 6 0.000000 0.000000 0.000000 0.000000 0.000000 0.052002
#
#
# Mechanical properties :
#
#
# Convention : Reuss Voigt Hill
#
# Bulk Modulus (GPa) = 26.46862 34.42059 30.44461
# Shear Modulus (GPa) = 10.73365 17.81515 14.27440
#
# Velocity S-wave (km/s) = 2.37753 3.06301 2.74178
# Velocity P-wave (km/s) = 4.63423 5.53500 5.10452
#
# Compressibility (1/GPa) = 0.03778058
#
# Stress axis : x y z
#
# Youngs Moduli (GPa) = 12.57458 28.00552 68.93729
#
# Poissons Ratio (x) = 0.87709 1.22943
# Poissons Ratio (y) = 0.39382 -0.21877
# Poissons Ratio (z) = 0.22425 -0.08887
#
# Static dielectric constant tensor:
#      x y z
#    x 1.653650 0.000000 0.000000 
#    y 0.000000 1.654990 0.000000 
#    z 0.000000 0.000000 1.646260 
# 
# From -- ./inp_files/26282.got.cif
#   From: 2010.05.17/outbox.cif.g08.bks.cpg/sg59_14_cif.got.tgz:26282.got - 2010.06.03 14:40:33.
