data_PCOD9448350
_publ_section_title
;
Structure prediction by ZEFSAII (Michael W. Deem and Ramdas Pophale) SiO2 
 PCOD9448350
Probable space group: P M M N
;
_chemical_formula_sum "Si O2"
_cell_formula_units_Z 56
_cell_length_a 8.806568
_cell_length_b 21.710612
_cell_length_c 17.091885
_cell_angle_alpha 90.000000
_cell_angle_beta 90.000000
_cell_angle_gamma 90.000000
_cell_volume 3267.899718
_symmetry_space_group_name_H-M "P M M N"
_symmetry_group_IT_number 59
_space_group.IT_coordinate_system_code '2'
_symmetry_cell_setting 'orthorhombic'
loop_
_space_group_symop_operation_xyz
x,y,z
1/2-x,1/2-y,z
1/2+x,-y,-z
-x,1/2+y,-z
-x,-y,-z
1/2+x,1/2+y,-z
1/2-x,y,z
x,1/2-y,z
loop_
_atom_site_type_symbol
_atom_site_label
_atom_site_fract_x
_atom_site_fract_y
_atom_site_fract_z
Si Si1 0.932779 0.819433 0.449137
Si Si2 0.068671 0.985351 0.701384
Si Si3 0.429734 0.904238 0.030511
Si Si4 0.575758 0.823128 0.149040
Si Si5 0.431900 0.521082 0.881319
Si Si6 0.070680 0.620429 0.300183
Si Si7 0.931955 0.941019 0.545942
O O1 0.750000 0.822035 0.439361
O O2 0.971175 0.750000 0.476109
O O3 0.976133 0.876345 0.505373
O O4 0.010033 0.833271 0.366110
O O5 0.250000 0.982597 0.692303
O O6 0.013368 0.055375 0.688999
O O7 0.029734 0.968085 0.790923
O O8 0.990388 0.945090 0.634604
O O9 0.250000 0.894787 0.038010
O O10 0.520250 0.847124 0.065328
O O11 0.480571 0.962292 0.083987
O O12 0.464174 0.923496 0.941376
O O13 0.750000 0.842683 0.162748
O O14 0.567154 0.750000 0.154499
O O15 0.472413 0.853487 0.215456
O O16 0.250000 0.508614 0.885756
O O17 0.250000 0.611523 0.307533
O O18 0.750000 0.945969 0.543517
O O19 0.000000 0.000000 0.500000
#
# Coordination Sequence:
#
# PCOD9448350 Si02
#       7
#     8   8   8   8   8   8   8
#     4  10  22  40  59  78 107 149 188 223 274 336
#     4  11  21  35  56  80 113 148 179 221 274 332
#     4  10  19  32  53  79 104 135 178 223 262 310
#     4  11  23  37  52  73 108 151 185 217 268 329
#     4   9  19  34  53  77 106 139 172 213 269 322
#     4  12  23  34  53  82 112 143 183 225 271 327
#     4  11  22  36  57  83 111 144 185 233 279 326
#
# _framework density 17.136389000000001
#
# number of rings (size 3 to 8) (size 9 to 14) (size 15 to 20)
#    0.000    1.429    2.857    3.429    0.000    4.857 
#    0.000    0.000    0.000    0.857    0.000    4.000 
#    0.000    0.000    0.000    0.000    0.000    0.000 
#
# Total GULP energy -312738.872884 kJ/mol
# GULP energy per Si atom -5584.622730 kJ/mol
# Density = 1.709739 g / cm^3
# Si number density = 17.136389 Si / 1000 Ang^3
#
#
#
# Elastic Constant Matrix: (Units=GPa)
#
#
# Indices 1 2 3 4 5 6 
#
# 1 35.3640 23.0946 26.7377 0.0000 0.0000 0.0000
# 2 23.0946 80.4325 42.3137 0.0000 0.0000 0.0000
# 3 26.7377 42.3137 103.0542 0.0000 0.0000 0.0000
# 4 0.0000 0.0000 0.0000 22.2329 0.0000 0.0000
# 5 0.0000 0.0000 0.0000 0.0000 28.5129 0.0000
# 6 0.0000 0.0000 0.0000 0.0000 0.0000 21.7836
#
#
#
# Elastic Compliance Matrix: (Units=1/GPa)
#
#
# Indices 1 2 3 4 5 6 
#
# 1 0.038316 -0.007362 -0.006918 0.000000 0.000000 0.000000
# 2 -0.007362 0.017273 -0.005182 0.000000 0.000000 0.000000
# 3 -0.006918 -0.005182 0.013626 0.000000 0.000000 0.000000
# 4 0.000000 0.000000 0.000000 0.044978 0.000000 0.000000
# 5 0.000000 0.000000 0.000000 0.000000 0.035072 0.000000
# 6 0.000000 0.000000 0.000000 0.000000 0.000000 0.045906
#
#
# Mechanical properties :
#
#
# Convention : Reuss Voigt Hill
#
# Bulk Modulus (GPa) = 33.01401 44.79364 38.90383
# Shear Modulus (GPa) = 20.47559 22.95284 21.71422
#
# Velocity S-wave (km/s) = 3.46042 3.66378 3.56355
# Velocity P-wave (km/s) = 5.93913 6.64033 6.29949
#
# Compressibility (1/GPa) = 0.03029017
#
# Stress axis : x y z
#
# Youngs Moduli (GPa) = 26.09878 57.89440 73.38719
#
# Poissons Ratio (x) = 0.42622 0.50772
# Poissons Ratio (y) = 0.19214 0.38030
# Poissons Ratio (z) = 0.18056 0.30001
#
# Static dielectric constant tensor:
#      x y z
#    x 1.575200 0.000000 0.000000 
#    y 0.000000 1.575060 0.000000 
#    z 0.000000 0.000000 1.584920 
# 
# From -- ./inp_files/26131.got.cif
#   From: 2010.05.17/outbox.cif.g08.bks.cpg/sg59_14_cif.got.tgz:26131.got - 2010.06.03 14:40:33.
