data_PCOD9448081
_publ_section_title
;
Structure prediction by ZEFSAII (Michael W. Deem and Ramdas Pophale) SiO2 
 PCOD9448081
Probable space group: P M M N
;
_chemical_formula_sum "Si O2"
_cell_formula_units_Z 64
_cell_length_a 28.411207
_cell_length_b 9.539246
_cell_length_c 12.604732
_cell_angle_alpha 90.000000
_cell_angle_beta 90.000000
_cell_angle_gamma 90.000000
_cell_volume 3416.153282
_symmetry_space_group_name_H-M "P M M N"
_symmetry_group_IT_number 59
_space_group.IT_coordinate_system_code '2'
_symmetry_cell_setting 'orthorhombic'
loop_
_space_group_symop_operation_xyz
x,y,z
1/2-x,1/2-y,z
1/2+x,-y,-z
-x,1/2+y,-z
-x,-y,-z
1/2+x,1/2+y,-z
1/2-x,y,z
x,1/2-y,z
loop_
_atom_site_type_symbol
_atom_site_label
_atom_site_fract_x
_atom_site_fract_y
_atom_site_fract_z
Si Si1 0.434582 0.409587 0.021434
Si Si2 0.458081 0.082328 0.264987
Si Si3 0.801577 0.089143 0.815937
Si Si4 0.322273 0.090048 0.981975
Si Si5 0.197420 0.579764 0.543084
Si Si6 0.123271 0.917522 0.367970
Si Si7 0.555238 0.416710 0.184033
Si Si8 0.664373 0.417433 0.222008
O O1 0.452283 0.250000 0.008834
O O2 0.378578 0.408862 0.001450
O O3 0.453802 0.507766 0.928266
O O4 0.443065 0.451685 0.143132
O O5 0.452074 0.250000 0.279103
O O6 0.513626 0.047331 0.265901
O O7 0.424805 0.998859 0.344827
O O8 0.750000 0.081105 0.763297
O O9 0.807825 0.250000 0.853066
O O10 0.842578 0.059034 0.733048
O O11 0.802539 0.987648 0.915588
O O12 0.306450 0.250000 0.972889
O O13 0.313814 0.002494 0.875390
O O14 0.250000 0.530617 0.513403
O O15 0.197912 0.750000 0.534780
O O16 0.154634 0.533840 0.467797
O O17 0.186630 0.545626 0.665161
O O18 0.114793 0.750000 0.376991
O O19 0.552655 0.250000 0.166627
O O20 0.608104 0.448097 0.222599
O O21 0.669911 0.250000 0.205133
#
# Coordination Sequence:
#
# PCOD9448081 Si02
#       8
#     8   8   8   8   8   8   8   8
#     4   9  17  29  46  69 101 139 174 209 249 300
#     4  10  19  32  48  71 106 143 174 208 259 313
#     4  10  20  33  50  73 101 131 166 211 262 315
#     4  10  19  32  50  75 107 138 167 205 257 316
#     4   9  18  35  59  81 100 129 173 224 271 310
#     4  10  20  34  54  78 101 130 174 222 261 307
#     4   9  18  30  48  74 104 139 178 215 252 303
#     4   9  18  34  55  78 105 137 176 219 262 308
#
# _framework density 18.734521999999998
#
# number of rings (size 3 to 8) (size 9 to 14) (size 15 to 20)
#    0.000    2.500    1.250    1.125    0.000    3.750 
#    0.000    2.500    0.000    1.875    0.000    0.000 
#    0.000    0.000    0.000    0.000    0.000    0.000 
#
# Total GULP energy -356939.727818 kJ/mol
# GULP energy per Si atom -5577.183247 kJ/mol
# Density = 1.869188 g / cm^3
# Si number density = 18.734522 Si / 1000 Ang^3
#
#
#
# Elastic Constant Matrix: (Units=GPa)
#
#
# Indices 1 2 3 4 5 6 
#
# 1 43.8179 12.0561 -3.1541 0.0000 0.0000 0.0000
# 2 12.0561 30.3011 24.1999 0.0000 0.0000 0.0000
# 3 -3.1541 24.1999 53.5553 0.0000 0.0000 0.0000
# 4 0.0000 0.0000 0.0000 14.0430 0.0000 0.0000
# 5 0.0000 0.0000 0.0000 0.0000 44.5920 0.0000
# 6 0.0000 0.0000 0.0000 0.0000 0.0000 18.5345
#
#
#
# Elastic Compliance Matrix: (Units=1/GPa)
#
#
# Indices 1 2 3 4 5 6 
#
# 1 0.029199 -0.020327 0.010905 0.000000 0.000000 0.000000
# 2 -0.020327 0.065787 -0.030924 0.000000 0.000000 0.000000
# 3 0.010905 -0.030924 0.033288 0.000000 0.000000 0.000000
# 4 0.000000 0.000000 0.000000 0.071210 0.000000 0.000000
# 5 0.000000 0.000000 0.000000 0.000000 0.022426 0.000000
# 6 0.000000 0.000000 0.000000 0.000000 0.000000 0.053954
#
#
# Mechanical properties :
#
#
# Convention : Reuss Voigt Hill
#
# Bulk Modulus (GPa) = 21.01629 21.54201 21.27915
# Shear Modulus (GPa) = 13.42586 21.73875 17.58230
#
# Velocity S-wave (km/s) = 2.67991 3.41010 3.06681
# Velocity P-wave (km/s) = 4.56270 5.19890 4.89115
#
# Compressibility (1/GPa) = 0.04758214
#
# Stress axis : x y z
#
# Youngs Moduli (GPa) = 34.24740 15.20060 30.04082
#
# Poissons Ratio (x) = 0.30898 -0.32758
# Poissons Ratio (y) = 0.69613 0.92898
# Poissons Ratio (z) = -0.37345 0.47006
#
# Static dielectric constant tensor:
#      x y z
#    x 1.700490 0.000000 0.000000 
#    y 0.000000 1.633010 0.000000 
#    z 0.000000 0.000000 1.619810 
# 
# From -- ./inp_files/19269.got.cif
#   From: 2010.05.17/outbox.cif.g08.bks.cpg/sg59_10_cif.got.tgz:19269.got - 2010.06.03 14:40:33.
