data_PCOD9448658
_publ_section_title
;
Structure prediction by ZEFSAII (Michael W. Deem and Ramdas Pophale) SiO2 
 PCOD9448658
Probable space group: P M M N
;
_chemical_formula_sum "Si O2"
_cell_formula_units_Z 64
_cell_length_a 7.803905
_cell_length_b 19.462702
_cell_length_c 20.268831
_cell_angle_alpha 90.000000
_cell_angle_beta 90.000000
_cell_angle_gamma 90.000000
_cell_volume 3078.532966
_symmetry_space_group_name_H-M "P M M N"
_symmetry_group_IT_number 59
_space_group.IT_coordinate_system_code '2'
_symmetry_cell_setting 'orthorhombic'
loop_
_space_group_symop_operation_xyz
x,y,z
1/2-x,1/2-y,z
1/2+x,-y,-z
-x,1/2+y,-z
-x,-y,-z
1/2+x,1/2+y,-z
1/2-x,y,z
x,1/2-y,z
loop_
_atom_site_type_symbol
_atom_site_label
_atom_site_fract_x
_atom_site_fract_y
_atom_site_fract_z
Si Si1 0.950373 0.172082 0.377613
Si Si2 0.957400 0.933012 0.863022
Si Si3 0.950884 0.950777 0.714187
Si Si4 0.954669 0.172324 0.030410
Si Si5 0.042914 0.907031 0.344591
Si Si6 0.041016 0.827908 0.214594
Si Si7 0.459405 0.920332 0.090397
Si Si8 0.952923 0.672128 0.475072
O O1 0.750000 0.173631 0.361489
O O2 0.019616 0.250000 0.371059
O O3 0.033223 0.116706 0.329946
O O4 0.969454 0.152228 0.454419
O O5 0.750000 0.933111 0.862318
O O6 0.021127 0.939775 0.787813
O O7 0.013015 0.864581 0.900277
O O8 0.015538 0.000817 0.903121
O O9 0.750000 0.966093 0.724190
O O10 0.020944 0.017169 0.675536
O O11 0.750000 0.176539 0.020782
O O12 0.022767 0.250000 0.026587
O O13 0.021433 0.121916 0.972931
O O14 0.250000 0.907503 0.345222
O O15 0.986910 0.856240 0.285721
O O16 0.989032 0.878809 0.415294
O O17 0.250000 0.827538 0.214290
O O18 0.983671 0.750000 0.203097
O O19 0.989147 0.879166 0.156323
O O20 0.250000 0.921148 0.088971
O O21 0.750000 0.674871 0.484885
O O22 0.014141 0.750000 0.458734
#
# Coordination Sequence:
#
# PCOD9448658 Si02
#       8
#     8   8   8   8   8   8   8   8
#     4  10  22  40  61  83 106 138 185 235 277 322
#     4  10  20  36  57  79 108 145 184 225 271 329
#     4  10  21  37  57  82 112 144 181 226 276 332
#     4  10  21  35  53  80 111 142 182 231 277 323
#     4  10  19  33  54  82 113 144 182 226 269 322
#     4   9  15  25  48  80 109 139 177 221 266 311
#     4   9  16  31  53  78 108 142 180 223 270 321
#     4  10  21  37  57  82 114 150 184 221 271 328
#
# _framework density 20.789124000000001
#
# number of rings (size 3 to 8) (size 9 to 14) (size 15 to 20)
#    0.000    2.250    1.250    1.875    0.000    5.750 
#    0.000    2.500    0.000    0.750    0.000    0.000 
#    0.000    0.000    0.000    0.000    0.000    0.000 
#
# Total GULP energy -357393.875125 kJ/mol
# GULP energy per Si atom -5584.279299 kJ/mol
# Density = 2.074181 g / cm^3
# Si number density = 20.789124 Si / 1000 Ang^3
#
#
#
# Elastic Constant Matrix: (Units=GPa)
#
#
# Indices 1 2 3 4 5 6 
#
# 1 25.2170 -6.3113 -7.6791 0.0000 0.0000 0.0000
# 2 -6.3113 93.1979 59.2006 0.0000 0.0000 0.0000
# 3 -7.6791 59.2006 97.4289 0.0000 0.0000 0.0000
# 4 0.0000 0.0000 0.0000 35.3438 0.0000 0.0000
# 5 0.0000 0.0000 0.0000 0.0000 15.2134 0.0000
# 6 0.0000 0.0000 0.0000 0.0000 0.0000 15.4029
#
#
#
# Elastic Compliance Matrix: (Units=1/GPa)
#
#
# Indices 1 2 3 4 5 6 
#
# 1 0.040709 0.001170 0.002497 0.000000 0.000000 0.000000
# 2 0.001170 0.017508 -0.010546 0.000000 0.000000 0.000000
# 3 0.002497 -0.010546 0.016869 0.000000 0.000000 0.000000
# 4 0.000000 0.000000 0.000000 0.028294 0.000000 0.000000
# 5 0.000000 0.000000 0.000000 0.000000 0.065731 0.000000
# 6 0.000000 0.000000 0.000000 0.000000 0.000000 0.064923
#
#
# Mechanical properties :
#
#
# Convention : Reuss Voigt Hill
#
# Bulk Modulus (GPa) = 16.30534 34.02933 25.16733
# Shear Modulus (GPa) = 18.64042 24.56759 21.60401
#
# Velocity S-wave (km/s) = 2.99765 3.44139 3.22716
# Velocity P-wave (km/s) = 4.45437 5.67409 5.10082
#
# Compressibility (1/GPa) = 0.06132962
#
# Stress axis : x y z
#
# Youngs Moduli (GPa) = 24.56444 57.11590 59.28046
#
# Poissons Ratio (x) = -0.06685 -0.14805
# Poissons Ratio (y) = -0.02875 0.62519
# Poissons Ratio (z) = -0.06135 0.60236
#
# Static dielectric constant tensor:
#      x y z
#    x 1.772470 0.000000 0.000000 
#    y 0.000000 1.736630 0.000000 
#    z 0.000000 0.000000 1.712600 
# 
# From -- ./inp_files/28212.got.cif
#   From: 2010.05.17/outbox.cif.g08.bks.cpg/sg59_15_cif.got.tgz:28212.got - 2010.06.03 14:40:33.
