data_PCOD9448010
_publ_section_title
;
Structure prediction by ZEFSAII (Michael W. Deem and Ramdas Pophale) SiO2 
 PCOD9448010
Probable space group: P M M N
;
_chemical_formula_sum "Si O2"
_cell_formula_units_Z 40
_cell_length_a 21.138614
_cell_length_b 8.979739
_cell_length_c 12.791400
_cell_angle_alpha 90.000000
_cell_angle_beta 90.000000
_cell_angle_gamma 90.000000
_cell_volume 2428.053782
_symmetry_space_group_name_H-M "P M M N"
_symmetry_group_IT_number 59
_space_group.IT_coordinate_system_code '2'
_symmetry_cell_setting 'orthorhombic'
loop_
_space_group_symop_operation_xyz
x,y,z
1/2-x,1/2-y,z
1/2+x,-y,-z
-x,1/2+y,-z
-x,-y,-z
1/2+x,1/2+y,-z
1/2-x,y,z
x,1/2-y,z
loop_
_atom_site_type_symbol
_atom_site_label
_atom_site_fract_x
_atom_site_fract_y
_atom_site_fract_z
Si Si1 0.545930 0.573050 0.148006
Si Si2 0.087072 0.427086 0.082195
Si Si3 0.910122 0.573233 0.576143
Si Si4 0.324502 0.927628 0.246727
Si Si5 0.057135 0.573489 0.637223
O O1 0.537867 0.750000 0.162337
O O2 0.477698 0.499129 0.125542
O O3 0.573489 0.500107 0.252228
O O4 0.586310 0.548522 0.042580
O O5 0.085370 0.250000 0.102067
O O6 0.144544 0.500755 0.143633
O O7 0.899483 0.750000 0.571559
O O8 0.861658 0.496982 0.655198
O O9 0.908606 0.502053 0.461057
O O10 0.981712 0.549137 0.618693
O O11 0.250000 0.958520 0.252888
O O12 0.334056 0.750000 0.245239
O O13 0.068266 0.750000 0.638281
#
# Coordination Sequence:
#
# PCOD9448010 Si02
#       5
#     8   8   8   8   8
#     4  10  19  31  51  77 108 138 168 214 264 312
#     4  10  20  33  50  76 105 138 176 212 259 310
#     4  10  20  33  51  76 105 138 175 213 260 310
#     4  11  23  37  54  76 105 141 178 217 259 305
#     4  10  19  31  51  78 108 138 169 212 264 314
#
# _framework density 16.474098999999999
#
# number of rings (size 3 to 8) (size 9 to 14) (size 15 to 20)
#    0.000    1.800    2.000    3.000    0.000    5.600 
#    0.000    0.000    0.000    1.200    0.000    5.600 
#    0.000    0.000    0.000    0.000    0.000    0.000 
#
# Total GULP energy -223327.897220 kJ/mol
# GULP energy per Si atom -5583.197430 kJ/mol
# Density = 1.643660 g / cm^3
# Si number density = 16.474099 Si / 1000 Ang^3
#
#
#
# Elastic Constant Matrix: (Units=GPa)
#
#
# Indices 1 2 3 4 5 6 
#
# 1 74.0230 63.3966 54.3219 0.0000 0.0000 0.0000
# 2 63.3966 105.2338 87.6035 0.0000 0.0000 0.0000
# 3 54.3219 87.6035 153.2947 0.0000 0.0000 0.0000
# 4 0.0000 0.0000 0.0000 35.0505 0.0000 0.0000
# 5 0.0000 0.0000 0.0000 0.0000 17.3469 0.0000
# 6 0.0000 0.0000 0.0000 0.0000 0.0000 22.3375
#
#
#
# Elastic Compliance Matrix: (Units=1/GPa)
#
#
# Indices 1 2 3 4 5 6 
#
# 1 0.027932 -0.016380 -0.000537 0.000000 0.000000 0.000000
# 2 -0.016380 0.027731 -0.010043 0.000000 0.000000 0.000000
# 3 -0.000537 -0.010043 0.012453 0.000000 0.000000 0.000000
# 4 0.000000 0.000000 0.000000 0.028530 0.000000 0.000000
# 5 0.000000 0.000000 0.000000 0.000000 0.057647 0.000000
# 6 0.000000 0.000000 0.000000 0.000000 0.000000 0.044768
#
#
# Mechanical properties :
#
#
# Convention : Reuss Voigt Hill
#
# Bulk Modulus (GPa) = 70.44492 82.57729 76.51110
# Shear Modulus (GPa) = 19.40131 23.42894 21.41513
#
# Velocity S-wave (km/s) = 3.43547 3.77526 3.60936
# Velocity P-wave (km/s) = 7.65444 8.32092 7.99463
#
# Compressibility (1/GPa) = 0.01419549
#
# Stress axis : x y z
#
# Youngs Moduli (GPa) = 35.80083 36.06069 80.30107
#
# Poissons Ratio (x) = 0.59067 0.04316
# Poissons Ratio (y) = 0.58642 0.80647
# Poissons Ratio (z) = 0.01924 0.36216
#
# Static dielectric constant tensor:
#      x y z
#    x 1.517530 0.000000 0.000000 
#    y 0.000000 1.544930 0.000000 
#    z 0.000000 0.000000 1.564090 
# 
# From -- ./inp_files/13874.got.cif
#   From: 2010.05.17/outbox.cif.g08.bks.cpg/sg59_7_cif.got.tgz:13874.got - 2010.06.03 14:40:33.
