data_PCOD9448512
_publ_section_title
;
Structure prediction by ZEFSAII (Michael W. Deem and Ramdas Pophale) SiO2 
 PCOD9448512
Probable space group: P M M N
;
_chemical_formula_sum "Si O2"
_cell_formula_units_Z 64
_cell_length_a 20.657011
_cell_length_b 8.589017
_cell_length_c 20.645682
_cell_angle_alpha 90.000000
_cell_angle_beta 90.000000
_cell_angle_gamma 90.000000
_cell_volume 3663.027481
_symmetry_space_group_name_H-M "P M M N"
_symmetry_group_IT_number 59
_space_group.IT_coordinate_system_code '2'
_symmetry_cell_setting 'orthorhombic'
loop_
_space_group_symop_operation_xyz
x,y,z
1/2-x,1/2-y,z
1/2+x,-y,-z
-x,1/2+y,-z
-x,-y,-z
1/2+x,1/2+y,-z
1/2-x,y,z
x,1/2-y,z
loop_
_atom_site_type_symbol
_atom_site_label
_atom_site_fract_x
_atom_site_fract_y
_atom_site_fract_z
Si Si1 0.545514 0.564388 0.330393
Si Si2 0.676515 0.060265 0.092811
Si Si3 0.322858 0.940109 0.431122
Si Si4 0.395465 0.563162 0.303492
Si Si5 0.823913 0.062197 0.944072
Si Si6 0.582245 0.564423 0.834809
Si Si7 0.566521 0.063340 0.469722
Si Si8 0.935088 0.061535 0.190799
O O1 0.552192 0.750000 0.332240
O O2 0.468562 0.527725 0.327056
O O3 0.572902 0.492502 0.396036
O O4 0.574340 0.499094 0.263680
O O5 0.750000 0.011680 0.109658
O O6 0.676158 0.250000 0.093530
O O7 0.621337 0.008120 0.142391
O O8 0.663290 0.013383 0.018451
O O9 0.250000 0.991899 0.443977
O O10 0.323465 0.750000 0.431047
O O11 0.347186 0.988310 0.359944
O O12 0.374209 0.990136 0.485116
O O13 0.390575 0.750000 0.296344
O O14 0.386999 0.487948 0.233454
O O15 0.750000 0.013787 0.927605
O O16 0.825214 0.250000 0.942606
O O17 0.876413 0.000563 0.894048
O O18 0.581789 0.750000 0.838330
O O19 0.506937 0.510759 0.832583
O O20 0.564192 0.250000 0.471436
O O21 0.500000 0.000000 0.500000
O O22 0.935031 0.250000 0.192235
#
# Coordination Sequence:
#
# PCOD9448512 Si02
#       8
#     8   8   8   8   8   8   8   8
#     4  10  19  33  52  77 103 132 171 209 248 300
#     4   8  15  31  55  77  97 128 175 220 253 297
#     4   9  18  33  52  75 101 129 168 214 251 290
#     4   9  17  32  51  71  96 130 171 207 243 293
#     4   9  18  33  52  72  95 131 177 216 249 296
#     4  10  20  31  46  74 108 135 161 203 258 308
#     4  11  20  33  55  80 102 132 171 211 255 302
#     4   9  18  33  52  77 105 132 164 211 261 301
#
# _framework density 17.471886000000001
#
# number of rings (size 3 to 8) (size 9 to 14) (size 15 to 20)
#    0.000    2.625    1.250    1.875    0.000    2.250 
#    0.000    2.500    0.000    7.875    0.000    0.000 
#    0.000    0.000    0.000    0.000    0.000    0.000 
#
# Total GULP energy -356879.588970 kJ/mol
# GULP energy per Si atom -5576.243578 kJ/mol
# Density = 1.743212 g / cm^3
# Si number density = 17.471886 Si / 1000 Ang^3
#
#
#
# Elastic Constant Matrix: (Units=GPa)
#
#
# Indices 1 2 3 4 5 6 
#
# 1 131.9187 23.9248 113.0989 0.0000 0.0000 0.0000
# 2 23.9248 12.2122 28.4384 0.0000 0.0000 0.0000
# 3 113.0989 28.4384 163.5338 0.0000 0.0000 0.0000
# 4 0.0000 0.0000 0.0000 24.7853 0.0000 0.0000
# 5 0.0000 0.0000 0.0000 0.0000 30.7807 0.0000
# 6 0.0000 0.0000 0.0000 0.0000 0.0000 18.6121
#
#
#
# Elastic Compliance Matrix: (Units=1/GPa)
#
#
# Indices 1 2 3 4 5 6 
#
# 1 0.019529 -0.011440 -0.011517 0.000000 0.000000 0.000000
# 2 -0.011440 0.144314 -0.017184 0.000000 0.000000 0.000000
# 3 -0.011517 -0.017184 0.017068 0.000000 0.000000 0.000000
# 4 0.000000 0.000000 0.000000 0.040346 0.000000 0.000000
# 5 0.000000 0.000000 0.000000 0.000000 0.032488 0.000000
# 6 0.000000 0.000000 0.000000 0.000000 0.000000 0.053729
#
#
# Mechanical properties :
#
#
# Convention : Reuss Voigt Hill
#
# Bulk Modulus (GPa) = 9.93749 70.95433 40.44591
# Shear Modulus (GPa) = 11.86808 24.31580 18.09194
#
# Velocity S-wave (km/s) = 2.60910 3.73461 3.22139
# Velocity P-wave (km/s) = 3.84404 7.70033 6.08571
#
# Compressibility (1/GPa) = 0.10062901
#
# Stress axis : x y z
#
# Youngs Moduli (GPa) = 51.20656 6.92934 58.58914
#
# Poissons Ratio (x) = 0.07927 0.67474
# Poissons Ratio (y) = 0.58581 1.00681
# Poissons Ratio (z) = 0.58972 0.11908
#
# Static dielectric constant tensor:
#      x y z
#    x 1.591650 0.000000 0.000000 
#    y 0.000000 1.596770 0.000000 
#    z 0.000000 0.000000 1.575850 
# 
# From -- ./inp_files/29368.got.cif
#   From: 2010.05.17/outbox.cif.g08.bks.cpg/sg59_15_cif.got.tgz:29368.got - 2010.06.03 14:40:33.
