data_PCOD9448102
_publ_section_title
;
Structure prediction by ZEFSAII (Michael W. Deem and Ramdas Pophale) SiO2 
 PCOD9448102
Probable space group: P M M N
;
_chemical_formula_sum "Si O2"
_cell_formula_units_Z 64
_cell_length_a 7.451866
_cell_length_b 21.670965
_cell_length_c 18.005117
_cell_angle_alpha 90.000000
_cell_angle_beta 90.000000
_cell_angle_gamma 90.000000
_cell_volume 2907.630631
_symmetry_space_group_name_H-M "P M M N"
_symmetry_group_IT_number 59
_space_group.IT_coordinate_system_code '2'
_symmetry_cell_setting 'orthorhombic'
loop_
_space_group_symop_operation_xyz
x,y,z
1/2-x,1/2-y,z
1/2+x,-y,-z
-x,1/2+y,-z
-x,-y,-z
1/2+x,1/2+y,-z
1/2-x,y,z
x,1/2-y,z
loop_
_atom_site_type_symbol
_atom_site_label
_atom_site_fract_x
_atom_site_fract_y
_atom_site_fract_z
Si Si1 0.030123 0.178492 0.805190
Si Si2 0.534660 0.567292 0.914692
Si Si3 0.963154 0.995494 0.589216
Si Si4 0.464208 0.071180 0.915869
Si Si5 0.468787 0.137476 0.350544
Si Si6 0.542546 0.876619 0.350377
Si Si7 0.969715 0.820008 0.811567
Si Si8 0.954989 0.679793 0.495067
O O1 0.250000 0.178057 0.806085
O O2 0.976104 0.250000 0.816276
O O3 0.969968 0.128318 0.866370
O O4 0.969712 0.152154 0.725070
O O5 0.750000 0.571922 0.917316
O O6 0.496308 0.498107 0.885330
O O7 0.470707 0.624834 0.865764
O O8 0.465688 0.571547 0.999466
O O9 0.750000 0.998483 0.596014
O O10 0.040115 0.050290 0.639434
O O11 0.022560 0.931257 0.625436
O O12 0.000000 0.000000 0.500000
O O13 0.250000 0.078296 0.919901
O O14 0.250000 0.139704 0.345504
O O15 0.529862 0.162670 0.271696
O O16 0.528180 0.175895 0.422354
O O17 0.750000 0.855114 0.351998
O O18 0.454766 0.855151 0.427568
O O19 0.750000 0.820080 0.812564
O O20 0.024618 0.750000 0.831047
O O21 0.750000 0.654251 0.501869
O O22 0.945732 0.750000 0.471829
#
# Coordination Sequence:
#
# PCOD9448102 Si02
#       8
#     8   8   8   8   8   8   8   8
#     4   9  18  32  52  78 105 134 173 219 261 306
#     4   9  18  32  52  77 105 135 168 208 255 307
#     4  11  21  34  51  73  99 131 170 211 257 304
#     4   9  18  33  52  76 105 137 171 207 252 307
#     4   9  17  28  43  68  98 124 157 202 248 294
#     4  10  19  32  49  73 100 127 166 211 254 302
#     4   9  17  29  47  74 103 128 162 210 257 298
#     4   9  15  25  44  66  89 120 157 198 241 285
#
# _framework density 22.011049
#
# number of rings (size 3 to 8) (size 9 to 14) (size 15 to 20)
#    0.000    2.625    1.250    1.125    1.750    3.500 
#    0.000    2.500    0.000    3.000    0.000    3.500 
#    0.000    0.000    0.000    0.000    0.000    0.000 
#
# Total GULP energy -356923.647733 kJ/mol
# GULP energy per Si atom -5576.931996 kJ/mol
# Density = 2.196095 g / cm^3
# Si number density = 22.011049 Si / 1000 Ang^3
#
#
#
# Elastic Constant Matrix: (Units=GPa)
#
#
# Indices 1 2 3 4 5 6 
#
# 1 68.1620 0.0456 7.0000 0.0000 0.0000 0.0000
# 2 0.0456 184.7095 83.9125 0.0000 0.0000 0.0000
# 3 7.0000 83.9125 102.9028 0.0000 0.0000 0.0000
# 4 0.0000 0.0000 0.0000 24.1626 0.0000 0.0000
# 5 0.0000 0.0000 0.0000 0.0000 -2.4533 0.0000
# 6 0.0000 0.0000 0.0000 0.0000 0.0000 17.2299
#
#
#
# Elastic Compliance Matrix: (Units=1/GPa)
#
#
# Indices 1 2 3 4 5 6 
#
# 1 0.014835 0.000722 -0.001598 0.000000 0.000000 0.000000
# 2 0.000722 0.008635 -0.007091 0.000000 0.000000 0.000000
# 3 -0.001598 -0.007091 0.015609 0.000000 0.000000 0.000000
# 4 0.000000 0.000000 0.000000 0.041386 0.000000 0.000000
# 5 0.000000 0.000000 0.000000 0.000000 -0.407621 0.000000
# 6 0.000000 0.000000 0.000000 0.000000 0.000000 0.058039
#
#
# Mechanical properties :
#
#
# Convention : Reuss Voigt Hill
#
# Bulk Modulus (GPa) = 43.20503 59.74338 51.47421
# Shear Modulus (GPa) = -20.36906 25.44226 2.53660
#
# Velocity S-wave (km/s) = -3.04534 3.40352 1.07467
# Velocity P-wave (km/s) = 2.70295 6.53044 4.99763
#
# Compressibility (1/GPa) = 0.02314545
#
# Stress axis : x y z
#
# Youngs Moduli (GPa) = 67.41004 115.80901 64.06718
#
# Poissons Ratio (x) = -0.08366 0.10239
# Poissons Ratio (y) = -0.04870 0.45427
# Poissons Ratio (z) = 0.10774 0.82114
#
# Static dielectric constant tensor:
#      x y z
#    x 1.852650 0.000000 0.000000 
#    y 0.000000 1.810140 0.000000 
#    z 0.000000 0.000000 1.804560 
# 
# From -- ./inp_files/26188.got.cif
#   From: 2010.05.17/outbox.cif.g08.bks.cpg/sg59_14_cif.got.tgz:26188.got - 2010.06.03 14:40:33.
