data_PCOD9448758
_publ_section_title
;
Structure prediction by ZEFSAII (Michael W. Deem and Ramdas Pophale) SiO2 
 PCOD9448758
Probable space group: P M M N
;
_chemical_formula_sum "Si O2"
_cell_formula_units_Z 64
_cell_length_a 8.710084
_cell_length_b 18.282992
_cell_length_c 22.131740
_cell_angle_alpha 90.000000
_cell_angle_beta 90.000000
_cell_angle_gamma 90.000000
_cell_volume 3524.399834
_symmetry_space_group_name_H-M "P M M N"
_symmetry_group_IT_number 59
_space_group.IT_coordinate_system_code '2'
_symmetry_cell_setting 'orthorhombic'
loop_
_space_group_symop_operation_xyz
x,y,z
1/2-x,1/2-y,z
1/2+x,-y,-z
-x,1/2+y,-z
-x,-y,-z
1/2+x,1/2+y,-z
1/2-x,y,z
x,1/2-y,z
loop_
_atom_site_type_symbol
_atom_site_label
_atom_site_fract_x
_atom_site_fract_y
_atom_site_fract_z
Si Si1 0.564335 0.165132 0.730018
Si Si2 0.567335 0.522471 0.935619
Si Si3 0.934975 0.167603 0.120440
Si Si4 0.435356 0.833800 0.504561
Si Si5 0.433577 0.602751 0.751696
Si Si6 0.433777 0.451805 0.817062
Si Si7 0.936975 0.425191 0.611396
Si Si8 0.433445 0.406163 0.376582
O O1 0.750000 0.162114 0.732540
O O2 0.518830 0.250000 0.728478
O O3 0.497050 0.121110 0.786525
O O4 0.514941 0.122753 0.669115
O O5 0.750000 0.518420 0.936610
O O6 0.513766 0.604224 0.917922
O O7 0.503038 0.470805 0.882196
O O8 0.500000 0.500000 0.000000
O O9 0.750000 0.158963 0.115260
O O10 0.976235 0.250000 0.102990
O O11 0.972799 0.153271 0.190999
O O12 0.250000 0.836617 0.506222
O O13 0.479874 0.750000 0.491860
O O14 0.488063 0.887002 0.450597
O O15 0.498493 0.860052 0.568572
O O16 0.250000 0.605616 0.743150
O O17 0.475316 0.520496 0.773450
O O18 0.513764 0.620862 0.689069
O O19 0.250000 0.450142 0.821616
O O20 0.750000 0.425172 0.611287
O O21 0.986911 0.509215 0.616795
O O22 0.250000 0.404991 0.380008
#
# Coordination Sequence:
#
# PCOD9448758 Si02
#       8
#     8   8   8   8   8   8   8   8
#     4  10  19  33  56  84 113 144 181 228 283 339
#     4  11  22  38  62  89 119 155 196 235 276 328
#     4   9  19  37  60  87 120 154 190 233 280 330
#     4  10  21  37  54  71  98 140 185 227 276 339
#     4   9  18  33  54  80 109 145 183 219 267 329
#     4  10  20  36  57  82 114 147 184 228 273 327
#     4   9  18  34  55  78 103 137 183 227 275 337
#     4  11  21  33  53  79 107 137 176 231 283 330
#
# _framework density 18.159120000000001
#
# number of rings (size 3 to 8) (size 9 to 14) (size 15 to 20)
#    0.000    2.125    1.250    3.375    0.000    4.750 
#    0.000    3.125    0.000    5.250    0.000    0.000 
#    0.000    0.000    0.000    0.000    0.000    0.000 
#
# Total GULP energy -357338.359504 kJ/mol
# GULP energy per Si atom -5583.411867 kJ/mol
# Density = 1.811779 g / cm^3
# Si number density = 18.159120 Si / 1000 Ang^3
#
#
#
# Elastic Constant Matrix: (Units=GPa)
#
#
# Indices 1 2 3 4 5 6 
#
# 1 26.1260 14.4678 24.2814 0.0000 0.0000 0.0000
# 2 14.4678 44.8826 16.3576 0.0000 0.0000 0.0000
# 3 24.2814 16.3576 114.7862 0.0000 0.0000 0.0000
# 4 0.0000 0.0000 0.0000 18.3163 0.0000 0.0000
# 5 0.0000 0.0000 0.0000 0.0000 23.5880 0.0000
# 6 0.0000 0.0000 0.0000 0.0000 0.0000 25.3136
#
#
#
# Elastic Compliance Matrix: (Units=1/GPa)
#
#
# Indices 1 2 3 4 5 6 
#
# 1 0.055120 -0.014259 -0.009628 0.000000 0.000000 0.000000
# 2 -0.014259 0.027189 -0.000858 0.000000 0.000000 0.000000
# 3 -0.009628 -0.000858 0.010871 0.000000 0.000000 0.000000
# 4 0.000000 0.000000 0.000000 0.054596 0.000000 0.000000
# 5 0.000000 0.000000 0.000000 0.000000 0.042394 0.000000
# 6 0.000000 0.000000 0.000000 0.000000 0.000000 0.039504
#
#
# Mechanical properties :
#
#
# Convention : Reuss Voigt Hill
#
# Bulk Modulus (GPa) = 22.88844 32.88980 27.88912
# Shear Modulus (GPa) = 17.02246 22.15613 19.58929
#
# Velocity S-wave (km/s) = 3.06503 3.49680 3.28801
# Velocity P-wave (km/s) = 5.01574 5.86982 5.45950
#
# Compressibility (1/GPa) = 0.04369017
#
# Stress axis : x y z
#
# Youngs Moduli (GPa) = 18.14214 36.77890 91.98937
#
# Poissons Ratio (x) = 0.52443 0.88567
# Poissons Ratio (y) = 0.25869 0.07896
# Poissons Ratio (z) = 0.17467 0.03157
#
# Static dielectric constant tensor:
#      x y z
#    x 1.610520 0.000000 0.000000 
#    y 0.000000 1.617640 0.000000 
#    z 0.000000 0.000000 1.594980 
# 
# From -- ./inp_files/29437.got.cif
#   From: 2010.05.17/outbox.cif.g08.bks.cpg/sg59_15_cif.got.tgz:29437.got - 2010.06.03 14:40:33.
