data_PCOD9448484
_publ_section_title
;
Structure prediction by ZEFSAII (Michael W. Deem and Ramdas Pophale) SiO2 
 PCOD9448484
Probable space group: P M M N
;
_chemical_formula_sum "Si O2"
_cell_formula_units_Z 64
_cell_length_a 9.189825
_cell_length_b 24.139361
_cell_length_c 15.263282
_cell_angle_alpha 90.000000
_cell_angle_beta 90.000000
_cell_angle_gamma 90.000000
_cell_volume 3385.953106
_symmetry_space_group_name_H-M "P M M N"
_symmetry_group_IT_number 59
_space_group.IT_coordinate_system_code '2'
_symmetry_cell_setting 'orthorhombic'
loop_
_space_group_symop_operation_xyz
x,y,z
1/2-x,1/2-y,z
1/2+x,-y,-z
-x,1/2+y,-z
-x,-y,-z
1/2+x,1/2+y,-z
1/2-x,y,z
x,1/2-y,z
loop_
_atom_site_type_symbol
_atom_site_label
_atom_site_fract_x
_atom_site_fract_y
_atom_site_fract_z
Si Si1 0.577914 0.313488 0.949040
Si Si2 0.924530 0.600056 0.388392
Si Si3 0.575608 0.105594 0.110762
Si Si4 0.075941 0.382871 0.811430
Si Si5 0.575154 0.864244 0.572210
Si Si6 0.581146 0.003977 0.844181
Si Si7 0.924749 0.187731 0.266679
Si Si8 0.582088 0.987576 0.634658
O O1 0.750000 0.318798 0.929144
O O2 0.550727 0.250000 0.974760
O O3 0.485069 0.331684 0.865760
O O4 0.545428 0.355306 0.028126
O O5 0.750000 0.596398 0.390489
O O6 0.967376 0.619585 0.291219
O O7 0.968126 0.638312 0.470153
O O8 0.987107 0.538315 0.399838
O O9 0.750000 0.096203 0.115588
O O10 0.493753 0.047281 0.107270
O O11 0.530606 0.140966 0.196667
O O12 0.250000 0.386564 0.816374
O O13 0.004131 0.438356 0.851782
O O14 0.750000 0.857395 0.579532
O O15 0.496537 0.824215 0.639836
O O16 0.538630 0.927037 0.602193
O O17 0.750000 0.010673 0.869273
O O18 0.574509 0.989367 0.740345
O O19 0.750000 0.184594 0.274024
O O20 0.961430 0.250000 0.236217
O O21 0.750000 0.996605 0.608943
#
# Coordination Sequence:
#
# PCOD9448484 Si02
#       8
#     8   8   8   8   8   8   8   8
#     4  10  22  41  63  84 106 139 185 233 282 333
#     4   9  19  33  52  77 108 143 181 222 268 320
#     4  10  20  36  59  84 111 142 179 225 278 336
#     4  10  21  38  58  83 114 147 186 231 277 328
#     4  10  19  33  51  76 108 143 182 222 266 318
#     4  10  19  33  55  85 119 150 180 220 272 331
#     4  10  21  36  54  78 109 145 184 227 274 328
#     4   9  17  29  48  77 111 142 176 218 263 315
#
# _framework density 18.901620000000001
#
# number of rings (size 3 to 8) (size 9 to 14) (size 15 to 20)
#    0.000    2.250    1.250    1.500    0.000    5.000 
#    0.000    0.625    0.000    6.000    0.000    0.000 
#    0.000    0.000    0.000    0.000    0.000    0.000 
#
# Total GULP energy -357253.747986 kJ/mol
# GULP energy per Si atom -5582.089812 kJ/mol
# Density = 1.885860 g / cm^3
# Si number density = 18.901620 Si / 1000 Ang^3
#
#
#
# Elastic Constant Matrix: (Units=GPa)
#
#
# Indices 1 2 3 4 5 6 
#
# 1 16.6788 10.1468 24.3321 0.0000 0.0000 0.0000
# 2 10.1468 25.7190 18.8524 0.0000 0.0000 0.0000
# 3 24.3321 18.8524 56.6435 0.0000 0.0000 0.0000
# 4 0.0000 0.0000 0.0000 24.2968 0.0000 0.0000
# 5 0.0000 0.0000 0.0000 0.0000 24.6016 0.0000
# 6 0.0000 0.0000 0.0000 0.0000 0.0000 29.8122
#
#
#
# Elastic Compliance Matrix: (Units=1/GPa)
#
#
# Indices 1 2 3 4 5 6 
#
# 1 0.166366 -0.017527 -0.065632 0.000000 0.000000 0.000000
# 2 -0.017527 0.053275 -0.010202 0.000000 0.000000 0.000000
# 3 -0.065632 -0.010202 0.049243 0.000000 0.000000 0.000000
# 4 0.000000 0.000000 0.000000 0.041158 0.000000 0.000000
# 5 0.000000 0.000000 0.000000 0.000000 0.040648 0.000000
# 6 0.000000 0.000000 0.000000 0.000000 0.000000 0.033543
#
#
# Mechanical properties :
#
#
# Convention : Reuss Voigt Hill
#
# Bulk Modulus (GPa) = 12.17098 22.85596 17.51347
# Shear Modulus (GPa) = 8.35642 18.78947 13.57294
#
# Velocity S-wave (km/s) = 2.10490 3.15630 2.68262
# Velocity P-wave (km/s) = 3.51576 5.03997 4.34522
#
# Compressibility (1/GPa) = 0.08216263
#
# Stress axis : x y z
#
# Youngs Moduli (GPa) = 6.01083 18.77053 20.30740
#
# Poissons Ratio (x) = 0.32898 1.33281
# Poissons Ratio (y) = 0.10535 0.20719
# Poissons Ratio (z) = 0.39450 0.19151
#
# Static dielectric constant tensor:
#      x y z
#    x 1.631180 0.000000 0.000000 
#    y 0.000000 1.626610 0.000000 
#    z 0.000000 0.000000 1.687520 
# 
# From -- ./inp_files/21607.got.cif
#   From: 2010.05.17/outbox.cif.g08.bks.cpg/sg59_11_cif.got.tgz:21607.got - 2010.06.03 14:40:33.
