data_PCOD9448414
_publ_section_title
;
Structure prediction by ZEFSAII (Michael W. Deem and Ramdas Pophale) SiO2 
 PCOD9448414
Probable space group: P M M N
;
_chemical_formula_sum "Si O2"
_cell_formula_units_Z 32
_cell_length_a 9.419388
_cell_length_b 15.861874
_cell_length_c 11.100036
_cell_angle_alpha 90.000000
_cell_angle_beta 90.000000
_cell_angle_gamma 90.000000
_cell_volume 1658.446895
_symmetry_space_group_name_H-M "P M M N"
_symmetry_group_IT_number 59
_space_group.IT_coordinate_system_code '2'
_symmetry_cell_setting 'orthorhombic'
loop_
_space_group_symop_operation_xyz
x,y,z
1/2-x,1/2-y,z
1/2+x,-y,-z
-x,1/2+y,-z
-x,-y,-z
1/2+x,1/2+y,-z
1/2-x,y,z
x,1/2-y,z
loop_
_atom_site_type_symbol
_atom_site_label
_atom_site_fract_x
_atom_site_fract_y
_atom_site_fract_z
Si Si1 0.406470 0.888179 0.028420
Si Si2 0.582547 0.750000 0.890324
Si Si3 0.078098 0.250000 0.398097
Si Si4 0.919818 0.075880 0.431038
Si Si5 0.596550 0.980697 0.184970
O O1 0.250000 0.850922 0.042104
O O2 0.471803 0.915943 0.156015
O O3 0.513332 0.828568 0.957744
O O4 0.390839 0.967310 0.938599
O O5 0.750000 0.750000 0.906067
O O6 0.554111 0.750000 0.747238
O O7 0.250000 0.250000 0.418795
O O8 0.001561 0.164854 0.446100
O O9 0.750000 0.081722 0.459750
O O10 0.930071 0.046319 0.291582
O O11 0.000000 0.000000 0.500000
O O12 0.750000 0.939479 0.209635
#
# Coordination Sequence:
#
# PCOD9448414 Si02
#       5
#     8   4   4   8   8
#     4  10  19  32  54  82 114 148 187 233 288 350
#     4  11  21  33  54  85 120 153 193 243 295 356
#     4  11  23  39  62  91 120 157 207 255 301 362
#     4  11  23  41  64  90 123 162 205 255 308 364
#     4   9  19  35  54  80 114 150 186 232 292 349
#
# _framework density 19.295161
#
# number of rings (size 3 to 8) (size 9 to 14) (size 15 to 20)
#    0.000    1.750    2.500    2.250    0.000    4.000 
#    0.000    1.250    0.000    7.500    0.000    0.000 
#    0.000    0.000    0.000    0.000    0.000    0.000 
#
# Total GULP energy -178234.079662 kJ/mol
# GULP energy per Si atom -5569.814989 kJ/mol
# Density = 1.925124 g / cm^3
# Si number density = 19.295161 Si / 1000 Ang^3
#
#
#
# Elastic Constant Matrix: (Units=GPa)
#
#
# Indices 1 2 3 4 5 6 
#
# 1 147.5970 87.7005 35.4366 0.0000 0.0000 0.0000
# 2 87.7005 106.6784 25.2643 0.0000 0.0000 0.0000
# 3 35.4366 25.2643 26.2814 0.0000 0.0000 0.0000
# 4 0.0000 0.0000 0.0000 22.6069 0.0000 0.0000
# 5 0.0000 0.0000 0.0000 0.0000 21.0535 0.0000
# 6 0.0000 0.0000 0.0000 0.0000 0.0000 47.1569
#
#
#
# Elastic Compliance Matrix: (Units=1/GPa)
#
#
# Indices 1 2 3 4 5 6 
#
# 1 0.015408 -0.010030 -0.011133 0.000000 0.000000 0.000000
# 2 -0.010030 0.018667 -0.004420 0.000000 0.000000 0.000000
# 3 -0.011133 -0.004420 0.057310 0.000000 0.000000 0.000000
# 4 0.000000 0.000000 0.000000 0.044234 0.000000 0.000000
# 5 0.000000 0.000000 0.000000 0.000000 0.047498 0.000000
# 6 0.000000 0.000000 0.000000 0.000000 0.000000 0.021206
#
#
# Mechanical properties :
#
#
# Convention : Reuss Voigt Hill
#
# Bulk Modulus (GPa) = 24.86451 64.15108 44.50780
# Shear Modulus (GPa) = 18.59450 26.97381 22.78415
#
# Velocity S-wave (km/s) = 3.10770 3.74298 3.44004
# Velocity P-wave (km/s) = 5.07853 7.21105 6.23662
#
# Compressibility (1/GPa) = 0.04021796
#
# Stress axis : x y z
#
# Youngs Moduli (GPa) = 64.90044 53.57129 17.44884
#
# Poissons Ratio (x) = 0.53734 0.19427
# Poissons Ratio (y) = 0.65098 0.07712
# Poissons Ratio (z) = 0.72257 0.23677
#
# Static dielectric constant tensor:
#      x y z
#    x 1.745840 0.000000 0.000000 
#    y 0.000000 1.795310 0.000000 
#    z 0.000000 0.000000 1.660170 
# 
# From -- ./inp_files/13691.got.cif
#   From: 2010.05.17/outbox.cif.g08.bks.cpg/sg59_7_cif.got.tgz:13691.got - 2010.06.03 14:40:33.
