data_PCOD9448316
_publ_section_title
;
Structure prediction by ZEFSAII (Michael W. Deem and Ramdas Pophale) SiO2 
 PCOD9448316
Probable space group: P M M N
;
_chemical_formula_sum "Si O2"
_cell_formula_units_Z 40
_cell_length_a 19.987175
_cell_length_b 8.877643
_cell_length_c 13.017910
_cell_angle_alpha 90.000000
_cell_angle_beta 90.000000
_cell_angle_gamma 90.000000
_cell_volume 2309.884988
_symmetry_space_group_name_H-M "P M M N"
_symmetry_group_IT_number 59
_space_group.IT_coordinate_system_code '2'
_symmetry_cell_setting 'orthorhombic'
loop_
_space_group_symop_operation_xyz
x,y,z
1/2-x,1/2-y,z
1/2+x,-y,-z
-x,1/2+y,-z
-x,-y,-z
1/2+x,1/2+y,-z
1/2-x,y,z
x,1/2-y,z
loop_
_atom_site_type_symbol
_atom_site_label
_atom_site_fract_x
_atom_site_fract_y
_atom_site_fract_z
Si Si1 0.427434 0.930642 0.974563
Si Si2 0.896380 0.071464 0.802158
Si Si3 0.828684 0.572438 0.610310
Si Si4 0.555629 0.929179 0.235082
Si Si5 0.568078 0.070572 0.454559
O O1 0.432776 0.750000 0.966004
O O2 0.408858 0.001810 0.865464
O O3 0.385187 0.963960 0.077416
O O4 0.500000 0.000000 0.000000
O O5 0.884534 0.250000 0.786970
O O6 0.975266 0.044955 0.777541
O O7 0.852857 0.977563 0.723083
O O8 0.750000 0.544715 0.598407
O O9 0.841727 0.750000 0.596199
O O10 0.872157 0.480428 0.528561
O O11 0.565665 0.750000 0.239126
O O12 0.577566 0.006777 0.340159
O O13 0.561897 0.250000 0.453028
O O14 0.500000 0.000000 0.500000
#
# Coordination Sequence:
#
# PCOD9448316 Si02
#       5
#     8   8   8   8   8
#     4   9  17  29  47  75 109 141 176 218 269 325
#     4   9  18  32  52  77 108 144 181 222 272 327
#     4  11  24  39  56  80 111 148 189 232 281 337
#     4  10  19  32  52  81 112 142 180 226 277 330
#     4  12  23  36  57  82 111 147 187 233 283 336
#
# _framework density 17.316879
#
# number of rings (size 3 to 8) (size 9 to 14) (size 15 to 20)
#    0.000    1.800    2.000    4.800    0.000    5.600 
#    0.000    0.000    0.000    1.200    0.000    5.600 
#    0.000    0.000    0.000    0.000    0.000    0.000 
#
# Total GULP energy -223231.266611 kJ/mol
# GULP energy per Si atom -5580.781665 kJ/mol
# Density = 1.727746 g / cm^3
# Si number density = 17.316879 Si / 1000 Ang^3
#
#
#
# Elastic Constant Matrix: (Units=GPa)
#
#
# Indices 1 2 3 4 5 6 
#
# 1 38.3748 47.1766 39.4923 0.0000 0.0000 0.0000
# 2 47.1766 112.4251 82.3090 0.0000 0.0000 0.0000
# 3 39.4923 82.3090 173.6189 0.0000 0.0000 0.0000
# 4 0.0000 0.0000 0.0000 37.9493 0.0000 0.0000
# 5 0.0000 0.0000 0.0000 0.0000 14.4430 0.0000
# 6 0.0000 0.0000 0.0000 0.0000 0.0000 20.2774
#
#
#
# Elastic Compliance Matrix: (Units=1/GPa)
#
#
# Indices 1 2 3 4 5 6 
#
# 1 0.054461 -0.021111 -0.002380 0.000000 0.000000 0.000000
# 2 -0.021111 0.021807 -0.005536 0.000000 0.000000 0.000000
# 3 -0.002380 -0.005536 0.008926 0.000000 0.000000 0.000000
# 4 0.000000 0.000000 0.000000 0.026351 0.000000 0.000000
# 5 0.000000 0.000000 0.000000 0.000000 0.069238 0.000000
# 6 0.000000 0.000000 0.000000 0.000000 0.000000 0.049316
#
#
# Mechanical properties :
#
#
# Convention : Reuss Voigt Hill
#
# Bulk Modulus (GPa) = 36.84656 73.59719 55.22187
# Shear Modulus (GPa) = 16.82382 24.89667 20.86024
#
# Velocity S-wave (km/s) = 3.12031 3.79583 3.47453
# Velocity P-wave (km/s) = 5.85712 7.86153 6.93215
#
# Compressibility (1/GPa) = 0.02713958
#
# Stress axis : x y z
#
# Youngs Moduli (GPa) = 18.36180 45.85759 112.03797
#
# Poissons Ratio (x) = 0.96810 0.26661
# Poissons Ratio (y) = 0.38764 0.62025
# Poissons Ratio (z) = 0.04369 0.25387
#
# Static dielectric constant tensor:
#      x y z
#    x 1.587840 0.000000 0.000000 
#    y 0.000000 1.578420 0.000000 
#    z 0.000000 0.000000 1.565210 
# 
# From -- ./inp_files/13868.got.cif
#   From: 2010.05.17/outbox.cif.g08.bks.cpg/sg59_7_cif.got.tgz:13868.got - 2010.06.03 14:40:33.
