data_PCOD9448986
_publ_section_title
;
Structure prediction by ZEFSAII (Michael W. Deem and Ramdas Pophale) SiO2 
 PCOD9448986
Probable space group: P M M N
;
_chemical_formula_sum "Si O2"
_cell_formula_units_Z 64
_cell_length_a 9.001839
_cell_length_b 20.017260
_cell_length_c 19.150529
_cell_angle_alpha 90.000000
_cell_angle_beta 90.000000
_cell_angle_gamma 90.000000
_cell_volume 3450.775027
_symmetry_space_group_name_H-M "P M M N"
_symmetry_group_IT_number 59
_space_group.IT_coordinate_system_code '2'
_symmetry_cell_setting 'orthorhombic'
loop_
_space_group_symop_operation_xyz
x,y,z
1/2-x,1/2-y,z
1/2+x,-y,-z
-x,1/2+y,-z
-x,-y,-z
1/2+x,1/2+y,-z
1/2-x,y,z
x,1/2-y,z
loop_
_atom_site_type_symbol
_atom_site_label
_atom_site_fract_x
_atom_site_fract_y
_atom_site_fract_z
Si Si1 0.570554 0.672215 0.956979
Si Si2 0.424082 0.923604 0.071779
Si Si3 0.071544 0.009304 0.296278
Si Si4 0.930244 0.558360 0.856705
Si Si5 0.583039 0.178154 0.803176
Si Si6 0.573614 0.943201 0.549013
Si Si7 0.923826 0.632493 0.325309
Si Si8 0.922504 0.327904 0.531366
O O1 0.750000 0.673429 0.961342
O O2 0.520157 0.750000 0.959902
O O3 0.528190 0.630762 0.887013
O O4 0.509941 0.623452 0.017632
O O5 0.250000 0.928116 0.050926
O O6 0.431102 0.882682 0.144231
O O7 0.480747 0.998051 0.091307
O O8 0.250000 0.997373 0.292478
O O9 0.025893 0.043860 0.223335
O O10 0.042206 0.047587 0.368801
O O11 0.986490 0.940078 0.305777
O O12 0.750000 0.554563 0.858015
O O13 0.750000 0.174206 0.772081
O O14 0.572647 0.250000 0.840629
O O15 0.464102 0.175118 0.742466
O O16 0.750000 0.947621 0.539295
O O17 0.511737 0.873384 0.522052
O O18 0.500000 0.000000 0.500000
O O19 0.750000 0.630888 0.339811
O O20 0.010041 0.659199 0.392372
O O21 0.750000 0.348203 0.531728
O O22 0.932901 0.250000 0.514746
#
# Coordination Sequence:
#
# PCOD9448986 Si02
#       8
#     8   8   8   8   8   8   8   8
#     4  10  21  36  55  82 115 147 182 233 293 340
#     4  10  19  34  58  82 107 146 192 232 272 333
#     4  10  20  38  61  83 111 148 192 236 283 343
#     4   9  18  36  60  82 108 147 192 233 276 334
#     4  10  20  34  52  75 108 151 190 223 271 339
#     4  11  22  36  61  90 117 151 191 241 292 345
#     4  12  23  34  54  83 116 149 185 236 288 341
#     4  11  24  41  60  82 115 159 198 236 289 349
#
# _framework density 18.546558000000001
#
# number of rings (size 3 to 8) (size 9 to 14) (size 15 to 20)
#    0.000    1.625    2.500    3.000    0.000    4.500 
#    0.000    1.250    0.000    2.250    0.000    0.000 
#    0.000    0.000    0.000    0.000    0.000    0.000 
#
# Total GULP energy -357131.243776 kJ/mol
# GULP energy per Si atom -5580.175684 kJ/mol
# Density = 1.850435 g / cm^3
# Si number density = 18.546558 Si / 1000 Ang^3
#
#
#
# Elastic Constant Matrix: (Units=GPa)
#
#
# Indices 1 2 3 4 5 6 
#
# 1 35.3333 31.1544 34.3862 0.0000 0.0000 0.0000
# 2 31.1544 108.1313 53.4146 0.0000 0.0000 0.0000
# 3 34.3862 53.4146 86.4426 0.0000 0.0000 0.0000
# 4 0.0000 0.0000 0.0000 12.8329 0.0000 0.0000
# 5 0.0000 0.0000 0.0000 0.0000 22.1092 0.0000
# 6 0.0000 0.0000 0.0000 0.0000 0.0000 24.4777
#
#
#
# Elastic Compliance Matrix: (Units=1/GPa)
#
#
# Indices 1 2 3 4 5 6 
#
# 1 0.049144 -0.006480 -0.015545 0.000000 0.000000 0.000000
# 2 -0.006480 0.014166 -0.006175 0.000000 0.000000 0.000000
# 3 -0.015545 -0.006175 0.021568 0.000000 0.000000 0.000000
# 4 0.000000 0.000000 0.000000 0.077925 0.000000 0.000000
# 5 0.000000 0.000000 0.000000 0.000000 0.045230 0.000000
# 6 0.000000 0.000000 0.000000 0.000000 0.000000 0.040854
#
#
# Mechanical properties :
#
#
# Convention : Reuss Voigt Hill
#
# Bulk Modulus (GPa) = 35.11682 51.97974 43.54828
# Shear Modulus (GPa) = 15.88420 19.28077 17.58248
#
# Velocity S-wave (km/s) = 2.92969 3.22776 3.08233
# Velocity P-wave (km/s) = 5.51540 6.47910 6.01658
#
# Compressibility (1/GPa) = 0.02847638
#
# Stress axis : x y z
#
# Youngs Moduli (GPa) = 20.34845 70.59339 46.36552
#
# Poissons Ratio (x) = 0.45748 0.72073
# Poissons Ratio (y) = 0.13187 0.28632
# Poissons Ratio (z) = 0.31631 0.43594
#
# Static dielectric constant tensor:
#      x y z
#    x 1.631750 0.000000 0.000000 
#    y 0.000000 1.669600 0.000000 
#    z 0.000000 0.000000 1.648100 
# 
# From -- ./inp_files/29426.got.cif
#   From: 2010.05.17/outbox.cif.g08.bks.cpg/sg59_15_cif.got.tgz:29426.got - 2010.06.03 14:40:33.
