data_PCOD9448806
_publ_section_title
;
Structure prediction by ZEFSAII (Michael W. Deem and Ramdas Pophale) SiO2 
 PCOD9448806
Probable space group: P M M N
;
_chemical_formula_sum "Si O2"
_cell_formula_units_Z 40
_cell_length_a 7.962261
_cell_length_b 27.585302
_cell_length_c 8.969133
_cell_angle_alpha 90.000000
_cell_angle_beta 90.000000
_cell_angle_gamma 90.000000
_cell_volume 1969.992698
_symmetry_space_group_name_H-M "P M M N"
_symmetry_group_IT_number 59
_space_group.IT_coordinate_system_code '2'
_symmetry_cell_setting 'orthorhombic'
loop_
_space_group_symop_operation_xyz
x,y,z
1/2-x,1/2-y,z
1/2+x,-y,-z
-x,1/2+y,-z
-x,-y,-z
1/2+x,1/2+y,-z
1/2-x,y,z
x,1/2-y,z
loop_
_atom_site_type_symbol
_atom_site_label
_atom_site_fract_x
_atom_site_fract_y
_atom_site_fract_z
Si Si1 0.045548 0.952007 0.673848
Si Si2 0.442614 0.750000 0.842150
Si Si3 0.551715 0.943595 0.325546
Si Si4 0.545171 0.152896 0.306126
Si Si5 0.434920 0.250000 0.841272
Si Si6 0.053994 0.839018 0.346735
O O1 0.250000 0.953119 0.667581
O O2 0.991926 0.900970 0.746207
O O3 0.981604 0.948426 0.503427
O O4 0.991527 0.004294 0.737396
O O5 0.250000 0.750000 0.786061
O O6 0.517767 0.699615 0.782598
O O7 0.442168 0.750000 0.019405
O O8 0.750000 0.938937 0.299560
O O9 0.468237 0.893021 0.280537
O O10 0.750000 0.152052 0.299148
O O11 0.499133 0.158982 0.480229
O O12 0.250000 0.250000 0.908185
O O13 0.459556 0.202419 0.742096
O O14 0.250000 0.826289 0.345521
#
# Coordination Sequence:
#
# PCOD9448806 Si02
#       6
#     8   4   8   8   4   8
#     4   8  14  25  42  68 103 137 166 199 242 292
#     4  10  19  34  54  72  94 128 167 204 246 294
#     4   9  15  24  42  71 104 133 161 200 248 291
#     4   8  15  29  52  78 100 127 167 207 239 284
#     4  12  25  38  50  70 100 130 163 204 250 298
#     4  10  19  34  55  77 100 129 166 205 246 295
#
# _framework density 20.304644
#
# number of rings (size 3 to 8) (size 9 to 14) (size 15 to 20)
#    0.000    2.800    0.000    3.900    0.000    2.400 
#    0.000    6.000    0.000    1.200    0.000    0.000 
#    0.000    0.000    0.000    0.000    0.000    0.000 
#
# Total GULP energy -222768.163854 kJ/mol
# GULP energy per Si atom -5569.204096 kJ/mol
# Density = 2.025843 g / cm^3
# Si number density = 20.304644 Si / 1000 Ang^3
#
#
#
# Elastic Constant Matrix: (Units=GPa)
#
#
# Indices 1 2 3 4 5 6 
#
# 1 25.0919 3.5479 -2.0288 0.0000 0.0000 0.0000
# 2 3.5479 176.8731 36.8471 0.0000 0.0000 0.0000
# 3 -2.0288 36.8471 21.2503 0.0000 0.0000 0.0000
# 4 0.0000 0.0000 0.0000 -8.7000 0.0000 0.0000
# 5 0.0000 0.0000 0.0000 0.0000 6.5686 0.0000
# 6 0.0000 0.0000 0.0000 0.0000 0.0000 21.5460
#
#
#
# Elastic Compliance Matrix: (Units=1/GPa)
#
#
# Indices 1 2 3 4 5 6 
#
# 1 0.040889 -0.002557 0.008338 0.000000 0.000000 0.000000
# 2 -0.002557 0.009011 -0.015869 0.000000 0.000000 0.000000
# 3 0.008338 -0.015869 0.075370 0.000000 0.000000 0.000000
# 4 0.000000 0.000000 0.000000 -0.114943 0.000000 0.000000
# 5 0.000000 0.000000 0.000000 0.000000 0.152240 0.000000
# 6 0.000000 0.000000 0.000000 0.000000 0.000000 0.046412
#
#
# Mechanical properties :
#
#
# Convention : Reuss Voigt Hill
#
# Bulk Modulus (GPa) = 9.51534 33.32755 21.42145
# Shear Modulus (GPa) = 18.92603 16.20620 17.56612
#
# Velocity S-wave (km/s) = 3.05635 2.82822 2.94450
# Velocity P-wave (km/s) = 4.14144 5.20716 4.70457
#
# Compressibility (1/GPa) = 0.10509345
#
# Stress axis : x y z
#
# Youngs Moduli (GPa) = 24.45638 110.97662 13.26793
#
# Poissons Ratio (x) = 0.28378 -0.11062
# Poissons Ratio (y) = 0.06254 0.21054
# Poissons Ratio (z) = -0.20391 1.76105
#
# Static dielectric constant tensor:
#      x y z
#    x 1.726660 0.000000 0.000000 
#    y 0.000000 1.799090 0.000000 
#    z 0.000000 0.000000 1.662520 
# 
# From -- ./inp_files/5912.got.cif
#   From: 2010.05.17/outbox.cif.g08.bks.cpg/sg59_3_cif.got.tgz:5912.got - 2010.06.03 14:40:33.
