data_PCOD9448710
_publ_section_title
;
Structure prediction by ZEFSAII (Michael W. Deem and Ramdas Pophale) SiO2 
 PCOD9448710
Probable space group: P M M N
;
_chemical_formula_sum "Si O2"
_cell_formula_units_Z 48
_cell_length_a 18.192723
_cell_length_b 7.846340
_cell_length_c 15.844145
_cell_angle_alpha 90.000000
_cell_angle_beta 90.000000
_cell_angle_gamma 90.000000
_cell_volume 2261.692920
_symmetry_space_group_name_H-M "P M M N"
_symmetry_group_IT_number 59
_space_group.IT_coordinate_system_code '2'
_symmetry_cell_setting 'orthorhombic'
loop_
_space_group_symop_operation_xyz
x,y,z
1/2-x,1/2-y,z
1/2+x,-y,-z
-x,1/2+y,-z
-x,-y,-z
1/2+x,1/2+y,-z
1/2-x,y,z
x,1/2-y,z
loop_
_atom_site_type_symbol
_atom_site_label
_atom_site_fract_x
_atom_site_fract_y
_atom_site_fract_z
Si Si1 0.414629 0.044839 0.995000
Si Si2 0.595243 0.947634 0.348997
Si Si3 0.834217 0.051668 0.522157
Si Si4 0.834965 0.958478 0.174225
Si Si5 0.068869 0.053166 0.324159
Si Si6 0.665310 0.541257 0.834078
O O1 0.408443 0.250000 0.994687
O O2 0.379316 0.981789 0.907749
O O3 0.370345 0.985125 0.077554
O O4 0.500000 0.000000 0.000000
O O5 0.616748 0.750000 0.356837
O O6 0.629856 0.016126 0.262218
O O7 0.626160 0.036038 0.432174
O O8 0.507529 0.960479 0.341841
O O9 0.750000 0.991069 0.516122
O O10 0.833390 0.250000 0.546637
O O11 0.879750 0.956557 0.593891
O O12 0.750000 0.007734 0.168592
O O13 0.837959 0.750000 0.174292
O O14 0.050028 0.250000 0.306843
O O15 0.114581 0.985802 0.244038
O O16 0.750000 0.486533 0.825672
O O17 0.665828 0.750000 0.832958
#
# Coordination Sequence:
#
# PCOD9448710 Si02
#       6
#     8   8   8   8   8   8
#     4  10  19  33  55  81 111 144 180 224 270 322
#     4  11  22  37  58  83 113 147 185 228 274 328
#     4  11  24  41  60  83 111 143 182 229 280 331
#     4   9  18  33  55  82 109 142 185 228 270 320
#     4  11  22  37  58  83 113 147 185 228 274 328
#     4   9  18  33  55  82 109 142 185 228 270 320
#
# _framework density 21.223040000000001
#
# number of rings (size 3 to 8) (size 9 to 14) (size 15 to 20)
#    0.000    1.833    0.000    4.500    0.000    4.667 
#    0.000    1.667    0.000    6.000    0.000    0.000 
#    0.000    0.000    0.000    0.000    0.000    0.000 
#
# Total GULP energy -268385.774850 kJ/mol
# GULP energy per Si atom -5591.370309 kJ/mol
# Density = 2.117474 g / cm^3
# Si number density = 21.223040 Si / 1000 Ang^3
#
#
#
# Elastic Constant Matrix: (Units=GPa)
#
#
# Indices 1 2 3 4 5 6 
#
# 1 107.7501 -11.4730 29.2565 0.0000 0.0000 0.0000
# 2 -11.4730 27.7640 -5.4299 0.0000 0.0000 0.0000
# 3 29.2565 -5.4299 122.8962 0.0000 0.0000 0.0000
# 4 0.0000 0.0000 0.0000 -17.2202 0.0000 0.0000
# 5 0.0000 0.0000 0.0000 0.0000 47.4232 0.0000
# 6 0.0000 0.0000 0.0000 0.0000 0.0000 4.7597
#
#
#
# Elastic Compliance Matrix: (Units=1/GPa)
#
#
# Indices 1 2 3 4 5 6 
#
# 1 0.010307 0.003812 -0.002285 0.000000 0.000000 0.000000
# 2 0.003812 0.037742 0.000760 0.000000 0.000000 0.000000
# 3 -0.002285 0.000760 0.008715 0.000000 0.000000 0.000000
# 4 0.000000 0.000000 0.000000 -0.058071 0.000000 0.000000
# 5 0.000000 0.000000 0.000000 0.000000 0.021087 0.000000
# 6 0.000000 0.000000 0.000000 0.000000 0.000000 0.210098
#
#
# Mechanical properties :
#
#
# Convention : Reuss Voigt Hill
#
# Bulk Modulus (GPa) = 16.30320 31.45749 23.88034
# Shear Modulus (GPa) = 20.34597 23.39632 21.87114
#
# Velocity S-wave (km/s) = 3.09960 3.32385 3.21368
# Velocity P-wave (km/s) = 4.52864 5.43922 5.00468
#
# Compressibility (1/GPa) = 0.06133765
#
# Stress axis : x y z
#
# Youngs Moduli (GPa) = 97.01991 26.49580 114.75059
#
# Poissons Ratio (x) = -0.10101 0.26224
# Poissons Ratio (y) = -0.36987 -0.08721
# Poissons Ratio (z) = 0.22172 -0.02014
#
# Static dielectric constant tensor:
#      x y z
#    x 1.713960 0.000000 0.000000 
#    y 0.000000 1.786820 0.000000 
#    z 0.000000 0.000000 1.730840 
# 
# From -- ./inp_files/23679.got.cif
#   From: 2010.05.17/outbox.cif.g08.bks.cpg/sg59_12_cif.got.tgz:23679.got - 2010.06.03 14:40:33.
