data_PCOD9448550
_publ_section_title
;
Structure prediction by ZEFSAII (Michael W. Deem and Ramdas Pophale) SiO2 
 PCOD9448550
Probable space group: P M M N
;
_chemical_formula_sum "Si O2"
_cell_formula_units_Z 32
_cell_length_a 12.270545
_cell_length_b 10.932057
_cell_length_c 12.606170
_cell_angle_alpha 90.000000
_cell_angle_beta 90.000000
_cell_angle_gamma 90.000000
_cell_volume 1691.020605
_symmetry_space_group_name_H-M "P M M N"
_symmetry_group_IT_number 59
_space_group.IT_coordinate_system_code '2'
_symmetry_cell_setting 'orthorhombic'
loop_
_space_group_symop_operation_xyz
x,y,z
1/2-x,1/2-y,z
1/2+x,-y,-z
-x,1/2+y,-z
-x,-y,-z
1/2+x,1/2+y,-z
1/2-x,y,z
x,1/2-y,z
loop_
_atom_site_type_symbol
_atom_site_label
_atom_site_fract_x
_atom_site_fract_y
_atom_site_fract_z
Si Si1 0.632202 0.750000 0.972603
Si Si2 0.373908 0.994831 0.703799
Si Si3 0.567332 0.250000 0.856711
Si Si4 0.557439 0.992590 0.886529
Si Si5 0.124946 0.750000 0.562177
Si Si6 0.044336 0.250000 0.629606
O O1 0.750000 0.750000 0.026969
O O2 0.621650 0.867324 0.896849
O O3 0.538051 0.750000 0.062924
O O4 0.250000 0.994150 0.747047
O O5 0.390197 0.121832 0.638888
O O6 0.464501 0.989582 0.796115
O O7 0.386683 0.873384 0.632163
O O8 0.622197 0.380569 0.874690
O O9 0.527065 0.250000 0.736536
O O10 0.500000 0.000000 0.000000
O O11 0.250000 0.750000 0.520362
O O12 0.034751 0.750000 0.470984
#
# Coordination Sequence:
#
# PCOD9448550 Si02
#       6
#     4   8   4   8   4   4
#     4  10  19  33  53  77 109 146 179 213 261 320
#     4  10  20  35  57  82 106 138 180 221 264 317
#     4   8  18  33  50  73 102 137 175 219 264 307
#     4   9  18  32  52  79 110 140 172 216 265 314
#     4  10  21  36  54  76 106 143 176 217 273 320
#     4  10  19  34  56  80 105 134 177 231 269 307
#
# _framework density 18.923483999999998
#
# number of rings (size 3 to 8) (size 9 to 14) (size 15 to 20)
#    0.000    2.500    0.000    1.875    0.000    9.000 
#    0.000    5.625    0.000   21.000    0.000    0.000 
#    0.000    0.000    0.000    0.000    0.000    0.000 
#
# Total GULP energy -178158.671521 kJ/mol
# GULP energy per Si atom -5567.458485 kJ/mol
# Density = 1.888041 g / cm^3
# Si number density = 18.923484 Si / 1000 Ang^3
#
#
#
# Elastic Constant Matrix: (Units=GPa)
#
#
# Indices 1 2 3 4 5 6 
#
# 1 89.1204 28.3685 37.1261 0.0000 0.0000 0.0000
# 2 28.3685 185.4945 32.2180 0.0000 0.0000 0.0000
# 3 37.1261 32.2180 62.9285 0.0000 0.0000 0.0000
# 4 0.0000 0.0000 0.0000 21.2108 0.0000 0.0000
# 5 0.0000 0.0000 0.0000 0.0000 14.1625 0.0000
# 6 0.0000 0.0000 0.0000 0.0000 0.0000 4.8960
#
#
#
# Elastic Compliance Matrix: (Units=1/GPa)
#
#
# Indices 1 2 3 4 5 6 
#
# 1 0.014993 -0.000830 -0.008420 0.000000 0.000000 0.000000
# 2 -0.000830 0.005963 -0.002563 0.000000 0.000000 0.000000
# 3 -0.008420 -0.002563 0.022171 0.000000 0.000000 0.000000
# 4 0.000000 0.000000 0.000000 0.047146 0.000000 0.000000
# 5 0.000000 0.000000 0.000000 0.000000 0.070609 0.000000
# 6 0.000000 0.000000 0.000000 0.000000 0.000000 0.204247
#
#
# Mechanical properties :
#
#
# Convention : Reuss Voigt Hill
#
# Bulk Modulus (GPa) = 51.28321 59.21872 55.25097
# Shear Modulus (GPa) = 12.65002 24.04258 18.34630
#
# Velocity S-wave (km/s) = 2.58831 3.56830 3.11706
# Velocity P-wave (km/s) = 6.00763 6.95260 6.49732
#
# Compressibility (1/GPa) = 0.01949956
#
# Stress axis : x y z
#
# Youngs Moduli (GPa) = 66.69851 167.69601 45.10406
#
# Poissons Ratio (x) = 0.13926 0.37978
# Poissons Ratio (y) = 0.05539 0.11560
# Poissons Ratio (z) = 0.56161 0.42982
#
# Static dielectric constant tensor:
#      x y z
#    x 1.687810 0.000000 0.000000 
#    y 0.000000 1.752170 0.000000 
#    z 0.000000 0.000000 1.605860 
# 
# From -- ./inp_files/15296.got.cif
#   From: 2010.05.17/outbox.cif.g08.bks.cpg/sg59_8_cif.got.tgz:15296.got - 2010.06.03 14:40:33.
