data_PCOD9448571
_publ_section_title
;
Structure prediction by ZEFSAII (Michael W. Deem and Ramdas Pophale) SiO2 
 PCOD9448571
Probable space group: P M M N
;
_chemical_formula_sum "Si O2"
_cell_formula_units_Z 64
_cell_length_a 17.922407
_cell_length_b 14.093865
_cell_length_c 12.797484
_cell_angle_alpha 90.000000
_cell_angle_beta 90.000000
_cell_angle_gamma 90.000000
_cell_volume 3232.593073
_symmetry_space_group_name_H-M "P M M N"
_symmetry_group_IT_number 59
_space_group.IT_coordinate_system_code '2'
_symmetry_cell_setting 'orthorhombic'
loop_
_space_group_symop_operation_xyz
x,y,z
1/2-x,1/2-y,z
1/2+x,-y,-z
-x,1/2+y,-z
-x,-y,-z
1/2+x,1/2+y,-z
1/2-x,y,z
x,1/2-y,z
loop_
_atom_site_type_symbol
_atom_site_label
_atom_site_fract_x
_atom_site_fract_y
_atom_site_fract_z
Si Si1 0.404320 0.864766 0.029402
Si Si2 0.663765 0.046813 0.411422
Si Si3 0.336352 0.864025 0.813901
Si Si4 0.567656 0.865065 0.102635
Si Si5 0.160619 0.141055 0.099978
Si Si6 0.073224 0.861963 0.401894
Si Si7 0.664141 0.460745 0.780864
Si Si8 0.901381 0.638911 0.341457
O O1 0.401928 0.750000 0.032539
O O2 0.484710 0.897329 0.072019
O O3 0.344104 0.905360 0.109635
O O4 0.388101 0.893942 0.910467
O O5 0.750000 0.069028 0.437340
O O6 0.646649 0.091401 0.297980
O O7 0.608059 0.089969 0.496171
O O8 0.651973 0.934226 0.399737
O O9 0.250000 0.887555 0.839865
O O10 0.341364 0.750000 0.804607
O O11 0.564375 0.750000 0.104789
O O12 0.592981 0.890418 0.219046
O O13 0.622963 0.889825 0.008543
O O14 0.250000 0.137702 0.088155
O O15 0.138520 0.250000 0.121413
O O16 0.140665 0.068167 0.191414
O O17 0.090639 0.750000 0.401407
O O18 0.111941 0.910955 0.302769
O O19 0.984324 0.871249 0.389358
O O20 0.750000 0.459647 0.745692
O O21 0.879907 0.750000 0.347097
#
# Coordination Sequence:
#
# PCOD9448571 Si02
#       8
#     8   8   8   8   8   8   8   8
#     4  10  19  33  53  83 119 149 186 240 300 357
#     4  11  24  40  62  89 118 157 206 249 298 359
#     4   9  19  35  54  81 120 160 196 244 304 358
#     4   9  18  35  58  84 115 157 200 237 289 351
#     4   9  20  37  54  78 117 160 200 241 288 351
#     4  11  23  43  66  89 119 156 201 250 299 360
#     4  11  22  34  57  89 117 152 199 243 298 357
#     4  10  22  41  63  88 121 157 198 249 301 352
#
# _framework density 19.798345999999999
#
# number of rings (size 3 to 8) (size 9 to 14) (size 15 to 20)
#    0.000    2.000    1.250    1.875    1.750    5.000 
#    0.000    1.875    0.000    2.250    0.000    0.000 
#    0.000    0.000    0.000    0.000    0.000    0.000 
#
# Total GULP energy -357530.725468 kJ/mol
# GULP energy per Si atom -5586.417585 kJ/mol
# Density = 1.975328 g / cm^3
# Si number density = 19.798346 Si / 1000 Ang^3
#
#
#
# Elastic Constant Matrix: (Units=GPa)
#
#
# Indices 1 2 3 4 5 6 
#
# 1 12.2540 11.3892 10.8242 0.0000 0.0000 0.0000
# 2 11.3892 70.2123 27.2062 0.0000 0.0000 0.0000
# 3 10.8242 27.2062 68.1117 0.0000 0.0000 0.0000
# 4 0.0000 0.0000 0.0000 35.1184 0.0000 0.0000
# 5 0.0000 0.0000 0.0000 0.0000 -24.4776 0.0000
# 6 0.0000 0.0000 0.0000 0.0000 0.0000 25.1974
#
#
#
# Elastic Compliance Matrix: (Units=1/GPa)
#
#
# Indices 1 2 3 4 5 6 
#
# 1 0.103172 -0.012284 -0.011489 0.000000 0.000000 0.000000
# 2 -0.012284 0.018313 -0.005363 0.000000 0.000000 0.000000
# 3 -0.011489 -0.005363 0.018650 0.000000 0.000000 0.000000
# 4 0.000000 0.000000 0.000000 0.028475 0.000000 0.000000
# 5 0.000000 0.000000 0.000000 0.000000 -0.040854 0.000000
# 6 0.000000 0.000000 0.000000 0.000000 0.000000 0.039687
#
#
# Mechanical properties :
#
#
# Convention : Reuss Voigt Hill
#
# Bulk Modulus (GPa) = 12.21556 27.71303 19.96429
# Shear Modulus (GPa) = 19.76272 13.91154 16.83713
#
# Velocity S-wave (km/s) = 3.16286 2.65365 2.91938
# Velocity P-wave (km/s) = 4.41833 4.83913 4.63351
#
# Compressibility (1/GPa) = 0.08186280
#
# Stress axis : x y z
#
# Youngs Moduli (GPa) = 9.69259 54.60586 53.62012
#
# Poissons Ratio (x) = 0.67076 0.61606
# Poissons Ratio (y) = 0.11906 0.28755
# Poissons Ratio (z) = 0.11136 0.29284
#
# Static dielectric constant tensor:
#      x y z
#    x 1.685630 0.000000 0.000000 
#    y 0.000000 1.723090 0.000000 
#    z 0.000000 0.000000 1.666090 
# 
# From -- ./inp_files/17832.got.cif
#   From: 2010.05.17/outbox.cif.g08.bks.cpg/sg59_9_cif.got.tgz:17832.got - 2010.06.03 14:40:33.
