data_PCOD9448637
_publ_section_title
;
Structure prediction by ZEFSAII (Michael W. Deem and Ramdas Pophale) SiO2 
 PCOD9448637
Probable space group: P M M N
;
_chemical_formula_sum "Si O2"
_cell_formula_units_Z 56
_cell_length_a 8.800709
_cell_length_b 23.958001
_cell_length_c 14.189163
_cell_angle_alpha 90.000000
_cell_angle_beta 90.000000
_cell_angle_gamma 90.000000
_cell_volume 2991.748056
_symmetry_space_group_name_H-M "P M M N"
_symmetry_group_IT_number 59
_space_group.IT_coordinate_system_code '2'
_symmetry_cell_setting 'orthorhombic'
loop_
_space_group_symop_operation_xyz
x,y,z
1/2-x,1/2-y,z
1/2+x,-y,-z
-x,1/2+y,-z
-x,-y,-z
1/2+x,1/2+y,-z
1/2-x,y,z
x,1/2-y,z
loop_
_atom_site_type_symbol
_atom_site_label
_atom_site_fract_x
_atom_site_fract_y
_atom_site_fract_z
Si Si1 0.076736 0.312384 0.285619
Si Si2 0.933162 0.410732 0.756442
Si Si3 0.424792 0.393432 0.464999
Si Si4 0.070159 0.897654 0.837814
Si Si5 0.567233 0.314646 0.624788
Si Si6 0.065942 0.940918 0.032286
Si Si7 0.932750 0.480535 0.329571
O O1 0.250000 0.312724 0.250398
O O2 0.032865 0.250000 0.311503
O O3 0.073404 0.351186 0.376607
O O4 0.971130 0.339213 0.207771
O O5 0.750000 0.417285 0.752015
O O6 0.969010 0.348272 0.720982
O O7 0.984148 0.422852 0.863554
O O8 0.005709 0.457398 0.687964
O O9 0.250000 0.406426 0.490380
O O10 0.503590 0.356806 0.545747
O O11 0.505372 0.448388 0.421945
O O12 0.250000 0.905270 0.839584
O O13 0.013542 0.944955 0.763541
O O14 0.016369 0.902284 0.944901
O O15 0.750000 0.312876 0.615320
O O16 0.512813 0.250000 0.619621
O O17 0.250000 0.943628 0.035041
O O18 0.000000 0.000000 0.000000
O O19 0.750000 0.480353 0.332426
#
# Coordination Sequence:
#
# PCOD9448637 Si02
#       7
#     8   8   8   8   8   8   8
#     4   9  18  32  50  74 104 137 174 216 264 318
#     4  10  21  36  56  81 110 143 182 226 274 325
#     4  10  20  35  57  82 108 141 182 226 273 328
#     4   9  18  31  48  76 109 137 172 215 261 316
#     4  10  22  40  58  77 105 144 188 230 270 316
#     4  10  19  33  54  80 108 139 178 219 267 326
#     4  10  19  33  54  83 116 143 173 219 274 328
#
# _framework density 18.718153999999998
#
# number of rings (size 3 to 8) (size 9 to 14) (size 15 to 20)
#    0.000    2.286    1.429    1.286    0.000    4.000 
#    0.000    0.714    0.000    2.571    0.000    0.000 
#    0.000    0.000    0.000    0.000    0.000    0.000 
#
# Total GULP energy -312110.227304 kJ/mol
# GULP energy per Si atom -5573.396916 kJ/mol
# Density = 1.867555 g / cm^3
# Si number density = 18.718154 Si / 1000 Ang^3
#
#
#
# Elastic Constant Matrix: (Units=GPa)
#
#
# Indices 1 2 3 4 5 6 
#
# 1 14.4843 24.4765 26.7388 0.0000 0.0000 0.0000
# 2 24.4765 93.4661 53.5260 0.0000 0.0000 0.0000
# 3 26.7388 53.5260 104.9536 0.0000 0.0000 0.0000
# 4 0.0000 0.0000 0.0000 20.5513 0.0000 0.0000
# 5 0.0000 0.0000 0.0000 0.0000 17.1058 0.0000
# 6 0.0000 0.0000 0.0000 0.0000 0.0000 25.4331
#
#
#
# Elastic Compliance Matrix: (Units=1/GPa)
#
#
# Indices 1 2 3 4 5 6 
#
# 1 0.169597 -0.027784 -0.029038 0.000000 0.000000 0.000000
# 2 -0.027784 0.019665 -0.002951 0.000000 0.000000 0.000000
# 3 -0.029038 -0.002951 0.018431 0.000000 0.000000 0.000000
# 4 0.000000 0.000000 0.000000 0.048659 0.000000 0.000000
# 5 0.000000 0.000000 0.000000 0.000000 0.058460 0.000000
# 6 0.000000 0.000000 0.000000 0.000000 0.000000 0.039319
#
#
# Mechanical properties :
#
#
# Convention : Reuss Voigt Hill
#
# Bulk Modulus (GPa) = 11.34465 46.93185 29.13825
# Shear Modulus (GPa) = 9.93923 19.82887 14.88405
#
# Velocity S-wave (km/s) = 2.30683 3.25828 2.82293
# Velocity P-wave (km/s) = 3.62894 6.26758 5.12112
#
# Compressibility (1/GPa) = 0.08814725
#
# Stress axis : x y z
#
# Youngs Moduli (GPa) = 5.89634 50.85261 54.25717
#
# Poissons Ratio (x) = 1.41288 1.57553
# Poissons Ratio (y) = 0.16382 0.16009
# Poissons Ratio (z) = 0.17122 0.15004
#
# Static dielectric constant tensor:
#      x y z
#    x 1.658670 0.000000 0.000000 
#    y 0.000000 1.657030 0.000000 
#    z 0.000000 0.000000 1.682660 
# 
# From -- ./inp_files/21040.got.cif
#   From: 2010.05.17/outbox.cif.g08.bks.cpg/sg59_11_cif.got.tgz:21040.got - 2010.06.03 14:40:33.
