data_PCOD9448365
_publ_section_title
;
Structure prediction by ZEFSAII (Michael W. Deem and Ramdas Pophale) SiO2 
 PCOD9448365
Probable space group: P M M N
;
_chemical_formula_sum "Si O2"
_cell_formula_units_Z 56
_cell_length_a 14.262673
_cell_length_b 24.361568
_cell_length_c 8.915112
_cell_angle_alpha 90.000000
_cell_angle_beta 90.000000
_cell_angle_gamma 90.000000
_cell_volume 3097.654427
_symmetry_space_group_name_H-M "P M M N"
_symmetry_group_IT_number 59
_space_group.IT_coordinate_system_code '2'
_symmetry_cell_setting 'orthorhombic'
loop_
_space_group_symop_operation_xyz
x,y,z
1/2-x,1/2-y,z
1/2+x,-y,-z
-x,1/2+y,-z
-x,-y,-z
1/2+x,1/2+y,-z
1/2-x,y,z
x,1/2-y,z
loop_
_atom_site_type_symbol
_atom_site_label
_atom_site_fract_x
_atom_site_fract_y
_atom_site_fract_z
Si Si1 0.642594 0.588981 0.825501
Si Si2 0.027892 0.186565 0.312525
Si Si3 0.144290 0.685415 0.150222
Si Si4 0.642842 0.585628 0.188899
Si Si5 0.523843 0.015559 0.171381
Si Si6 0.042721 0.186890 0.669202
Si Si7 0.140563 0.873874 0.833139
O O1 0.750000 0.581060 0.780334
O O2 0.600977 0.646549 0.769395
O O3 0.572390 0.541571 0.766467
O O4 0.638117 0.588598 0.007186
O O5 0.037875 0.250000 0.267160
O O6 0.042525 0.182333 0.490296
O O7 0.925135 0.164311 0.268697
O O8 0.250000 0.675424 0.208161
O O9 0.139545 0.750000 0.107165
O O10 0.061520 0.675329 0.267084
O O11 0.130149 0.648815 0.002728
O O12 0.750000 0.572063 0.228851
O O13 0.570641 0.538378 0.240715
O O14 0.611980 0.643366 0.257096
O O15 0.598914 0.064924 0.173395
O O16 0.500000 0.000000 0.000000
O O17 0.066009 0.250000 0.709197
O O18 0.250000 0.871992 0.793876
#
# Coordination Sequence:
#
# PCOD9448365 Si02
#       7
#     8   8   8   8   8   8   8
#     4   9  19  35  55  80 107 135 171 215 259 306
#     4  10  21  35  52  75 105 142 177 213 261 310
#     4   9  17  30  50  75 102 134 172 214 258 304
#     4  10  20  35  56  79 103 134 171 212 259 307
#     4   9  17  32  54  79 106 134 167 212 261 310
#     4  10  21  36  52  73 104 139 176 217 260 310
#     4  10  19  32  53  80 107 136 174 216 259 311
#
# _framework density 18.078192999999999
#
# number of rings (size 3 to 8) (size 9 to 14) (size 15 to 20)
#    0.000    2.429    0.000    3.429    0.000    4.857 
#    0.000    7.857    0.000    1.714    0.000    0.000 
#    0.000    0.000    0.000    0.000    0.000    0.000 
#
# Total GULP energy -312288.309245 kJ/mol
# GULP energy per Si atom -5576.576951 kJ/mol
# Density = 1.803705 g / cm^3
# Si number density = 18.078193 Si / 1000 Ang^3
#
#
#
# Elastic Constant Matrix: (Units=GPa)
#
#
# Indices 1 2 3 4 5 6 
#
# 1 139.0982 71.3505 25.6025 0.0000 0.0000 0.0000
# 2 71.3505 110.8575 23.1109 0.0000 0.0000 0.0000
# 3 25.6025 23.1109 14.5110 0.0000 0.0000 0.0000
# 4 0.0000 0.0000 0.0000 2.4695 0.0000 0.0000
# 5 0.0000 0.0000 0.0000 0.0000 10.8388 0.0000
# 6 0.0000 0.0000 0.0000 0.0000 0.0000 19.8978
#
#
#
# Elastic Compliance Matrix: (Units=1/GPa)
#
#
# Indices 1 2 3 4 5 6 
#
# 1 0.012300 -0.005079 -0.013613 0.000000 0.000000 0.000000
# 2 -0.005079 0.015601 -0.015887 0.000000 0.000000 0.000000
# 3 -0.013613 -0.015887 0.118234 0.000000 0.000000 0.000000
# 4 0.000000 0.000000 0.000000 0.404937 0.000000 0.000000
# 5 0.000000 0.000000 0.000000 0.000000 0.092261 0.000000
# 6 0.000000 0.000000 0.000000 0.000000 0.000000 0.050257
#
#
# Mechanical properties :
#
#
# Convention : Reuss Voigt Hill
#
# Bulk Modulus (GPa) = 12.99076 56.06604 34.52840
# Shear Modulus (GPa) = 6.34192 16.26808 11.30500
#
# Velocity S-wave (km/s) = 1.87501 3.00304 2.50339
# Velocity P-wave (km/s) = 3.44805 6.56542 5.24375
#
# Compressibility (1/GPa) = 0.07697782
#
# Stress axis : x y z
#
# Youngs Moduli (GPa) = 81.30230 64.09733 8.45783
#
# Poissons Ratio (x) = 0.32552 0.11514
# Poissons Ratio (y) = 0.41289 0.13437
# Poissons Ratio (z) = 1.10675 1.01832
#
# Static dielectric constant tensor:
#      x y z
#    x 1.628220 0.000000 0.000000 
#    y 0.000000 1.615000 0.000000 
#    z 0.000000 0.000000 1.583340 
# 
# From -- ./inp_files/9382.got.cif
#   From: 2010.05.17/outbox.cif.g08.bks.cpg/sg59_5_cif.got.tgz:9382.got - 2010.06.03 14:40:33.
