data_PCOD9448368
_publ_section_title
;
Structure prediction by ZEFSAII (Michael W. Deem and Ramdas Pophale) SiO2 
 PCOD9448368
Probable space group: P M M N
;
_chemical_formula_sum "Si O2"
_cell_formula_units_Z 64
_cell_length_a 23.886378
_cell_length_b 7.695498
_cell_length_c 15.903747
_cell_angle_alpha 90.000000
_cell_angle_beta 90.000000
_cell_angle_gamma 90.000000
_cell_volume 2923.388193
_symmetry_space_group_name_H-M "P M M N"
_symmetry_group_IT_number 59
_space_group.IT_coordinate_system_code '2'
_symmetry_cell_setting 'orthorhombic'
loop_
_space_group_symop_operation_xyz
x,y,z
1/2-x,1/2-y,z
1/2+x,-y,-z
-x,1/2+y,-z
-x,-y,-z
1/2+x,1/2+y,-z
1/2-x,y,z
x,1/2-y,z
loop_
_atom_site_type_symbol
_atom_site_label
_atom_site_fract_x
_atom_site_fract_y
_atom_site_fract_z
Si Si1 0.503540 0.939370 0.596814
Si Si2 0.995685 0.956484 0.775490
Si Si3 0.877146 0.459686 0.200611
Si Si4 0.313932 0.461515 0.456043
Si Si5 0.685480 0.463377 0.032322
Si Si6 0.183201 0.458501 0.271676
Si Si7 0.891628 0.447217 0.882201
Si Si8 0.619150 0.544614 0.380897
O O1 0.531092 0.750000 0.591449
O O2 0.525162 0.028276 0.683666
O O3 0.500000 0.000000 0.500000
O O4 0.438151 0.939332 0.620697
O O5 0.000757 0.750000 0.761745
O O6 0.057685 0.021934 0.800809
O O7 0.949812 0.979081 0.847662
O O8 0.878088 0.250000 0.198281
O O9 0.852778 0.517162 0.290630
O O10 0.840490 0.517033 0.121662
O O11 0.250000 0.519419 0.462802
O O12 0.313410 0.250000 0.455384
O O13 0.335916 0.515343 0.364790
O O14 0.347349 0.515263 0.537753
O O15 0.750000 0.518981 0.020761
O O16 0.686241 0.250000 0.029390
O O17 0.643297 0.526083 0.959413
O O18 0.250000 0.489165 0.266202
O O19 0.174461 0.250000 0.264904
O O20 0.150192 0.545561 0.196901
O O21 0.904125 0.250000 0.906483
O O22 0.606360 0.750000 0.390267
#
# Coordination Sequence:
#
# PCOD9448368 Si02
#       8
#     8   8   8   8   8   8   8   8
#     4  10  21  36  54  77 109 147 188 230 271 323
#     4   9  20  37  54  76 109 148 186 225 275 333
#     4   9  19  38  59  78 106 146 188 228 275 338
#     4   8  16  31  50  73 103 142 182 215 262 330
#     4   9  19  37  60  84 111 144 181 226 289 350
#     4   9  18  34  54  74 103 146 187 222 269 335
#     4  11  22  34  54  84 113 142 182 235 284 333
#     4  10  19  32  53  80 109 141 178 227 278 322
#
# _framework density 21.892406000000001
#
# number of rings (size 3 to 8) (size 9 to 14) (size 15 to 20)
#    0.000    2.625    0.000    3.000    1.750    4.250 
#    0.000    1.875    0.000    4.125    0.000    0.000 
#    0.000    0.000    0.000    0.000    0.000    0.000 
#
# Total GULP energy -356818.012523 kJ/mol
# GULP energy per Si atom -5575.281446 kJ/mol
# Density = 2.184258 g / cm^3
# Si number density = 21.892406 Si / 1000 Ang^3
#
#
#
# Elastic Constant Matrix: (Units=GPa)
#
#
# Indices 1 2 3 4 5 6 
#
# 1 33.3372 0.1056 7.4521 0.0000 0.0000 0.0000
# 2 0.1056 36.4276 -7.2196 0.0000 0.0000 0.0000
# 3 7.4521 -7.2196 98.8696 0.0000 0.0000 0.0000
# 4 0.0000 0.0000 0.0000 21.0559 0.0000 0.0000
# 5 0.0000 0.0000 0.0000 0.0000 40.6879 0.0000
# 6 0.0000 0.0000 0.0000 0.0000 0.0000 16.0145
#
#
#
# Elastic Compliance Matrix: (Units=1/GPa)
#
#
# Indices 1 2 3 4 5 6 
#
# 1 0.030522 -0.000552 -0.002341 0.000000 0.000000 0.000000
# 2 -0.000552 0.027865 0.002076 0.000000 0.000000 0.000000
# 3 -0.002341 0.002076 0.010442 0.000000 0.000000 0.000000
# 4 0.000000 0.000000 0.000000 0.047493 0.000000 0.000000
# 5 0.000000 0.000000 0.000000 0.000000 0.024577 0.000000
# 6 0.000000 0.000000 0.000000 0.000000 0.000000 0.062443
#
#
# Mechanical properties :
#
#
# Convention : Reuss Voigt Hill
#
# Bulk Modulus (GPa) = 14.88209 18.81231 16.84720
# Shear Modulus (GPa) = 21.99020 26.77143 24.38081
#
# Velocity S-wave (km/s) = 3.17277 3.50074 3.34078
# Velocity P-wave (km/s) = 4.49828 4.99520 4.75324
#
# Compressibility (1/GPa) = 0.06719488
#
# Stress axis : x y z
#
# Youngs Moduli (GPa) = 32.76378 35.88750 95.76357
#
# Poissons Ratio (x) = 0.01983 0.22417
# Poissons Ratio (y) = 0.01810 -0.19884
# Poissons Ratio (z) = 0.07669 -0.07452
#
# Static dielectric constant tensor:
#      x y z
#    x 1.779670 0.000000 0.000000 
#    y 0.000000 1.867430 0.000000 
#    z 0.000000 0.000000 1.853360 
# 
# From -- ./inp_files/21461.got.cif
#   From: 2010.05.17/outbox.cif.g08.bks.cpg/sg59_11_cif.got.tgz:21461.got - 2010.06.03 14:40:33.
