data_PCOD9448517
_publ_section_title
;
Structure prediction by ZEFSAII (Michael W. Deem and Ramdas Pophale) SiO2 
 PCOD9448517
Probable space group: P M M N
;
_chemical_formula_sum "Si O2"
_cell_formula_units_Z 48
_cell_length_a 32.748006
_cell_length_b 8.618985
_cell_length_c 9.583889
_cell_angle_alpha 90.000000
_cell_angle_beta 90.000000
_cell_angle_gamma 90.000000
_cell_volume 2705.096493
_symmetry_space_group_name_H-M "P M M N"
_symmetry_group_IT_number 59
_space_group.IT_coordinate_system_code '2'
_symmetry_cell_setting 'orthorhombic'
loop_
_space_group_symop_operation_xyz
x,y,z
1/2-x,1/2-y,z
1/2+x,-y,-z
-x,1/2+y,-z
-x,-y,-z
1/2+x,1/2+y,-z
1/2-x,y,z
x,1/2-y,z
loop_
_atom_site_type_symbol
_atom_site_label
_atom_site_fract_x
_atom_site_fract_y
_atom_site_fract_z
Si Si1 0.163497 0.434531 0.663481
Si Si2 0.750000 0.070494 0.666486
Si Si3 0.250000 0.570878 0.673101
Si Si4 0.661361 0.062729 0.649528
Si Si5 0.087972 0.063167 0.165544
Si Si6 0.998727 0.436580 0.157445
Si Si7 0.090595 0.936868 0.849651
O O1 0.163017 0.250000 0.653886
O O2 0.207992 0.489998 0.716407
O O3 0.157443 0.505628 0.509334
O O4 0.127558 0.493941 0.762258
O O5 0.750000 0.250000 0.712307
O O6 0.750000 0.068287 0.496909
O O7 0.705736 0.004300 0.705886
O O8 0.250000 0.750000 0.716643
O O9 0.662296 0.250000 0.649291
O O10 0.624007 0.002842 0.740463
O O11 0.090194 0.250000 0.161910
O O12 0.042490 0.016936 0.220764
O O13 0.091993 0.998253 0.008411
O O14 0.998636 0.250000 0.152732
O O15 0.954079 0.483273 0.212813
O O16 0.000000 0.500000 0.000000
O O17 0.093301 0.750000 0.850557
#
# Coordination Sequence:
#
# PCOD9448517 Si02
#       7
#     8   4   4   8   8   8   8
#     4  11  21  34  53  79 106 134 169 215 259 297
#     4   7  14  29  50  71  94 125 166 204 238 288
#     4   9  17  33  54  75 100 135 172 206 246 306
#     4  10  19  34  54  76 101 135 173 210 253 308
#     4  10  19  33  52  78 106 132 166 215 263 304
#     4   8  16  30  50  72  98 131 169 208 252 305
#     4  10  19  34  54  76 101 136 175 210 252 310
#
# _framework density 17.744284
#
# number of rings (size 3 to 8) (size 9 to 14) (size 15 to 20)
#    0.000    2.500    0.000    4.250    0.000    1.333 
#    0.000    2.917    0.000    1.000    0.000    0.000 
#    0.000    0.000    0.000    0.000    0.000    0.000 
#
# Total GULP energy -267378.051088 kJ/mol
# GULP energy per Si atom -5570.376064 kJ/mol
# Density = 1.770390 g / cm^3
# Si number density = 17.744284 Si / 1000 Ang^3
#
#
#
# Elastic Constant Matrix: (Units=GPa)
#
#
# Indices 1 2 3 4 5 6 
#
# 1 228.1559 54.7587 62.8454 0.0000 0.0000 0.0000
# 2 54.7587 71.4026 16.8360 0.0000 0.0000 0.0000
# 3 62.8454 16.8360 37.6640 0.0000 0.0000 0.0000
# 4 0.0000 0.0000 0.0000 25.3342 0.0000 0.0000
# 5 0.0000 0.0000 0.0000 0.0000 33.4827 0.0000
# 6 0.0000 0.0000 0.0000 0.0000 0.0000 65.5021
#
#
#
# Elastic Compliance Matrix: (Units=1/GPa)
#
#
# Indices 1 2 3 4 5 6 
#
# 1 0.008916 -0.003722 -0.013213 0.000000 0.000000 0.000000
# 2 -0.003722 0.017209 -0.001482 0.000000 0.000000 0.000000
# 3 -0.013213 -0.001482 0.049260 0.000000 0.000000 0.000000
# 4 0.000000 0.000000 0.000000 0.039472 0.000000 0.000000
# 5 0.000000 0.000000 0.000000 0.000000 0.029866 0.000000
# 6 0.000000 0.000000 0.000000 0.000000 0.000000 0.015267
#
#
# Mechanical properties :
#
#
# Convention : Reuss Voigt Hill
#
# Bulk Modulus (GPa) = 25.93984 67.34473 46.64228
# Shear Modulus (GPa) = 23.84657 38.38263 31.11460
#
# Velocity S-wave (km/s) = 3.66990 4.65596 4.19202
# Velocity P-wave (km/s) = 5.71034 8.18164 7.05504
#
# Compressibility (1/GPa) = 0.03855074
#
# Stress axis : x y z
#
# Youngs Moduli (GPa) = 112.16078 58.10921 20.30052
#
# Poissons Ratio (x) = 0.21629 0.26823
# Poissons Ratio (y) = 0.41747 0.03008
# Poissons Ratio (z) = 1.48197 0.08611
#
# Static dielectric constant tensor:
#      x y z
#    x 1.664780 0.000000 0.000000 
#    y 0.000000 1.595960 0.000000 
#    z 0.000000 0.000000 1.562810 
# 
# From -- ./inp_files/13055.got.cif
#   From: 2010.05.17/outbox.cif.g08.bks.cpg/sg59_7_cif.got.tgz:13055.got - 2010.06.03 14:40:33.
