data_PCOD9448834
_publ_section_title
;
Structure prediction by ZEFSAII (Michael W. Deem and Ramdas Pophale) SiO2 
 PCOD9448834
Probable space group: P M M N
;
_chemical_formula_sum "Si O2"
_cell_formula_units_Z 48
_cell_length_a 26.310971
_cell_length_b 8.022393
_cell_length_c 12.183775
_cell_angle_alpha 90.000000
_cell_angle_beta 90.000000
_cell_angle_gamma 90.000000
_cell_volume 2571.714061
_symmetry_space_group_name_H-M "P M M N"
_symmetry_group_IT_number 59
_space_group.IT_coordinate_system_code '2'
_symmetry_cell_setting 'orthorhombic'
loop_
_space_group_symop_operation_xyz
x,y,z
1/2-x,1/2-y,z
1/2+x,-y,-z
-x,1/2+y,-z
-x,-y,-z
1/2+x,1/2+y,-z
1/2-x,y,z
x,1/2-y,z
loop_
_atom_site_type_symbol
_atom_site_label
_atom_site_fract_x
_atom_site_fract_y
_atom_site_fract_z
Si Si1 0.807908 0.453643 0.124107
Si Si2 0.499078 0.048812 0.126409
Si Si3 0.807558 0.049191 0.873755
Si Si4 0.940763 0.550805 0.499266
Si Si5 0.902907 0.549397 0.733574
Si Si6 0.096868 0.950611 0.737433
O O1 0.750000 0.506306 0.148414
O O2 0.807863 0.250000 0.125181
O O3 0.850569 0.511844 0.209117
O O4 0.820517 0.504590 0.998695
O O5 0.499186 0.250000 0.132521
O O6 0.448411 0.987937 0.187742
O O7 0.548992 0.988104 0.190796
O O8 0.500000 0.000000 0.000000
O O9 0.750000 0.991779 0.849614
O O10 0.806854 0.250000 0.875114
O O11 0.849288 0.994936 0.786789
O O12 0.939392 0.750000 0.500939
O O13 0.913775 0.487715 0.610385
O O14 0.913460 0.492841 0.388588
O O15 0.000000 0.500000 0.500000
O O16 0.906243 0.750000 0.730478
O O17 0.097391 0.750000 0.746089
#
# Coordination Sequence:
#
# PCOD9448834 Si02
#       6
#     8   8   8   8   8   8
#     4   8  15  30  54  81 108 139 173 214 264 311
#     4  10  20  33  49  75 107 138 173 216 267 321
#     4   9  18  34  57  83 107 136 178 219 258 312
#     4  11  22  38  56  75 103 141 182 220 262 315
#     4  10  21  36  52  74 107 140 175 216 266 321
#     4  10  19  34  54  77 108 140 175 219 265 312
#
# _framework density 18.664594999999998
#
# number of rings (size 3 to 8) (size 9 to 14) (size 15 to 20)
#    0.000    2.333    1.667    2.500    0.000    4.333 
#    0.000    1.667    0.000    4.500    0.000    0.000 
#    0.000    0.000    0.000    0.000    0.000    0.000 
#
# Total GULP energy -267862.596164 kJ/mol
# GULP energy per Si atom -5580.470753 kJ/mol
# Density = 1.862211 g / cm^3
# Si number density = 18.664595 Si / 1000 Ang^3
#
#
#
# Elastic Constant Matrix: (Units=GPa)
#
#
# Indices 1 2 3 4 5 6 
#
# 1 164.7355 10.3966 125.4453 0.0000 0.0000 0.0000
# 2 10.3966 9.0849 6.4188 0.0000 0.0000 0.0000
# 3 125.4453 6.4188 197.1309 0.0000 0.0000 0.0000
# 4 0.0000 0.0000 0.0000 28.7711 0.0000 0.0000
# 5 0.0000 0.0000 0.0000 0.0000 27.8836 0.0000
# 6 0.0000 0.0000 0.0000 0.0000 0.0000 17.5451
#
#
#
# Elastic Compliance Matrix: (Units=1/GPa)
#
#
# Indices 1 2 3 4 5 6 
#
# 1 0.012435 -0.008843 -0.007625 0.000000 0.000000 0.000000
# 2 -0.008843 0.118953 0.001754 0.000000 0.000000 0.000000
# 3 -0.007625 0.001754 0.009868 0.000000 0.000000 0.000000
# 4 0.000000 0.000000 0.000000 0.034757 0.000000 0.000000
# 5 0.000000 0.000000 0.000000 0.000000 0.035863 0.000000
# 6 0.000000 0.000000 0.000000 0.000000 0.000000 0.056996
#
#
# Mechanical properties :
#
#
# Convention : Reuss Voigt Hill
#
# Bulk Modulus (GPa) = 8.94234 72.83030 40.88632
# Shear Modulus (GPa) = 14.89977 30.08599 22.49288
#
# Velocity S-wave (km/s) = 2.82847 4.01924 3.47523
# Velocity P-wave (km/s) = 3.93299 7.78745 6.16899
#
# Compressibility (1/GPa) = 0.11182760
#
# Stress axis : x y z
#
# Youngs Moduli (GPa) = 80.41902 8.40670 101.33852
#
# Poissons Ratio (x) = 0.07434 0.77271
# Poissons Ratio (y) = 0.71113 -0.17774
# Poissons Ratio (z) = 0.61320 -0.01474
#
# Static dielectric constant tensor:
#      x y z
#    x 1.634520 0.000000 0.000000 
#    y 0.000000 1.673080 0.000000 
#    z 0.000000 0.000000 1.586630 
# 
# From -- ./inp_files/12527.got.cif
#   From: 2010.05.17/outbox.cif.g08.bks.cpg/sg59_7_cif.got.tgz:12527.got - 2010.06.03 14:40:33.
