data_PCOD9448407
_publ_section_title
;
Structure prediction by ZEFSAII (Michael W. Deem and Ramdas Pophale) SiO2 
 PCOD9448407
Probable space group: P M M N
;
_chemical_formula_sum "Si O2"
_cell_formula_units_Z 64
_cell_length_a 22.426018
_cell_length_b 8.670531
_cell_length_c 18.216010
_cell_angle_alpha 90.000000
_cell_angle_beta 90.000000
_cell_angle_gamma 90.000000
_cell_volume 3542.020886
_symmetry_space_group_name_H-M "P M M N"
_symmetry_group_IT_number 59
_space_group.IT_coordinate_system_code '2'
_symmetry_cell_setting 'orthorhombic'
loop_
_space_group_symop_operation_xyz
x,y,z
1/2-x,1/2-y,z
1/2+x,-y,-z
-x,1/2+y,-z
-x,-y,-z
1/2+x,1/2+y,-z
1/2-x,y,z
x,1/2-y,z
loop_
_atom_site_type_symbol
_atom_site_label
_atom_site_fract_x
_atom_site_fract_y
_atom_site_fract_z
Si Si1 0.920399 0.433134 0.534584
Si Si2 0.181414 0.567791 0.361055
Si Si3 0.682488 0.071557 0.039926
Si Si4 0.968537 0.066375 0.380754
Si Si5 0.601865 0.923671 0.761757
Si Si6 0.683116 0.423857 0.864599
Si Si7 0.549072 0.936199 0.060357
Si Si8 0.021802 0.429059 0.772950
O O1 0.934451 0.250000 0.537441
O O2 0.854336 0.455601 0.563906
O O3 0.929542 0.485747 0.451025
O O4 0.965814 0.514525 0.591090
O O5 0.250000 0.529474 0.367119
O O6 0.175809 0.750000 0.341889
O O7 0.149052 0.466847 0.300157
O O8 0.750000 0.015760 0.064257
O O9 0.676885 0.250000 0.065560
O O10 0.619107 0.985915 0.052961
O O11 0.685986 0.075344 0.951764
O O12 0.967015 0.250000 0.376372
O O13 0.950935 0.003038 0.300930
O O14 0.579265 0.750000 0.754090
O O15 0.637163 0.951003 0.836836
O O16 0.548032 0.042279 0.759946
O O17 0.750000 0.450973 0.835508
O O18 0.665042 0.250000 0.841503
O O19 0.544959 0.750000 0.056063
O O20 0.533361 0.988004 0.144147
O O21 0.500000 0.000000 0.000000
O O22 0.037241 0.250000 0.773079
#
# Coordination Sequence:
#
# PCOD9448407 Si02
#       8
#     8   8   8   8   8   8   8   8
#     4   9  18  33  53  77 107 138 172 215 263 317
#     4  10  20  34  52  73 103 146 182 208 253 322
#     4   9  19  37  60  83 108 142 186 234 287 349
#     4  10  19  32  54  82 104 132 175 225 271 313
#     4  12  23  32  46  73 105 138 179 225 268 314
#     4   9  18  33  51  70  97 138 180 214 259 325
#     4  11  24  39  58  85 116 152 193 241 296 350
#     4  11  23  38  54  75 107 145 182 223 278 338
#
# _framework density 18.06878
#
# number of rings (size 3 to 8) (size 9 to 14) (size 15 to 20)
#    0.000    1.875    1.250    4.125    0.000    8.250 
#    0.000    1.250    0.000    0.750    0.000    1.750 
#    0.000    0.000    0.000    0.000    0.000    0.000 
#
# Total GULP energy -356467.332811 kJ/mol
# GULP energy per Si atom -5569.802075 kJ/mol
# Density = 1.802765 g / cm^3
# Si number density = 18.068780 Si / 1000 Ang^3
#
#
#
# Elastic Constant Matrix: (Units=GPa)
#
#
# Indices 1 2 3 4 5 6 
#
# 1 80.7424 15.0562 40.3216 0.0000 0.0000 0.0000
# 2 15.0562 24.2718 22.9461 0.0000 0.0000 0.0000
# 3 40.3216 22.9461 120.1044 0.0000 0.0000 0.0000
# 4 0.0000 0.0000 0.0000 25.8700 0.0000 0.0000
# 5 0.0000 0.0000 0.0000 0.0000 24.9043 0.0000
# 6 0.0000 0.0000 0.0000 0.0000 0.0000 20.6891
#
#
#
# Elastic Compliance Matrix: (Units=1/GPa)
#
#
# Indices 1 2 3 4 5 6 
#
# 1 0.015507 -0.005733 -0.004111 0.000000 0.000000 0.000000
# 2 -0.005733 0.052401 -0.008087 0.000000 0.000000 0.000000
# 3 -0.004111 -0.008087 0.011251 0.000000 0.000000 0.000000
# 4 0.000000 0.000000 0.000000 0.038655 0.000000 0.000000
# 5 0.000000 0.000000 0.000000 0.000000 0.040154 0.000000
# 6 0.000000 0.000000 0.000000 0.000000 0.000000 0.048335
#
#
# Mechanical properties :
#
#
# Convention : Reuss Voigt Hill
#
# Bulk Modulus (GPa) = 23.09541 42.41850 32.75696
# Shear Modulus (GPa) = 19.48586 24.07898 21.78242
#
# Velocity S-wave (km/s) = 3.28750 3.65448 3.47584
# Velocity P-wave (km/s) = 5.21727 6.42916 5.85466
#
# Compressibility (1/GPa) = 0.04329864
#
# Stress axis : x y z
#
# Youngs Moduli (GPa) = 64.48715 19.08346 88.88009
#
# Poissons Ratio (x) = 0.10941 0.36536
# Poissons Ratio (y) = 0.36971 0.71874
# Poissons Ratio (z) = 0.26509 0.15432
#
# Static dielectric constant tensor:
#      x y z
#    x 1.652620 0.000000 0.000000 
#    y 0.000000 1.639080 0.000000 
#    z 0.000000 0.000000 1.657670 
# 
# From -- ./inp_files/28287.got.cif
#   From: 2010.05.17/outbox.cif.g08.bks.cpg/sg59_15_cif.got.tgz:28287.got - 2010.06.03 14:40:33.
