data_PCOD9448614
_publ_section_title
;
Structure prediction by ZEFSAII (Michael W. Deem and Ramdas Pophale) SiO2 
 PCOD9448614
Probable space group: P M M N
;
_chemical_formula_sum "Si O2"
_cell_formula_units_Z 64
_cell_length_a 8.748200
_cell_length_b 18.433021
_cell_length_c 22.147170
_cell_angle_alpha 90.000000
_cell_angle_beta 90.000000
_cell_angle_gamma 90.000000
_cell_volume 3571.358604
_symmetry_space_group_name_H-M "P M M N"
_symmetry_group_IT_number 59
_space_group.IT_coordinate_system_code '2'
_symmetry_cell_setting 'orthorhombic'
loop_
_space_group_symop_operation_xyz
x,y,z
1/2-x,1/2-y,z
1/2+x,-y,-z
-x,1/2+y,-z
-x,-y,-z
1/2+x,1/2+y,-z
1/2-x,y,z
x,1/2-y,z
loop_
_atom_site_type_symbol
_atom_site_label
_atom_site_fract_x
_atom_site_fract_y
_atom_site_fract_z
Si Si1 0.432876 0.545130 0.187779
Si Si2 0.567410 0.403145 0.248604
Si Si3 0.563727 0.833077 0.502670
Si Si4 0.433216 0.086476 0.375373
Si Si5 0.065717 0.165975 0.733647
Si Si6 0.434877 0.424927 0.614155
Si Si7 0.065820 0.668160 0.877318
Si Si8 0.567493 0.527305 0.937350
O O1 0.250000 0.541196 0.193341
O O2 0.506692 0.482517 0.229407
O O3 0.493061 0.621630 0.211367
O O4 0.475353 0.524859 0.119050
O O5 0.750000 0.405947 0.254210
O O6 0.495606 0.382538 0.312392
O O7 0.527256 0.351529 0.192236
O O8 0.750000 0.832172 0.501935
O O9 0.512387 0.750000 0.495840
O O10 0.516488 0.867508 0.566383
O O11 0.516684 0.883391 0.446702
O O12 0.250000 0.085645 0.373687
O O13 0.493680 0.004394 0.381612
O O14 0.250000 0.163144 0.738477
O O15 0.019733 0.250000 0.731516
O O16 0.023468 0.123966 0.672034
O O17 0.250000 0.432027 0.613796
O O18 0.250000 0.663498 0.882406
O O19 0.018143 0.750000 0.891682
O O20 0.992951 0.606682 0.918983
O O21 0.750000 0.528809 0.941030
O O22 0.500000 0.500000 0.000000
#
# Coordination Sequence:
#
# PCOD9448614 Si02
#       8
#     8   8   8   8   8   8   8   8
#     4  10  20  35  55  80 110 140 175 219 266 315
#     4  10  19  33  54  78 106 142 180 218 266 324
#     4   9  19  35  52  72 101 138 179 223 272 325
#     4  11  21  32  51  78 106 137 176 224 273 324
#     4  10  20  33  53  81 108 138 178 222 270 324
#     4  10  19  34  56  76  99 137 181 222 268 326
#     4   9  19  36  58  84 114 147 184 229 278 324
#     4  10  21  37  59  86 114 150 190 225 266 318
#
# _framework density 17.920351
#
# number of rings (size 3 to 8) (size 9 to 14) (size 15 to 20)
#    0.000    2.125    1.250    2.250    0.000    4.500 
#    0.000    1.250    0.000    4.500    0.000    0.000 
#    0.000    0.000    0.000    0.000    0.000    0.000 
#
# Total GULP energy -357296.450941 kJ/mol
# GULP energy per Si atom -5582.757046 kJ/mol
# Density = 1.787956 g / cm^3
# Si number density = 17.920351 Si / 1000 Ang^3
#
#
#
# Elastic Constant Matrix: (Units=GPa)
#
#
# Indices 1 2 3 4 5 6 
#
# 1 24.2597 23.0719 33.9437 0.0000 0.0000 0.0000
# 2 23.0719 76.8238 51.7901 0.0000 0.0000 0.0000
# 3 33.9437 51.7901 139.8655 0.0000 0.0000 0.0000
# 4 0.0000 0.0000 0.0000 19.6699 0.0000 0.0000
# 5 0.0000 0.0000 0.0000 0.0000 28.2428 0.0000
# 6 0.0000 0.0000 0.0000 0.0000 0.0000 20.8911
#
#
#
# Elastic Compliance Matrix: (Units=1/GPa)
#
#
# Indices 1 2 3 4 5 6 
#
# 1 0.070880 -0.012914 -0.012420 0.000000 0.000000 0.000000
# 2 -0.012914 0.019700 -0.004160 0.000000 0.000000 0.000000
# 3 -0.012420 -0.004160 0.011704 0.000000 0.000000 0.000000
# 4 0.000000 0.000000 0.000000 0.050839 0.000000 0.000000
# 5 0.000000 0.000000 0.000000 0.000000 0.035407 0.000000
# 6 0.000000 0.000000 0.000000 0.000000 0.000000 0.047867
#
#
# Mechanical properties :
#
#
# Convention : Reuss Voigt Hill
#
# Bulk Modulus (GPa) = 23.09701 50.95117 37.02409
# Shear Modulus (GPa) = 16.13845 22.57032 19.35438
#
# Velocity S-wave (km/s) = 3.00420 3.55277 3.28993
# Velocity P-wave (km/s) = 4.99503 6.73225 5.92763
#
# Compressibility (1/GPa) = 0.04329565
#
# Stress axis : x y z
#
# Youngs Moduli (GPa) = 14.10829 50.76157 85.43747
#
# Poissons Ratio (x) = 0.65554 1.06113
# Poissons Ratio (y) = 0.18220 0.35546
# Poissons Ratio (z) = 0.17522 0.21119
#
# Static dielectric constant tensor:
#      x y z
#    x 1.605110 0.000000 0.000000 
#    y 0.000000 1.591740 0.000000 
#    z 0.000000 0.000000 1.607250 
# 
# From -- ./inp_files/29601.got.cif
#   From: 2010.05.17/outbox.cif.g08.bks.cpg/sg59_15_cif.got.tgz:29601.got - 2010.06.03 14:40:33.
