data_PCOD9448578
_publ_section_title
;
Structure prediction by ZEFSAII (Michael W. Deem and Ramdas Pophale) SiO2 
 PCOD9448578
Probable space group: P M M N
;
_chemical_formula_sum "Si O2"
_cell_formula_units_Z 56
_cell_length_a 8.573548
_cell_length_b 14.908282
_cell_length_c 21.177472
_cell_angle_alpha 90.000000
_cell_angle_beta 90.000000
_cell_angle_gamma 90.000000
_cell_volume 2706.838214
_symmetry_space_group_name_H-M "P M M N"
_symmetry_group_IT_number 59
_space_group.IT_coordinate_system_code '2'
_symmetry_cell_setting 'orthorhombic'
loop_
_space_group_symop_operation_xyz
x,y,z
1/2-x,1/2-y,z
1/2+x,-y,-z
-x,1/2+y,-z
-x,-y,-z
1/2+x,1/2+y,-z
1/2-x,y,z
x,1/2-y,z
loop_
_atom_site_type_symbol
_atom_site_label
_atom_site_fract_x
_atom_site_fract_y
_atom_site_fract_z
Si Si1 0.926593 0.571359 0.602876
Si Si2 0.433806 0.347388 0.267025
Si Si3 0.936567 0.038600 0.909512
Si Si4 0.561925 0.646588 0.971665
Si Si5 0.423536 0.648538 0.486159
Si Si6 0.563504 0.539223 0.226654
Si Si7 0.928788 0.894641 0.358362
O O1 0.750000 0.535805 0.611086
O O2 0.942991 0.646498 0.656632
O O3 0.954944 0.599577 0.531345
O O4 0.054876 0.498101 0.620422
O O5 0.250000 0.353222 0.250188
O O6 0.492969 0.250000 0.245620
O O7 0.515072 0.436291 0.241118
O O8 0.750000 0.041550 0.915194
O O9 0.008602 0.106111 0.961006
O O10 0.989117 0.064348 0.839666
O O11 0.986866 0.934751 0.924367
O O12 0.750000 0.649640 0.969779
O O13 0.507197 0.750000 0.961052
O O14 0.250000 0.609915 0.493103
O O15 0.419756 0.750000 0.509462
O O16 0.471586 0.650464 0.413099
O O17 0.750000 0.544556 0.223645
O O18 0.513621 0.601322 0.286143
O O19 0.750000 0.864195 0.360311
#
# Coordination Sequence:
#
# PCOD9448578 Si02
#       7
#     8   8   8   8   8   8   8
#     4  10  19  33  54  76 100 132 170 213 265 324
#     4   9  18  32  50  74 104 138 177 221 269 322
#     4  10  20  35  58  87 117 149 185 226 270 317
#     4   9  19  37  60  86 117 151 185 222 265 314
#     4  11  23  36  51  73 100 129 166 217 272 320
#     4  10  21  36  54  77 106 143 182 219 264 315
#     4  10  21  37  55  74  99 133 174 216 259 312
#
# _framework density 20.688343
#
# number of rings (size 3 to 8) (size 9 to 14) (size 15 to 20)
#    0.000    2.143    0.000    3.000    0.000    5.714 
#    0.000    2.143    0.000    0.857    0.000    0.000 
#    0.000    0.000    0.000    0.000    0.000    0.000 
#
# Total GULP energy -312206.396781 kJ/mol
# GULP energy per Si atom -5575.114228 kJ/mol
# Density = 2.064126 g / cm^3
# Si number density = 20.688343 Si / 1000 Ang^3
#
#
#
# Elastic Constant Matrix: (Units=GPa)
#
#
# Indices 1 2 3 4 5 6 
#
# 1 31.4404 -1.5108 4.6785 0.0000 0.0000 0.0000
# 2 -1.5108 28.2824 -17.5074 0.0000 0.0000 0.0000
# 3 4.6785 -17.5074 91.5392 0.0000 0.0000 0.0000
# 4 0.0000 0.0000 0.0000 10.5798 0.0000 0.0000
# 5 0.0000 0.0000 0.0000 0.0000 28.4737 0.0000
# 6 0.0000 0.0000 0.0000 0.0000 0.0000 16.5048
#
#
#
# Elastic Compliance Matrix: (Units=1/GPa)
#
#
# Indices 1 2 3 4 5 6 
#
# 1 0.032066 0.000792 -0.001487 0.000000 0.000000 0.000000
# 2 0.000792 0.040126 0.007634 0.000000 0.000000 0.000000
# 3 -0.001487 0.007634 0.012460 0.000000 0.000000 0.000000
# 4 0.000000 0.000000 0.000000 0.094519 0.000000 0.000000
# 5 0.000000 0.000000 0.000000 0.000000 0.035120 0.000000
# 6 0.000000 0.000000 0.000000 0.000000 0.000000 0.060589
#
#
# Mechanical properties :
#
#
# Convention : Reuss Voigt Hill
#
# Bulk Modulus (GPa) = 10.14932 13.62028 11.88480
# Shear Modulus (GPa) = 17.01576 22.15177 19.58377
#
# Velocity S-wave (km/s) = 2.87100 3.27576 3.08004
# Velocity P-wave (km/s) = 3.98832 4.57223 4.29022
#
# Compressibility (1/GPa) = 0.09852873
#
# Stress axis : x y z
#
# Youngs Moduli (GPa) = 31.18605 24.92179 80.25487
#
# Poissons Ratio (x) = -0.01974 0.11937
# Poissons Ratio (y) = -0.02471 -0.61265
# Poissons Ratio (z) = 0.04638 -0.19025
#
# Static dielectric constant tensor:
#      x y z
#    x 1.712250 0.000000 0.000000 
#    y 0.000000 1.772340 0.000000 
#    z 0.000000 0.000000 1.749400 
# 
# From -- ./inp_files/29103.got.cif
#   From: 2010.05.17/outbox.cif.g08.bks.cpg/sg59_15_cif.got.tgz:29103.got - 2010.06.03 14:40:33.
