data_PCOD9448607
_publ_section_title
;
Structure prediction by ZEFSAII (Michael W. Deem and Ramdas Pophale) SiO2 
 PCOD9448607
Probable space group: P M M N
;
_chemical_formula_sum "Si O2"
_cell_formula_units_Z 48
_cell_length_a 22.585420
_cell_length_b 21.679068
_cell_length_c 5.230946
_cell_angle_alpha 90.000000
_cell_angle_beta 90.000000
_cell_angle_gamma 90.000000
_cell_volume 2561.232568
_symmetry_space_group_name_H-M "P M M N"
_symmetry_group_IT_number 59
_space_group.IT_coordinate_system_code '2'
_symmetry_cell_setting 'orthorhombic'
loop_
_space_group_symop_operation_xyz
x,y,z
1/2-x,1/2-y,z
1/2+x,-y,-z
-x,1/2+y,-z
-x,-y,-z
1/2+x,1/2+y,-z
1/2-x,y,z
x,1/2-y,z
loop_
_atom_site_type_symbol
_atom_site_label
_atom_site_fract_x
_atom_site_fract_y
_atom_site_fract_z
Si Si1 0.321754 0.320705 0.219293
Si Si2 0.321354 0.399168 0.717591
Si Si3 0.458798 0.567550 0.268803
Si Si4 0.888344 0.176672 0.871541
Si Si5 0.683607 0.175334 0.366670
Si Si6 0.918550 0.998496 0.235961
O O1 0.250000 0.317343 0.224524
O O2 0.343551 0.250000 0.226026
O O3 0.337279 0.357039 0.961826
O O4 0.338846 0.361182 0.464272
O O5 0.250000 0.408336 0.715898
O O6 0.357081 0.462808 0.733972
O O7 0.445862 0.638032 0.200869
O O8 0.527681 0.550377 0.269284
O O9 0.430540 0.547372 0.538108
O O10 0.427797 0.528367 0.042023
O O11 0.898382 0.250000 0.875957
O O12 0.841460 0.162229 0.646663
O O13 0.860103 0.156276 0.140002
O O14 0.750000 0.151111 0.331463
O O15 0.686517 0.250000 0.347405
#
# Coordination Sequence:
#
# PCOD9448607 Si02
#       6
#     8   8   8   8   8   8
#     4   9  17  30  50  77 109 143 171 200 255 322
#     4  10  19  33  54  79 108 137 172 221 263 299
#     4  10  21  38  57  75 100 140 182 213 253 313
#     4  10  19  33  54  78 105 134 171 222 266 302
#     4   9  17  30  49  74 105 139 168 199 256 324
#     4  10  21  38  58  75 101 143 182 211 251 312
#
# _framework density 18.740977000000001
#
# number of rings (size 3 to 8) (size 9 to 14) (size 15 to 20)
#    0.000    2.333    0.000    3.000    0.000    4.000 
#    0.000    6.667    0.000    2.000    0.000    0.000 
#    0.000    0.000    0.000    0.000    0.000    0.000 
#
# Total GULP energy -267772.037873 kJ/mol
# GULP energy per Si atom -5578.584122 kJ/mol
# Density = 1.869832 g / cm^3
# Si number density = 18.740977 Si / 1000 Ang^3
#
#
#
# Elastic Constant Matrix: (Units=GPa)
#
#
# Indices 1 2 3 4 5 6 
#
# 1 40.6565 28.6038 11.9137 0.0000 0.0000 0.0000
# 2 28.6038 33.9268 5.7203 0.0000 0.0000 0.0000
# 3 11.9137 5.7203 112.5928 0.0000 0.0000 0.0000
# 4 0.0000 0.0000 0.0000 20.0873 0.0000 0.0000
# 5 0.0000 0.0000 0.0000 0.0000 12.5585 0.0000
# 6 0.0000 0.0000 0.0000 0.0000 0.0000 17.8473
#
#
#
# Elastic Compliance Matrix: (Units=1/GPa)
#
#
# Indices 1 2 3 4 5 6 
#
# 1 0.062150 -0.051734 -0.003948 0.000000 0.000000 0.000000
# 2 -0.051734 0.072793 0.001776 0.000000 0.000000 0.000000
# 3 -0.003948 0.001776 0.009209 0.000000 0.000000 0.000000
# 4 0.000000 0.000000 0.000000 0.049783 0.000000 0.000000
# 5 0.000000 0.000000 0.000000 0.000000 0.079628 0.000000
# 6 0.000000 0.000000 0.000000 0.000000 0.000000 0.056031
#
#
# Mechanical properties :
#
#
# Convention : Reuss Voigt Hill
#
# Bulk Modulus (GPa) = 27.51739 31.07241 29.29490
# Shear Modulus (GPa) = 11.12302 19.49451 15.30876
#
# Velocity S-wave (km/s) = 2.43886 3.22872 2.86118
# Velocity P-wave (km/s) = 4.75874 5.52408 5.15563
#
# Compressibility (1/GPa) = 0.03634065
#
# Stress axis : x y z
#
# Youngs Moduli (GPa) = 16.09003 13.73764 108.58852
#
# Poissons Ratio (x) = 0.71070 0.42870
# Poissons Ratio (y) = 0.83240 -0.19283
# Poissons Ratio (z) = 0.06352 -0.02440
#
# Static dielectric constant tensor:
#      x y z
#    x 1.636990 0.000000 0.000000 
#    y 0.000000 1.654440 0.000000 
#    z 0.000000 0.000000 1.639260 
# 
# From -- ./inp_files/4228.got.cif
#   From: 2010.05.17/outbox.cif.g08.bks.cpg/sg59_3_cif.got.tgz:4228.got - 2010.06.03 14:40:33.
