data_PCOD9448855
_publ_section_title
;
Structure prediction by ZEFSAII (Michael W. Deem and Ramdas Pophale) SiO2 
 PCOD9448855
Probable space group: P M M N
;
_chemical_formula_sum "Si O2"
_cell_formula_units_Z 64
_cell_length_a 8.498744
_cell_length_b 20.664991
_cell_length_c 20.641595
_cell_angle_alpha 90.000000
_cell_angle_beta 90.000000
_cell_angle_gamma 90.000000
_cell_volume 3625.210429
_symmetry_space_group_name_H-M "P M M N"
_symmetry_group_IT_number 59
_space_group.IT_coordinate_system_code '2'
_symmetry_cell_setting 'orthorhombic'
loop_
_space_group_symop_operation_xyz
x,y,z
1/2-x,1/2-y,z
1/2+x,-y,-z
-x,1/2+y,-z
-x,-y,-z
1/2+x,1/2+y,-z
1/2-x,y,z
x,1/2-y,z
loop_
_atom_site_type_symbol
_atom_site_label
_atom_site_fract_x
_atom_site_fract_y
_atom_site_fract_z
Si Si1 0.559472 0.582162 0.332212
Si Si2 0.561850 0.567823 0.971951
Si Si3 0.061668 0.957273 0.833999
Si Si4 0.558369 0.065255 0.310745
Si Si5 0.940180 0.176126 0.408515
Si Si6 0.940174 0.676824 0.072707
Si Si7 0.437047 0.600407 0.191407
Si Si8 0.940022 0.675668 0.447734
O O1 0.750000 0.583328 0.329784
O O2 0.510823 0.506524 0.334786
O O3 0.496264 0.609957 0.264568
O O4 0.507622 0.625106 0.393055
O O5 0.750000 0.566032 0.973587
O O6 0.507097 0.574874 0.898037
O O7 0.500000 0.500000 0.000000
O O8 0.506694 0.625760 0.018380
O O9 0.250000 0.954914 0.837063
O O10 0.009992 0.928693 0.764483
O O11 0.010065 0.032323 0.832505
O O12 0.750000 0.066000 0.311309
O O13 0.503582 0.122975 0.356939
O O14 0.750000 0.175661 0.407787
O O15 0.991687 0.250000 0.394020
O O16 0.995876 0.160062 0.481016
O O17 0.750000 0.673958 0.075767
O O18 0.986711 0.750000 0.057237
O O19 0.006254 0.654655 0.141767
O O20 0.250000 0.595150 0.190536
O O21 0.750000 0.673862 0.450050
O O22 0.986690 0.750000 0.432356
#
# Coordination Sequence:
#
# PCOD9448855 Si02
#       8
#     8   8   8   8   8   8   8   8
#     4   9  18  33  51  70  99 137 171 206 252 309
#     4  11  21  34  57  83 106 137 178 221 263 311
#     4  10  19  34  55  77 104 137 174 214 258 314
#     4   8  16  31  50  72  98 130 168 208 251 302
#     4   9  17  31  51  72  96 129 168 210 257 308
#     4  10  22  39  56  75 105 145 181 212 257 318
#     4  11  21  33  52  78 106 134 170 217 263 309
#     4   9  18  32  49  70  96 129 169 208 250 308
#
# _framework density 17.654147999999999
#
# number of rings (size 3 to 8) (size 9 to 14) (size 15 to 20)
#    0.000    2.375    1.250    2.625    0.000    2.250 
#    0.000    5.000    0.000    0.750    0.000    0.000 
#    0.000    0.000    0.000    0.000    0.000    0.000 
#
# Total GULP energy -357016.441393 kJ/mol
# GULP energy per Si atom -5578.381897 kJ/mol
# Density = 1.761397 g / cm^3
# Si number density = 17.654148 Si / 1000 Ang^3
#
#
#
# Elastic Constant Matrix: (Units=GPa)
#
#
# Indices 1 2 3 4 5 6 
#
# 1 19.3945 25.6548 22.9451 0.0000 0.0000 0.0000
# 2 25.6548 127.5449 111.0688 0.0000 0.0000 0.0000
# 3 22.9451 111.0688 157.1080 0.0000 0.0000 0.0000
# 4 0.0000 0.0000 0.0000 32.3240 0.0000 0.0000
# 5 0.0000 0.0000 0.0000 0.0000 30.0431 0.0000
# 6 0.0000 0.0000 0.0000 0.0000 0.0000 12.8987
#
#
#
# Elastic Compliance Matrix: (Units=1/GPa)
#
#
# Indices 1 2 3 4 5 6 
#
# 1 0.070283 -0.013524 -0.000703 0.000000 0.000000 0.000000
# 2 -0.013524 0.023001 -0.014285 0.000000 0.000000 0.000000
# 3 -0.000703 -0.014285 0.016567 0.000000 0.000000 0.000000
# 4 0.000000 0.000000 0.000000 0.030937 0.000000 0.000000
# 5 0.000000 0.000000 0.000000 0.000000 0.033286 0.000000
# 6 0.000000 0.000000 0.000000 0.000000 0.000000 0.077527
#
#
# Mechanical properties :
#
#
# Convention : Reuss Voigt Hill
#
# Bulk Modulus (GPa) = 18.93065 69.26498 44.09782
# Shear Modulus (GPa) = 15.32639 24.67840 20.00240
#
# Velocity S-wave (km/s) = 2.94963 3.74288 3.36968
# Velocity P-wave (km/s) = 4.72724 7.61567 6.33819
#
# Compressibility (1/GPa) = 0.05282438
#
# Stress axis : x y z
#
# Youngs Moduli (GPa) = 14.22817 43.47705 60.36136
#
# Poissons Ratio (x) = 0.58800 0.04246
# Poissons Ratio (y) = 0.19243 0.86228
# Poissons Ratio (z) = 0.01001 0.62108
#
# Static dielectric constant tensor:
#      x y z
#    x 1.616370 0.000000 0.000000 
#    y 0.000000 1.599090 0.000000 
#    z 0.000000 0.000000 1.585500 
# 
# From -- ./inp_files/28181.got.cif
#   From: 2010.05.17/outbox.cif.g08.bks.cpg/sg59_15_cif.got.tgz:28181.got - 2010.06.03 14:40:33.
