data_PCOD9448261
_publ_section_title
;
Structure prediction by ZEFSAII (Michael W. Deem and Ramdas Pophale) SiO2 
 PCOD9448261
Probable space group: P M M N
;
_chemical_formula_sum "Si O2"
_cell_formula_units_Z 48
_cell_length_a 30.004015
_cell_length_b 7.440698
_cell_length_c 10.229678
_cell_angle_alpha 90.000000
_cell_angle_beta 90.000000
_cell_angle_gamma 90.000000
_cell_volume 2283.783945
_symmetry_space_group_name_H-M "P M M N"
_symmetry_group_IT_number 59
_space_group.IT_coordinate_system_code '2'
_symmetry_cell_setting 'orthorhombic'
loop_
_space_group_symop_operation_xyz
x,y,z
1/2-x,1/2-y,z
1/2+x,-y,-z
-x,1/2+y,-z
-x,-y,-z
1/2+x,1/2+y,-z
1/2-x,y,z
x,1/2-y,z
loop_
_atom_site_type_symbol
_atom_site_label
_atom_site_fract_x
_atom_site_fract_y
_atom_site_fract_z
Si Si1 0.124379 0.970549 0.007295
Si Si2 0.874908 0.460116 0.291554
Si Si3 0.699174 0.468807 0.791971
Si Si4 0.968466 0.035660 0.877633
Si Si5 0.475127 0.463214 0.634964
Si Si6 0.801517 0.030536 0.495763
O O1 0.123283 0.750000 0.004483
O O2 0.124605 0.032866 0.856735
O O3 0.166440 0.026842 0.093517
O O4 0.080124 0.031930 0.083092
O O5 0.863967 0.250000 0.277518
O O6 0.924437 0.470757 0.352075
O O7 0.837299 0.534081 0.389503
O O8 0.750000 0.524831 0.814664
O O9 0.698501 0.250000 0.791809
O O10 0.686450 0.524245 0.644305
O O11 0.963828 0.250000 0.858912
O O12 0.993616 0.962955 0.750786
O O13 0.000000 0.000000 0.000000
O O14 0.500000 0.500000 0.500000
O O15 0.471720 0.250000 0.651991
O O16 0.750000 0.978006 0.469928
O O17 0.802114 0.250000 0.495311
#
# Coordination Sequence:
#
# PCOD9448261 Si02
#       6
#     8   8   8   8   8   8
#     4   9  17  28  45  71 100 131 165 203 255 309
#     4  10  19  32  52  76 106 137 170 216 261 308
#     4   8  14  25  42  67 100 133 165 205 252 304
#     4  10  20  35  54  75 103 137 171 211 259 311
#     4  11  24  38  54  77 106 140 178 220 264 317
#     4   8  15  27  45  72 104 137 172 211 257 305
#
# _framework density 21.017749999999999
#
# number of rings (size 3 to 8) (size 9 to 14) (size 15 to 20)
#    0.000    2.667    1.667    1.500    2.333    1.333 
#    0.000    3.333    0.000    0.500    0.000    0.000 
#    0.000    0.667    0.000    0.000    0.000    0.000 
#
# Total GULP energy -267906.688231 kJ/mol
# GULP energy per Si atom -5581.389338 kJ/mol
# Density = 2.096991 g / cm^3
# Si number density = 21.017750 Si / 1000 Ang^3
#
#
#
# Elastic Constant Matrix: (Units=GPa)
#
#
# Indices 1 2 3 4 5 6 
#
# 1 163.7046 -8.3259 120.6429 0.0000 0.0000 0.0000
# 2 -8.3259 60.8100 -9.9518 0.0000 0.0000 0.0000
# 3 120.6429 -9.9518 184.1868 0.0000 0.0000 0.0000
# 4 0.0000 0.0000 0.0000 -3.2766 0.0000 0.0000
# 5 0.0000 0.0000 0.0000 0.0000 46.7510 0.0000
# 6 0.0000 0.0000 0.0000 0.0000 0.0000 9.6282
#
#
#
# Elastic Compliance Matrix: (Units=1/GPa)
#
#
# Indices 1 2 3 4 5 6 
#
# 1 0.011816 0.000354 -0.007721 0.000000 0.000000 0.000000
# 2 0.000354 0.016602 0.000665 0.000000 0.000000 0.000000
# 3 -0.007721 0.000665 0.010522 0.000000 0.000000 0.000000
# 4 0.000000 0.000000 0.000000 -0.305190 0.000000 0.000000
# 5 0.000000 0.000000 0.000000 0.000000 0.021390 0.000000
# 6 0.000000 0.000000 0.000000 0.000000 0.000000 0.103862
#
#
# Mechanical properties :
#
#
# Convention : Reuss Voigt Hill
#
# Bulk Modulus (GPa) = 39.15751 68.15910 53.65831
# Shear Modulus (GPa) = -41.98771 31.04291 -5.47240
#
# Velocity S-wave (km/s) = -4.47444 3.84733 -1.61535
# Velocity P-wave (km/s) = 2.83250 7.22742 4.70173
#
# Compressibility (1/GPa) = 0.02553788
#
# Stress axis : x y z
#
# Youngs Moduli (GPa) = 84.62892 60.23375 95.03729
#
# Poissons Ratio (x) = -0.02134 0.73374
# Poissons Ratio (y) = -0.02999 -0.06319
# Poissons Ratio (z) = 0.65338 -0.04005
#
# Static dielectric constant tensor:
#      x y z
#    x 1.734540 0.000000 0.000000 
#    y 0.000000 1.835610 0.000000 
#    z 0.000000 0.000000 1.723090 
# 
# From -- ./inp_files/6319.got.cif
#   From: 2010.05.17/outbox.cif.g08.bks.cpg/sg59_4_cif.got.tgz:6319.got - 2010.06.03 14:40:33.
