data_PCOD9448095
_publ_section_title
;
Structure prediction by ZEFSAII (Michael W. Deem and Ramdas Pophale) SiO2 
 PCOD9448095
Probable space group: P M M N
;
_chemical_formula_sum "Si O2"
_cell_formula_units_Z 56
_cell_length_a 14.127809
_cell_length_b 8.121225
_cell_length_c 24.322261
_cell_angle_alpha 90.000000
_cell_angle_beta 90.000000
_cell_angle_gamma 90.000000
_cell_volume 2790.617429
_symmetry_space_group_name_H-M "P M M N"
_symmetry_group_IT_number 59
_space_group.IT_coordinate_system_code '2'
_symmetry_cell_setting 'orthorhombic'
loop_
_space_group_symop_operation_xyz
x,y,z
1/2-x,1/2-y,z
1/2+x,-y,-z
-x,1/2+y,-z
-x,-y,-z
1/2+x,1/2+y,-z
1/2-x,y,z
x,1/2-y,z
loop_
_atom_site_type_symbol
_atom_site_label
_atom_site_fract_x
_atom_site_fract_y
_atom_site_fract_z
Si Si1 0.750000 0.060271 0.317408
Si Si2 0.460002 0.056095 0.817885
Si Si3 0.954483 0.055240 0.306572
Si Si4 0.643768 0.449816 0.480860
Si Si5 0.460966 0.556109 0.412655
Si Si6 0.647713 0.444829 0.022138
Si Si7 0.750000 0.549400 0.192891
Si Si8 0.044280 0.443726 0.077433
O O1 0.750000 0.250000 0.337180
O O2 0.853278 0.988147 0.330293
O O3 0.750000 0.044122 0.251153
O O4 0.467078 0.250000 0.826828
O O5 0.351271 0.004815 0.832842
O O6 0.472800 0.020469 0.753187
O O7 0.534624 0.970453 0.857786
O O8 0.941687 0.250000 0.298366
O O9 0.032037 0.025501 0.353123
O O10 0.750000 0.499531 0.465122
O O11 0.638418 0.250000 0.477311
O O12 0.559905 0.520076 0.443870
O O13 0.618893 0.497713 0.543785
O O14 0.450700 0.750000 0.404349
O O15 0.750000 0.516665 0.036967
O O16 0.650125 0.250000 0.033573
O O17 0.626070 0.470914 0.957558
O O18 0.555531 0.512455 0.053142
O O19 0.750000 0.750000 0.201608
O O20 0.050763 0.250000 0.065684
#
# Coordination Sequence:
#
# PCOD9448095 Si02
#       8
#     4   8   8   8   8   8   4   8
#     4   8  16  28  42  62  90 128 166 194 231 290
#     4  10  19  32  49  72 103 137 171 211 255 304
#     4  10  19  32  49  71 101 137 171 206 251 306
#     4   9  19  36  55  73  99 135 171 207 251 303
#     4  10  20  33  51  78 104 130 168 212 255 301
#     4   9  19  36  55  75 102 137 174 213 257 305
#     4   8  16  28  42  64  94 128 164 200 241 288
#     4  10  20  33  52  79 106 135 172 213 257 308
#
# _framework density 20.067243000000001
#
# number of rings (size 3 to 8) (size 9 to 14) (size 15 to 20)
#    0.000    2.571    0.000    1.714    2.000    2.857 
#    0.000    0.000    0.000    0.857    0.000    2.000 
#    0.000    0.000    0.000    0.000    0.000    0.000 
#
# Total GULP energy -312192.178842 kJ/mol
# GULP energy per Si atom -5574.860336 kJ/mol
# Density = 2.002157 g / cm^3
# Si number density = 20.067243 Si / 1000 Ang^3
#
#
#
# Elastic Constant Matrix: (Units=GPa)
#
#
# Indices 1 2 3 4 5 6 
#
# 1 31.0924 -2.1904 -5.7662 0.0000 0.0000 0.0000
# 2 -2.1904 18.0453 -8.2651 0.0000 0.0000 0.0000
# 3 -5.7662 -8.2651 62.6655 0.0000 0.0000 0.0000
# 4 0.0000 0.0000 0.0000 25.4285 0.0000 0.0000
# 5 0.0000 0.0000 0.0000 0.0000 27.5237 0.0000
# 6 0.0000 0.0000 0.0000 0.0000 0.0000 14.5777
#
#
#
# Elastic Compliance Matrix: (Units=1/GPa)
#
#
# Indices 1 2 3 4 5 6 
#
# 1 0.033280 0.005792 0.003826 0.000000 0.000000 0.000000
# 2 0.005792 0.059987 0.008445 0.000000 0.000000 0.000000
# 3 0.003826 0.008445 0.017424 0.000000 0.000000 0.000000
# 4 0.000000 0.000000 0.000000 0.039326 0.000000 0.000000
# 5 0.000000 0.000000 0.000000 0.000000 0.036332 0.000000
# 6 0.000000 0.000000 0.000000 0.000000 0.000000 0.068598
#
#
# Mechanical properties :
#
#
# Convention : Reuss Voigt Hill
#
# Bulk Modulus (GPa) = 6.81123 8.81776 7.81450
# Shear Modulus (GPa) = 18.67351 22.04098 20.35725
#
# Velocity S-wave (km/s) = 3.05380 3.31774 3.18850
# Velocity P-wave (km/s) = 3.97942 4.36809 4.17828
#
# Compressibility (1/GPa) = 0.14681637
#
# Stress axis : x y z
#
# Youngs Moduli (GPa) = 30.04825 16.67032 57.39343
#
# Poissons Ratio (x) = -0.09656 -0.21960
# Poissons Ratio (y) = -0.17404 -0.48467
# Poissons Ratio (z) = -0.11497 -0.14078
#
# Static dielectric constant tensor:
#      x y z
#    x 1.739240 0.000000 0.000000 
#    y 0.000000 1.711570 0.000000 
#    z 0.000000 0.000000 1.742370 
# 
# From -- ./inp_files/30491.got.cif
#   From: 2010.05.17/outbox.cif.g08.bks.cpg/sg59_16_cif.got.tgz:30491.got - 2010.06.03 14:40:33.
