data_PCOD9448684
_publ_section_title
;
Structure prediction by ZEFSAII (Michael W. Deem and Ramdas Pophale) SiO2 
 PCOD9448684
Probable space group: P M M N
;
_chemical_formula_sum "Si O2"
_cell_formula_units_Z 48
_cell_length_a 30.818904
_cell_length_b 8.661378
_cell_length_c 10.321449
_cell_angle_alpha 90.000000
_cell_angle_beta 90.000000
_cell_angle_gamma 90.000000
_cell_volume 2755.147495
_symmetry_space_group_name_H-M "P M M N"
_symmetry_group_IT_number 59
_space_group.IT_coordinate_system_code '2'
_symmetry_cell_setting 'orthorhombic'
loop_
_space_group_symop_operation_xyz
x,y,z
1/2-x,1/2-y,z
1/2+x,-y,-z
-x,1/2+y,-z
-x,-y,-z
1/2+x,1/2+y,-z
1/2-x,y,z
x,1/2-y,z
loop_
_atom_site_type_symbol
_atom_site_label
_atom_site_fract_x
_atom_site_fract_y
_atom_site_fract_z
Si Si1 0.630464 0.435688 0.896831
Si Si2 0.200657 0.562006 0.892098
Si Si3 0.199542 0.936117 0.595555
Si Si4 0.866904 0.934957 0.612791
Si Si5 0.034672 0.064578 0.100462
Si Si6 0.966250 0.564612 0.602647
O O1 0.628709 0.250000 0.897746
O O2 0.642681 0.492742 0.753228
O O3 0.582826 0.501547 0.927086
O O4 0.665618 0.488487 0.002771
O O5 0.250000 0.512078 0.921725
O O6 0.200936 0.750000 0.893277
O O7 0.190092 0.516688 0.744270
O O8 0.250000 0.974749 0.569027
O O9 0.195689 0.750000 0.588210
O O10 0.167099 0.010896 0.494002
O O11 0.866418 0.750000 0.625083
O O12 0.916298 0.982353 0.576662
O O13 0.035451 0.250000 0.095266
O O14 0.023764 0.018115 0.248885
O O15 0.000000 0.000000 0.000000
O O16 0.967913 0.750000 0.597370
O O17 0.000000 0.500000 0.500000
#
# Coordination Sequence:
#
# PCOD9448684 Si02
#       6
#     8   8   8   8   8   8
#     4  10  19  33  55  80 104 135 174 214 258 306
#     4   8  16  32  53  77 104 132 168 215 258 299
#     4   9  18  34  55  77 101 133 173 213 254 302
#     4  10  21  36  51  74 108 139 169 209 257 307
#     4  10  21  37  54  76 106 137 171 212 258 309
#     4   9  20  36  53  74 101 133 170 211 254 304
#
# _framework density 17.421934
#
# number of rings (size 3 to 8) (size 9 to 14) (size 15 to 20)
#    0.000    2.667    0.000    3.500    0.000    6.333 
#    0.000    8.333    0.000    3.500    0.000    0.000 
#    0.000    0.000    0.000    0.000    0.000    0.000 
#
# Total GULP energy -267722.197682 kJ/mol
# GULP energy per Si atom -5577.545785 kJ/mol
# Density = 1.738228 g / cm^3
# Si number density = 17.421934 Si / 1000 Ang^3
#
#
#
# Elastic Constant Matrix: (Units=GPa)
#
#
# Indices 1 2 3 4 5 6 
#
# 1 144.1254 44.0588 140.5145 0.0000 0.0000 0.0000
# 2 44.0588 38.8651 45.0094 0.0000 0.0000 0.0000
# 3 140.5145 45.0094 160.2892 0.0000 0.0000 0.0000
# 4 0.0000 0.0000 0.0000 21.8880 0.0000 0.0000
# 5 0.0000 0.0000 0.0000 0.0000 44.2411 0.0000
# 6 0.0000 0.0000 0.0000 0.0000 0.0000 29.9919
#
#
#
# Elastic Compliance Matrix: (Units=1/GPa)
#
#
# Indices 1 2 3 4 5 6 
#
# 1 0.049656 -0.008714 -0.041084 0.000000 0.000000 0.000000
# 2 -0.008714 0.039659 -0.003497 0.000000 0.000000 0.000000
# 3 -0.041084 -0.003497 0.043236 0.000000 0.000000 0.000000
# 4 0.000000 0.000000 0.000000 0.045687 0.000000 0.000000
# 5 0.000000 0.000000 0.000000 0.000000 0.022603 0.000000
# 6 0.000000 0.000000 0.000000 0.000000 0.000000 0.033342
#
#
# Mechanical properties :
#
#
# Convention : Reuss Voigt Hill
#
# Bulk Modulus (GPa) = 38.51857 89.16056 63.83957
# Shear Modulus (GPa) = 14.30913 26.80399 20.55656
#
# Velocity S-wave (km/s) = 2.86899 3.92665 3.43873
# Velocity P-wave (km/s) = 5.75605 8.47623 7.24495
#
# Compressibility (1/GPa) = 0.02596150
#
# Stress axis : x y z
#
# Youngs Moduli (GPa) = 20.13838 25.21522 23.12890
#
# Poissons Ratio (x) = 0.21972 0.95022
# Poissons Ratio (y) = 0.17548 0.08089
# Poissons Ratio (z) = 0.82736 0.08819
#
# Static dielectric constant tensor:
#      x y z
#    x 1.573710 0.000000 0.000000 
#    y 0.000000 1.593620 0.000000 
#    z 0.000000 0.000000 1.574610 
# 
# From -- ./inp_files/6235.got.cif
#   From: 2010.05.17/outbox.cif.g08.bks.cpg/sg59_4_cif.got.tgz:6235.got - 2010.06.03 14:40:33.
