data_PCOD9448222
_publ_section_title
;
Structure prediction by ZEFSAII (Michael W. Deem and Ramdas Pophale) SiO2 
 PCOD9448222
Probable space group: P M M N
;
_chemical_formula_sum "Si O2"
_cell_formula_units_Z 40
_cell_length_a 7.368350
_cell_length_b 22.912510
_cell_length_c 10.319334
_cell_angle_alpha 90.000000
_cell_angle_beta 90.000000
_cell_angle_gamma 90.000000
_cell_volume 1742.186257
_symmetry_space_group_name_H-M "P M M N"
_symmetry_group_IT_number 59
_space_group.IT_coordinate_system_code '2'
_symmetry_cell_setting 'orthorhombic'
loop_
_space_group_symop_operation_xyz
x,y,z
1/2-x,1/2-y,z
1/2+x,-y,-z
-x,1/2+y,-z
-x,-y,-z
1/2+x,1/2+y,-z
1/2-x,y,z
x,1/2-y,z
loop_
_atom_site_type_symbol
_atom_site_label
_atom_site_fract_x
_atom_site_fract_y
_atom_site_fract_z
Si Si1 0.528605 0.903330 0.723173
Si Si2 0.971325 0.813227 0.938479
Si Si3 0.542258 0.848315 0.213732
Si Si4 0.971908 0.683501 0.498245
Si Si5 0.534275 0.019727 0.851015
O O1 0.750000 0.904482 0.720875
O O2 0.470582 0.865281 0.846931
O O3 0.469572 0.866928 0.597794
O O4 0.469704 0.969149 0.752786
O O5 0.750000 0.815915 0.941557
O O6 0.020960 0.750000 0.885160
O O7 0.038600 0.820372 0.084581
O O8 0.750000 0.827239 0.219300
O O9 0.465289 0.831873 0.353076
O O10 0.543058 0.917410 0.185381
O O11 0.750000 0.682501 0.500901
O O12 0.024611 0.750000 0.532582
O O13 0.750000 0.024989 0.837861
O O14 0.500000 0.000000 0.000000
#
# Coordination Sequence:
#
# PCOD9448222 Si02
#       5
#     8   8   8   8   8
#     4   9  17  29  47  74 105 135 171 215 262 306
#     4   9  15  25  45  72 100 131 169 212 256 300
#     4  10  19  32  51  79 108 135 169 212 259 311
#     4   9  17  30  50  78 109 136 168 216 265 307
#     4  11  21  35  54  77 106 140 177 220 264 311
#
# _framework density 22.959658000000001
#
# number of rings (size 3 to 8) (size 9 to 14) (size 15 to 20)
#    0.000    2.400    2.000    1.800    0.000    5.600 
#    0.000    0.000    0.000    3.600    0.000    0.000 
#    0.000    0.000    0.000    0.000    0.000    0.000 
#
# Total GULP energy -223459.945384 kJ/mol
# GULP energy per Si atom -5586.498635 kJ/mol
# Density = 2.290740 g / cm^3
# Si number density = 22.959658 Si / 1000 Ang^3
#
#
#
# Elastic Constant Matrix: (Units=GPa)
#
#
# Indices 1 2 3 4 5 6 
#
# 1 87.7402 -10.0172 -3.1359 0.0000 0.0000 0.0000
# 2 -10.0172 102.3931 0.1869 0.0000 0.0000 0.0000
# 3 -3.1359 0.1869 85.5283 0.0000 0.0000 0.0000
# 4 0.0000 0.0000 0.0000 24.7202 0.0000 0.0000
# 5 0.0000 0.0000 0.0000 0.0000 -5.5321 0.0000
# 6 0.0000 0.0000 0.0000 0.0000 0.0000 10.4769
#
#
#
# Elastic Compliance Matrix: (Units=1/GPa)
#
#
# Indices 1 2 3 4 5 6 
#
# 1 0.011541 0.001128 0.000421 0.000000 0.000000 0.000000
# 2 0.001128 0.009877 0.000020 0.000000 0.000000 0.000000
# 3 0.000421 0.000020 0.011707 0.000000 0.000000 0.000000
# 4 0.000000 0.000000 0.000000 0.040453 0.000000 0.000000
# 5 0.000000 0.000000 0.000000 0.000000 -0.180764 0.000000
# 6 0.000000 0.000000 0.000000 0.000000 0.000000 0.095448
#
#
# Mechanical properties :
#
#
# Convention : Reuss Voigt Hill
#
# Bulk Modulus (GPa) = 27.57651 27.74770 27.66210
# Shear Modulus (GPa) = -1793.72954 25.17485 -884.27734
#
# Velocity S-wave (km/s) = -27.98122 3.31491 -19.64638
# Velocity P-wave (km/s) = 32.12312 5.17331 22.41798
#
# Compressibility (1/GPa) = 0.03626275
#
# Stress axis : x y z
#
# Youngs Moduli (GPa) = 86.64653 101.24909 85.41596
#
# Poissons Ratio (x) = -0.11424 -0.03593
# Poissons Ratio (y) = -0.09776 -0.00169
# Poissons Ratio (z) = -0.03645 -0.00200
#
# Static dielectric constant tensor:
#      x y z
#    x 1.884740 0.000000 0.000000 
#    y 0.000000 1.987640 0.000000 
#    z 0.000000 0.000000 1.832050 
# 
# From -- ./inp_files/5650.got.cif
#   From: 2010.05.17/outbox.cif.g08.bks.cpg/sg59_3_cif.got.tgz:5650.got - 2010.06.03 14:40:33.
