data_PCOD9448917
_publ_section_title
;
Structure prediction by ZEFSAII (Michael W. Deem and Ramdas Pophale) SiO2 
 PCOD9448917
Probable space group: P M M N
;
_chemical_formula_sum "Si O2"
_cell_formula_units_Z 56
_cell_length_a 9.023355
_cell_length_b 19.747543
_cell_length_c 17.745107
_cell_angle_alpha 90.000000
_cell_angle_beta 90.000000
_cell_angle_gamma 90.000000
_cell_volume 3161.984484
_symmetry_space_group_name_H-M "P M M N"
_symmetry_group_IT_number 59
_space_group.IT_coordinate_system_code '2'
_symmetry_cell_setting 'orthorhombic'
loop_
_space_group_symop_operation_xyz
x,y,z
1/2-x,1/2-y,z
1/2+x,-y,-z
-x,1/2+y,-z
-x,-y,-z
1/2+x,1/2+y,-z
1/2-x,y,z
x,1/2-y,z
loop_
_atom_site_type_symbol
_atom_site_label
_atom_site_fract_x
_atom_site_fract_y
_atom_site_fract_z
Si Si1 0.924684 0.170675 0.680429
Si Si2 0.573825 0.670728 0.888692
Si Si3 0.428130 0.566281 0.775671
Si Si4 0.075309 0.100432 0.546409
Si Si5 0.074188 0.553962 0.601175
Si Si6 0.427392 0.088102 0.814815
Si Si7 0.572915 0.170563 0.949638
O O1 0.750000 0.155295 0.685004
O O2 0.945230 0.250000 0.696467
O O3 0.986149 0.152228 0.598190
O O4 0.012421 0.126539 0.741261
O O5 0.750000 0.661239 0.896524
O O6 0.546131 0.750000 0.871376
O O7 0.508866 0.622679 0.824604
O O8 0.494895 0.655985 0.968357
O O9 0.250000 0.574935 0.780826
O O10 0.468227 0.568513 0.687194
O O11 0.463513 0.491299 0.806714
O O12 0.250000 0.114788 0.548114
O O13 0.015435 0.095059 0.461555
O O14 0.051711 0.025714 0.583039
O O15 0.250000 0.566944 0.592334
O O16 0.250000 0.094722 0.818333
O O17 0.501152 0.122954 0.886954
O O18 0.750000 0.162132 0.950879
O O19 0.541542 0.250000 0.932194
#
# Coordination Sequence:
#
# PCOD9448917 Si02
#       7
#     8   8   8   8   8   8   8
#     4  11  23  37  54  80 116 156 195 235 283 339
#     4  10  22  40  61  85 111 143 187 236 286 338
#     4  10  21  38  59  85 116 148 186 231 282 341
#     4  10  19  34  56  82 109 144 189 233 278 329
#     4   9  18  35  56  81 112 144 183 229 277 334
#     4  11  22  37  57  85 117 149 189 235 282 335
#     4  10  21  38  59  83 113 152 194 231 277 339
#
# _framework density 17.710397
#
# number of rings (size 3 to 8) (size 9 to 14) (size 15 to 20)
#    0.000    1.857    1.429    2.571    0.000    7.429 
#    0.000    0.714    0.000    0.857    0.000    0.000 
#    0.000    0.000    0.000    0.000    0.000    0.000 
#
# Total GULP energy -312807.359149 kJ/mol
# GULP energy per Si atom -5585.845699 kJ/mol
# Density = 1.767009 g / cm^3
# Si number density = 17.710397 Si / 1000 Ang^3
#
#
#
# Elastic Constant Matrix: (Units=GPa)
#
#
# Indices 1 2 3 4 5 6 
#
# 1 65.0200 56.0987 63.3103 0.0000 0.0000 0.0000
# 2 56.0987 72.3777 74.5281 0.0000 0.0000 0.0000
# 3 63.3103 74.5281 148.8977 0.0000 0.0000 0.0000
# 4 0.0000 0.0000 0.0000 24.3975 0.0000 0.0000
# 5 0.0000 0.0000 0.0000 0.0000 39.0625 0.0000
# 6 0.0000 0.0000 0.0000 0.0000 0.0000 28.0874
#
#
#
# Elastic Compliance Matrix: (Units=1/GPa)
#
#
# Indices 1 2 3 4 5 6 
#
# 1 0.047365 -0.032964 -0.003640 0.000000 0.000000 0.000000
# 2 -0.032964 0.051452 -0.011738 0.000000 0.000000 0.000000
# 3 -0.003640 -0.011738 0.014139 0.000000 0.000000 0.000000
# 4 0.000000 0.000000 0.000000 0.040988 0.000000 0.000000
# 5 0.000000 0.000000 0.000000 0.000000 0.025600 0.000000
# 6 0.000000 0.000000 0.000000 0.000000 0.000000 0.035603
#
#
# Mechanical properties :
#
#
# Convention : Reuss Voigt Hill
#
# Bulk Modulus (GPa) = 61.44918 74.90774 68.17846
# Shear Modulus (GPa) = 15.76027 24.46670 20.11349
#
# Velocity S-wave (km/s) = 2.98634 3.72087 3.37365
# Velocity P-wave (km/s) = 6.83103 7.80048 7.33180
#
# Compressibility (1/GPa) = 0.01627361
#
# Stress axis : x y z
#
# Youngs Moduli (GPa) = 21.11274 19.43548 70.72793
#
# Poissons Ratio (x) = 0.64066 0.25744
# Poissons Ratio (y) = 0.69595 0.83018
# Poissons Ratio (z) = 0.07685 0.22813
#
# Static dielectric constant tensor:
#      x y z
#    x 1.583590 0.000000 0.000000 
#    y 0.000000 1.585630 0.000000 
#    z 0.000000 0.000000 1.583320 
# 
# From -- ./inp_files/21007.got.cif
#   From: 2010.05.17/outbox.cif.g08.bks.cpg/sg59_11_cif.got.tgz:21007.got - 2010.06.03 14:40:33.
