data_PCOD9448489
_publ_section_title
;
Structure prediction by ZEFSAII (Michael W. Deem and Ramdas Pophale) SiO2 
 PCOD9448489
Probable space group: P M M N
;
_chemical_formula_sum "Si O2"
_cell_formula_units_Z 64
_cell_length_a 20.766561
_cell_length_b 8.051465
_cell_length_c 20.638760
_cell_angle_alpha 90.000000
_cell_angle_beta 90.000000
_cell_angle_gamma 90.000000
_cell_volume 3450.826245
_symmetry_space_group_name_H-M "P M M N"
_symmetry_group_IT_number 59
_space_group.IT_coordinate_system_code '2'
_symmetry_cell_setting 'orthorhombic'
loop_
_space_group_symop_operation_xyz
x,y,z
1/2-x,1/2-y,z
1/2+x,-y,-z
-x,1/2+y,-z
-x,-y,-z
1/2+x,1/2+y,-z
1/2-x,y,z
x,1/2-y,z
loop_
_atom_site_type_symbol
_atom_site_label
_atom_site_fract_x
_atom_site_fract_y
_atom_site_fract_z
Si Si1 0.323042 0.547033 0.591981
Si Si2 0.435731 0.550776 0.686141
Si Si3 0.678627 0.947748 0.932840
Si Si4 0.323075 0.549477 0.443082
Si Si5 0.395720 0.553718 0.189554
Si Si6 0.568880 0.549187 0.029066
Si Si7 0.418162 0.052363 0.330373
Si Si8 0.457067 0.450744 0.828347
O O1 0.250000 0.495427 0.609180
O O2 0.323282 0.750000 0.593111
O O3 0.378615 0.487364 0.640270
O O4 0.335636 0.497594 0.517417
O O5 0.436806 0.750000 0.679196
O O6 0.507682 0.488983 0.667465
O O7 0.425584 0.510139 0.761686
O O8 0.750000 0.017562 0.942035
O O9 0.681600 0.750000 0.943647
O O10 0.654002 0.974819 0.859974
O O11 0.625388 0.015247 0.982666
O O12 0.250000 0.495522 0.425961
O O13 0.323495 0.750000 0.442024
O O14 0.376272 0.489043 0.392979
O O15 0.394335 0.750000 0.178580
O O16 0.385918 0.518665 0.265246
O O17 0.468199 0.492469 0.173450
O O18 0.571187 0.750000 0.029390
O O19 0.573141 0.493442 0.103792
O O20 0.500000 0.500000 0.000000
O O21 0.421107 0.250000 0.322811
O O22 0.457340 0.250000 0.827136
#
# Coordination Sequence:
#
# PCOD9448489 Si02
#       8
#     8   8   8   8   8   8   8   8
#     4   8  15  31  54  75  97 129 169 210 250 296
#     4   9  18  32  51  76 102 130 166 206 248 297
#     4  10  21  35  51  74 104 135 166 205 255 305
#     4   9  18  33  52  72  95 129 172 210 247 297
#     4  10  19  33  52  72  97 131 169 206 245 293
#     4  10  19  33  54  76  99 130 170 209 248 298
#     4  10  20  32  48  74 106 134 163 204 252 299
#     4   9  18  32  50  75 102 127 162 205 248 292
#
# _framework density 18.546284
#
# number of rings (size 3 to 8) (size 9 to 14) (size 15 to 20)
#    0.000    2.625    1.250    1.500    0.000    3.000 
#    0.000    1.250    0.000    1.875    0.000    0.000 
#    0.000    0.000    0.000    0.000    0.000    0.000 
#
# Total GULP energy -356898.604469 kJ/mol
# GULP energy per Si atom -5576.540695 kJ/mol
# Density = 1.850407 g / cm^3
# Si number density = 18.546284 Si / 1000 Ang^3
#
#
#
# Elastic Constant Matrix: (Units=GPa)
#
#
# Indices 1 2 3 4 5 6 
#
# 1 130.5458 5.4441 99.2139 0.0000 0.0000 0.0000
# 2 5.4441 9.1533 -1.2669 0.0000 0.0000 0.0000
# 3 99.2139 -1.2669 136.2849 0.0000 0.0000 0.0000
# 4 0.0000 0.0000 0.0000 21.8390 0.0000 0.0000
# 5 0.0000 0.0000 0.0000 0.0000 26.3236 0.0000
# 6 0.0000 0.0000 0.0000 0.0000 0.0000 13.3847
#
#
#
# Elastic Compliance Matrix: (Units=1/GPa)
#
#
# Indices 1 2 3 4 5 6 
#
# 1 0.018558 -0.012924 -0.013630 0.000000 0.000000 0.000000
# 2 -0.012924 0.118391 0.010509 0.000000 0.000000 0.000000
# 3 -0.013630 0.010509 0.017358 0.000000 0.000000 0.000000
# 4 0.000000 0.000000 0.000000 0.045790 0.000000 0.000000
# 5 0.000000 0.000000 0.000000 0.000000 0.037989 0.000000
# 6 0.000000 0.000000 0.000000 0.000000 0.000000 0.074712
#
#
# Mechanical properties :
#
#
# Convention : Reuss Voigt Hill
#
# Bulk Modulus (GPa) = 8.18218 53.64069 30.91144
# Shear Modulus (GPa) = 12.96592 23.81567 18.39080
#
# Velocity S-wave (km/s) = 2.64694 3.58735 3.15241
# Velocity P-wave (km/s) = 3.70986 6.79295 5.47299
#
# Compressibility (1/GPa) = 0.12221683
#
# Stress axis : x y z
#
# Youngs Moduli (GPa) = 53.88547 8.44658 57.61095
#
# Poissons Ratio (x) = 0.10916 0.78524
# Poissons Ratio (y) = 0.69642 -0.60544
# Poissons Ratio (z) = 0.73446 -0.08877
#
# Static dielectric constant tensor:
#      x y z
#    x 1.641840 0.000000 0.000000 
#    y 0.000000 1.658990 0.000000 
#    z 0.000000 0.000000 1.626530 
# 
# From -- ./inp_files/28180.got.cif
#   From: 2010.05.17/outbox.cif.g08.bks.cpg/sg59_15_cif.got.tgz:28180.got - 2010.06.03 14:40:33.
