data_PCOD9448244
_publ_section_title
;
Structure prediction by ZEFSAII (Michael W. Deem and Ramdas Pophale) SiO2 
 PCOD9448244
Probable space group: P M M N
;
_chemical_formula_sum "Si O2"
_cell_formula_units_Z 64
_cell_length_a 30.347047
_cell_length_b 8.740948
_cell_length_c 15.174598
_cell_angle_alpha 90.000000
_cell_angle_beta 90.000000
_cell_angle_gamma 90.000000
_cell_volume 4025.243604
_symmetry_space_group_name_H-M "P M M N"
_symmetry_group_IT_number 59
_space_group.IT_coordinate_system_code '2'
_symmetry_cell_setting 'orthorhombic'
loop_
_space_group_symop_operation_xyz
x,y,z
1/2-x,1/2-y,z
1/2+x,-y,-z
-x,1/2+y,-z
-x,-y,-z
1/2+x,1/2+y,-z
1/2-x,y,z
x,1/2-y,z
loop_
_atom_site_type_symbol
_atom_site_label
_atom_site_fract_x
_atom_site_fract_y
_atom_site_fract_z
Si Si1 0.605888 0.433366 0.958999
Si Si2 0.440525 0.067662 0.867641
Si Si3 0.699409 0.930743 0.210558
Si Si4 0.700784 0.433871 0.014763
Si Si5 0.115000 0.929520 0.708347
Si Si6 0.434071 0.430578 0.555062
Si Si7 0.035390 0.067288 0.171588
Si Si8 0.024898 0.067143 0.375433
O O1 0.601973 0.250000 0.955493
O O2 0.577137 0.506937 0.881917
O O3 0.585454 0.491810 0.051212
O O4 0.657825 0.474410 0.958042
O O5 0.439315 0.250000 0.876356
O O6 0.416745 0.016850 0.777354
O O7 0.490738 0.009459 0.864702
O O8 0.750000 0.956022 0.237870
O O9 0.689810 0.750000 0.214867
O O10 0.695772 0.986225 0.109548
O O11 0.664283 0.022311 0.267362
O O12 0.750000 0.471631 0.980474
O O13 0.699334 0.250000 0.028446
O O14 0.108164 0.750000 0.721108
O O15 0.101917 0.978320 0.610199
O O16 0.426750 0.250000 0.565254
O O17 0.439446 0.466360 0.451480
O O18 0.480935 0.476480 0.598379
O O19 0.031512 0.250000 0.161133
O O20 0.038467 0.032694 0.275821
O O21 0.015161 0.250000 0.380778
#
# Coordination Sequence:
#
# PCOD9448244 Si02
#       8
#     8   8   8   8   8   8   8   8
#     4  11  22  35  51  73 101 135 172 210 252 303
#     4  12  23  35  50  71 100 136 176 213 248 293
#     4  10  20  33  51  75 101 130 167 209 250 297
#     4   9  18  33  52  72  97 130 166 206 251 297
#     4  12  22  33  50  74 104 138 170 204 251 307
#     4  10  19  32  52  75  98 128 166 208 250 296
#     4  11  22  36  52  71 101 137 173 212 252 299
#     4   9  19  34  51  72  99 130 166 208 252 295
#
# _framework density 15.899658000000001
#
# number of rings (size 3 to 8) (size 9 to 14) (size 15 to 20)
#    0.000    1.500    2.500    4.125    0.000    2.250 
#    0.000    0.000    0.000    0.000    0.000    0.875 
#    0.000    5.000    0.000    0.000    0.000    0.000 
#
# Total GULP energy -357344.678690 kJ/mol
# GULP energy per Si atom -5583.510605 kJ/mol
# Density = 1.586347 g / cm^3
# Si number density = 15.899658 Si / 1000 Ang^3
#
#
#
# Elastic Constant Matrix: (Units=GPa)
#
#
# Indices 1 2 3 4 5 6 
#
# 1 87.8707 23.4921 30.5710 0.0000 0.0000 0.0000
# 2 23.4921 43.3966 13.4255 0.0000 0.0000 0.0000
# 3 30.5710 13.4255 51.9831 0.0000 0.0000 0.0000
# 4 0.0000 0.0000 0.0000 21.7675 0.0000 0.0000
# 5 0.0000 0.0000 0.0000 0.0000 22.0162 0.0000
# 6 0.0000 0.0000 0.0000 0.0000 0.0000 22.7948
#
#
#
# Elastic Compliance Matrix: (Units=1/GPa)
#
#
# Indices 1 2 3 4 5 6 
#
# 1 0.015674 -0.006122 -0.007637 0.000000 0.000000 0.000000
# 2 -0.006122 0.027436 -0.003485 0.000000 0.000000 0.000000
# 3 -0.007637 -0.003485 0.024628 0.000000 0.000000 0.000000
# 4 0.000000 0.000000 0.000000 0.045940 0.000000 0.000000
# 5 0.000000 0.000000 0.000000 0.000000 0.045421 0.000000
# 6 0.000000 0.000000 0.000000 0.000000 0.000000 0.043870
#
#
# Mechanical properties :
#
#
# Convention : Reuss Voigt Hill
#
# Bulk Modulus (GPa) = 30.07555 35.35860 32.71708
# Shear Modulus (GPa) = 20.11747 21.03316 20.57532
#
# Velocity S-wave (km/s) = 3.56093 3.64107 3.60123
# Velocity P-wave (km/s) = 5.98865 6.32166 6.15741
#
# Compressibility (1/GPa) = 0.03324959
#
# Stress axis : x y z
#
# Youngs Moduli (GPa) = 63.79994 36.44885 40.60388
#
# Poissons Ratio (x) = 0.22315 0.31008
# Poissons Ratio (y) = 0.39061 0.14151
# Poissons Ratio (z) = 0.48721 0.12703
#
# Static dielectric constant tensor:
#      x y z
#    x 1.535980 0.000000 0.000000 
#    y 0.000000 1.531600 0.000000 
#    z 0.000000 0.000000 1.519460 
# 
# From -- ./inp_files/25012.got.cif
#   From: 2010.05.17/outbox.cif.g08.bks.cpg/sg59_13_cif.got.tgz:25012.got - 2010.06.03 14:40:33.
