data_PCOD9448881
_publ_section_title
;
Structure prediction by ZEFSAII (Michael W. Deem and Ramdas Pophale) SiO2 
 PCOD9448881
Probable space group: P M M N
;
_chemical_formula_sum "Si O2"
_cell_formula_units_Z 64
_cell_length_a 22.926567
_cell_length_b 21.116862
_cell_length_c 6.674468
_cell_angle_alpha 90.000000
_cell_angle_beta 90.000000
_cell_angle_gamma 90.000000
_cell_volume 3231.357925
_symmetry_space_group_name_H-M "P M M N"
_symmetry_group_IT_number 59
_space_group.IT_coordinate_system_code '2'
_symmetry_cell_setting 'orthorhombic'
loop_
_space_group_symop_operation_xyz
x,y,z
1/2-x,1/2-y,z
1/2+x,-y,-z
-x,1/2+y,-z
-x,-y,-z
1/2+x,1/2+y,-z
1/2-x,y,z
x,1/2-y,z
loop_
_atom_site_type_symbol
_atom_site_label
_atom_site_fract_x
_atom_site_fract_y
_atom_site_fract_z
Si Si1 0.185664 0.921916 0.399691
Si Si2 0.846692 0.560641 0.699316
Si Si3 0.900063 0.875185 0.323621
Si Si4 0.020815 0.322636 0.331969
Si Si5 0.433217 0.484414 0.981540
Si Si6 0.599507 0.108068 0.243659
Si Si7 0.316933 0.821991 0.040872
Si Si8 0.639349 0.679670 0.930129
O O1 0.250000 0.909418 0.490116
O O2 0.133562 0.912093 0.556127
O O3 0.177166 0.872375 0.219761
O O4 0.186033 0.994439 0.322629
O O5 0.857868 0.591210 0.483454
O O6 0.826332 0.619288 0.839203
O O7 0.906313 0.538199 0.808947
O O8 0.949433 0.841973 0.457618
O O9 0.925322 0.929591 0.181429
O O10 0.868265 0.828958 0.167713
O O11 0.000473 0.250000 0.339849
O O12 0.074446 0.324758 0.172034
O O13 0.966103 0.367239 0.282004
O O14 0.401759 0.546833 0.899376
O O15 0.500000 0.500000 0.000000
O O16 0.637410 0.160984 0.131162
O O17 0.250000 0.826897 0.967365
O O18 0.325926 0.750000 0.112468
O O19 0.661912 0.750000 0.881319
#
# Coordination Sequence:
#
# PCOD9448881 Si02
#       8
#     8   8   8   8   8   8   8   8
#     4  11  24  41  62  87 113 150 201 254 301 349
#     4  10  20  37  57  86 114 150 197 235 291 351
#     4  10  19  34  55  81 117 154 190 232 282 343
#     4  10  22  35  52  82 118 159 199 234 283 351
#     4  11  22  33  54  84 116 155 188 230 286 351
#     4  12  22  37  58  84 118 154 200 247 297 342
#     4  10  23  43  63  82 111 155 205 257 304 344
#     4   9  19  36  57  85 120 156 192 229 282 357
#
# _framework density 19.805913
#
# number of rings (size 3 to 8) (size 9 to 14) (size 15 to 20)
#    0.000    1.625    2.500    3.375    1.750    3.500 
#    0.000    1.250    0.000    0.375    0.000    0.000 
#    0.000    0.000    0.000    0.000    0.000    0.000 
#
# Total GULP energy -357083.490027 kJ/mol
# GULP energy per Si atom -5579.429532 kJ/mol
# Density = 1.976083 g / cm^3
# Si number density = 19.805913 Si / 1000 Ang^3
#
#
#
# Elastic Constant Matrix: (Units=GPa)
#
#
# Indices 1 2 3 4 5 6 
#
# 1 33.8934 13.6368 16.9146 0.0000 0.0000 0.0000
# 2 13.6368 140.6309 27.5265 0.0000 0.0000 0.0000
# 3 16.9146 27.5265 82.1973 0.0000 0.0000 0.0000
# 4 0.0000 0.0000 0.0000 20.4177 0.0000 0.0000
# 5 0.0000 0.0000 0.0000 0.0000 9.4257 0.0000
# 6 0.0000 0.0000 0.0000 0.0000 0.0000 17.2989
#
#
#
# Elastic Compliance Matrix: (Units=1/GPa)
#
#
# Indices 1 2 3 4 5 6 
#
# 1 0.033412 -0.002027 -0.006197 0.000000 0.000000 0.000000
# 2 -0.002027 0.007733 -0.002172 0.000000 0.000000 0.000000
# 3 -0.006197 -0.002172 0.014169 0.000000 0.000000 0.000000
# 4 0.000000 0.000000 0.000000 0.048977 0.000000 0.000000
# 5 0.000000 0.000000 0.000000 0.000000 0.106093 0.000000
# 6 0.000000 0.000000 0.000000 0.000000 0.000000 0.057807
#
#
# Mechanical properties :
#
#
# Convention : Reuss Voigt Hill
#
# Bulk Modulus (GPa) = 28.96784 41.43082 35.19933
# Shear Modulus (GPa) = 16.63948 22.67137 19.65543
#
# Velocity S-wave (km/s) = 2.90164 3.38698 3.15366
# Velocity P-wave (km/s) = 5.08759 6.02157 5.57418
#
# Compressibility (1/GPa) = 0.03452105
#
# Stress axis : x y z
#
# Youngs Moduli (GPa) = 29.92911 129.32283 70.57900
#
# Poissons Ratio (x) = 0.26214 0.43736
# Poissons Ratio (y) = 0.06067 0.15333
# Poissons Ratio (z) = 0.18546 0.28094
#
# Static dielectric constant tensor:
#      x y z
#    x 1.680580 0.000000 0.000000 
#    y 0.000000 1.642700 0.000000 
#    z 0.000000 0.000000 1.687950 
# 
# From -- ./inp_files/4331.got.cif
#   From: 2010.05.17/outbox.cif.g08.bks.cpg/sg59_3_cif.got.tgz:4331.got - 2010.06.03 14:40:33.
