data_PCOD9448797
_publ_section_title
;
Structure prediction by ZEFSAII (Michael W. Deem and Ramdas Pophale) SiO2 
 PCOD9448797
Probable space group: P M M N
;
_chemical_formula_sum "Si O2"
_cell_formula_units_Z 40
_cell_length_a 8.181440
_cell_length_b 26.262225
_cell_length_c 9.928263
_cell_angle_alpha 90.000000
_cell_angle_beta 90.000000
_cell_angle_gamma 90.000000
_cell_volume 2133.214567
_symmetry_space_group_name_H-M "P M M N"
_symmetry_group_IT_number 59
_space_group.IT_coordinate_system_code '2'
_symmetry_cell_setting 'orthorhombic'
loop_
_space_group_symop_operation_xyz
x,y,z
1/2-x,1/2-y,z
1/2+x,-y,-z
-x,1/2+y,-z
-x,-y,-z
1/2+x,1/2+y,-z
1/2-x,y,z
x,1/2-y,z
loop_
_atom_site_type_symbol
_atom_site_label
_atom_site_fract_x
_atom_site_fract_y
_atom_site_fract_z
Si Si1 0.941245 0.974142 0.274353
Si Si2 0.051925 0.308339 0.749809
Si Si3 0.949306 0.613080 0.476344
Si Si4 0.558814 0.913540 0.766886
Si Si5 0.560953 0.104204 0.937862
O O1 0.750000 0.986235 0.293576
O O2 0.999421 0.938314 0.397306
O O3 0.959883 0.938943 0.141877
O O4 0.037718 0.026151 0.257521
O O5 0.250000 0.309010 0.753433
O O6 0.997362 0.250000 0.750991
O O7 0.000741 0.339295 0.615683
O O8 0.989051 0.341810 0.874261
O O9 0.750000 0.612134 0.477497
O O10 0.004203 0.612864 0.630229
O O11 0.750000 0.901554 0.783546
O O12 0.469893 0.898743 0.903848
O O13 0.750000 0.094259 0.908343
#
# Coordination Sequence:
#
# PCOD9448797 Si02
#       5
#     8   8   8   8   8
#     4  10  19  34  53  75 104 139 178 213 252 301
#     4   9  18  37  62  81  98 126 167 214 261 308
#     4   8  17  32  52  78 105 133 168 210 254 306
#     4  11  20  32  50  76 110 142 172 208 254 303
#     4  11  22  35  51  75 106 139 175 212 253 301
#
# _framework density 18.751044
#
# number of rings (size 3 to 8) (size 9 to 14) (size 15 to 20)
#    0.000    2.200    0.000    5.400    0.000    0.400 
#    0.000   10.000    0.000    3.600    0.000    0.000 
#    0.000    0.000    0.000    0.000    0.000    0.000 
#
# Total GULP energy -223328.449838 kJ/mol
# GULP energy per Si atom -5583.211246 kJ/mol
# Density = 1.870837 g / cm^3
# Si number density = 18.751044 Si / 1000 Ang^3
#
#
#
# Elastic Constant Matrix: (Units=GPa)
#
#
# Indices 1 2 3 4 5 6 
#
# 1 24.0201 -10.5901 -14.4660 0.0000 0.0000 0.0000
# 2 -10.5901 67.9010 9.7418 0.0000 0.0000 0.0000
# 3 -14.4660 9.7418 94.1117 0.0000 0.0000 0.0000
# 4 0.0000 0.0000 0.0000 3.4295 0.0000 0.0000
# 5 0.0000 0.0000 0.0000 0.0000 4.7769 0.0000
# 6 0.0000 0.0000 0.0000 0.0000 0.0000 19.7465
#
#
#
# Elastic Compliance Matrix: (Units=1/GPa)
#
#
# Indices 1 2 3 4 5 6 
#
# 1 0.048637 0.006611 0.006792 0.000000 0.000000 0.000000
# 2 0.006611 0.015848 -0.000624 0.000000 0.000000 0.000000
# 3 0.006792 -0.000624 0.011734 0.000000 0.000000 0.000000
# 4 0.000000 0.000000 0.000000 0.291591 0.000000 0.000000
# 5 0.000000 0.000000 0.000000 0.000000 0.209342 0.000000
# 6 0.000000 0.000000 0.000000 0.000000 0.000000 0.050642
#
#
# Mechanical properties :
#
#
# Convention : Reuss Voigt Hill
#
# Bulk Modulus (GPa) = 9.82549 17.26714 13.54631
# Shear Modulus (GPa) = 7.85963 19.01370 13.43666
#
# Velocity S-wave (km/s) = 2.04955 3.18780 2.67981
# Velocity P-wave (km/s) = 3.29427 4.77264 4.10063
#
# Compressibility (1/GPa) = 0.10177607
#
# Stress axis : x y z
#
# Youngs Moduli (GPa) = 20.56059 63.09947 85.22056
#
# Poissons Ratio (x) = -0.41716 -0.57879
# Poissons Ratio (y) = -0.13593 0.05320
# Poissons Ratio (z) = -0.13964 0.03939
#
# Static dielectric constant tensor:
#      x y z
#    x 1.642830 0.000000 0.000000 
#    y 0.000000 1.620090 0.000000 
#    z 0.000000 0.000000 1.655910 
# 
# From -- ./inp_files/5690.got.cif
#   From: 2010.05.17/outbox.cif.g08.bks.cpg/sg59_3_cif.got.tgz:5690.got - 2010.06.03 14:40:33.
