data_PCOD9448416
_publ_section_title
;
Structure prediction by ZEFSAII (Michael W. Deem and Ramdas Pophale) SiO2 
 PCOD9448416
Probable space group: P M M N
;
_chemical_formula_sum "Si O2"
_cell_formula_units_Z 64
_cell_length_a 9.182560
_cell_length_b 22.199530
_cell_length_c 18.149247
_cell_angle_alpha 90.000000
_cell_angle_beta 90.000000
_cell_angle_gamma 90.000000
_cell_volume 3699.697071
_symmetry_space_group_name_H-M "P M M N"
_symmetry_group_IT_number 59
_space_group.IT_coordinate_system_code '2'
_symmetry_cell_setting 'orthorhombic'
loop_
_space_group_symop_operation_xyz
x,y,z
1/2-x,1/2-y,z
1/2+x,-y,-z
-x,1/2+y,-z
-x,-y,-z
1/2+x,1/2+y,-z
1/2-x,y,z
x,1/2-y,z
loop_
_atom_site_type_symbol
_atom_site_label
_atom_site_fract_x
_atom_site_fract_y
_atom_site_fract_z
Si Si1 0.582034 0.885349 0.756086
Si Si2 0.573809 0.550952 0.055586
Si Si3 0.577680 0.509811 0.223459
Si Si4 0.422605 0.477888 0.614684
Si Si5 0.082158 0.821399 0.623910
Si Si6 0.422945 0.412316 0.465495
Si Si7 0.407857 0.818162 0.861752
Si Si8 0.917777 0.318947 0.962378
O O1 0.750000 0.885463 0.737542
O O2 0.492996 0.848034 0.696160
O O3 0.545209 0.853640 0.832955
O O4 0.517609 0.951067 0.764200
O O5 0.750000 0.550151 0.043114
O O6 0.546025 0.534567 0.141878
O O7 0.510653 0.619659 0.049814
O O8 0.500000 0.500000 0.000000
O O9 0.750000 0.495722 0.223117
O O10 0.550873 0.544229 0.301577
O O11 0.250000 0.492217 0.609345
O O12 0.455801 0.431342 0.549260
O O13 0.511119 0.537368 0.590137
O O14 0.250000 0.840369 0.622111
O O15 0.074297 0.750000 0.624463
O O16 0.997083 0.850203 0.555944
O O17 0.250000 0.410325 0.455840
O O18 0.250000 0.844944 0.838689
O O19 0.412420 0.750000 0.833145
O O20 0.409319 0.815840 0.949196
O O21 0.750000 0.327185 0.935425
O O22 0.965838 0.250000 0.938714
#
# Coordination Sequence:
#
# PCOD9448416 Si02
#       8
#     8   8   8   8   8   8   8   8
#     4  12  23  32  47  75 106 136 176 224 269 313
#     4  11  23  37  56  84 116 152 193 238 288 341
#     4  10  21  37  55  75 106 146 182 216 267 335
#     4   9  18  34  56  78 104 138 172 214 269 326
#     4  11  23  37  52  71 103 149 186 211 256 325
#     4  10  19  32  54  83 106 128 171 224 268 309
#     4   9  18  33  51  69  94 135 180 216 261 328
#     4   9  19  37  59  80 105 142 188 235 288 349
#
# _framework density 17.298712999999999
#
# number of rings (size 3 to 8) (size 9 to 14) (size 15 to 20)
#    0.000    1.875    1.250    4.125    0.000    8.000 
#    0.000    1.250    0.000    0.750    0.000    5.250 
#    0.000    0.000    0.000    0.000    0.000    0.000 
#
# Total GULP energy -356406.846676 kJ/mol
# GULP energy per Si atom -5568.856979 kJ/mol
# Density = 1.725934 g / cm^3
# Si number density = 17.298713 Si / 1000 Ang^3
#
#
#
# Elastic Constant Matrix: (Units=GPa)
#
#
# Indices 1 2 3 4 5 6 
#
# 1 60.0974 47.7569 42.9502 0.0000 0.0000 0.0000
# 2 47.7569 81.3829 40.3889 0.0000 0.0000 0.0000
# 3 42.9502 40.3889 101.0710 0.0000 0.0000 0.0000
# 4 0.0000 0.0000 0.0000 21.3765 0.0000 0.0000
# 5 0.0000 0.0000 0.0000 0.0000 21.9064 0.0000
# 6 0.0000 0.0000 0.0000 0.0000 0.0000 23.3997
#
#
#
# Elastic Compliance Matrix: (Units=1/GPa)
#
#
# Indices 1 2 3 4 5 6 
#
# 1 0.036364 -0.017052 -0.008639 0.000000 0.000000 0.000000
# 2 -0.017052 0.023323 -0.002074 0.000000 0.000000 0.000000
# 3 -0.008639 -0.002074 0.014394 0.000000 0.000000 0.000000
# 4 0.000000 0.000000 0.000000 0.046780 0.000000 0.000000
# 5 0.000000 0.000000 0.000000 0.000000 0.045649 0.000000
# 6 0.000000 0.000000 0.000000 0.000000 0.000000 0.042736
#
#
# Mechanical properties :
#
#
# Convention : Reuss Voigt Hill
#
# Bulk Modulus (GPa) = 53.90299 56.08260 54.99279
# Shear Modulus (GPa) = 18.45300 20.76686 19.60993
#
# Velocity S-wave (km/s) = 3.26962 3.46856 3.37056
# Velocity P-wave (km/s) = 6.74401 6.96647 6.85614
#
# Compressibility (1/GPa) = 0.01855185
#
# Stress axis : x y z
#
# Youngs Moduli (GPa) = 27.49983 42.87595 69.47376
#
# Poissons Ratio (x) = 0.73111 0.60017
# Poissons Ratio (y) = 0.46892 0.14409
# Poissons Ratio (z) = 0.23757 0.08893
#
# Static dielectric constant tensor:
#      x y z
#    x 1.605100 0.000000 0.000000 
#    y 0.000000 1.647950 0.000000 
#    z 0.000000 0.000000 1.628380 
# 
# From -- ./inp_files/26179.got.cif
#   From: 2010.05.17/outbox.cif.g08.bks.cpg/sg59_14_cif.got.tgz:26179.got - 2010.06.03 14:40:33.
