data_PCOD9448724
_publ_section_title
;
Structure prediction by ZEFSAII (Michael W. Deem and Ramdas Pophale) SiO2 
 PCOD9448724
Probable space group: P M M N
;
_chemical_formula_sum "Si O2"
_cell_formula_units_Z 56
_cell_length_a 24.836420
_cell_length_b 8.712876
_cell_length_c 15.129363
_cell_angle_alpha 90.000000
_cell_angle_beta 90.000000
_cell_angle_gamma 90.000000
_cell_volume 3273.943436
_symmetry_space_group_name_H-M "P M M N"
_symmetry_group_IT_number 59
_space_group.IT_coordinate_system_code '2'
_symmetry_cell_setting 'orthorhombic'
loop_
_space_group_symop_operation_xyz
x,y,z
1/2-x,1/2-y,z
1/2+x,-y,-z
-x,1/2+y,-z
-x,-y,-z
1/2+x,1/2+y,-z
1/2-x,y,z
x,1/2-y,z
loop_
_atom_site_type_symbol
_atom_site_label
_atom_site_fract_x
_atom_site_fract_y
_atom_site_fract_z
Si Si1 0.428908 0.432656 0.445086
Si Si2 0.750000 0.565338 0.984693
Si Si3 0.433952 0.566425 0.128305
Si Si4 0.639437 0.567228 0.718261
Si Si5 0.962230 0.568425 0.366790
Si Si6 0.451328 0.567776 0.825604
Si Si7 0.750000 0.432692 0.787629
Si Si8 0.869291 0.565789 0.039484
O O1 0.441900 0.250000 0.439424
O O2 0.378065 0.460361 0.382695
O O3 0.424504 0.468904 0.548804
O O4 0.478596 0.524513 0.402797
O O5 0.750000 0.750000 0.971370
O O6 0.750000 0.486605 0.889222
O O7 0.806008 0.525499 0.032691
O O8 0.433717 0.750000 0.124069
O O9 0.404378 0.509186 0.217101
O O10 0.494968 0.505871 0.131520
O O11 0.400341 0.498628 0.046499
O O12 0.638999 0.750000 0.734569
O O13 0.696918 0.499377 0.742158
O O14 0.959670 0.750000 0.348358
O O15 0.950673 0.478514 0.277281
O O16 0.454520 0.750000 0.835199
O O17 0.399583 0.503119 0.876341
O O18 0.750000 0.250000 0.783749
O O19 0.873847 0.750000 0.039878
#
# Coordination Sequence:
#
# PCOD9448724 Si02
#       8
#     8   4   8   8   8   8   4   8
#     4   9  19  34  55  82 112 145 181 225 279 334
#     4  10  22  40  62  81 106 143 188 235 286 336
#     4  12  23  36  55  84 116 150 187 231 282 339
#     4  11  21  36  57  82 115 152 188 229 281 339
#     4  10  19  33  55  83 112 144 184 229 276 332
#     4  12  24  38  55  81 116 155 191 232 283 338
#     4  12  24  36  56  83 114 149 192 235 278 332
#     4  11  23  40  60  82 110 148 189 235 285 339
#
# _framework density 17.104755000000001
#
# number of rings (size 3 to 8) (size 9 to 14) (size 15 to 20)
#    0.000    1.143    2.857    4.929    0.000    1.714 
#    0.000    0.000    0.000    0.857    0.000    3.000 
#    0.000    0.000    0.000    0.000    0.000    0.000 
#
# Total GULP energy -312917.525190 kJ/mol
# GULP energy per Si atom -5587.812950 kJ/mol
# Density = 1.706582 g / cm^3
# Si number density = 17.104755 Si / 1000 Ang^3
#
#
#
# Elastic Constant Matrix: (Units=GPa)
#
#
# Indices 1 2 3 4 5 6 
#
# 1 119.6407 54.7820 56.0560 0.0000 0.0000 0.0000
# 2 54.7820 86.0993 38.0360 0.0000 0.0000 0.0000
# 3 56.0560 38.0360 86.0754 0.0000 0.0000 0.0000
# 4 0.0000 0.0000 0.0000 26.1416 0.0000 0.0000
# 5 0.0000 0.0000 0.0000 0.0000 18.1512 0.0000
# 6 0.0000 0.0000 0.0000 0.0000 0.0000 23.4058
#
#
#
# Elastic Compliance Matrix: (Units=1/GPa)
#
#
# Indices 1 2 3 4 5 6 
#
# 1 0.014258 -0.006175 -0.006557 0.000000 0.000000 0.000000
# 2 -0.006175 0.017106 -0.003538 0.000000 0.000000 0.000000
# 3 -0.006557 -0.003538 0.017451 0.000000 0.000000 0.000000
# 4 0.000000 0.000000 0.000000 0.038253 0.000000 0.000000
# 5 0.000000 0.000000 0.000000 0.000000 0.055093 0.000000
# 6 0.000000 0.000000 0.000000 0.000000 0.000000 0.042725
#
#
# Mechanical properties :
#
#
# Convention : Reuss Voigt Hill
#
# Bulk Modulus (GPa) = 61.43886 65.50703 63.47295
# Shear Modulus (GPa) = 22.43659 23.06912 22.75285
#
# Velocity S-wave (km/s) = 3.62569 3.67644 3.65116
# Velocity P-wave (km/s) = 7.31606 7.51015 7.41374
#
# Compressibility (1/GPa) = 0.01627634
#
# Stress axis : x y z
#
# Youngs Moduli (GPa) = 70.13616 58.45750 57.30378
#
# Poissons Ratio (x) = 0.36100 0.37572
# Poissons Ratio (y) = 0.43312 0.20271
# Poissons Ratio (z) = 0.45985 0.20680
#
# Static dielectric constant tensor:
#      x y z
#    x 1.562080 0.000000 0.000000 
#    y 0.000000 1.573450 0.000000 
#    z 0.000000 0.000000 1.583260 
# 
# From -- ./inp_files/24322.got.cif
#   From: 2010.05.17/outbox.cif.g08.bks.cpg/sg59_13_cif.got.tgz:24322.got - 2010.06.03 14:40:33.
