data_PCOD9448297
_publ_section_title
;
Structure prediction by ZEFSAII (Michael W. Deem and Ramdas Pophale) SiO2 
 PCOD9448297
Probable space group: P M M N
;
_chemical_formula_sum "Si O2"
_cell_formula_units_Z 48
_cell_length_a 16.162492
_cell_length_b 7.763055
_cell_length_c 17.566558
_cell_angle_alpha 90.000000
_cell_angle_beta 90.000000
_cell_angle_gamma 90.000000
_cell_volume 2204.081554
_symmetry_space_group_name_H-M "P M M N"
_symmetry_group_IT_number 59
_space_group.IT_coordinate_system_code '2'
_symmetry_cell_setting 'orthorhombic'
loop_
_space_group_symop_operation_xyz
x,y,z
1/2-x,1/2-y,z
1/2+x,-y,-z
-x,1/2+y,-z
-x,-y,-z
1/2+x,1/2+y,-z
1/2-x,y,z
x,1/2-y,z
loop_
_atom_site_type_symbol
_atom_site_label
_atom_site_fract_x
_atom_site_fract_y
_atom_site_fract_z
Si Si1 0.654428 0.956698 0.651504
Si Si2 0.845180 0.045341 0.486927
Si Si3 0.408877 0.038385 0.186831
Si Si4 0.750000 0.541375 0.910397
Si Si5 0.346517 0.047912 0.677286
Si Si6 0.087202 0.948560 0.834598
Si Si7 0.250000 0.954323 0.913745
O O1 0.750000 0.021197 0.654894
O O2 0.658101 0.750000 0.655994
O O3 0.606371 0.017972 0.726068
O O4 0.617688 0.000927 0.568931
O O5 0.750000 0.976343 0.489920
O O6 0.842151 0.250000 0.480810
O O7 0.881145 0.978153 0.407730
O O8 0.410918 0.250000 0.187546
O O9 0.331401 0.986379 0.135589
O O10 0.496380 0.974603 0.155186
O O11 0.750000 0.750000 0.911824
O O12 0.750000 0.477349 0.996348
O O13 0.250000 0.989014 0.676994
O O14 0.347474 0.250000 0.694735
O O15 0.393718 0.953498 0.744555
O O16 0.081914 0.750000 0.860251
O O17 0.166249 0.028284 0.876716
O O18 0.250000 0.750000 0.894682
#
# Coordination Sequence:
#
# PCOD9448297 Si02
#       7
#     8   8   8   4   8   8   4
#     4   9  15  28  51  76 104 137 179 227 271 312
#     4   9  17  28  46  75 109 145 184 221 268 323
#     4   9  18  34  58  84 108 141 183 224 267 320
#     4  10  20  38  62  85 108 139 180 223 266 321
#     4  10  19  32  52  78 108 142 185 231 272 313
#     4  10  20  36  57  80 110 146 181 218 269 328
#     4  10  22  38  56  81 112 143 174 217 274 331
#
# _framework density 21.777778000000001
#
# number of rings (size 3 to 8) (size 9 to 14) (size 15 to 20)
#    0.000    2.500    1.667    1.000    0.000    4.000 
#    0.000    3.333    0.000    0.000    0.000    0.000 
#    0.000    0.000    0.000    0.000    0.000    0.000 
#
# Total GULP energy -267909.940745 kJ/mol
# GULP energy per Si atom -5581.457099 kJ/mol
# Density = 2.172821 g / cm^3
# Si number density = 21.777778 Si / 1000 Ang^3
#
#
#
# Elastic Constant Matrix: (Units=GPa)
#
#
# Indices 1 2 3 4 5 6 
#
# 1 136.3816 1.0357 56.9415 0.0000 0.0000 0.0000
# 2 1.0357 33.2283 -13.3831 0.0000 0.0000 0.0000
# 3 56.9415 -13.3831 115.3029 0.0000 0.0000 0.0000
# 4 0.0000 0.0000 0.0000 27.9981 0.0000 0.0000
# 5 0.0000 0.0000 0.0000 0.0000 -10.6918 0.0000
# 6 0.0000 0.0000 0.0000 0.0000 0.0000 -1.1059
#
#
#
# Elastic Compliance Matrix: (Units=1/GPa)
#
#
# Indices 1 2 3 4 5 6 
#
# 1 0.009397 -0.002268 -0.004904 0.000000 0.000000 0.000000
# 2 -0.002268 0.032118 0.004848 0.000000 0.000000 0.000000
# 3 -0.004904 0.004848 0.011657 0.000000 0.000000 0.000000
# 4 0.000000 0.000000 0.000000 0.035717 0.000000 0.000000
# 5 0.000000 0.000000 0.000000 0.000000 -0.093530 0.000000
# 6 0.000000 0.000000 0.000000 0.000000 0.000000 -0.904233
#
#
# Mechanical properties :
#
#
# Convention : Reuss Voigt Hill
#
# Bulk Modulus (GPa) = 20.60814 41.56678 31.08746
# Shear Modulus (GPa) = -5.63031 19.26132 6.81550
#
# Velocity S-wave (km/s) = -1.60965 2.97719 1.77098
# Velocity P-wave (km/s) = 2.45537 5.56295 4.29973
#
# Compressibility (1/GPa) = 0.04852452
#
# Stress axis : x y z
#
# Youngs Moduli (GPa) = 106.41639 31.13506 85.78340
#
# Poissons Ratio (x) = 0.07061 0.42067
# Poissons Ratio (y) = 0.24135 -0.41588
# Poissons Ratio (z) = 0.52186 -0.15094
#
# Static dielectric constant tensor:
#      x y z
#    x 1.829150 0.000000 0.000000 
#    y 0.000000 1.785480 0.000000 
#    z 0.000000 0.000000 1.772160 
# 
# From -- ./inp_files/27477.got.cif
#   From: 2010.05.17/outbox.cif.g08.bks.cpg/sg59_14_cif.got.tgz:27477.got - 2010.06.03 14:40:33.
