data_PCOD9448582
_publ_section_title
;
Structure prediction by ZEFSAII (Michael W. Deem and Ramdas Pophale) SiO2 
 PCOD9448582
Probable space group: P M M N
;
_chemical_formula_sum "Si O2"
_cell_formula_units_Z 56
_cell_length_a 8.072599
_cell_length_b 19.565279
_cell_length_c 18.560650
_cell_angle_alpha 90.000000
_cell_angle_beta 90.000000
_cell_angle_gamma 90.000000
_cell_volume 2931.518278
_symmetry_space_group_name_H-M "P M M N"
_symmetry_group_IT_number 59
_space_group.IT_coordinate_system_code '2'
_symmetry_cell_setting 'orthorhombic'
loop_
_space_group_symop_operation_xyz
x,y,z
1/2-x,1/2-y,z
1/2+x,-y,-z
-x,1/2+y,-z
-x,-y,-z
1/2+x,1/2+y,-z
1/2-x,y,z
x,1/2-y,z
loop_
_atom_site_type_symbol
_atom_site_label
_atom_site_fract_x
_atom_site_fract_y
_atom_site_fract_z
Si Si1 0.562795 0.951980 0.435472
Si Si2 0.443105 0.041555 0.308766
Si Si3 0.448985 0.931998 0.043164
Si Si4 0.449791 0.827411 0.924281
Si Si5 0.553168 0.929049 0.207892
Si Si6 0.449253 0.172670 0.233454
Si Si7 0.952231 0.829434 0.338136
O O1 0.750000 0.934486 0.454807
O O2 0.488316 0.880710 0.402717
O O3 0.500000 0.000000 0.500000
O O4 0.549465 0.001966 0.367149
O O5 0.250000 0.042912 0.331427
O O6 0.503986 0.117508 0.291732
O O7 0.459384 0.995717 0.237338
O O8 0.250000 0.930822 0.048026
O O9 0.517257 0.922436 0.123481
O O10 0.508089 0.871476 0.990958
O O11 0.500000 0.000000 0.000000
O O12 0.250000 0.827201 0.925313
O O13 0.510864 0.750000 0.929640
O O14 0.503155 0.853024 0.845934
O O15 0.750000 0.939000 0.217393
O O16 0.504299 0.866419 0.261770
O O17 0.250000 0.174769 0.237077
O O18 0.513297 0.250000 0.242411
O O19 0.750000 0.829174 0.341007
O O20 0.006233 0.750000 0.342625
#
# Coordination Sequence:
#
# PCOD9448582 Si02
#       7
#     8   8   8   8   8   8   8
#     4  10  20  35  57  82 109 139 170 206 248 298
#     4  10  19  33  54  76 101 132 166 204 246 296
#     4  11  22  34  49  70  99 133 172 218 264 312
#     4   9  19  34  49  66  92 128 166 206 256 306
#     4  10  20  33  51  75 102 132 169 214 261 309
#     4   9  18  32  50  72  96 125 165 209 249 293
#     4   8  16  33  56  80 104 134 174 215 255 303
#
# _framework density 19.102730000000001
#
# number of rings (size 3 to 8) (size 9 to 14) (size 15 to 20)
#    0.000    2.429    0.000    3.429    0.000    5.143 
#    0.000    0.714    0.000   19.286    0.000    0.000 
#    0.000    0.000    0.000    0.000    0.000    0.000 
#
# Total GULP energy -311988.071390 kJ/mol
# GULP energy per Si atom -5571.215561 kJ/mol
# Density = 1.905925 g / cm^3
# Si number density = 19.102730 Si / 1000 Ang^3
#
#
#
# Elastic Constant Matrix: (Units=GPa)
#
#
# Indices 1 2 3 4 5 6 
#
# 1 21.7143 6.1871 0.9486 0.0000 0.0000 0.0000
# 2 6.1871 111.9521 66.8684 0.0000 0.0000 0.0000
# 3 0.9486 66.8684 69.0147 0.0000 0.0000 0.0000
# 4 0.0000 0.0000 0.0000 27.8135 0.0000 0.0000
# 5 0.0000 0.0000 0.0000 0.0000 29.6697 0.0000
# 6 0.0000 0.0000 0.0000 0.0000 0.0000 18.1612
#
#
#
# Elastic Compliance Matrix: (Units=1/GPa)
#
#
# Indices 1 2 3 4 5 6 
#
# 1 0.047365 -0.005291 0.004475 0.000000 0.000000 0.000000
# 2 -0.005291 0.021794 -0.021043 0.000000 0.000000 0.000000
# 3 0.004475 -0.021043 0.034817 0.000000 0.000000 0.000000
# 4 0.000000 0.000000 0.000000 0.035954 0.000000 0.000000
# 5 0.000000 0.000000 0.000000 0.000000 0.033704 0.000000
# 6 0.000000 0.000000 0.000000 0.000000 0.000000 0.055062
#
#
# Mechanical properties :
#
#
# Convention : Reuss Voigt Hill
#
# Bulk Modulus (GPa) = 16.59537 38.96546 27.78041
# Shear Modulus (GPa) = 17.09403 23.70737 20.40070
#
# Velocity S-wave (km/s) = 2.99465 3.52667 3.27149
# Velocity P-wave (km/s) = 4.54571 6.08484 5.37070
#
# Compressibility (1/GPa) = 0.06025778
#
# Stress axis : x y z
#
# Youngs Moduli (GPa) = 21.11281 45.88447 28.72151
#
# Poissons Ratio (x) = 0.24275 -0.12853
# Poissons Ratio (y) = 0.11170 0.60440
# Poissons Ratio (z) = -0.09448 0.96556
#
# Static dielectric constant tensor:
#      x y z
#    x 1.704030 0.000000 0.000000 
#    y 0.000000 1.739310 0.000000 
#    z 0.000000 0.000000 1.697900 
# 
# From -- ./inp_files/29275.got.cif
#   From: 2010.05.17/outbox.cif.g08.bks.cpg/sg59_15_cif.got.tgz:29275.got - 2010.06.03 14:40:33.
