data_PCOD9448589
_publ_section_title
;
Structure prediction by ZEFSAII (Michael W. Deem and Ramdas Pophale) SiO2 
 PCOD9448589
Probable space group: P M M N
;
_chemical_formula_sum "Si O2"
_cell_formula_units_Z 64
_cell_length_a 7.945677
_cell_length_b 16.414695
_cell_length_c 23.838237
_cell_angle_alpha 90.000000
_cell_angle_beta 90.000000
_cell_angle_gamma 90.000000
_cell_volume 3109.122669
_symmetry_space_group_name_H-M "P M M N"
_symmetry_group_IT_number 59
_space_group.IT_coordinate_system_code '2'
_symmetry_cell_setting 'orthorhombic'
loop_
_space_group_symop_operation_xyz
x,y,z
1/2-x,1/2-y,z
1/2+x,-y,-z
-x,1/2+y,-z
-x,-y,-z
1/2+x,1/2+y,-z
1/2-x,y,z
x,1/2-y,z
loop_
_atom_site_type_symbol
_atom_site_label
_atom_site_fract_x
_atom_site_fract_y
_atom_site_fract_z
Si Si1 0.043233 0.989642 0.368801
Si Si2 0.951319 0.339156 0.190619
Si Si3 0.556206 0.069131 0.081207
Si Si4 0.453616 0.841483 0.448350
Si Si5 0.548924 0.010510 0.757685
Si Si6 0.553812 0.661423 0.021814
Si Si7 0.451444 0.159367 0.421605
Si Si8 0.441025 0.907833 0.132621
O O1 0.250000 0.990437 0.369367
O O2 0.987081 0.975083 0.305039
O O3 0.985861 0.079045 0.389513
O O4 0.989041 0.916266 0.409597
O O5 0.750000 0.338320 0.198403
O O6 0.018657 0.250000 0.206232
O O7 0.980953 0.357866 0.124705
O O8 0.017590 0.417012 0.224297
O O9 0.750000 0.043509 0.090289
O O10 0.442352 0.995090 0.101110
O O11 0.533713 0.095924 0.017667
O O12 0.250000 0.842728 0.448456
O O13 0.506144 0.750000 0.429882
O O14 0.512697 0.851805 0.512344
O O15 0.750000 0.022213 0.757858
O O16 0.482910 0.070302 0.806647
O O17 0.750000 0.658114 0.007677
O O18 0.483765 0.750000 0.007441
O O19 0.534474 0.647794 0.087993
O O20 0.250000 0.161427 0.413735
O O21 0.517126 0.250000 0.405463
O O22 0.250000 0.878083 0.138822
#
# Coordination Sequence:
#
# PCOD9448589 Si02
#       8
#     8   8   8   8   8   8   8   8
#     4   9  17  31  50  72  98 127 163 204 243 285
#     4   9  18  32  49  71 100 131 160 194 240 291
#     4  10  19  33  54  76  99 127 159 195 240 296
#     4   9  17  30  49  72  98 128 161 200 246 290
#     4   9  19  34  51  71  94 125 167 207 238 279
#     4  11  23  36  51  73  99 125 157 200 248 297
#     4   9  17  29  47  72 102 133 161 192 234 286
#     4  10  20  35  53  72  97 128 162 200 243 290
#
# _framework density 20.584585000000001
#
# number of rings (size 3 to 8) (size 9 to 14) (size 15 to 20)
#    0.000    2.500    0.000    2.250    0.000    3.250 
#    0.000    3.125    0.000    3.750    0.000    1.750 
#    0.000    0.000    0.000    0.000    0.000    0.000 
#
# Total GULP energy -356932.089491 kJ/mol
# GULP energy per Si atom -5577.063898 kJ/mol
# Density = 2.053773 g / cm^3
# Si number density = 20.584585 Si / 1000 Ang^3
#
#
#
# Elastic Constant Matrix: (Units=GPa)
#
#
# Indices 1 2 3 4 5 6 
#
# 1 22.0284 0.2692 -2.5846 0.0000 0.0000 0.0000
# 2 0.2692 59.5758 29.0278 0.0000 0.0000 0.0000
# 3 -2.5846 29.0278 90.6876 0.0000 0.0000 0.0000
# 4 0.0000 0.0000 0.0000 13.0185 0.0000 0.0000
# 5 0.0000 0.0000 0.0000 0.0000 15.6845 0.0000
# 6 0.0000 0.0000 0.0000 0.0000 0.0000 9.5500
#
#
#
# Elastic Compliance Matrix: (Units=1/GPa)
#
#
# Indices 1 2 3 4 5 6 
#
# 1 0.045598 -0.000994 0.001618 0.000000 0.000000 0.000000
# 2 -0.000994 0.019909 -0.006401 0.000000 0.000000 0.000000
# 3 0.001618 -0.006401 0.013122 0.000000 0.000000 0.000000
# 4 0.000000 0.000000 0.000000 0.076814 0.000000 0.000000
# 5 0.000000 0.000000 0.000000 0.000000 0.063757 0.000000
# 6 0.000000 0.000000 0.000000 0.000000 0.000000 0.104712
#
#
# Mechanical properties :
#
#
# Convention : Reuss Voigt Hill
#
# Bulk Modulus (GPa) = 14.90900 25.07963 19.99431
# Shear Modulus (GPa) = 13.97336 17.35590 15.66463
#
# Velocity S-wave (km/s) = 2.60826 2.90685 2.76159
# Velocity P-wave (km/s) = 4.04094 4.84526 4.46126
#
# Compressibility (1/GPa) = 0.06707359
#
# Stress axis : x y z
#
# Youngs Moduli (GPa) = 21.93086 50.22969 76.20919
#
# Poissons Ratio (x) = 0.04995 -0.12329
# Poissons Ratio (y) = 0.02181 0.48780
# Poissons Ratio (z) = -0.03548 0.32151
#
# Static dielectric constant tensor:
#      x y z
#    x 1.712910 0.000000 0.000000 
#    y 0.000000 1.761130 0.000000 
#    z 0.000000 0.000000 1.735370 
# 
# From -- ./inp_files/29537.got.cif
#   From: 2010.05.17/outbox.cif.g08.bks.cpg/sg59_15_cif.got.tgz:29537.got - 2010.06.03 14:40:33.
