data_PCOD9448064
_publ_section_title
;
Structure prediction by ZEFSAII (Michael W. Deem and Ramdas Pophale) SiO2 
 PCOD9448064
Probable space group: P M M N
;
_chemical_formula_sum "Si O2"
_cell_formula_units_Z 52
_cell_length_a 9.530731
_cell_length_b 7.289167
_cell_length_c 33.087744
_cell_angle_alpha 90.000000
_cell_angle_beta 90.000000
_cell_angle_gamma 90.000000
_cell_volume 2298.641638
_symmetry_space_group_name_H-M "P M M N"
_symmetry_group_IT_number 59
_space_group.IT_coordinate_system_code '2'
_symmetry_cell_setting 'orthorhombic'
loop_
_space_group_symop_operation_xyz
x,y,z
1/2-x,1/2-y,z
1/2+x,-y,-z
-x,1/2+y,-z
-x,-y,-z
1/2+x,1/2+y,-z
1/2-x,y,z
x,1/2-y,z
loop_
_atom_site_type_symbol
_atom_site_label
_atom_site_fract_x
_atom_site_fract_y
_atom_site_fract_z
Si Si1 0.412735 0.973885 0.882052
Si Si2 0.469259 0.469682 0.441557
Si Si3 0.087873 0.026480 0.196849
Si Si4 0.750000 0.021457 0.488843
Si Si5 0.589018 0.026212 0.274935
Si Si6 0.091776 0.473282 0.350468
Si Si7 0.910641 0.531328 0.959582
O O1 0.250000 0.032162 0.882517
O O2 0.410580 0.750000 0.882405
O O3 0.496495 0.029436 0.841886
O O4 0.500164 0.035757 0.921205
O O5 0.441208 0.250000 0.442989
O O6 0.627483 0.501410 0.454833
O O7 0.369664 0.547301 0.476029
O O8 0.438414 0.532594 0.396278
O O9 0.250000 0.967341 0.194948
O O10 0.090027 0.250000 0.196830
O O11 0.008676 0.969404 0.237633
O O12 0.750000 0.967804 0.270447
O O13 0.589619 0.250000 0.274843
O O14 0.519688 0.967489 0.317116
O O15 0.250000 0.526065 0.338941
O O16 0.087681 0.250000 0.351150
O O17 0.750000 0.461576 0.961923
O O18 0.899888 0.750000 0.954546
O O19 0.000000 0.500000 0.000000
#
# Coordination Sequence:
#
# PCOD9448064 Si02
#       7
#     8   8   8   4   8   8   8
#     4   9  16  26  41  60  84 117 156 194 232 275
#     4  10  19  32  46  63  87 113 145 184 219 263
#     4   9  15  23  35  52  78 110 146 185 219 260
#     4  10  20  30  46  66  82 112 150 176 220 264
#     4   9  16  23  33  52  75 103 143 179 209 255
#     4   9  16  26  39  53  75 108 140 171 211 257
#     4  10  20  33  49  70  96 129 170 210 253 300
#
# _framework density 22.622056000000001
#
# number of rings (size 3 to 8) (size 9 to 14) (size 15 to 20)
#    0.000    2.615    0.769    2.308    1.077    6.462 
#    0.000    0.000    0.000    0.000    0.000    0.000 
#    0.000    0.000    0.000    8.308   14.154    5.846 
#
# Total GULP energy -289631.493118 kJ/mol
# GULP energy per Si atom -5569.836406 kJ/mol
# Density = 2.257057 g / cm^3
# Si number density = 22.622056 Si / 1000 Ang^3
#
#
#
# Elastic Constant Matrix: (Units=GPa)
#
#
# Indices 1 2 3 4 5 6 
#
# 1 240.7586 12.7692 99.0862 0.0000 0.0000 0.0000
# 2 12.7692 88.8555 -0.5614 0.0000 0.0000 0.0000
# 3 99.0862 -0.5614 166.5826 0.0000 0.0000 0.0000
# 4 0.0000 0.0000 0.0000 0.4008 0.0000 0.0000
# 5 0.0000 0.0000 0.0000 0.0000 47.1848 0.0000
# 6 0.0000 0.0000 0.0000 0.0000 0.0000 -20.5886
#
#
#
# Elastic Compliance Matrix: (Units=1/GPa)
#
#
# Indices 1 2 3 4 5 6 
#
# 1 0.005559 -0.000820 -0.003309 0.000000 0.000000 0.000000
# 2 -0.000820 0.011375 0.000526 0.000000 0.000000 0.000000
# 3 -0.003309 0.000526 0.007973 0.000000 0.000000 0.000000
# 4 0.000000 0.000000 0.000000 2.495065 0.000000 0.000000
# 5 0.000000 0.000000 0.000000 0.000000 0.021193 0.000000
# 6 0.000000 0.000000 0.000000 0.000000 0.000000 -0.048571
#
#
# Mechanical properties :
#
#
# Convention : Reuss Voigt Hill
#
# Bulk Modulus (GPa) = 56.49311 79.86496 68.17903
# Shear Modulus (GPa) = 1.99545 31.05959 16.52752
#
# Velocity S-wave (km/s) = 0.94021 3.70939 2.70588
# Velocity P-wave (km/s) = 5.11913 7.32986 6.32188
#
# Compressibility (1/GPa) = 0.01770127
#
# Stress axis : x y z
#
# Youngs Moduli (GPa) = 179.88809 87.90929 125.41914
#
# Poissons Ratio (x) = 0.07207 0.41506
# Poissons Ratio (y) = 0.14747 -0.06597
# Poissons Ratio (z) = 0.59531 -0.04624
#
# Static dielectric constant tensor:
#      x y z
#    x 1.765180 0.000000 0.000000 
#    y 0.000000 2.717100 0.000000 
#    z 0.000000 0.000000 1.767430 
# 
# From -- ./inp_files/33145.got.cif
#   From: 2010.05.17/outbox.cif.g08.bks.cpg/sg59_17_cif.got.tgz:33145.got - 2010.06.03 14:40:33.
