data_PCOD9448908
_publ_section_title
;
Structure prediction by ZEFSAII (Michael W. Deem and Ramdas Pophale) SiO2 
 PCOD9448908
Probable space group: P M M N
;
_chemical_formula_sum "Si O2"
_cell_formula_units_Z 48
_cell_length_a 32.000520
_cell_length_b 7.538832
_cell_length_c 9.177291
_cell_angle_alpha 90.000000
_cell_angle_beta 90.000000
_cell_angle_gamma 90.000000
_cell_volume 2213.989739
_symmetry_space_group_name_H-M "P M M N"
_symmetry_group_IT_number 59
_space_group.IT_coordinate_system_code '2'
_symmetry_cell_setting 'orthorhombic'
loop_
_space_group_symop_operation_xyz
x,y,z
1/2-x,1/2-y,z
1/2+x,-y,-z
-x,1/2+y,-z
-x,-y,-z
1/2+x,1/2+y,-z
1/2-x,y,z
x,1/2-y,z
loop_
_atom_site_type_symbol
_atom_site_label
_atom_site_fract_x
_atom_site_fract_y
_atom_site_fract_z
Si Si1 0.750000 0.966341 0.679872
Si Si2 0.085148 0.959246 0.675220
Si Si3 0.750000 0.531848 0.344490
Si Si4 0.664724 0.967425 0.837801
Si Si5 0.829938 0.956128 0.167157
Si Si6 0.917806 0.535732 0.666792
Si Si7 0.998841 0.462791 0.171402
O O1 0.750000 0.750000 0.680991
O O2 0.750000 0.024423 0.512292
O O3 0.707826 0.022114 0.761517
O O4 0.087123 0.750000 0.703695
O O5 0.043658 0.031087 0.754567
O O6 0.127515 0.035437 0.741955
O O7 0.082354 0.987821 0.502725
O O8 0.750000 0.750000 0.348488
O O9 0.708724 0.470289 0.259335
O O10 0.663693 0.750000 0.836534
O O11 0.624020 0.026469 0.748515
O O12 0.663824 0.029707 0.005019
O O13 0.819163 0.750000 0.144249
O O14 0.917828 0.750000 0.674901
O O15 0.959578 0.470519 0.747658
O O16 0.998727 0.250000 0.189772
O O17 0.000000 0.500000 0.000000
#
# Coordination Sequence:
#
# PCOD9448908 Si02
#       7
#     4   8   4   8   8   8   8
#     4   9  15  25  43  75 112 135 160 214 272 313
#     4  11  23  37  53  79 111 142 176 221 274 326
#     4   9  17  29  52  83 110 139 180 224 266 311
#     4   9  17  29  50  78 106 134 171 218 266 313
#     4  10  19  34  56  81 108 142 181 222 267 319
#     4  10  20  36  56  78 104 141 185 225 265 317
#     4  10  22  38  57  81 109 140 180 226 273 323
#
# _framework density 21.680316999999999
#
# number of rings (size 3 to 8) (size 9 to 14) (size 15 to 20)
#    0.000    2.167    0.000    3.500    0.000    8.000 
#    0.000    1.250    0.000    0.000    0.000    1.167 
#    0.000    0.000    0.000    0.000    0.000    0.000 
#
# Total GULP energy -268325.591285 kJ/mol
# GULP energy per Si atom -5590.116485 kJ/mol
# Density = 2.163097 g / cm^3
# Si number density = 21.680317 Si / 1000 Ang^3
#
#
#
# Elastic Constant Matrix: (Units=GPa)
#
#
# Indices 1 2 3 4 5 6 
#
# 1 211.2698 -10.7102 113.9933 0.0000 0.0000 0.0000
# 2 -10.7102 49.2167 -17.9238 0.0000 0.0000 0.0000
# 3 113.9933 -17.9238 209.2157 0.0000 0.0000 0.0000
# 4 0.0000 0.0000 0.0000 12.0464 0.0000 0.0000
# 5 0.0000 0.0000 0.0000 0.0000 58.3320 0.0000
# 6 0.0000 0.0000 0.0000 0.0000 0.0000 -15.5793
#
#
#
# Elastic Compliance Matrix: (Units=1/GPa)
#
#
# Indices 1 2 3 4 5 6 
#
# 1 0.006705 0.000133 -0.003642 0.000000 0.000000 0.000000
# 2 0.000133 0.020975 0.001725 0.000000 0.000000 0.000000
# 3 -0.003642 0.001725 0.006912 0.000000 0.000000 0.000000
# 4 0.000000 0.000000 0.000000 0.083013 0.000000 0.000000
# 5 0.000000 0.000000 0.000000 0.000000 0.017143 0.000000
# 6 0.000000 0.000000 0.000000 0.000000 0.000000 -0.064188
#
#
# Mechanical properties :
#
#
# Convention : Reuss Voigt Hill
#
# Bulk Modulus (GPa) = 32.23398 71.15786 51.69592
# Shear Modulus (GPa) = 59.19225 36.58267 47.88746
#
# Velocity S-wave (km/s) = 5.23083 4.11221 4.70488
# Velocity P-wave (km/s) = 7.16814 7.44579 7.30828
#
# Compressibility (1/GPa) = 0.03102316
#
# Stress axis : x y z
#
# Youngs Moduli (GPa) = 149.14075 47.67513 144.67884
#
# Poissons Ratio (x) = -0.00633 0.52691
# Poissons Ratio (y) = -0.01980 -0.24952
# Poissons Ratio (z) = 0.54316 -0.08222
#
# Static dielectric constant tensor:
#      x y z
#    x 1.753340 0.000000 0.000000 
#    y 0.000000 1.837110 0.000000 
#    z 0.000000 0.000000 1.725820 
# 
# From -- ./inp_files/12999.got.cif
#   From: 2010.05.17/outbox.cif.g08.bks.cpg/sg59_7_cif.got.tgz:12999.got - 2010.06.03 14:40:33.
