data_PCOD9448651
_publ_section_title
;
Structure prediction by ZEFSAII (Michael W. Deem and Ramdas Pophale) SiO2 
 PCOD9448651
Probable space group: P M M N
;
_chemical_formula_sum "Si O2"
_cell_formula_units_Z 48
_cell_length_a 17.003773
_cell_length_b 12.868651
_cell_length_c 8.762792
_cell_angle_alpha 90.000000
_cell_angle_beta 90.000000
_cell_angle_gamma 90.000000
_cell_volume 1917.435768
_symmetry_space_group_name_H-M "P M M N"
_symmetry_group_IT_number 59
_space_group.IT_coordinate_system_code '2'
_symmetry_cell_setting 'orthorhombic'
loop_
_space_group_symop_operation_xyz
x,y,z
1/2-x,1/2-y,z
1/2+x,-y,-z
-x,1/2+y,-z
-x,-y,-z
1/2+x,1/2+y,-z
1/2-x,y,z
x,1/2-y,z
loop_
_atom_site_type_symbol
_atom_site_label
_atom_site_fract_x
_atom_site_fract_y
_atom_site_fract_z
Si Si1 0.989118 0.591188 0.849319
Si Si2 0.164731 0.585167 0.453320
Si Si3 0.335905 0.364422 0.953904
Si Si4 0.662746 0.410466 0.187038
Si Si5 0.516680 0.362843 0.744435
Si Si6 0.596778 0.635888 0.542591
O O1 0.911473 0.629210 0.937481
O O2 0.987108 0.464803 0.847964
O O3 0.969057 0.621573 0.673920
O O4 0.078993 0.626462 0.880484
O O5 0.250000 0.617206 0.397527
O O6 0.158612 0.610957 0.632424
O O7 0.096607 0.631409 0.351172
O O8 0.154451 0.460647 0.442806
O O9 0.250000 0.370653 0.034582
O O10 0.337268 0.250000 0.878357
O O11 0.337143 0.465089 0.845871
O O12 0.750000 0.374170 0.133045
O O13 0.511373 0.250000 0.819843
O O14 0.448654 0.371286 0.617683
O O15 0.632500 0.750000 0.557849
#
# Coordination Sequence:
#
# PCOD9448651 Si02
#       6
#     8   8   8   8   8   8
#     4  11  19  37  60  84 112 155 190 232 284 339
#     4  10  19  34  55  81 114 147 185 233 285 339
#     4  10  23  40  59  85 114 147 191 242 292 339
#     4  10  20  36  57  81 112 148 189 235 282 338
#     4  10  20  35  55  81 114 148 186 227 276 336
#     4  10  19  33  54  81 113 143 179 227 283 339
#
# _framework density 25.033432999999999
#
# number of rings (size 3 to 8) (size 9 to 14) (size 15 to 20)
#    0.000    1.833    3.333    2.000    0.000    4.667 
#    0.000    1.667    0.000    3.000    0.000    7.000 
#    0.000    0.000    0.000    0.000    0.000    0.000 
#
# Total GULP energy -268432.297858 kJ/mol
# GULP energy per Si atom -5592.339539 kJ/mol
# Density = 2.497646 g / cm^3
# Si number density = 25.033433 Si / 1000 Ang^3
#
#
#
# Elastic Constant Matrix: (Units=GPa)
#
#
# Indices 1 2 3 4 5 6 
#
# 1 229.0754 21.3860 56.4037 0.0000 0.0000 0.0000
# 2 21.3860 147.6271 17.9444 0.0000 0.0000 0.0000
# 3 56.4037 17.9444 56.5552 0.0000 0.0000 0.0000
# 4 0.0000 0.0000 0.0000 15.6749 0.0000 0.0000
# 5 0.0000 0.0000 0.0000 0.0000 36.6805 0.0000
# 6 0.0000 0.0000 0.0000 0.0000 0.0000 3.4550
#
#
#
# Elastic Compliance Matrix: (Units=1/GPa)
#
#
# Indices 1 2 3 4 5 6 
#
# 1 0.005789 -0.000142 -0.005728 0.000000 0.000000 0.000000
# 2 -0.000142 0.007049 -0.002095 0.000000 0.000000 0.000000
# 3 -0.005728 -0.002095 0.024060 0.000000 0.000000 0.000000
# 4 0.000000 0.000000 0.000000 0.063796 0.000000 0.000000
# 5 0.000000 0.000000 0.000000 0.000000 0.027262 0.000000
# 6 0.000000 0.000000 0.000000 0.000000 0.000000 0.289436
#
#
# Mechanical properties :
#
#
# Convention : Reuss Voigt Hill
#
# Bulk Modulus (GPa) = 47.69431 69.41401 58.55416
# Shear Modulus (GPa) = 11.35557 33.66367 22.50962
#
# Velocity S-wave (km/s) = 2.13214 3.67106 3.00189
# Velocity P-wave (km/s) = 5.01547 6.76444 5.95452
#
# Compressibility (1/GPa) = 0.02096686
#
# Stress axis : x y z
#
# Youngs Moduli (GPa) = 172.73705 141.86308 41.56352
#
# Poissons Ratio (x) = 0.02019 0.23810
# Poissons Ratio (y) = 0.02459 0.08706
# Poissons Ratio (z) = 0.98952 0.29715
#
# Static dielectric constant tensor:
#      x y z
#    x 1.954180 0.000000 0.000000 
#    y 0.000000 1.980180 0.000000 
#    z 0.000000 0.000000 1.991090 
# 
# From -- ./inp_files/9024.got.cif
#   From: 2010.05.17/outbox.cif.g08.bks.cpg/sg59_5_cif.got.tgz:9024.got - 2010.06.03 14:40:33.
