data_PCOD9448243
_publ_section_title
;
Structure prediction by ZEFSAII (Michael W. Deem and Ramdas Pophale) SiO2 
 PCOD9448243
Probable space group: P M M N
;
_chemical_formula_sum "Si O2"
_cell_formula_units_Z 64
_cell_length_a 18.120935
_cell_length_b 30.813905
_cell_length_c 6.425938
_cell_angle_alpha 90.000000
_cell_angle_beta 90.000000
_cell_angle_gamma 90.000000
_cell_volume 3588.094502
_symmetry_space_group_name_H-M "P M M N"
_symmetry_group_IT_number 59
_space_group.IT_coordinate_system_code '2'
_symmetry_cell_setting 'orthorhombic'
loop_
_space_group_symop_operation_xyz
x,y,z
1/2-x,1/2-y,z
1/2+x,-y,-z
-x,1/2+y,-z
-x,-y,-z
1/2+x,1/2+y,-z
1/2-x,y,z
x,1/2-y,z
loop_
_atom_site_type_symbol
_atom_site_label
_atom_site_fract_x
_atom_site_fract_y
_atom_site_fract_z
Si Si1 0.829708 0.522919 0.400814
Si Si2 0.527601 0.381189 0.590904
Si Si3 0.927962 0.849272 0.034287
Si Si4 0.335607 0.560161 0.290412
Si Si5 0.599607 0.581953 0.691913
Si Si6 0.833978 0.801089 0.372675
Si Si7 0.086673 0.497341 0.000118
Si Si8 0.977332 0.699704 0.653907
O O1 0.750000 0.522597 0.296822
O O2 0.834190 0.480763 0.549901
O O3 0.841014 0.568600 0.518763
O O4 0.889831 0.517130 0.226525
O O5 0.483545 0.374374 0.808961
O O6 0.606226 0.403871 0.629157
O O7 0.476121 0.409871 0.435912
O O8 0.527426 0.334223 0.475706
O O9 0.866353 0.827701 0.179172
O O10 0.892965 0.879818 0.857547
O O11 0.972092 0.814095 0.895102
O O12 0.250000 0.574150 0.265278
O O13 0.370249 0.539980 0.078779
O O14 0.601872 0.539939 0.834723
O O15 0.750000 0.813443 0.427910
O O16 0.833553 0.750000 0.318872
O O17 0.894994 0.805970 0.554196
O O18 0.000000 0.500000 0.000000
O O19 0.998014 0.750000 0.629140
#
# Coordination Sequence:
#
# PCOD9448243 Si02
#       8
#     8   8   8   8   8   8   8   8
#     4  10  21  35  50  73 106 140 174 213 256 300
#     4  10  20  36  55  78 104 131 169 215 261 308
#     4  10  19  32  52  75 102 136 175 212 252 302
#     4  10  21  36  55  80 105 132 171 217 265 314
#     4  10  20  33  49  73 102 136 175 209 244 294
#     4   9  18  32  50  74 103 133 167 210 258 305
#     4  11  20  33  54  74 100 138 174 210 251 296
#     4   9  19  35  54  77 103 133 172 213 256 312
#
# _framework density 17.836765
#
# number of rings (size 3 to 8) (size 9 to 14) (size 15 to 20)
#    0.000    2.125    0.000    3.750    0.000    5.000 
#    0.000   10.000    0.000    0.375    0.000    0.000 
#    0.000    0.000    0.000    0.000    0.000    0.000 
#
# Total GULP energy -356580.937257 kJ/mol
# GULP energy per Si atom -5571.577145 kJ/mol
# Density = 1.779617 g / cm^3
# Si number density = 17.836765 Si / 1000 Ang^3
#
#
#
# Elastic Constant Matrix: (Units=GPa)
#
#
# Indices 1 2 3 4 5 6 
#
# 1 67.0265 14.0016 4.0984 0.0000 0.0000 0.0000
# 2 14.0016 58.6781 -1.9737 0.0000 0.0000 0.0000
# 3 4.0984 -1.9737 52.7965 0.0000 0.0000 0.0000
# 4 0.0000 0.0000 0.0000 15.5375 0.0000 0.0000
# 5 0.0000 0.0000 0.0000 0.0000 13.5525 0.0000
# 6 0.0000 0.0000 0.0000 0.0000 0.0000 23.4738
#
#
#
# Elastic Compliance Matrix: (Units=1/GPa)
#
#
# Indices 1 2 3 4 5 6 
#
# 1 0.015800 -0.003816 -0.001369 0.000000 0.000000 0.000000
# 2 -0.003816 0.017985 0.000969 0.000000 0.000000 0.000000
# 3 -0.001369 0.000969 0.019083 0.000000 0.000000 0.000000
# 4 0.000000 0.000000 0.000000 0.064360 0.000000 0.000000
# 5 0.000000 0.000000 0.000000 0.000000 0.073787 0.000000
# 6 0.000000 0.000000 0.000000 0.000000 0.000000 0.042601
#
#
# Mechanical properties :
#
#
# Convention : Reuss Voigt Hill
#
# Bulk Modulus (GPa) = 22.50473 23.41708 22.96090
# Shear Modulus (GPa) = 19.46566 21.33776 20.40171
#
# Velocity S-wave (km/s) = 3.30710 3.46248 3.38568
# Velocity P-wave (km/s) = 5.21795 5.39834 5.30891
#
# Compressibility (1/GPa) = 0.04443510
#
# Stress axis : x y z
#
# Youngs Moduli (GPa) = 63.28947 55.60083 52.40228
#
# Poissons Ratio (x) = 0.21219 0.07175
# Poissons Ratio (y) = 0.24153 -0.05076
# Poissons Ratio (z) = 0.08666 -0.05386
#
# Static dielectric constant tensor:
#      x y z
#    x 1.555420 0.000000 0.000000 
#    y 0.000000 1.649310 0.000000 
#    z 0.000000 0.000000 1.625960 
# 
# From -- ./inp_files/3052.got.cif
#   From: 2010.05.17/outbox.cif.g08.bks.cpg/sg59_2_cif.got.tgz:3052.got - 2010.06.03 14:40:33.
