data_PCOD9448926
_publ_section_title
;
Structure prediction by ZEFSAII (Michael W. Deem and Ramdas Pophale) SiO2 
 PCOD9448926
Probable space group: P M M N
;
_chemical_formula_sum "Si O2"
_cell_formula_units_Z 64
_cell_length_a 18.121754
_cell_length_b 8.562476
_cell_length_c 22.065569
_cell_angle_alpha 90.000000
_cell_angle_beta 90.000000
_cell_angle_gamma 90.000000
_cell_volume 3423.849992
_symmetry_space_group_name_H-M "P M M N"
_symmetry_group_IT_number 59
_space_group.IT_coordinate_system_code '2'
_symmetry_cell_setting 'orthorhombic'
loop_
_space_group_symop_operation_xyz
x,y,z
1/2-x,1/2-y,z
1/2+x,-y,-z
-x,1/2+y,-z
-x,-y,-z
1/2+x,1/2+y,-z
1/2-x,y,z
x,1/2-y,z
loop_
_atom_site_type_symbol
_atom_site_label
_atom_site_fract_x
_atom_site_fract_y
_atom_site_fract_z
Si Si1 0.563922 0.436112 0.104683
Si Si2 0.168768 0.561583 0.370511
Si Si3 0.665764 0.564685 0.001273
Si Si4 0.449779 0.937780 0.684721
Si Si5 0.899833 0.066326 0.882127
Si Si6 0.165808 0.559587 0.781755
Si Si7 0.103512 0.436174 0.249695
Si Si8 0.519308 0.063555 0.565754
O O1 0.551088 0.250000 0.109442
O O2 0.485412 0.520148 0.107663
O O3 0.616363 0.485845 0.160552
O O4 0.607807 0.475971 0.043695
O O5 0.250000 0.519004 0.393377
O O6 0.164901 0.750000 0.365726
O O7 0.155662 0.491023 0.304091
O O8 0.100755 0.509633 0.412377
O O9 0.750000 0.519259 0.016130
O O10 0.657892 0.750000 0.010894
O O11 0.647809 0.524178 0.931958
O O12 0.448429 0.750000 0.678747
O O13 0.377072 0.988807 0.720861
O O14 0.520663 0.976373 0.726901
O O15 0.464193 0.008844 0.618911
O O16 0.889827 0.250000 0.890615
O O17 0.880656 0.017339 0.813789
O O18 0.250000 0.504537 0.785587
O O19 0.167204 0.750000 0.781904
O O20 0.107008 0.250000 0.242028
O O21 0.519373 0.250000 0.563731
O O22 0.500000 0.000000 0.500000
#
# Coordination Sequence:
#
# PCOD9448926 Si02
#       8
#     8   8   8   8   8   8   8   8
#     4  11  21  38  61  85 113 146 189 236 284 341
#     4   9  19  36  57  83 114 147 187 233 279 331
#     4  11  25  43  59  79 110 146 187 238 293 345
#     4   9  17  33  55  80 111 144 180 223 267 325
#     4  12  24  38  59  84 111 148 192 235 283 340
#     4   9  17  31  55  85 113 144 182 225 275 331
#     4  10  19  34  56  83 112 144 181 225 281 335
#     4  10  20  35  57  83 110 148 190 230 274 324
#
# _framework density 18.692408
#
# number of rings (size 3 to 8) (size 9 to 14) (size 15 to 20)
#    0.000    1.875    1.250    3.375    0.000    3.250 
#    0.000    0.625    0.000    5.625    0.000    0.000 
#    0.000    0.000    0.000    0.000    0.000    0.000 
#
# Total GULP energy -357490.162524 kJ/mol
# GULP energy per Si atom -5585.783789 kJ/mol
# Density = 1.864986 g / cm^3
# Si number density = 18.692408 Si / 1000 Ang^3
#
#
#
# Elastic Constant Matrix: (Units=GPa)
#
#
# Indices 1 2 3 4 5 6 
#
# 1 47.7545 -1.3660 2.7619 0.0000 0.0000 0.0000
# 2 -1.3660 14.1933 0.1808 0.0000 0.0000 0.0000
# 3 2.7619 0.1808 93.4453 0.0000 0.0000 0.0000
# 4 0.0000 0.0000 0.0000 29.3005 0.0000 0.0000
# 5 0.0000 0.0000 0.0000 0.0000 14.7476 0.0000
# 6 0.0000 0.0000 0.0000 0.0000 0.0000 15.8525
#
#
#
# Elastic Compliance Matrix: (Units=1/GPa)
#
#
# Indices 1 2 3 4 5 6 
#
# 1 0.021035 0.002032 -0.000626 0.000000 0.000000 0.000000
# 2 0.002032 0.070654 -0.000197 0.000000 0.000000 0.000000
# 3 -0.000626 -0.000197 0.010720 0.000000 0.000000 0.000000
# 4 0.000000 0.000000 0.000000 0.034129 0.000000 0.000000
# 5 0.000000 0.000000 0.000000 0.000000 0.067808 0.000000
# 6 0.000000 0.000000 0.000000 0.000000 0.000000 0.063082
#
#
# Mechanical properties :
#
#
# Convention : Reuss Voigt Hill
#
# Bulk Modulus (GPa) = 9.53935 17.61627 13.57781
# Shear Modulus (GPa) = 16.66944 22.23455 19.45199
#
# Velocity S-wave (km/s) = 2.98950 3.45265 3.22939
# Velocity P-wave (km/s) = 4.12681 5.03380 4.60270
#
# Compressibility (1/GPa) = 0.10482891
#
# Stress axis : x y z
#
# Youngs Moduli (GPa) = 47.54035 14.15355 93.28082
#
# Poissons Ratio (x) = -0.02877 0.05836
# Poissons Ratio (y) = -0.09662 0.01835
# Poissons Ratio (z) = 0.02974 0.00278
#
# Static dielectric constant tensor:
#      x y z
#    x 1.653110 0.000000 0.000000 
#    y 0.000000 1.634320 0.000000 
#    z 0.000000 0.000000 1.622240 
# 
# From -- ./inp_files/30751.got.cif
#   From: 2010.05.17/outbox.cif.g08.bks.cpg/sg59_16_cif.got.tgz:30751.got - 2010.06.03 14:40:33.
