data_PCOD9448575
_publ_section_title
;
Structure prediction by ZEFSAII (Michael W. Deem and Ramdas Pophale) SiO2 
 PCOD9448575
Probable space group: P M M N
;
_chemical_formula_sum "Si O2"
_cell_formula_units_Z 64
_cell_length_a 8.644006
_cell_length_b 28.478081
_cell_length_c 14.467105
_cell_angle_alpha 90.000000
_cell_angle_beta 90.000000
_cell_angle_gamma 90.000000
_cell_volume 3561.290606
_symmetry_space_group_name_H-M "P M M N"
_symmetry_group_IT_number 59
_space_group.IT_coordinate_system_code '2'
_symmetry_cell_setting 'orthorhombic'
loop_
_space_group_symop_operation_xyz
x,y,z
1/2-x,1/2-y,z
1/2+x,-y,-z
-x,1/2+y,-z
-x,-y,-z
1/2+x,1/2+y,-z
1/2-x,y,z
x,1/2-y,z
loop_
_atom_site_type_symbol
_atom_site_label
_atom_site_fract_x
_atom_site_fract_y
_atom_site_fract_z
Si Si1 0.063858 0.610558 0.186657
Si Si2 0.936101 0.303327 0.330512
Si Si3 0.936221 0.303831 0.939228
Si Si4 0.927030 0.807032 0.865097
Si Si5 0.937399 0.473084 0.289588
Si Si6 0.437626 0.605850 0.568861
Si Si7 0.064506 0.073455 0.627269
Si Si8 0.436308 0.484763 0.900996
O O1 0.250000 0.607708 0.185937
O O2 0.015544 0.659167 0.138406
O O3 0.003098 0.605399 0.290770
O O4 0.996404 0.566527 0.129374
O O5 0.750000 0.301842 0.330955
O O6 0.993461 0.250000 0.345179
O O7 0.986145 0.341256 0.405843
O O8 0.987734 0.320416 0.229065
O O9 0.750000 0.302672 0.941047
O O10 0.990625 0.250000 0.924440
O O11 0.993127 0.321143 0.039458
O O12 0.750000 0.822696 0.863129
O O13 0.929773 0.750000 0.865825
O O14 0.750000 0.471546 0.287860
O O15 0.989413 0.428132 0.347341
O O16 0.981880 0.520195 0.345437
O O17 0.986455 0.480605 0.183318
O O18 0.250000 0.604311 0.564652
O O19 0.502913 0.587953 0.472311
O O20 0.250000 0.075661 0.629140
O O21 0.250000 0.484046 0.903387
O O22 0.500000 0.500000 0.000000
#
# Coordination Sequence:
#
# PCOD9448575 Si02
#       8
#     8   8   8   8   8   8   8   8
#     4  10  20  35  55  76 100 135 174 210 254 306
#     4   9  18  32  49  71 101 135 168 203 245 296
#     4   9  18  33  53  76 101 132 173 216 253 296
#     4   9  17  29  47  71  99 131 165 204 251 298
#     4   8  17  33  52  74  99 128 163 205 248 291
#     4  10  19  33  54  75  95 126 169 210 248 295
#     4  10  20  35  53  74 101 128 159 207 263 310
#     4  10  20  35  53  77 110 142 172 207 252 306
#
# _framework density 17.971012999999999
#
# number of rings (size 3 to 8) (size 9 to 14) (size 15 to 20)
#    0.000    2.625    0.000    2.625    0.000    4.000 
#    0.000    6.250    0.000    3.750    0.000    0.000 
#    0.000    0.000    0.000    0.000    0.000    0.000 
#
# Total GULP energy -356846.902715 kJ/mol
# GULP energy per Si atom -5575.732855 kJ/mol
# Density = 1.793011 g / cm^3
# Si number density = 17.971013 Si / 1000 Ang^3
#
#
#
# Elastic Constant Matrix: (Units=GPa)
#
#
# Indices 1 2 3 4 5 6 
#
# 1 26.0162 23.1524 26.3971 0.0000 0.0000 0.0000
# 2 23.1524 78.3344 78.3167 0.0000 0.0000 0.0000
# 3 26.3971 78.3167 146.3889 0.0000 0.0000 0.0000
# 4 0.0000 0.0000 0.0000 26.0219 0.0000 0.0000
# 5 0.0000 0.0000 0.0000 0.0000 26.0706 0.0000
# 6 0.0000 0.0000 0.0000 0.0000 0.0000 17.1948
#
#
#
# Elastic Compliance Matrix: (Units=1/GPa)
#
#
# Indices 1 2 3 4 5 6 
#
# 1 0.052581 -0.013032 -0.002510 0.000000 0.000000 0.000000
# 2 -0.013032 0.030675 -0.014061 0.000000 0.000000 0.000000
# 3 -0.002510 -0.014061 0.014806 0.000000 0.000000 0.000000
# 4 0.000000 0.000000 0.000000 0.038429 0.000000 0.000000
# 5 0.000000 0.000000 0.000000 0.000000 0.038357 0.000000
# 6 0.000000 0.000000 0.000000 0.000000 0.000000 0.058157
#
#
# Mechanical properties :
#
#
# Convention : Reuss Voigt Hill
#
# Bulk Modulus (GPa) = 25.73491 56.27466 41.00479
# Shear Modulus (GPa) = 16.38463 22.04901 19.21682
#
# Velocity S-wave (km/s) = 3.02276 3.50654 3.27360
# Velocity P-wave (km/s) = 5.15112 6.91206 6.09552
#
# Compressibility (1/GPa) = 0.03885772
#
# Stress axis : x y z
#
# Youngs Moduli (GPa) = 19.01825 32.59949 67.53904
#
# Poissons Ratio (x) = 0.42482 0.16950
# Poissons Ratio (y) = 0.24784 0.94968
# Poissons Ratio (z) = 0.04773 0.45839
#
# Static dielectric constant tensor:
#      x y z
#    x 1.613810 0.000000 0.000000 
#    y 0.000000 1.630780 0.000000 
#    z 0.000000 0.000000 1.592440 
# 
# From -- ./inp_files/15019.got.cif
#   From: 2010.05.17/outbox.cif.g08.bks.cpg/sg59_8_cif.got.tgz:15019.got - 2010.06.03 14:40:33.
