data_PCOD9448643
_publ_section_title
;
Structure prediction by ZEFSAII (Michael W. Deem and Ramdas Pophale) SiO2 
 PCOD9448643
Probable space group: P M M N
;
_chemical_formula_sum "Si O2"
_cell_formula_units_Z 56
_cell_length_a 17.157370
_cell_length_b 7.764154
_cell_length_c 19.621771
_cell_angle_alpha 90.000000
_cell_angle_beta 90.000000
_cell_angle_gamma 90.000000
_cell_volume 2613.864442
_symmetry_space_group_name_H-M "P M M N"
_symmetry_group_IT_number 59
_space_group.IT_coordinate_system_code '2'
_symmetry_cell_setting 'orthorhombic'
loop_
_space_group_symop_operation_xyz
x,y,z
1/2-x,1/2-y,z
1/2+x,-y,-z
-x,1/2+y,-z
-x,-y,-z
1/2+x,1/2+y,-z
1/2-x,y,z
x,1/2-y,z
loop_
_atom_site_type_symbol
_atom_site_label
_atom_site_fract_x
_atom_site_fract_y
_atom_site_fract_z
Si Si1 0.660656 0.452169 0.142735
Si Si2 0.750000 0.538575 0.933519
Si Si3 0.750000 0.539151 0.774755
Si Si4 0.664000 0.539800 0.404530
Si Si5 0.398833 0.044020 0.309825
Si Si6 0.409600 0.056607 0.995057
Si Si7 0.418325 0.042807 0.463835
Si Si8 0.931581 0.543966 0.276476
O O1 0.750000 0.513117 0.144299
O O2 0.660192 0.250000 0.125468
O O3 0.613095 0.547589 0.084278
O O4 0.620780 0.475586 0.215524
O O5 0.750000 0.750000 0.939741
O O6 0.750000 0.490197 0.853966
O O7 0.668069 0.476898 0.968068
O O8 0.750000 0.750000 0.774673
O O9 0.674217 0.479343 0.733221
O O10 0.750000 0.486536 0.382897
O O11 0.661893 0.750000 0.404997
O O12 0.644937 0.482712 0.480942
O O13 0.601292 0.480707 0.349272
O O14 0.389452 0.250000 0.315450
O O15 0.407329 0.974835 0.387309
O O16 0.479033 0.008180 0.271132
O O17 0.411319 0.250000 0.022000
O O18 0.500000 0.000000 0.000000
O O19 0.413768 0.250000 0.459670
O O20 0.500000 0.000000 0.500000
O O21 0.926249 0.750000 0.275799
#
# Coordination Sequence:
#
# PCOD9448643 Si02
#       8
#     8   4   4   8   8   8   8   8
#     4  11  24  42  64  91 124 161 200 253 307 361
#     4   9  20  40  65  91 126 163 203 253 305 365
#     4   9  20  38  59  87 118 155 197 249 303 353
#     4   9  18  32  52  79 111 150 196 243 292 349
#     4  10  21  36  58  85 116 155 202 252 305 364
#     4  11  23  41  66  97 129 168 209 251 306 370
#     4  10  19  33  54  80 111 149 196 251 301 353
#     4  11  22  37  59  85 118 158 198 246 303 368
#
# _framework density 21.424216999999999
#
# number of rings (size 3 to 8) (size 9 to 14) (size 15 to 20)
#    0.000    1.857    2.143    1.714    3.000    1.429 
#    0.000    0.357    0.000    3.000    0.000    0.000 
#    0.000    0.000    0.000    0.000    0.000    0.000 
#
# Total GULP energy -312602.038970 kJ/mol
# GULP energy per Si atom -5582.179267 kJ/mol
# Density = 2.137545 g / cm^3
# Si number density = 21.424217 Si / 1000 Ang^3
#
#
#
# Elastic Constant Matrix: (Units=GPa)
#
#
# Indices 1 2 3 4 5 6 
#
# 1 189.7187 9.1944 65.2555 0.0000 0.0000 0.0000
# 2 9.1944 30.2723 7.5988 0.0000 0.0000 0.0000
# 3 65.2555 7.5988 110.2510 0.0000 0.0000 0.0000
# 4 0.0000 0.0000 0.0000 8.5823 0.0000 0.0000
# 5 0.0000 0.0000 0.0000 0.0000 25.9410 0.0000
# 6 0.0000 0.0000 0.0000 0.0000 0.0000 20.7002
#
#
#
# Elastic Compliance Matrix: (Units=1/GPa)
#
#
# Indices 1 2 3 4 5 6 
#
# 1 0.006651 -0.001050 -0.003864 0.000000 0.000000 0.000000
# 2 -0.001050 0.033781 -0.001707 0.000000 0.000000 0.000000
# 3 -0.003864 -0.001707 0.011475 0.000000 0.000000 0.000000
# 4 0.000000 0.000000 0.000000 0.116519 0.000000 0.000000
# 5 0.000000 0.000000 0.000000 0.000000 0.038549 0.000000
# 6 0.000000 0.000000 0.000000 0.000000 0.000000 0.048309
#
#
# Mechanical properties :
#
#
# Convention : Reuss Voigt Hill
#
# Bulk Modulus (GPa) = 25.86339 54.92662 40.39500
# Shear Modulus (GPa) = 17.76741 27.59090 22.67915
#
# Velocity S-wave (km/s) = 2.88291 3.59254 3.25711
# Velocity P-wave (km/s) = 4.81454 6.54994 5.74811
#
# Compressibility (1/GPa) = 0.03866470
#
# Stress axis : x y z
#
# Youngs Moduli (GPa) = 150.35363 29.60261 87.14592
#
# Poissons Ratio (x) = 0.03109 0.33675
# Poissons Ratio (y) = 0.15788 0.14874
# Poissons Ratio (z) = 0.58100 0.05052
#
# Static dielectric constant tensor:
#      x y z
#    x 1.776070 0.000000 0.000000 
#    y 0.000000 1.817140 0.000000 
#    z 0.000000 0.000000 1.748300 
# 
# From -- ./inp_files/30520.got.cif
#   From: 2010.05.17/outbox.cif.g08.bks.cpg/sg59_16_cif.got.tgz:30520.got - 2010.06.03 14:40:33.
