data_PCOD9448101
_publ_section_title
;
Structure prediction by ZEFSAII (Michael W. Deem and Ramdas Pophale) SiO2 
 PCOD9448101
Probable space group: P M M N
;
_chemical_formula_sum "Si O2"
_cell_formula_units_Z 48
_cell_length_a 27.040169
_cell_length_b 8.023745
_cell_length_c 12.300483
_cell_angle_alpha 90.000000
_cell_angle_beta 90.000000
_cell_angle_gamma 90.000000
_cell_volume 2668.754869
_symmetry_space_group_name_H-M "P M M N"
_symmetry_group_IT_number 59
_space_group.IT_coordinate_system_code '2'
_symmetry_cell_setting 'orthorhombic'
loop_
_space_group_symop_operation_xyz
x,y,z
1/2-x,1/2-y,z
1/2+x,-y,-z
-x,1/2+y,-z
-x,-y,-z
1/2+x,1/2+y,-z
1/2-x,y,z
x,1/2-y,z
loop_
_atom_site_type_symbol
_atom_site_label
_atom_site_fract_x
_atom_site_fract_y
_atom_site_fract_z
Si Si1 0.447454 0.555024 0.449881
Si Si2 0.306409 0.951589 0.816477
Si Si3 0.625590 0.444568 0.990517
Si Si4 0.390142 0.447665 0.653087
Si Si5 0.540557 0.549383 0.145885
Si Si6 0.431339 0.954743 0.206919
O O1 0.500000 0.500000 0.500000
O O2 0.453323 0.750000 0.432174
O O3 0.404839 0.523952 0.538173
O O4 0.433650 0.484296 0.331166
O O5 0.250000 0.009310 0.808706
O O6 0.306370 0.750000 0.821866
O O7 0.333736 0.016392 0.926176
O O8 0.340019 0.998900 0.713326
O O9 0.638032 0.250000 0.976873
O O10 0.574233 0.460836 0.056893
O O11 0.613024 0.514105 0.871244
O O12 0.389633 0.250000 0.640107
O O13 0.433843 0.489404 0.738445
O O14 0.543679 0.750000 0.129732
O O15 0.483797 0.498779 0.152828
O O16 0.429515 0.750000 0.206667
#
# Coordination Sequence:
#
# PCOD9448101 Si02
#       6
#     8   8   8   8   8   8
#     4  11  20  32  48  68  99 138 173 206 243 289
#     4   9  18  33  53  76  98 120 154 203 252 296
#     4   9  17  29  46  68  92 123 159 195 239 290
#     4  10  19  32  49  72  99 128 166 206 245 290
#     4   9  16  28  43  63  95 127 155 196 239 282
#     4   9  17  29  44  64  96 131 161 195 238 283
#
# _framework density 17.985914999999999
#
# number of rings (size 3 to 8) (size 9 to 14) (size 15 to 20)
#    0.000    2.500    1.667    1.500    0.000    1.000 
#    0.000    1.667    0.000    1.000    0.000    4.667 
#    0.000    0.000    0.000    0.000    0.000    0.000 
#
# Total GULP energy -267504.006387 kJ/mol
# GULP energy per Si atom -5573.000133 kJ/mol
# Density = 1.794498 g / cm^3
# Si number density = 17.985915 Si / 1000 Ang^3
#
#
#
# Elastic Constant Matrix: (Units=GPa)
#
#
# Indices 1 2 3 4 5 6 
#
# 1 88.2760 -7.4157 32.3005 0.0000 0.0000 0.0000
# 2 -7.4157 3.8455 -4.2725 0.0000 0.0000 0.0000
# 3 32.3005 -4.2725 75.1003 0.0000 0.0000 0.0000
# 4 0.0000 0.0000 0.0000 11.0144 0.0000 0.0000
# 5 0.0000 0.0000 0.0000 0.0000 11.0688 0.0000
# 6 0.0000 0.0000 0.0000 0.0000 0.0000 17.0659
#
#
#
# Elastic Compliance Matrix: (Units=1/GPa)
#
#
# Indices 1 2 3 4 5 6 
#
# 1 0.015210 0.023551 -0.005202 0.000000 0.000000 0.000000
# 2 0.023551 0.314055 0.007738 0.000000 0.000000 0.000000
# 3 -0.005202 0.007738 0.015993 0.000000 0.000000 0.000000
# 4 0.000000 0.000000 0.000000 0.090791 0.000000 0.000000
# 5 0.000000 0.000000 0.000000 0.000000 0.090344 0.000000
# 6 0.000000 0.000000 0.000000 0.000000 0.000000 0.058596
#
#
# Mechanical properties :
#
#
# Convention : Reuss Voigt Hill
#
# Bulk Modulus (GPa) = 2.51616 23.16069 12.83843
# Shear Modulus (GPa) = 7.51549 17.60376 12.55963
#
# Velocity S-wave (km/s) = 2.04637 3.13190 2.64541
# Velocity P-wave (km/s) = 2.64301 5.09740 4.06011
#
# Compressibility (1/GPa) = 0.39743141
#
# Stress axis : x y z
#
# Youngs Moduli (GPa) = 65.74644 3.18416 62.52714
#
# Poissons Ratio (x) = -0.07499 0.32526
# Poissons Ratio (y) = -1.54841 -0.48381
# Poissons Ratio (z) = 0.34201 -0.02464
#
# Static dielectric constant tensor:
#      x y z
#    x 1.619180 0.000000 0.000000 
#    y 0.000000 1.651980 0.000000 
#    z 0.000000 0.000000 1.671300 
# 
# From -- ./inp_files/14375.got.cif
#   From: 2010.05.17/outbox.cif.g08.bks.cpg/sg59_8_cif.got.tgz:14375.got - 2010.06.03 14:40:33.
