data_PCOD9448097
_publ_section_title
;
Structure prediction by ZEFSAII (Michael W. Deem and Ramdas Pophale) SiO2 
 PCOD9448097
Probable space group: P M M N
;
_chemical_formula_sum "Si O2"
_cell_formula_units_Z 64
_cell_length_a 19.237579
_cell_length_b 7.353866
_cell_length_c 20.877422
_cell_angle_alpha 90.000000
_cell_angle_beta 90.000000
_cell_angle_gamma 90.000000
_cell_volume 2953.540960
_symmetry_space_group_name_H-M "P M M N"
_symmetry_group_IT_number 59
_space_group.IT_coordinate_system_code '2'
_symmetry_cell_setting 'orthorhombic'
loop_
_space_group_symop_operation_xyz
x,y,z
1/2-x,1/2-y,z
1/2+x,-y,-z
-x,1/2+y,-z
-x,-y,-z
1/2+x,1/2+y,-z
1/2-x,y,z
x,1/2-y,z
loop_
_atom_site_type_symbol
_atom_site_label
_atom_site_fract_x
_atom_site_fract_y
_atom_site_fract_z
Si Si1 0.831678 0.027738 0.650893
Si Si2 0.049435 0.529814 0.820907
Si Si3 0.076953 0.967532 0.470915
Si Si4 0.169700 0.971987 0.077913
Si Si5 0.170425 0.971552 0.727766
Si Si6 0.670480 0.471214 0.414339
Si Si7 0.427778 0.966076 0.964943
Si Si8 0.391842 0.537569 0.212613
O O1 0.750000 0.975345 0.639757
O O2 0.831699 0.250000 0.650422
O O3 0.888035 0.969069 0.596365
O O4 0.858634 0.966498 0.721257
O O5 0.048908 0.750000 0.821950
O O6 0.975212 0.476283 0.791578
O O7 0.113843 0.468201 0.778175
O O8 0.062662 0.463300 0.893101
O O9 0.082230 0.750000 0.466787
O O10 0.125994 0.038139 0.527295
O O11 0.000000 0.000000 0.500000
O O12 0.250000 0.020795 0.076407
O O13 0.164500 0.750000 0.077795
O O14 0.130332 0.036025 0.014043
O O15 0.136171 0.036812 0.144763
O O16 0.250000 0.029534 0.739326
O O17 0.171655 0.750000 0.728783
O O18 0.148070 0.027357 0.656462
O O19 0.750000 0.523942 0.422135
O O20 0.667892 0.250000 0.415269
O O21 0.415730 0.750000 0.958585
O O22 0.500000 0.000000 0.000000
O O23 0.372668 0.750000 0.212377
#
# Coordination Sequence:
#
# PCOD9448097 Si02
#       8
#     8   8   8   8   8   8   8   8
#     4   9  18  33  53  76 101 131 171 214 250 289
#     4  10  20  31  49  75 103 131 159 201 251 296
#     4  10  20  32  49  75 103 129 160 202 247 291
#     4   9  17  30  50  74  96 123 165 208 241 282
#     4   8  15  28  46  70  97 124 159 200 238 279
#     4   8  14  27  48  69  90 123 163 195 227 275
#     4  10  19  32  49  71  98 129 162 197 242 292
#     4  10  19  32  52  75  99 132 167 203 247 296
#
# _framework density 21.668904999999999
#
# number of rings (size 3 to 8) (size 9 to 14) (size 15 to 20)
#    0.000    2.750    1.250    1.500    1.750    3.500 
#    0.000    2.500    0.000    5.250    0.000    3.500 
#    0.000    0.000    0.000    0.000    0.000    0.000 
#
# Total GULP energy -356992.842165 kJ/mol
# GULP energy per Si atom -5578.013159 kJ/mol
# Density = 2.161959 g / cm^3
# Si number density = 21.668905 Si / 1000 Ang^3
#
#
#
# Elastic Constant Matrix: (Units=GPa)
#
#
# Indices 1 2 3 4 5 6 
#
# 1 107.2775 -4.9677 103.1640 0.0000 0.0000 0.0000
# 2 -4.9677 79.4815 3.0683 0.0000 0.0000 0.0000
# 3 103.1640 3.0683 179.3925 0.0000 0.0000 0.0000
# 4 0.0000 0.0000 0.0000 -5.0878 0.0000 0.0000
# 5 0.0000 0.0000 0.0000 0.0000 45.4835 0.0000
# 6 0.0000 0.0000 0.0000 0.0000 0.0000 17.6677
#
#
#
# Elastic Compliance Matrix: (Units=1/GPa)
#
#
# Indices 1 2 3 4 5 6 
#
# 1 0.021106 0.001789 -0.012168 0.000000 0.000000 0.000000
# 2 0.001789 0.012741 -0.001247 0.000000 0.000000 0.000000
# 3 -0.012168 -0.001247 0.012593 0.000000 0.000000 0.000000
# 4 0.000000 0.000000 0.000000 -0.196550 0.000000 0.000000
# 5 0.000000 0.000000 0.000000 0.000000 0.021986 0.000000
# 6 0.000000 0.000000 0.000000 0.000000 0.000000 0.056600
#
#
# Mechanical properties :
#
#
# Convention : Reuss Voigt Hill
#
# Bulk Modulus (GPa) = 43.12397 63.18674 53.15536
# Shear Modulus (GPa) = -123.32903 29.27183 -47.02860
#
# Velocity S-wave (km/s) = -7.55240 3.67940 -4.66373
# Velocity P-wave (km/s) = 7.49047 6.87561 2.10156
#
# Compressibility (1/GPa) = 0.02318896
#
# Stress axis : x y z
#
# Youngs Moduli (GPa) = 47.37988 78.48380 79.40751
#
# Poissons Ratio (x) = -0.14040 0.96624
# Poissons Ratio (y) = -0.08476 0.09900
# Poissons Ratio (z) = 0.57652 0.09784
#
# Static dielectric constant tensor:
#      x y z
#    x 1.685030 0.000000 0.000000 
#    y 0.000000 1.660180 0.000000 
#    z 0.000000 0.000000 1.798930 
# 
# From -- ./inp_files/27970.got.cif
#   From: 2010.05.17/outbox.cif.g08.bks.cpg/sg59_14_cif.got.tgz:27970.got - 2010.06.03 14:40:33.
