data_PCOD9448678
_publ_section_title
;
Structure prediction by ZEFSAII (Michael W. Deem and Ramdas Pophale) SiO2 
 PCOD9448678
Probable space group: P M M N
;
_chemical_formula_sum "Si O2"
_cell_formula_units_Z 64
_cell_length_a 18.864030
_cell_length_b 7.459255
_cell_length_c 20.663575
_cell_angle_alpha 90.000000
_cell_angle_beta 90.000000
_cell_angle_gamma 90.000000
_cell_volume 2907.604909
_symmetry_space_group_name_H-M "P M M N"
_symmetry_group_IT_number 59
_space_group.IT_coordinate_system_code '2'
_symmetry_cell_setting 'orthorhombic'
loop_
_space_group_symop_operation_xyz
x,y,z
1/2-x,1/2-y,z
1/2+x,-y,-z
-x,1/2+y,-z
-x,-y,-z
1/2+x,1/2+y,-z
1/2-x,y,z
x,1/2-y,z
loop_
_atom_site_type_symbol
_atom_site_label
_atom_site_fract_x
_atom_site_fract_y
_atom_site_fract_z
Si Si1 0.669803 0.469328 0.986315
Si Si2 0.417978 0.035480 0.516167
Si Si3 0.439223 0.961591 0.278284
Si Si4 0.830891 0.966899 0.607542
Si Si5 0.671295 0.036498 0.214355
Si Si6 0.590595 0.043068 0.863225
Si Si7 0.413836 0.465312 0.661134
Si Si8 0.567100 0.032433 0.102170
O O1 0.750000 0.523885 0.001887
O O2 0.668905 0.250000 0.986219
O O3 0.644780 0.533138 0.915746
O O4 0.612857 0.523683 0.040206
O O5 0.408168 0.250000 0.517426
O O6 0.369263 0.967130 0.457843
O O7 0.402434 0.966696 0.588368
O O8 0.500000 0.000000 0.500000
O O9 0.452353 0.750000 0.267798
O O10 0.417959 0.037970 0.208322
O O11 0.512264 0.035164 0.308451
O O12 0.377766 0.981566 0.330819
O O13 0.750000 0.028590 0.611996
O O14 0.830266 0.750000 0.605468
O O15 0.750000 0.964915 0.201334
O O16 0.674223 0.250000 0.203916
O O17 0.610710 0.970636 0.165560
O O18 0.647422 0.004587 0.287704
O O19 0.612430 0.250000 0.854100
O O20 0.512579 0.037187 0.894986
O O21 0.420318 0.250000 0.656122
O O22 0.562772 0.250000 0.102598
#
# Coordination Sequence:
#
# PCOD9448678 Si02
#       8
#     8   8   8   8   8   8   8   8
#     4   9  18  33  53  77 105 140 181 221 264 314
#     4  10  20  35  57  80 105 139 179 220 263 317
#     4  10  20  35  55  81 110 141 180 222 266 319
#     4  10  22  38  56  81 110 141 180 225 272 321
#     4  10  21  35  52  78 109 140 176 217 263 317
#     4  10  20  34  55  81 108 137 177 225 265 316
#     4  10  20  35  55  80 108 140 177 218 266 321
#     4  10  19  33  55  79 105 140 178 220 265 315
#
# _framework density 22.011244000000001
#
# number of rings (size 3 to 8) (size 9 to 14) (size 15 to 20)
#    0.000    2.125    2.500    0.750    0.000    4.500 
#    0.000    2.500    0.000    2.250    0.000    0.000 
#    0.000    0.000    0.000    0.000    0.000    0.000 
#
# Total GULP energy -357623.328778 kJ/mol
# GULP energy per Si atom -5587.864512 kJ/mol
# Density = 2.196115 g / cm^3
# Si number density = 22.011244 Si / 1000 Ang^3
#
#
#
# Elastic Constant Matrix: (Units=GPa)
#
#
# Indices 1 2 3 4 5 6 
#
# 1 53.4926 -15.9377 4.9300 0.0000 0.0000 0.0000
# 2 -15.9377 63.8633 -1.6002 0.0000 0.0000 0.0000
# 3 4.9300 -1.6002 114.2278 0.0000 0.0000 0.0000
# 4 0.0000 0.0000 0.0000 -13.7294 0.0000 0.0000
# 5 0.0000 0.0000 0.0000 0.0000 23.0044 0.0000
# 6 0.0000 0.0000 0.0000 0.0000 0.0000 14.7677
#
#
#
# Elastic Compliance Matrix: (Units=1/GPa)
#
#
# Indices 1 2 3 4 5 6 
#
# 1 0.020269 0.005038 -0.000804 0.000000 0.000000 0.000000
# 2 0.005038 0.016916 0.000020 0.000000 0.000000 0.000000
# 3 -0.000804 0.000020 0.008789 0.000000 0.000000 0.000000
# 4 0.000000 0.000000 0.000000 -0.072836 0.000000 0.000000
# 5 0.000000 0.000000 0.000000 0.000000 0.043470 0.000000
# 6 0.000000 0.000000 0.000000 0.000000 0.000000 0.067715
#
#
# Mechanical properties :
#
#
# Convention : Reuss Voigt Hill
#
# Bulk Modulus (GPa) = 18.35461 22.92977 20.64219
# Shear Modulus (GPa) = 53.20420 21.08797 37.14609
#
# Velocity S-wave (km/s) = 4.92177 3.09860 4.11249
# Velocity P-wave (km/s) = 6.37615 4.82097 5.65230
#
# Compressibility (1/GPa) = 0.05448223
#
# Stress axis : x y z
#
# Youngs Moduli (GPa) = 49.33547 59.11460 113.77309
#
# Poissons Ratio (x) = -0.29784 0.09150
# Poissons Ratio (y) = -0.24857 -0.00222
# Poissons Ratio (z) = 0.03968 -0.00115
#
# Static dielectric constant tensor:
#      x y z
#    x 1.756700 0.000000 0.000000 
#    y 0.000000 1.848800 0.000000 
#    z 0.000000 0.000000 1.780240 
# 
# From -- ./inp_files/29471.got.cif
#   From: 2010.05.17/outbox.cif.g08.bks.cpg/sg59_15_cif.got.tgz:29471.got - 2010.06.03 14:40:33.
