data_PCOD9448455
_publ_section_title
;
Structure prediction by ZEFSAII (Michael W. Deem and Ramdas Pophale) SiO2 
 PCOD9448455
Probable space group: P M M N
;
_chemical_formula_sum "Si O2"
_cell_formula_units_Z 56
_cell_length_a 15.827807
_cell_length_b 18.921996
_cell_length_c 9.557151
_cell_angle_alpha 90.000000
_cell_angle_beta 90.000000
_cell_angle_gamma 90.000000
_cell_volume 2862.306522
_symmetry_space_group_name_H-M "P M M N"
_symmetry_group_IT_number 59
_space_group.IT_coordinate_system_code '2'
_symmetry_cell_setting 'orthorhombic'
loop_
_space_group_symop_operation_xyz
x,y,z
1/2-x,1/2-y,z
1/2+x,-y,-z
-x,1/2+y,-z
-x,-y,-z
1/2+x,1/2+y,-z
1/2-x,y,z
x,1/2-y,z
loop_
_atom_site_type_symbol
_atom_site_label
_atom_site_fract_x
_atom_site_fract_y
_atom_site_fract_z
Si Si1 0.654944 0.833782 0.985071
Si Si2 0.341798 0.905113 0.360904
Si Si3 0.593277 0.967955 0.473594
Si Si4 0.402802 0.044979 0.843163
Si Si5 0.995777 0.333880 0.479767
Si Si6 0.015904 0.833270 0.840703
Si Si7 0.405730 0.564900 0.066005
O O1 0.750000 0.851795 0.941546
O O2 0.651278 0.750000 0.009672
O O3 0.629073 0.876636 0.123367
O O4 0.582230 0.851230 0.872884
O O5 0.250000 0.876359 0.401453
O O6 0.419894 0.859095 0.419511
O O7 0.350080 0.910032 0.194063
O O8 0.350916 0.984477 0.424131
O O9 0.619014 0.978658 0.312234
O O10 0.576903 0.884383 0.495360
O O11 0.500000 0.000000 0.500000
O O12 0.504723 0.041810 0.862551
O O13 0.369019 0.997606 0.970819
O O14 0.012358 0.250000 0.493104
O O15 0.966261 0.348967 0.320500
O O16 0.026905 0.750000 0.862704
O O17 0.070073 0.875735 0.952814
#
# Coordination Sequence:
#
# PCOD9448455 Si02
#       7
#     8   8   8   8   8   8   8
#     4   9  19  34  54  85 120 149 185 237 292 340
#     4  11  24  39  59  87 121 155 193 251 307 351
#     4  10  19  37  57  86 115 152 196 236 288 351
#     4  10  19  32  57  80 113 150 192 237 278 343
#     4  10  21  39  63  88 117 157 203 243 291 356
#     4   9  19  36  60  86 113 153 198 238 286 348
#     4  10  19  34  55  85 112 146 196 242 283 339
#
# _framework density 19.564641999999999
#
# number of rings (size 3 to 8) (size 9 to 14) (size 15 to 20)
#    0.000    2.143    2.857    1.714    4.000    2.571 
#    0.000    2.143    0.000    1.286    0.000    0.000 
#    0.000    0.000    0.000    0.000    0.000    0.000 
#
# Total GULP energy -312266.615624 kJ/mol
# GULP energy per Si atom -5576.189565 kJ/mol
# Density = 1.952011 g / cm^3
# Si number density = 19.564642 Si / 1000 Ang^3
#
#
#
# Elastic Constant Matrix: (Units=GPa)
#
#
# Indices 1 2 3 4 5 6 
#
# 1 36.1252 11.5662 8.6502 0.0000 0.0000 0.0000
# 2 11.5662 77.3426 36.8796 0.0000 0.0000 0.0000
# 3 8.6502 36.8796 117.4898 0.0000 0.0000 0.0000
# 4 0.0000 0.0000 0.0000 28.6855 0.0000 0.0000
# 5 0.0000 0.0000 0.0000 0.0000 5.8716 0.0000
# 6 0.0000 0.0000 0.0000 0.0000 0.0000 11.3034
#
#
#
# Elastic Compliance Matrix: (Units=1/GPa)
#
#
# Indices 1 2 3 4 5 6 
#
# 1 0.029157 -0.003924 -0.000915 0.000000 0.000000 0.000000
# 2 -0.003924 0.015733 -0.004650 0.000000 0.000000 0.000000
# 3 -0.000915 -0.004650 0.010038 0.000000 0.000000 0.000000
# 4 0.000000 0.000000 0.000000 0.034861 0.000000 0.000000
# 5 0.000000 0.000000 0.000000 0.000000 0.170312 0.000000
# 6 0.000000 0.000000 0.000000 0.000000 0.000000 0.088469
#
#
# Mechanical properties :
#
#
# Convention : Reuss Voigt Hill
#
# Bulk Modulus (GPa) = 27.81545 38.34995 33.08270
# Shear Modulus (GPa) = 13.17414 20.76288 16.96851
#
# Velocity S-wave (km/s) = 2.59774 3.26121 2.94820
# Velocity P-wave (km/s) = 4.82139 5.81592 5.34185
#
# Compressibility (1/GPa) = 0.03595125
#
# Stress axis : x y z
#
# Youngs Moduli (GPa) = 34.29719 63.55882 99.61866
#
# Poissons Ratio (x) = 0.24940 0.09115
# Poissons Ratio (y) = 0.13458 0.46320
# Poissons Ratio (z) = 0.03138 0.29553
#
# Static dielectric constant tensor:
#      x y z
#    x 1.694090 0.000000 0.000000 
#    y 0.000000 1.739310 0.000000 
#    z 0.000000 0.000000 1.684520 
# 
# From -- ./inp_files/9364.got.cif
#   From: 2010.05.17/outbox.cif.g08.bks.cpg/sg59_5_cif.got.tgz:9364.got - 2010.06.03 14:40:33.
