data_PCOD9448429
_publ_section_title
;
Structure prediction by ZEFSAII (Michael W. Deem and Ramdas Pophale) SiO2 
 PCOD9448429
Probable space group: P M M N
;
_chemical_formula_sum "Si O2"
_cell_formula_units_Z 64
_cell_length_a 7.893892
_cell_length_b 19.958870
_cell_length_c 19.803296
_cell_angle_alpha 90.000000
_cell_angle_beta 90.000000
_cell_angle_gamma 90.000000
_cell_volume 3120.071947
_symmetry_space_group_name_H-M "P M M N"
_symmetry_group_IT_number 59
_space_group.IT_coordinate_system_code '2'
_symmetry_cell_setting 'orthorhombic'
loop_
_space_group_symop_operation_xyz
x,y,z
1/2-x,1/2-y,z
1/2+x,-y,-z
-x,1/2+y,-z
-x,-y,-z
1/2+x,1/2+y,-z
1/2-x,y,z
x,1/2-y,z
loop_
_atom_site_type_symbol
_atom_site_label
_atom_site_fract_x
_atom_site_fract_y
_atom_site_fract_z
Si Si1 0.949042 0.416729 0.424665
Si Si2 0.447501 0.068875 0.567200
Si Si3 0.954001 0.828531 0.170719
Si Si4 0.956848 0.826029 0.019631
Si Si5 0.545457 0.173330 0.301306
Si Si6 0.447504 0.576283 0.290744
Si Si7 0.954008 0.549246 0.939009
Si Si8 0.545521 0.551184 0.787625
O O1 0.750000 0.422844 0.409822
O O2 0.019671 0.492895 0.423542
O O3 0.018346 0.365732 0.368746
O O4 0.970022 0.395896 0.502731
O O5 0.250000 0.063463 0.550863
O O6 0.468181 0.100992 0.640465
O O7 0.750000 0.834815 0.174040
O O8 0.995238 0.750000 0.178603
O O9 0.008598 0.848634 0.094962
O O10 0.031464 0.873182 0.228881
O O11 0.750000 0.825326 0.019960
O O12 0.013242 0.750000 0.008977
O O13 0.013377 0.877691 0.963378
O O14 0.750000 0.176552 0.304778
O O15 0.483344 0.250000 0.296439
O O16 0.499393 0.124754 0.239160
O O17 0.250000 0.568059 0.305817
O O18 0.519420 0.505011 0.264610
O O19 0.750000 0.549835 0.935290
O O20 0.016947 0.535252 0.863374
O O21 0.000000 0.500000 0.000000
O O22 0.750000 0.545666 0.788186
#
# Coordination Sequence:
#
# PCOD9448429 Si02
#       8
#     8   8   8   8   8   8   8   8
#     4   9  18  34  54  79 107 136 174 222 271 317
#     4  10  19  32  55  81 104 137 178 219 265 315
#     4   9  18  33  53  76 101 132 174 222 271 326
#     4   8  15  30  52  74  96 130 176 218 260 317
#     4  10  21  38  59  82 111 148 188 228 274 329
#     4  11  21  33  51  77 110 145 179 219 266 321
#     4  10  20  34  53  79 108 140 177 225 277 323
#     4  10  22  36  52  79 113 146 186 228 272 326
#
# _framework density 20.512347999999999
#
# number of rings (size 3 to 8) (size 9 to 14) (size 15 to 20)
#    0.000    2.375    1.250    2.250    0.000    3.000 
#    0.000    1.875    0.000    3.375    0.000    0.000 
#    0.000    0.000    0.000    0.000    0.000    0.000 
#
# Total GULP energy -357073.863351 kJ/mol
# GULP energy per Si atom -5579.279115 kJ/mol
# Density = 2.046566 g / cm^3
# Si number density = 20.512348 Si / 1000 Ang^3
#
#
#
# Elastic Constant Matrix: (Units=GPa)
#
#
# Indices 1 2 3 4 5 6 
#
# 1 21.6636 3.2699 0.9100 0.0000 0.0000 0.0000
# 2 3.2699 43.6721 26.7419 0.0000 0.0000 0.0000
# 3 0.9100 26.7419 117.4108 0.0000 0.0000 0.0000
# 4 0.0000 0.0000 0.0000 31.6668 0.0000 0.0000
# 5 0.0000 0.0000 0.0000 0.0000 16.4054 0.0000
# 6 0.0000 0.0000 0.0000 0.0000 0.0000 17.0370
#
#
#
# Elastic Compliance Matrix: (Units=1/GPa)
#
#
# Indices 1 2 3 4 5 6 
#
# 1 0.046714 -0.003807 0.000505 0.000000 0.000000 0.000000
# 2 -0.003807 0.026919 -0.006102 0.000000 0.000000 0.000000
# 3 0.000505 -0.006102 0.009903 0.000000 0.000000 0.000000
# 4 0.000000 0.000000 0.000000 0.031579 0.000000 0.000000
# 5 0.000000 0.000000 0.000000 0.000000 0.060955 0.000000
# 6 0.000000 0.000000 0.000000 0.000000 0.000000 0.058696
#
#
# Mechanical properties :
#
#
# Convention : Reuss Voigt Hill
#
# Bulk Modulus (GPa) = 15.44904 27.17667 21.31285
# Shear Modulus (GPa) = 18.17194 23.14350 20.65772
#
# Velocity S-wave (km/s) = 2.97964 3.36262 3.17691
# Velocity P-wave (km/s) = 4.40291 5.32484 4.88567
#
# Compressibility (1/GPa) = 0.06472893
#
# Stress axis : x y z
#
# Youngs Moduli (GPa) = 21.40692 37.14814 100.98018
#
# Poissons Ratio (x) = 0.14142 -0.05099
# Poissons Ratio (y) = 0.08149 0.61615
# Poissons Ratio (z) = -0.01081 0.22667
#
# Static dielectric constant tensor:
#      x y z
#    x 1.733310 0.000000 0.000000 
#    y 0.000000 1.735460 0.000000 
#    z 0.000000 0.000000 1.750120 
# 
# From -- ./inp_files/26298.got.cif
#   From: 2010.05.17/outbox.cif.g08.bks.cpg/sg59_14_cif.got.tgz:26298.got - 2010.06.03 14:40:33.
