data_PCOD9448077
_publ_section_title
;
Structure prediction by ZEFSAII (Michael W. Deem and Ramdas Pophale) SiO2 
 PCOD9448077
Probable space group: P M M N
;
_chemical_formula_sum "Si O2"
_cell_formula_units_Z 48
_cell_length_a 26.757921
_cell_length_b 8.580122
_cell_length_c 12.232412
_cell_angle_alpha 90.000000
_cell_angle_beta 90.000000
_cell_angle_gamma 90.000000
_cell_volume 2808.393314
_symmetry_space_group_name_H-M "P M M N"
_symmetry_group_IT_number 59
_space_group.IT_coordinate_system_code '2'
_symmetry_cell_setting 'orthorhombic'
loop_
_space_group_symop_operation_xyz
x,y,z
1/2-x,1/2-y,z
1/2+x,-y,-z
-x,1/2+y,-z
-x,-y,-z
1/2+x,1/2+y,-z
1/2-x,y,z
x,1/2-y,z
loop_
_atom_site_type_symbol
_atom_site_label
_atom_site_fract_x
_atom_site_fract_y
_atom_site_fract_z
Si Si1 0.535985 0.063120 0.353459
Si Si2 0.877712 0.437261 0.512836
Si Si3 0.428094 0.061176 0.288867
Si Si4 0.054023 0.436279 0.038963
Si Si5 0.807882 0.936811 0.327196
Si Si6 0.112073 0.935195 0.840364
O O1 0.532484 0.250000 0.367827
O O2 0.572815 0.003356 0.447195
O O3 0.480213 0.002116 0.342369
O O4 0.565055 0.036168 0.240341
O O5 0.877191 0.250000 0.510660
O O6 0.883649 0.496905 0.636073
O O7 0.832264 0.497735 0.438807
O O8 0.427055 0.250000 0.292569
O O9 0.431373 0.014083 0.162012
O O10 0.049964 0.250000 0.039349
O O11 0.096575 0.489207 0.954294
O O12 0.000000 0.500000 0.000000
O O13 0.750000 0.982392 0.317960
O O14 0.811333 0.750000 0.329142
O O15 0.840534 0.998978 0.225351
O O16 0.117657 0.750000 0.852581
#
# Coordination Sequence:
#
# PCOD9448077 Si02
#       6
#     8   8   8   8   8   8
#     4   8  15  29  46  69 102 138 173 211 252 302
#     4  10  20  32  50  77 106 136 175 219 266 315
#     4  10  19  32  48  69 106 148 183 214 253 307
#     4  11  21  33  51  75 108 151 190 223 261 311
#     4  10  21  38  60  83 105 133 172 218 272 329
#     4  10  19  34  54  79 109 139 179 225 268 314
#
# _framework density 17.091622999999998
#
# number of rings (size 3 to 8) (size 9 to 14) (size 15 to 20)
#    0.000    2.167    1.667    3.500    0.000    2.667 
#    0.000    0.833    0.000    1.000    0.000    7.000 
#    0.000    0.000    0.000    0.000    0.000    0.000 
#
# Total GULP energy -267659.731783 kJ/mol
# GULP energy per Si atom -5576.244412 kJ/mol
# Density = 1.705272 g / cm^3
# Si number density = 17.091623 Si / 1000 Ang^3
#
#
#
# Elastic Constant Matrix: (Units=GPa)
#
#
# Indices 1 2 3 4 5 6 
#
# 1 100.3214 27.7172 50.3874 0.0000 0.0000 0.0000
# 2 27.7172 35.0320 27.9045 0.0000 0.0000 0.0000
# 3 50.3874 27.9045 95.3274 0.0000 0.0000 0.0000
# 4 0.0000 0.0000 0.0000 25.0787 0.0000 0.0000
# 5 0.0000 0.0000 0.0000 0.0000 10.0157 0.0000
# 6 0.0000 0.0000 0.0000 0.0000 0.0000 21.9512
#
#
#
# Elastic Compliance Matrix: (Units=1/GPa)
#
#
# Indices 1 2 3 4 5 6 
#
# 1 0.014831 -0.007159 -0.005743 0.000000 0.000000 0.000000
# 2 -0.007159 0.040681 -0.008124 0.000000 0.000000 0.000000
# 3 -0.005743 -0.008124 0.015904 0.000000 0.000000 0.000000
# 4 0.000000 0.000000 0.000000 0.039874 0.000000 0.000000
# 5 0.000000 0.000000 0.000000 0.000000 0.099843 0.000000
# 6 0.000000 0.000000 0.000000 0.000000 0.000000 0.045556
#
#
# Mechanical properties :
#
#
# Convention : Reuss Voigt Hill
#
# Bulk Modulus (GPa) = 34.05727 49.18877 41.62302
# Shear Modulus (GPa) = 16.20592 19.72057 17.96324
#
# Velocity S-wave (km/s) = 3.08259 3.40047 3.24543
# Velocity P-wave (km/s) = 5.71309 6.65278 6.20076
#
# Compressibility (1/GPa) = 0.02936231
#
# Stress axis : x y z
#
# Youngs Moduli (GPa) = 67.42826 24.58160 62.87686
#
# Poissons Ratio (x) = 0.17598 0.36113
# Poissons Ratio (y) = 0.48272 0.51082
# Poissons Ratio (z) = 0.38727 0.19970
#
# Static dielectric constant tensor:
#      x y z
#    x 1.569200 0.000000 0.000000 
#    y 0.000000 1.579430 0.000000 
#    z 0.000000 0.000000 1.602430 
# 
# From -- ./inp_files/14383.got.cif
#   From: 2010.05.17/outbox.cif.g08.bks.cpg/sg59_8_cif.got.tgz:14383.got - 2010.06.03 14:40:33.
