data_PCOD9448401
_publ_section_title
;
Structure prediction by ZEFSAII (Michael W. Deem and Ramdas Pophale) SiO2 
 PCOD9448401
Probable space group: P M M N
;
_chemical_formula_sum "Si O2"
_cell_formula_units_Z 64
_cell_length_a 19.127255
_cell_length_b 8.793075
_cell_length_c 21.585313
_cell_angle_alpha 90.000000
_cell_angle_beta 90.000000
_cell_angle_gamma 90.000000
_cell_volume 3630.377407
_symmetry_space_group_name_H-M "P M M N"
_symmetry_group_IT_number 59
_space_group.IT_coordinate_system_code '2'
_symmetry_cell_setting 'orthorhombic'
loop_
_space_group_symop_operation_xyz
x,y,z
1/2-x,1/2-y,z
1/2+x,-y,-z
-x,1/2+y,-z
-x,-y,-z
1/2+x,1/2+y,-z
1/2-x,y,z
x,1/2-y,z
loop_
_atom_site_type_symbol
_atom_site_label
_atom_site_fract_x
_atom_site_fract_y
_atom_site_fract_z
Si Si1 0.670793 0.066283 0.372404
Si Si2 0.669352 0.564642 0.118823
Si Si3 0.467921 0.567568 0.561887
Si Si4 0.422894 0.068428 0.998722
Si Si5 0.169203 0.931720 0.105326
Si Si6 0.533650 0.931761 0.693354
Si Si7 0.102317 0.432744 0.750192
Si Si8 0.670266 0.432890 0.749542
O O1 0.750000 0.023588 0.388380
O O2 0.667287 0.250000 0.366590
O O3 0.611870 0.020728 0.422267
O O4 0.648324 0.996095 0.306648
O O5 0.750000 0.513708 0.114075
O O6 0.670379 0.750000 0.118172
O O7 0.622248 0.515113 0.060806
O O8 0.634787 0.519071 0.184087
O O9 0.500000 0.500000 0.500000
O O10 0.469124 0.750000 0.556918
O O11 0.511652 0.524855 0.623390
O O12 0.427784 0.250000 0.995455
O O13 0.500000 0.000000 0.000000
O O14 0.381938 0.018837 0.060103
O O15 0.250000 0.966412 0.089746
O O16 0.159305 0.750000 0.098513
O O17 0.158959 0.968517 0.177717
O O18 0.528520 0.750000 0.698383
O O19 0.475789 0.005765 0.738481
O O20 0.610422 0.988049 0.710253
O O21 0.101608 0.250000 0.747947
O O22 0.750000 0.476719 0.733538
O O23 0.665146 0.250000 0.743248
#
# Coordination Sequence:
#
# PCOD9448401 Si02
#       8
#     8   8   8   8   8   8   8   8
#     4   9  18  34  54  78 110 142 173 217 271 318
#     4   9  19  35  53  74 102 135 171 215 265 315
#     4   9  19  35  54  77 107 143 180 218 261 311
#     4  11  23  37  53  75 104 140 181 225 270 321
#     4   9  19  37  58  78 103 135 174 224 276 324
#     4  10  21  36  54  80 113 143 174 217 267 316
#     4  10  19  32  54  81 106 137 177 218 262 318
#     4   9  19  36  58  82 107 138 179 225 272 323
#
# _framework density 17.629020000000001
#
# number of rings (size 3 to 8) (size 9 to 14) (size 15 to 20)
#    0.000    2.500    0.000    3.375    1.750    4.750 
#    0.000    3.750    0.000    6.750    0.000    0.000 
#    0.000    0.000    0.000    0.000    0.000    0.000 
#
# Total GULP energy -357095.486939 kJ/mol
# GULP energy per Si atom -5579.616983 kJ/mol
# Density = 1.758890 g / cm^3
# Si number density = 17.629020 Si / 1000 Ang^3
#
#
#
# Elastic Constant Matrix: (Units=GPa)
#
#
# Indices 1 2 3 4 5 6 
#
# 1 176.3986 46.2759 98.4678 0.0000 0.0000 0.0000
# 2 46.2759 24.1055 30.1025 0.0000 0.0000 0.0000
# 3 98.4678 30.1025 87.1718 0.0000 0.0000 0.0000
# 4 0.0000 0.0000 0.0000 29.3160 0.0000 0.0000
# 5 0.0000 0.0000 0.0000 0.0000 24.8949 0.0000
# 6 0.0000 0.0000 0.0000 0.0000 0.0000 31.4457
#
#
#
# Elastic Compliance Matrix: (Units=1/GPa)
#
#
# Indices 1 2 3 4 5 6 
#
# 1 0.018455 -0.016520 -0.015142 0.000000 0.000000 0.000000
# 2 -0.016520 0.087725 -0.011633 0.000000 0.000000 0.000000
# 3 -0.015142 -0.011633 0.032593 0.000000 0.000000 0.000000
# 4 0.000000 0.000000 0.000000 0.034111 0.000000 0.000000
# 5 0.000000 0.000000 0.000000 0.000000 0.040169 0.000000
# 6 0.000000 0.000000 0.000000 0.000000 0.000000 0.031801
#
#
# Mechanical properties :
#
#
# Convention : Reuss Voigt Hill
#
# Bulk Modulus (GPa) = 19.16317 70.81871 44.99094
# Shear Modulus (GPa) = 14.33330 24.65329 19.49330
#
# Velocity S-wave (km/s) = 2.85450 3.74364 3.32889
# Velocity P-wave (km/s) = 4.66455 7.67759 6.35230
#
# Compressibility (1/GPa) = 0.05218342
#
# Stress axis : x y z
#
# Youngs Moduli (GPa) = 54.18543 11.39925 30.68158
#
# Poissons Ratio (x) = 0.18831 0.46458
# Poissons Ratio (y) = 0.89513 0.35692
# Poissons Ratio (z) = 0.82047 0.13261
#
# Static dielectric constant tensor:
#      x y z
#    x 1.581650 0.000000 0.000000 
#    y 0.000000 1.596320 0.000000 
#    z 0.000000 0.000000 1.575640 
# 
# From -- ./inp_files/30844.got.cif
#   From: 2010.05.17/outbox.cif.g08.bks.cpg/sg59_16_cif.got.tgz:30844.got - 2010.06.03 14:40:33.
