data_PCOD9448888
_publ_section_title
;
Structure prediction by ZEFSAII (Michael W. Deem and Ramdas Pophale) SiO2 
 PCOD9448888
Probable space group: P M M N
;
_chemical_formula_sum "Si O2"
_cell_formula_units_Z 64
_cell_length_a 18.482561
_cell_length_b 8.593468
_cell_length_c 22.268184
_cell_angle_alpha 90.000000
_cell_angle_beta 90.000000
_cell_angle_gamma 90.000000
_cell_volume 3536.839999
_symmetry_space_group_name_H-M "P M M N"
_symmetry_group_IT_number 59
_space_group.IT_coordinate_system_code '2'
_symmetry_cell_setting 'orthorhombic'
loop_
_space_group_symop_operation_xyz
x,y,z
1/2-x,1/2-y,z
1/2+x,-y,-z
-x,1/2+y,-z
-x,-y,-z
1/2+x,1/2+y,-z
1/2-x,y,z
x,1/2-y,z
loop_
_atom_site_type_symbol
_atom_site_label
_atom_site_fract_x
_atom_site_fract_y
_atom_site_fract_z
Si Si1 0.666483 0.437889 0.268762
Si Si2 0.669440 0.438040 0.871807
Si Si3 0.401139 0.435043 0.246540
Si Si4 0.975563 0.062851 0.936226
Si Si5 0.076127 0.938437 0.612718
Si Si6 0.454259 0.063607 0.812199
Si Si7 0.413693 0.563497 0.375325
Si Si8 0.667057 0.439751 0.503771
O O1 0.750000 0.487081 0.270240
O O2 0.664749 0.250000 0.265445
O O3 0.624351 0.483042 0.329656
O O4 0.621609 0.506362 0.213379
O O5 0.750000 0.487192 0.889714
O O6 0.667300 0.250000 0.869983
O O7 0.650161 0.498399 0.805492
O O8 0.604785 0.489565 0.915794
O O9 0.399023 0.250000 0.246141
O O10 0.481854 0.491080 0.228317
O O11 0.384499 0.497523 0.312622
O O12 0.974969 0.250000 0.939011
O O13 0.028026 0.017984 0.880841
O O14 0.000000 0.000000 0.000000
O O15 0.070143 0.750000 0.612678
O O16 0.117263 0.987895 0.552117
O O17 0.996303 0.008072 0.616992
O O18 0.459660 0.250000 0.807893
O O19 0.412171 0.750000 0.372689
O O20 0.367586 0.511599 0.433050
O O21 0.750000 0.491441 0.497164
O O22 0.667714 0.250000 0.503145
#
# Coordination Sequence:
#
# PCOD9448888 Si02
#       8
#     8   8   8   8   8   8   8   8
#     4  10  20  33  53  82 111 141 179 224 276 328
#     4   9  19  37  59  83 113 147 185 229 276 326
#     4  11  21  34  54  80 109 141 180 226 276 326
#     4   9  19  35  57  84 111 146 186 223 266 317
#     4  10  19  34  56  78 103 138 180 226 274 326
#     4  10  20  36  56  79 110 144 181 221 266 322
#     4  11  21  33  53  79 106 140 182 225 272 332
#     4   9  19  35  53  74 102 139 181 224 273 329
#
# _framework density 18.095248000000002
#
# number of rings (size 3 to 8) (size 9 to 14) (size 15 to 20)
#    0.000    2.125    1.250    3.375    0.000    5.000 
#    0.000    2.500    0.000    6.000    0.000    0.000 
#    0.000    0.000    0.000    0.000    0.000    0.000 
#
# Total GULP energy -357280.013980 kJ/mol
# GULP energy per Si atom -5582.500218 kJ/mol
# Density = 1.805406 g / cm^3
# Si number density = 18.095248 Si / 1000 Ang^3
#
#
#
# Elastic Constant Matrix: (Units=GPa)
#
#
# Indices 1 2 3 4 5 6 
#
# 1 80.4370 14.9028 50.8371 0.0000 0.0000 0.0000
# 2 14.9028 15.9262 19.7212 0.0000 0.0000 0.0000
# 3 50.8371 19.7212 145.4534 0.0000 0.0000 0.0000
# 4 0.0000 0.0000 0.0000 25.6118 0.0000 0.0000
# 5 0.0000 0.0000 0.0000 0.0000 17.5986 0.0000
# 6 0.0000 0.0000 0.0000 0.0000 0.0000 24.8399
#
#
#
# Elastic Compliance Matrix: (Units=1/GPa)
#
#
# Indices 1 2 3 4 5 6 
#
# 1 0.017293 -0.010452 -0.004627 0.000000 0.000000 0.000000
# 2 -0.010452 0.081776 -0.007434 0.000000 0.000000 0.000000
# 3 -0.004627 -0.007434 0.009500 0.000000 0.000000 0.000000
# 4 0.000000 0.000000 0.000000 0.039045 0.000000 0.000000
# 5 0.000000 0.000000 0.000000 0.000000 0.056823 0.000000
# 6 0.000000 0.000000 0.000000 0.000000 0.000000 0.040258
#
#
# Mechanical properties :
#
#
# Convention : Reuss Voigt Hill
#
# Bulk Modulus (GPa) = 15.73756 45.85988 30.79872
# Shear Modulus (GPa) = 16.08222 24.03376 20.05799
#
# Velocity S-wave (km/s) = 2.98443 3.64838 3.33298
# Velocity P-wave (km/s) = 4.53781 6.56857 5.64526
#
# Compressibility (1/GPa) = 0.06354225
#
# Stress axis : x y z
#
# Youngs Moduli (GPa) = 57.82741 12.22846 105.26149
#
# Poissons Ratio (x) = 0.12782 0.48702
# Poissons Ratio (y) = 0.60443 0.78256
# Poissons Ratio (z) = 0.26756 0.09091
#
# Static dielectric constant tensor:
#      x y z
#    x 1.613020 0.000000 0.000000 
#    y 0.000000 1.618820 0.000000 
#    z 0.000000 0.000000 1.604910 
# 
# From -- ./inp_files/30790.got.cif
#   From: 2010.05.17/outbox.cif.g08.bks.cpg/sg59_16_cif.got.tgz:30790.got - 2010.06.03 14:40:33.
