data_PCOD9448068
_publ_section_title
;
Structure prediction by ZEFSAII (Michael W. Deem and Ramdas Pophale) SiO2 
 PCOD9448068
Probable space group: P M M N
;
_chemical_formula_sum "Si O2"
_cell_formula_units_Z 56
_cell_length_a 27.063279
_cell_length_b 9.013054
_cell_length_c 14.706860
_cell_angle_alpha 90.000000
_cell_angle_beta 90.000000
_cell_angle_gamma 90.000000
_cell_volume 3587.338398
_symmetry_space_group_name_H-M "P M M N"
_symmetry_group_IT_number 59
_space_group.IT_coordinate_system_code '2'
_symmetry_cell_setting 'orthorhombic'
loop_
_space_group_symop_operation_xyz
x,y,z
1/2-x,1/2-y,z
1/2+x,-y,-z
-x,1/2+y,-z
-x,-y,-z
1/2+x,1/2+y,-z
1/2-x,y,z
x,1/2-y,z
loop_
_atom_site_type_symbol
_atom_site_label
_atom_site_fract_x
_atom_site_fract_y
_atom_site_fract_z
Si Si1 0.121962 0.074097 0.766907
Si Si2 0.192554 0.571660 0.625825
Si Si3 0.886474 0.074186 0.526797
Si Si4 0.565875 0.425990 0.080510
Si Si5 0.039241 0.573879 0.124293
Si Si6 0.543564 0.424304 0.362624
Si Si7 0.068960 0.425035 0.306160
O O1 0.125564 0.250000 0.772975
O O2 0.168403 0.005881 0.713334
O O3 0.109837 0.002474 0.864229
O O4 0.075272 0.025550 0.704693
O O5 0.250000 0.535327 0.614802
O O6 0.187630 0.750000 0.636335
O O7 0.159622 0.531074 0.537549
O O8 0.883223 0.250000 0.545245
O O9 0.934633 0.049451 0.462834
O O10 0.892887 0.987066 0.620029
O O11 0.565807 0.250000 0.097585
O O12 0.513840 0.493318 0.115596
O O13 0.566286 0.451151 0.972165
O O14 0.031221 0.750000 0.134933
O O15 0.068139 0.508942 0.210164
O O16 0.553914 0.250000 0.341408
O O17 0.485900 0.449365 0.348408
O O18 0.075346 0.250000 0.292215
#
# Coordination Sequence:
#
# PCOD9448068 Si02
#       7
#     8   8   8   8   8   8   8
#     4  11  20  29  48  74  99 128 161 199 244 290
#     4   9  19  37  57  74  95 125 159 198 246 296
#     4   9  18  31  47  67  93 123 160 200 238 285
#     4  10  19  32  47  66  95 129 165 201 239 284
#     4  10  20  31  46  67  93 129 169 205 236 271
#     4   9  18  31  44  62  92 131 167 198 231 276
#     4  11  20  29  44  66  96 133 166 198 237 283
#
# _framework density 15.610458
#
# number of rings (size 3 to 8) (size 9 to 14) (size 15 to 20)
#    0.000    2.143    1.429    3.857    0.000    4.857 
#    0.000    0.000    0.000    0.000    0.000    1.000 
#    0.000    3.429    0.000    0.000    0.000    0.000 
#
# Total GULP energy -312378.778446 kJ/mol
# GULP energy per Si atom -5578.192472 kJ/mol
# Density = 1.557493 g / cm^3
# Si number density = 15.610458 Si / 1000 Ang^3
#
#
#
# Elastic Constant Matrix: (Units=GPa)
#
#
# Indices 1 2 3 4 5 6 
#
# 1 66.6127 39.2526 48.6910 0.0000 0.0000 0.0000
# 2 39.2526 73.5763 65.2083 0.0000 0.0000 0.0000
# 3 48.6910 65.2083 125.1343 0.0000 0.0000 0.0000
# 4 0.0000 0.0000 0.0000 26.5843 0.0000 0.0000
# 5 0.0000 0.0000 0.0000 0.0000 12.9523 0.0000
# 6 0.0000 0.0000 0.0000 0.0000 0.0000 16.0138
#
#
#
# Elastic Compliance Matrix: (Units=1/GPa)
#
#
# Indices 1 2 3 4 5 6 
#
# 1 0.023364 -0.008190 -0.004823 0.000000 0.000000 0.000000
# 2 -0.008190 0.028126 -0.011470 0.000000 0.000000 0.000000
# 3 -0.004823 -0.011470 0.015845 0.000000 0.000000 0.000000
# 4 0.000000 0.000000 0.000000 0.037616 0.000000 0.000000
# 5 0.000000 0.000000 0.000000 0.000000 0.077206 0.000000
# 6 0.000000 0.000000 0.000000 0.000000 0.000000 0.062446
#
#
# Mechanical properties :
#
#
# Convention : Reuss Voigt Hill
#
# Bulk Modulus (GPa) = 54.43942 63.51410 58.97676
# Shear Modulus (GPa) = 16.68377 18.58817 17.63597
#
# Velocity S-wave (km/s) = 3.27273 3.45447 3.36483
# Velocity P-wave (km/s) = 7.01644 7.52903 7.27725
#
# Compressibility (1/GPa) = 0.01836904
#
# Stress axis : x y z
#
# Youngs Moduli (GPa) = 42.80146 35.55452 63.11028
#
# Poissons Ratio (x) = 0.29118 0.30441
# Poissons Ratio (y) = 0.35053 0.72387
# Poissons Ratio (z) = 0.20645 0.40781
#
# Static dielectric constant tensor:
#      x y z
#    x 1.501180 0.000000 0.000000 
#    y 0.000000 1.520410 0.000000 
#    z 0.000000 0.000000 1.538040 
# 
# From -- ./inp_files/24942.got.cif
#   From: 2010.05.17/outbox.cif.g08.bks.cpg/sg59_13_cif.got.tgz:24942.got - 2010.06.03 14:40:33.
