data_PCOD9448014
_publ_section_title
;
Structure prediction by ZEFSAII (Michael W. Deem and Ramdas Pophale) SiO2 
 PCOD9448014
Probable space group: P M M N
;
_chemical_formula_sum "Si O2"
_cell_formula_units_Z 64
_cell_length_a 19.353666
_cell_length_b 9.171292
_cell_length_c 20.418372
_cell_angle_alpha 90.000000
_cell_angle_beta 90.000000
_cell_angle_gamma 90.000000
_cell_volume 3624.222687
_symmetry_space_group_name_H-M "P M M N"
_symmetry_group_IT_number 59
_space_group.IT_coordinate_system_code '2'
_symmetry_cell_setting 'orthorhombic'
loop_
_space_group_symop_operation_xyz
x,y,z
1/2-x,1/2-y,z
1/2+x,-y,-z
-x,1/2+y,-z
-x,-y,-z
1/2+x,1/2+y,-z
1/2-x,y,z
x,1/2-y,z
loop_
_atom_site_type_symbol
_atom_site_label
_atom_site_fract_x
_atom_site_fract_y
_atom_site_fract_z
Si Si1 0.168383 0.426168 0.853765
Si Si2 0.450754 0.423736 0.601427
Si Si3 0.414423 0.079188 0.455164
Si Si4 0.541372 0.920904 0.058199
Si Si5 0.168405 0.588902 0.362002
Si Si6 0.329755 0.081492 0.235733
Si Si7 0.033824 0.085197 0.166701
Si Si8 0.412797 0.579711 0.734548
O O1 0.250000 0.460540 0.862328
O O2 0.162397 0.250000 0.846048
O O3 0.118401 0.466651 0.915731
O O4 0.136746 0.503547 0.788826
O O5 0.455616 0.250000 0.612024
O O6 0.525023 0.492078 0.582592
O O7 0.411416 0.450320 0.532571
O O8 0.417485 0.499393 0.664780
O O9 0.427186 0.250000 0.446497
O O10 0.347137 0.022681 0.419414
O O11 0.544461 0.750000 0.043842
O O12 0.495014 0.960191 0.120899
O O13 0.500000 0.000000 0.000000
O O14 0.250000 0.600085 0.354933
O O15 0.139768 0.750000 0.374984
O O16 0.144445 0.522556 0.293404
O O17 0.250000 0.049768 0.218433
O O18 0.332036 0.250000 0.259025
O O19 0.385008 0.070348 0.178296
O O20 0.019926 0.250000 0.140296
O O21 0.989690 0.076386 0.233533
O O22 0.393695 0.750000 0.726829
#
# Coordination Sequence:
#
# PCOD9448014 Si02
#       8
#     8   8   8   8   8   8   8   8
#     4   9  19  37  59  81 106 138 177 218 259 307
#     4  10  20  33  50  72  98 129 166 211 262 313
#     4  10  20  33  49  69  94 127 168 214 263 314
#     4  10  20  35  57  82 107 137 171 207 249 297
#     4  10  20  32  47  68  94 126 164 206 252 303
#     4   9  17  30  49  72  99 133 171 209 250 297
#     4   9  18  32  50  74 103 133 166 204 244 290
#     4  10  19  31  51  78 105 133 168 212 262 313
#
# _framework density 17.658958999999999
#
# number of rings (size 3 to 8) (size 9 to 14) (size 15 to 20)
#    0.000    2.375    0.000    2.625    0.000    5.000 
#    0.000    1.250    0.000    4.500    0.000    0.000 
#    0.000    0.000    0.000    0.000    0.000    0.000 
#
# Total GULP energy -356342.257256 kJ/mol
# GULP energy per Si atom -5567.847770 kJ/mol
# Density = 1.761877 g / cm^3
# Si number density = 17.658959 Si / 1000 Ang^3
#
#
#
# Elastic Constant Matrix: (Units=GPa)
#
#
# Indices 1 2 3 4 5 6 
#
# 1 84.8279 36.1956 42.6062 0.0000 0.0000 0.0000
# 2 36.1956 50.2397 38.2838 0.0000 0.0000 0.0000
# 3 42.6062 38.2838 73.6784 0.0000 0.0000 0.0000
# 4 0.0000 0.0000 0.0000 33.4780 0.0000 0.0000
# 5 0.0000 0.0000 0.0000 0.0000 19.7237 0.0000
# 6 0.0000 0.0000 0.0000 0.0000 0.0000 23.5557
#
#
#
# Elastic Compliance Matrix: (Units=1/GPa)
#
#
# Indices 1 2 3 4 5 6 
#
# 1 0.018629 -0.008629 -0.006289 0.000000 0.000000 0.000000
# 2 -0.008629 0.036949 -0.014209 0.000000 0.000000 0.000000
# 3 -0.006289 -0.014209 0.024592 0.000000 0.000000 0.000000
# 4 0.000000 0.000000 0.000000 0.029870 0.000000 0.000000
# 5 0.000000 0.000000 0.000000 0.000000 0.050700 0.000000
# 6 0.000000 0.000000 0.000000 0.000000 0.000000 0.042453
#
#
# Mechanical properties :
#
#
# Convention : Reuss Voigt Hill
#
# Bulk Modulus (GPa) = 45.62805 49.21301 47.42053
# Shear Modulus (GPa) = 18.60435 21.46218 20.03326
#
# Velocity S-wave (km/s) = 3.24934 3.49000 3.37182
# Velocity P-wave (km/s) = 6.32236 6.64599 6.48619
#
# Compressibility (1/GPa) = 0.02191634
#
# Stress axis : x y z
#
# Youngs Moduli (GPa) = 53.67858 27.06417 40.66303
#
# Poissons Ratio (x) = 0.23355 0.25573
# Poissons Ratio (y) = 0.46321 0.57778
# Poissons Ratio (z) = 0.33759 0.38455
#
# Static dielectric constant tensor:
#      x y z
#    x 1.642830 0.000000 0.000000 
#    y 0.000000 1.649170 0.000000 
#    z 0.000000 0.000000 1.621600 
# 
# From -- ./inp_files/28146.got.cif
#   From: 2010.05.17/outbox.cif.g08.bks.cpg/sg59_15_cif.got.tgz:28146.got - 2010.06.03 14:40:33.
