data_PCOD9448232
_publ_section_title
;
Structure prediction by ZEFSAII (Michael W. Deem and Ramdas Pophale) SiO2 
 PCOD9448232
Probable space group: P M M N
;
_chemical_formula_sum "Si O2"
_cell_formula_units_Z 56
_cell_length_a 14.763592
_cell_length_b 7.529883
_cell_length_c 23.412039
_cell_angle_alpha 90.000000
_cell_angle_beta 90.000000
_cell_angle_gamma 90.000000
_cell_volume 2602.672371
_symmetry_space_group_name_H-M "P M M N"
_symmetry_group_IT_number 59
_space_group.IT_coordinate_system_code '2'
_symmetry_cell_setting 'orthorhombic'
loop_
_space_group_symop_operation_xyz
x,y,z
1/2-x,1/2-y,z
1/2+x,-y,-z
-x,1/2+y,-z
-x,-y,-z
1/2+x,1/2+y,-z
1/2-x,y,z
x,1/2-y,z
loop_
_atom_site_type_symbol
_atom_site_label
_atom_site_fract_x
_atom_site_fract_y
_atom_site_fract_z
Si Si1 0.854221 0.034481 0.527406
Si Si2 0.851816 0.463999 0.397803
Si Si3 0.353472 0.532649 0.914841
Si Si4 0.021704 0.454336 0.150220
Si Si5 0.644344 0.464350 0.955899
Si Si6 0.351925 0.457719 0.248192
Si Si7 0.455935 0.958668 0.362061
O O1 0.750000 0.990440 0.541853
O O2 0.860221 0.250000 0.525380
O O3 0.871449 0.971875 0.462785
O O4 0.919936 0.968757 0.577109
O O5 0.750000 0.523919 0.382123
O O6 0.849289 0.250000 0.399270
O O7 0.936365 0.515160 0.358984
O O8 0.250000 0.479217 0.904295
O O9 0.355140 0.750000 0.914958
O O10 0.425758 0.467026 0.868965
O O11 0.379306 0.479088 0.979538
O O12 0.002832 0.250000 0.166881
O O13 0.082246 0.457143 0.093088
O O14 0.081029 0.537631 0.200689
O O15 0.750000 0.509395 0.946353
O O16 0.636873 0.250000 0.953161
O O17 0.250000 0.533022 0.249032
O O18 0.342742 0.250000 0.233121
O O19 0.399673 0.466636 0.309445
O O20 0.437136 0.750000 0.361965
#
# Coordination Sequence:
#
# PCOD9448232 Si02
#       7
#     8   8   8   8   8   8   8
#     4   8  15  29  50  77 106 134 166 205 250 302
#     4   9  18  34  55  77 104 137 169 204 250 305
#     4   8  15  29  49  74 102 129 159 199 249 304
#     4  10  19  32  52  74  97 130 172 214 248 283
#     4   9  17  29  47  73 104 133 159 195 250 311
#     4  10  22  38  52  70 100 134 169 211 254 299
#     4  11  21  33  53  78 104 135 171 213 256 298
#
# _framework density 21.516347
#
# number of rings (size 3 to 8) (size 9 to 14) (size 15 to 20)
#    0.000    2.714    0.000    3.857    0.000    2.571 
#    0.000    1.429    0.000    5.571    0.000    0.000 
#    0.000    0.000    0.000    0.000    0.000    0.000 
#
# Total GULP energy -312599.087868 kJ/mol
# GULP energy per Si atom -5582.126569 kJ/mol
# Density = 2.146737 g / cm^3
# Si number density = 21.516347 Si / 1000 Ang^3
#
#
#
# Elastic Constant Matrix: (Units=GPa)
#
#
# Indices 1 2 3 4 5 6 
#
# 1 106.2314 -11.4611 55.1940 0.0000 0.0000 0.0000
# 2 -11.4611 52.4894 -5.7243 0.0000 0.0000 0.0000
# 3 55.1940 -5.7243 53.5518 0.0000 0.0000 0.0000
# 4 0.0000 0.0000 0.0000 545.3690 0.0000 0.0000
# 5 0.0000 0.0000 0.0000 0.0000 29.1249 0.0000
# 6 0.0000 0.0000 0.0000 0.0000 0.0000 7.3892
#
#
#
# Elastic Compliance Matrix: (Units=1/GPa)
#
#
# Indices 1 2 3 4 5 6 
#
# 1 0.020513 0.002199 -0.020907 0.000000 0.000000 0.000000
# 2 0.002199 0.019512 -0.000181 0.000000 0.000000 0.000000
# 3 -0.020907 -0.000181 0.040203 0.000000 0.000000 0.000000
# 4 0.000000 0.000000 0.000000 0.001834 0.000000 0.000000
# 5 0.000000 0.000000 0.000000 0.000000 0.034335 0.000000
# 6 0.000000 0.000000 0.000000 0.000000 0.000000 0.135332
#
#
# Mechanical properties :
#
#
# Convention : Reuss Voigt Hill
#
# Bulk Modulus (GPa) = 23.55727 32.03220 27.79474
# Shear Modulus (GPa) = 16.46597 127.99424 72.23010
#
# Velocity S-wave (km/s) = 2.76937 7.72115 5.80024
# Velocity P-wave (km/s) = 4.60415 9.71637 7.60283
#
# Compressibility (1/GPa) = 0.04244973
#
# Stress axis : x y z
#
# Youngs Moduli (GPa) = 48.74876 51.25074 24.87401
#
# Poissons Ratio (x) = -0.11270 0.52005
# Poissons Ratio (y) = -0.10720 0.00450
# Poissons Ratio (z) = 1.01921 0.00926
#
# Static dielectric constant tensor:
#      x y z
#    x 1.789920 0.000000 0.000000 
#    y 0.000000 1.801130 0.000000 
#    z 0.000000 0.000000 1.754580 
# 
# From -- ./inp_files/29080.got.cif
#   From: 2010.05.17/outbox.cif.g08.bks.cpg/sg59_15_cif.got.tgz:29080.got - 2010.06.03 14:40:33.
