data_PCOD9448492
_publ_section_title
;
Structure prediction by ZEFSAII (Michael W. Deem and Ramdas Pophale) SiO2 
 PCOD9448492
Probable space group: P M M N
;
_chemical_formula_sum "Si O2"
_cell_formula_units_Z 64
_cell_length_a 32.238070
_cell_length_b 7.803597
_cell_length_c 12.565002
_cell_angle_alpha 90.000000
_cell_angle_beta 90.000000
_cell_angle_gamma 90.000000
_cell_volume 3161.014071
_symmetry_space_group_name_H-M "P M M N"
_symmetry_group_IT_number 59
_space_group.IT_coordinate_system_code '2'
_symmetry_cell_setting 'orthorhombic'
loop_
_space_group_symop_operation_xyz
x,y,z
1/2-x,1/2-y,z
1/2+x,-y,-z
-x,1/2+y,-z
-x,-y,-z
1/2+x,1/2+y,-z
1/2-x,y,z
x,1/2-y,z
loop_
_atom_site_type_symbol
_atom_site_label
_atom_site_fract_x
_atom_site_fract_y
_atom_site_fract_z
Si Si1 0.451108 0.543580 0.994903
Si Si2 0.057218 0.951787 0.760222
Si Si3 0.202455 0.959485 0.987114
Si Si4 0.610086 0.543022 0.634378
Si Si5 0.702348 0.043365 0.256299
Si Si6 0.128297 0.051449 0.599369
Si Si7 0.873923 0.454712 0.869553
Si Si8 0.484084 0.456590 0.382472
O O1 0.449337 0.750000 0.000269
O O2 0.418236 0.479328 0.083625
O O3 0.500000 0.500000 0.000000
O O4 0.435262 0.481492 0.878799
O O5 0.049765 0.750000 0.774672
O O6 0.016230 0.025865 0.704521
O O7 0.094492 0.968919 0.677256
O O8 0.250000 0.013576 0.011829
O O9 0.202964 0.750000 0.989156
O O10 0.192586 0.008938 0.865125
O O11 0.165916 0.020002 0.064571
O O12 0.610590 0.750000 0.634597
O O13 0.628530 0.483593 0.521283
O O14 0.630333 0.488014 0.744535
O O15 0.562418 0.481672 0.634789
O O16 0.750000 0.998606 0.276694
O O17 0.698401 0.250000 0.260518
O O18 0.671831 0.966669 0.342355
O O19 0.115994 0.250000 0.592762
O O20 0.874238 0.250000 0.884914
O O21 0.500000 0.500000 0.500000
O O22 0.483403 0.250000 0.375047
#
# Coordination Sequence:
#
# PCOD9448492 Si02
#       8
#     8   8   8   8   8   8   8   8
#     4  10  21  36  53  77 109 143 179 221 271 326
#     4  10  20  34  55  78 103 138 177 221 269 315
#     4   8  15  32  59  86 108 132 168 218 272 320
#     4  10  22  38  52  72 107 147 181 217 267 320
#     4   9  18  35  60  85 109 138 170 211 266 325
#     4  11  22  35  53  78 108 140 175 218 265 314
#     4  10  20  34  55  81 106 138 181 226 267 315
#     4  10  19  33  52  73 100 137 179 221 261 307
#
# _framework density 20.246668
#
# number of rings (size 3 to 8) (size 9 to 14) (size 15 to 20)
#    0.000    2.250    1.250    2.625    0.000    5.750 
#    0.000    2.500    0.000    3.375    0.000    0.000 
#    0.000    0.000    0.000    0.000    0.000    0.000 
#
# Total GULP energy -357166.410724 kJ/mol
# GULP energy per Si atom -5580.725168 kJ/mol
# Density = 2.020059 g / cm^3
# Si number density = 20.246668 Si / 1000 Ang^3
#
#
#
# Elastic Constant Matrix: (Units=GPa)
#
#
# Indices 1 2 3 4 5 6 
#
# 1 98.1262 4.0242 74.8122 0.0000 0.0000 0.0000
# 2 4.0242 20.1052 0.9705 0.0000 0.0000 0.0000
# 3 74.8122 0.9705 150.0059 0.0000 0.0000 0.0000
# 4 0.0000 0.0000 0.0000 15.3832 0.0000 0.0000
# 5 0.0000 0.0000 0.0000 0.0000 37.8083 0.0000
# 6 0.0000 0.0000 0.0000 0.0000 0.0000 18.3547
#
#
#
# Elastic Compliance Matrix: (Units=1/GPa)
#
#
# Indices 1 2 3 4 5 6 
#
# 1 0.016614 -0.002926 -0.008267 0.000000 0.000000 0.000000
# 2 -0.002926 0.050269 0.001134 0.000000 0.000000 0.000000
# 3 -0.008267 0.001134 0.010782 0.000000 0.000000 0.000000
# 4 0.000000 0.000000 0.000000 0.065006 0.000000 0.000000
# 5 0.000000 0.000000 0.000000 0.000000 0.026449 0.000000
# 6 0.000000 0.000000 0.000000 0.000000 0.000000 0.054482
#
#
# Mechanical properties :
#
#
# Convention : Reuss Voigt Hill
#
# Bulk Modulus (GPa) = 17.37700 47.53899 32.45799
# Shear Modulus (GPa) = 19.01847 26.87127 22.94487
#
# Velocity S-wave (km/s) = 3.06819 3.64702 3.37005
# Velocity P-wave (km/s) = 4.59924 6.42380 5.58651
#
# Compressibility (1/GPa) = 0.05754734
#
# Stress axis : x y z
#
# Youngs Moduli (GPa) = 60.19168 19.89279 92.74785
#
# Poissons Ratio (x) = 0.05821 0.76672
# Poissons Ratio (y) = 0.17614 -0.10519
# Poissons Ratio (z) = 0.49759 -0.02256
#
# Static dielectric constant tensor:
#      x y z
#    x 1.769470 0.000000 0.000000 
#    y 0.000000 1.758720 0.000000 
#    z 0.000000 0.000000 1.723010 
# 
# From -- ./inp_files/19285.got.cif
#   From: 2010.05.17/outbox.cif.g08.bks.cpg/sg59_10_cif.got.tgz:19285.got - 2010.06.03 14:40:33.
