data_PCOD9448847
_publ_section_title
;
Structure prediction by ZEFSAII (Michael W. Deem and Ramdas Pophale) SiO2 
 PCOD9448847
Probable space group: P M M N
;
_chemical_formula_sum "Si O2"
_cell_formula_units_Z 48
_cell_length_a 8.746351
_cell_length_b 18.663030
_cell_length_c 14.964817
_cell_angle_alpha 90.000000
_cell_angle_beta 90.000000
_cell_angle_gamma 90.000000
_cell_volume 2442.758125
_symmetry_space_group_name_H-M "P M M N"
_symmetry_group_IT_number 59
_space_group.IT_coordinate_system_code '2'
_symmetry_cell_setting 'orthorhombic'
loop_
_space_group_symop_operation_xyz
x,y,z
1/2-x,1/2-y,z
1/2+x,-y,-z
-x,1/2+y,-z
-x,-y,-z
1/2+x,1/2+y,-z
1/2-x,y,z
x,1/2-y,z
loop_
_atom_site_type_symbol
_atom_site_label
_atom_site_fract_x
_atom_site_fract_y
_atom_site_fract_z
Si Si1 0.064195 0.250000 0.282053
Si Si2 0.935268 0.328742 0.835924
Si Si3 0.567700 0.750000 0.510070
Si Si4 0.075815 0.486181 0.406283
Si Si5 0.433250 0.478866 0.903971
Si Si6 0.072824 0.649209 0.365330
Si Si7 0.436456 0.406258 0.236536
O O1 0.250000 0.250000 0.286192
O O2 0.012591 0.250000 0.386701
O O3 0.020484 0.177187 0.230905
O O4 0.750000 0.336739 0.837404
O O5 0.972347 0.250000 0.875392
O O6 0.983056 0.326524 0.731548
O O7 0.008592 0.399048 0.878969
O O8 0.750000 0.750000 0.513110
O O9 0.513095 0.817578 0.450182
O O10 0.250000 0.464469 0.423228
O O11 0.070022 0.563716 0.360718
O O12 0.011079 0.430389 0.335789
O O13 0.000000 0.500000 0.500000
O O14 0.250000 0.479611 0.904781
O O15 0.494139 0.538305 0.833763
O O16 0.500000 0.500000 0.000000
O O17 0.250000 0.670246 0.375234
O O18 0.250000 0.412732 0.232781
#
# Coordination Sequence:
#
# PCOD9448847 Si02
#       7
#     4   8   4   8   8   8   8
#     4   9  20  37  61  88 121 168 217 265 318 370
#     4  10  20  40  68  94 126 165 203 249 312 377
#     4  11  21  33  53  86 125 166 213 265 306 356
#     4  10  20  33  54  81 118 162 208 255 306 370
#     4  12  26  45  70  98 127 162 208 263 326 388
#     4  10  19  34  54  80 117 166 206 244 308 370
#     4  10  20  41  65  87 122 168 214 266 323 377
#
# _framework density 19.649920999999999
#
# number of rings (size 3 to 8) (size 9 to 14) (size 15 to 20)
#    0.000    1.667    2.500    2.750    0.000    3.667 
#    1.500    2.083    0.000    0.000    0.000    0.000 
#    0.000    0.000    0.000    0.000    0.000    0.000 
#
# Total GULP energy -267816.263618 kJ/mol
# GULP energy per Si atom -5579.505492 kJ/mol
# Density = 1.960520 g / cm^3
# Si number density = 19.649921 Si / 1000 Ang^3
#
#
#
# Elastic Constant Matrix: (Units=GPa)
#
#
# Indices 1 2 3 4 5 6 
#
# 1 57.5092 46.6006 40.5866 0.0000 0.0000 0.0000
# 2 46.6006 169.9843 64.6641 0.0000 0.0000 0.0000
# 3 40.5866 64.6641 110.4693 0.0000 0.0000 0.0000
# 4 0.0000 0.0000 0.0000 -3.5159 0.0000 0.0000
# 5 0.0000 0.0000 0.0000 0.0000 29.5521 0.0000
# 6 0.0000 0.0000 0.0000 0.0000 0.0000 23.8363
#
#
#
# Elastic Compliance Matrix: (Units=1/GPa)
#
#
# Indices 1 2 3 4 5 6 
#
# 1 0.025874 -0.004473 -0.006888 0.000000 0.000000 0.000000
# 2 -0.004473 0.008341 -0.003239 0.000000 0.000000 0.000000
# 3 -0.006888 -0.003239 0.013479 0.000000 0.000000 0.000000
# 4 0.000000 0.000000 0.000000 -0.284423 0.000000 0.000000
# 5 0.000000 0.000000 0.000000 0.000000 0.033839 0.000000
# 6 0.000000 0.000000 0.000000 0.000000 0.000000 0.041953
#
#
# Mechanical properties :
#
#
# Convention : Reuss Voigt Hill
#
# Bulk Modulus (GPa) = 54.07111 71.29615 62.68363
# Shear Modulus (GPa) = -39.81794 22.38194 -8.71800
#
# Velocity S-wave (km/s) = -4.50640 3.37862 -2.10862
# Velocity P-wave (km/s) = 0.70716 7.18206 5.10304
#
# Compressibility (1/GPa) = 0.01849416
#
# Stress axis : x y z
#
# Youngs Moduli (GPa) = 38.64855 119.88316 74.18911
#
# Poissons Ratio (x) = 0.53625 0.51100
# Poissons Ratio (y) = 0.17288 0.24032
# Poissons Ratio (z) = 0.26621 0.38834
#
# Static dielectric constant tensor:
#      x y z
#    x 1.676900 0.000000 0.000000 
#    y 0.000000 1.749630 0.000000 
#    z 0.000000 0.000000 1.689550 
# 
# From -- ./inp_files/20504.got.cif
#   From: 2010.05.17/outbox.cif.g08.bks.cpg/sg59_11_cif.got.tgz:20504.got - 2010.06.03 14:40:33.
