data_PCOD9448052
_publ_section_title
;
Structure prediction by ZEFSAII (Michael W. Deem and Ramdas Pophale) SiO2 
 PCOD9448052
Probable space group: P M M N
;
_chemical_formula_sum "Si O2"
_cell_formula_units_Z 64
_cell_length_a 8.813169
_cell_length_b 20.350646
_cell_length_c 20.499506
_cell_angle_alpha 90.000000
_cell_angle_beta 90.000000
_cell_angle_gamma 90.000000
_cell_volume 3676.661890
_symmetry_space_group_name_H-M "P M M N"
_symmetry_group_IT_number 59
_space_group.IT_coordinate_system_code '2'
_symmetry_cell_setting 'orthorhombic'
loop_
_space_group_symop_operation_xyz
x,y,z
1/2-x,1/2-y,z
1/2+x,-y,-z
-x,1/2+y,-z
-x,-y,-z
1/2+x,1/2+y,-z
1/2-x,y,z
x,1/2-y,z
loop_
_atom_site_type_symbol
_atom_site_label
_atom_site_fract_x
_atom_site_fract_y
_atom_site_fract_z
Si Si1 0.930819 0.413267 0.445414
Si Si2 0.432667 0.325541 0.337757
Si Si3 0.432631 0.825496 0.171752
Si Si4 0.931637 0.083600 0.946355
Si Si5 0.069384 0.553738 0.408909
Si Si6 0.430599 0.943861 0.908884
Si Si7 0.068426 0.068587 0.228091
Si Si8 0.569495 0.571071 0.272435
O O1 0.750000 0.420927 0.437466
O O2 0.962894 0.409863 0.522726
O O3 0.990956 0.353051 0.403170
O O4 0.012083 0.479072 0.419067
O O5 0.250000 0.329320 0.344778
O O6 0.473694 0.250000 0.325022
O O7 0.475767 0.374425 0.278855
O O8 0.250000 0.828457 0.180044
O O9 0.480631 0.750000 0.177481
O O10 0.466599 0.855666 0.100461
O O11 0.507903 0.872780 0.224717
O O12 0.750000 0.070739 0.942420
O O13 0.968768 0.091614 0.022677
O O14 0.016709 0.019186 0.919770
O O15 0.250000 0.553072 0.398145
O O16 0.987109 0.582583 0.346078
O O17 0.250000 0.941858 0.899335
O O18 0.512498 0.917111 0.844949
O O19 0.250000 0.061988 0.228919
O O20 0.997326 0.999261 0.250014
O O21 0.750000 0.568093 0.269798
#
# Coordination Sequence:
#
# PCOD9448052 Si02
#       8
#     8   8   8   8   8   8   8   8
#     4  10  20  34  56  85 112 142 183 231 279 329
#     4  10  22  39  58  80 111 153 194 233 283 342
#     4  10  21  38  59  81 110 151 192 230 282 346
#     4   9  18  33  53  78 109 144 181 225 279 334
#     4  10  20  35  56  83 114 146 182 227 279 334
#     4  10  19  31  52  83 112 140 181 232 278 325
#     4  11  21  35  56  81 112 150 189 233 284 337
#     4  12  23  35  56  86 115 145 188 239 285 331
#
# _framework density 17.407094000000001
#
# number of rings (size 3 to 8) (size 9 to 14) (size 15 to 20)
#    0.000    1.750    2.500    2.625    0.000    3.000 
#    0.000    1.250    0.000    1.500    0.000    0.000 
#    0.000    0.000    0.000    0.000    0.000    0.000 
#
# Total GULP energy -357342.453912 kJ/mol
# GULP energy per Si atom -5583.475842 kJ/mol
# Density = 1.736748 g / cm^3
# Si number density = 17.407094 Si / 1000 Ang^3
#
#
#
# Elastic Constant Matrix: (Units=GPa)
#
#
# Indices 1 2 3 4 5 6 
#
# 1 53.4918 49.8356 56.2574 0.0000 0.0000 0.0000
# 2 49.8356 125.3899 82.8246 0.0000 0.0000 0.0000
# 3 56.2574 82.8246 145.7483 0.0000 0.0000 0.0000
# 4 0.0000 0.0000 0.0000 25.0162 0.0000 0.0000
# 5 0.0000 0.0000 0.0000 0.0000 32.1673 0.0000
# 6 0.0000 0.0000 0.0000 0.0000 0.0000 15.4442
#
#
#
# Elastic Compliance Matrix: (Units=1/GPa)
#
#
# Indices 1 2 3 4 5 6 
#
# 1 0.036099 -0.008235 -0.009254 0.000000 0.000000 0.000000
# 2 -0.008235 0.014646 -0.005144 0.000000 0.000000 0.000000
# 3 -0.009254 -0.005144 0.013357 0.000000 0.000000 0.000000
# 4 0.000000 0.000000 0.000000 0.039974 0.000000 0.000000
# 5 0.000000 0.000000 0.000000 0.000000 0.031087 0.000000
# 6 0.000000 0.000000 0.000000 0.000000 0.000000 0.064749
#
#
# Mechanical properties :
#
#
# Convention : Reuss Voigt Hill
#
# Bulk Modulus (GPa) = 53.09280 78.05167 65.57224
# Shear Modulus (GPa) = 19.88405 23.57303 21.72854
#
# Velocity S-wave (km/s) = 3.38345 3.68396 3.53690
# Velocity P-wave (km/s) = 6.76983 7.93926 7.37775
#
# Compressibility (1/GPa) = 0.01883495
#
# Stress axis : x y z
#
# Youngs Moduli (GPa) = 27.70156 68.27803 74.86867
#
# Poissons Ratio (x) = 0.56224 0.69287
# Poissons Ratio (y) = 0.22811 0.38516
# Poissons Ratio (z) = 0.25636 0.35125
#
# Static dielectric constant tensor:
#      x y z
#    x 1.581680 0.000000 0.000000 
#    y 0.000000 1.560670 0.000000 
#    z 0.000000 0.000000 1.608150 
# 
# From -- ./inp_files/29377.got.cif
#   From: 2010.05.17/outbox.cif.g08.bks.cpg/sg59_15_cif.got.tgz:29377.got - 2010.06.03 14:40:33.
