data_PCOD9448417
_publ_section_title
;
Structure prediction by ZEFSAII (Michael W. Deem and Ramdas Pophale) SiO2 
 PCOD9448417
Probable space group: P M M N
;
_chemical_formula_sum "Si O2"
_cell_formula_units_Z 64
_cell_length_a 16.561786
_cell_length_b 9.423357
_cell_length_c 23.195209
_cell_angle_alpha 90.000000
_cell_angle_beta 90.000000
_cell_angle_gamma 90.000000
_cell_volume 3620.021111
_symmetry_space_group_name_H-M "P M M N"
_symmetry_group_IT_number 59
_space_group.IT_coordinate_system_code '2'
_symmetry_cell_setting 'orthorhombic'
loop_
_space_group_symop_operation_xyz
x,y,z
1/2-x,1/2-y,z
1/2+x,-y,-z
-x,1/2+y,-z
-x,-y,-z
1/2+x,1/2+y,-z
1/2-x,y,z
x,1/2-y,z
loop_
_atom_site_type_symbol
_atom_site_label
_atom_site_fract_x
_atom_site_fract_y
_atom_site_fract_z
Si Si1 0.026508 0.083745 0.943784
Si Si2 0.154613 0.408468 0.249915
Si Si3 0.344300 0.420604 0.644384
Si Si4 0.157992 0.906888 0.885810
Si Si5 0.045872 0.582457 0.180226
Si Si6 0.504447 0.581230 0.439889
Si Si7 0.844383 0.417717 0.635313
Si Si8 0.099472 0.581776 0.758916
O O1 0.028665 0.250000 0.955743
O O2 0.971423 0.059509 0.887117
O O3 0.111244 0.024785 0.920860
O O4 0.000000 0.000000 0.000000
O O5 0.250000 0.395693 0.249229
O O6 0.119149 0.250000 0.245987
O O7 0.128158 0.510304 0.198697
O O8 0.135299 0.486502 0.309677
O O9 0.250000 0.448814 0.626768
O O10 0.350417 0.250000 0.654194
O O11 0.416310 0.458030 0.598912
O O12 0.363174 0.504893 0.703410
O O13 0.250000 0.903978 0.903523
O O14 0.120860 0.750000 0.896160
O O15 0.152945 0.930389 0.817018
O O16 0.041755 0.750000 0.191881
O O17 0.981175 0.499692 0.220303
O O18 0.500000 0.500000 0.500000
O O19 0.511253 0.750000 0.449747
O O20 0.417917 0.556785 0.408631
O O21 0.750000 0.446721 0.617267
O O22 0.846927 0.250000 0.650442
O O23 0.087430 0.750000 0.747824
#
# Coordination Sequence:
#
# PCOD9448417 Si02
#       8
#     8   8   8   8   8   8   8   8
#     4  10  21  36  54  75 100 135 179 221 260 305
#     4  10  20  33  52  81 111 136 169 216 267 316
#     4  10  21  36  53  76 109 145 176 211 261 321
#     4   9  18  33  53  78 108 138 168 208 258 309
#     4  10  20  34  53  77 105 140 178 214 261 320
#     4  10  22  38  54  74 101 135 178 223 265 313
#     4   9  18  34  56  79 104 136 173 216 267 321
#     4  10  19  32  54  83 111 138 171 213 261 311
#
# _framework density 17.679455000000001
#
# number of rings (size 3 to 8) (size 9 to 14) (size 15 to 20)
#    0.000    2.250    0.000    2.625    0.000    6.250 
#    0.000    0.625    0.000    0.750    0.000    0.000 
#    0.000    0.000    0.000    0.000    0.000    0.000 
#
# Total GULP energy -356587.425817 kJ/mol
# GULP energy per Si atom -5571.678528 kJ/mol
# Density = 1.763922 g / cm^3
# Si number density = 17.679455 Si / 1000 Ang^3
#
#
#
# Elastic Constant Matrix: (Units=GPa)
#
#
# Indices 1 2 3 4 5 6 
#
# 1 67.4747 55.4668 71.8451 0.0000 0.0000 0.0000
# 2 55.4668 91.0545 82.2605 0.0000 0.0000 0.0000
# 3 71.8451 82.2605 106.4126 0.0000 0.0000 0.0000
# 4 0.0000 0.0000 0.0000 34.2388 0.0000 0.0000
# 5 0.0000 0.0000 0.0000 0.0000 5.8998 0.0000
# 6 0.0000 0.0000 0.0000 0.0000 0.0000 22.3632
#
#
#
# Elastic Compliance Matrix: (Units=1/GPa)
#
#
# Indices 1 2 3 4 5 6 
#
# 1 0.052721 0.000138 -0.035701 0.000000 0.000000 0.000000
# 2 0.000138 0.036411 -0.028240 0.000000 0.000000 0.000000
# 3 -0.035701 -0.028240 0.055332 0.000000 0.000000 0.000000
# 4 0.000000 0.000000 0.000000 0.029207 0.000000 0.000000
# 5 0.000000 0.000000 0.000000 0.000000 0.169496 0.000000
# 6 0.000000 0.000000 0.000000 0.000000 0.000000 0.044716
#
#
# Mechanical properties :
#
#
# Convention : Reuss Voigt Hill
#
# Bulk Modulus (GPa) = 59.32369 76.00961 67.66665
# Shear Modulus (GPa) = 9.59493 16.19166 12.89329
#
# Velocity S-wave (km/s) = 2.33215 3.02958 2.70345
# Velocity P-wave (km/s) = 6.39374 7.43803 6.93557
#
# Compressibility (1/GPa) = 0.01685667
#
# Stress axis : x y z
#
# Youngs Moduli (GPa) = 18.96791 27.46416 18.07278
#
# Poissons Ratio (x) = -0.00379 0.64522
# Poissons Ratio (y) = -0.00262 0.51038
# Poissons Ratio (z) = 0.67718 0.77559
#
# Static dielectric constant tensor:
#      x y z
#    x 1.664220 0.000000 0.000000 
#    y 0.000000 1.646180 0.000000 
#    z 0.000000 0.000000 1.575570 
# 
# From -- ./inp_files/30727.got.cif
#   From: 2010.05.17/outbox.cif.g08.bks.cpg/sg59_16_cif.got.tgz:30727.got - 2010.06.03 14:40:33.
