data_PCOD9448965
_publ_section_title
;
Structure prediction by ZEFSAII (Michael W. Deem and Ramdas Pophale) SiO2 
 PCOD9448965
Probable space group: P M M N
;
_chemical_formula_sum "Si O2"
_cell_formula_units_Z 56
_cell_length_a 19.480389
_cell_length_b 10.577972
_cell_length_c 12.031844
_cell_angle_alpha 90.000000
_cell_angle_beta 90.000000
_cell_angle_gamma 90.000000
_cell_volume 2479.317983
_symmetry_space_group_name_H-M "P M M N"
_symmetry_group_IT_number 59
_space_group.IT_coordinate_system_code '2'
_symmetry_cell_setting 'orthorhombic'
loop_
_space_group_symop_operation_xyz
x,y,z
1/2-x,1/2-y,z
1/2+x,-y,-z
-x,1/2+y,-z
-x,-y,-z
1/2+x,1/2+y,-z
1/2-x,y,z
x,1/2-y,z
loop_
_atom_site_type_symbol
_atom_site_label
_atom_site_fract_x
_atom_site_fract_y
_atom_site_fract_z
Si Si1 0.326001 0.887312 0.713753
Si Si2 0.499335 0.393054 0.826168
Si Si3 0.330995 0.116292 0.485647
Si Si4 0.346391 0.100006 0.899167
Si Si5 0.947029 0.504636 0.397495
Si Si6 0.829304 0.384971 0.661166
Si Si7 0.644613 0.102750 0.920383
O O1 0.250000 0.886767 0.660125
O O2 0.331810 0.750000 0.772453
O O3 0.327144 0.009078 0.794758
O O4 0.390687 0.895935 0.630737
O O5 0.509575 0.250000 0.785130
O O6 0.428599 0.396920 0.891882
O O7 0.489845 0.475886 0.715678
O O8 0.563159 0.418966 0.905283
O O9 0.250000 0.105459 0.519317
O O10 0.335464 0.250000 0.425617
O O11 0.389022 0.112868 0.580691
O O12 0.354461 0.004508 0.405533
O O13 0.325021 0.250000 0.897884
O O14 0.327340 0.010348 0.003541
O O15 0.000000 0.500000 0.500000
O O16 0.750000 0.377149 0.629025
O O17 0.862736 0.250000 0.634862
O O18 0.830858 0.403971 0.793091
O O19 0.657129 0.250000 0.956977
#
# Coordination Sequence:
#
# PCOD9448965 Si02
#       7
#     8   8   8   8   8   8   8
#     4  10  23  43  64  89 124 165 209 257 310 372
#     4   9  19  35  53  77 112 151 190 236 291 354
#     4  10  21  37  58  85 119 160 203 250 308 369
#     4  10  21  37  59  87 116 150 195 246 302 362
#     4  11  22  37  60  91 123 157 203 259 312 364
#     4   9  19  35  54  78 109 146 190 239 290 348
#     4  10  19  34  57  83 114 154 196 241 298 361
#
# _framework density 22.586856000000001
#
# number of rings (size 3 to 8) (size 9 to 14) (size 15 to 20)
#    0.000    2.143    0.000    2.571    0.000    3.714 
#    0.000    5.714    0.000    0.000    0.000    0.000 
#    0.000    0.000    0.000    0.000    0.000    0.000 
#
# Total GULP energy -311754.564677 kJ/mol
# GULP energy per Si atom -5567.045798 kJ/mol
# Density = 2.253545 g / cm^3
# Si number density = 22.586856 Si / 1000 Ang^3
#
#
#
# Elastic Constant Matrix: (Units=GPa)
#
#
# Indices 1 2 3 4 5 6 
#
# 1 129.9906 28.1077 4.3617 0.0000 0.0000 0.0000
# 2 28.1077 197.5937 72.1833 0.0000 0.0000 0.0000
# 3 4.3617 72.1833 81.9237 0.0000 0.0000 0.0000
# 4 0.0000 0.0000 0.0000 24.2068 0.0000 0.0000
# 5 0.0000 0.0000 0.0000 0.0000 -31.6669 0.0000
# 6 0.0000 0.0000 0.0000 0.0000 0.0000 -21.8484
#
#
#
# Elastic Compliance Matrix: (Units=1/GPa)
#
#
# Indices 1 2 3 4 5 6 
#
# 1 0.007977 -0.001445 0.000848 0.000000 0.000000 0.000000
# 2 -0.001445 0.007725 -0.006729 0.000000 0.000000 0.000000
# 3 0.000848 -0.006729 0.018091 0.000000 0.000000 0.000000
# 4 0.000000 0.000000 0.000000 0.041311 0.000000 0.000000
# 5 0.000000 0.000000 0.000000 0.000000 -0.031579 0.000000
# 6 0.000000 0.000000 0.000000 0.000000 0.000000 -0.045770
#
#
# Mechanical properties :
#
#
# Convention : Reuss Voigt Hill
#
# Bulk Modulus (GPa) = 52.24535 68.75704 60.50119
# Shear Modulus (GPa) = 266.15981 14.46199 140.31090
#
# Velocity S-wave (km/s) = 10.86711 2.53313 7.89021
# Velocity P-wave (km/s) = 13.44024 6.25003 10.48100
#
# Compressibility (1/GPa) = 0.01914046
#
# Stress axis : x y z
#
# Youngs Moduli (GPa) = 125.36430 129.45528 55.27742
#
# Poissons Ratio (x) = 0.18700 -0.04688
# Poissons Ratio (y) = 0.18109 0.37198
# Poissons Ratio (z) = -0.10632 0.87115
#
# Static dielectric constant tensor:
#      x y z
#    x 1.970830 0.000000 0.000000 
#    y 0.000000 1.928840 0.000000 
#    z 0.000000 0.000000 1.862620 
# 
# From -- ./inp_files/24226.got.cif
#   From: 2010.05.17/outbox.cif.g08.bks.cpg/sg59_13_cif.got.tgz:24226.got - 2010.06.03 14:40:33.
