data_PCOD9448760
_publ_section_title
;
Structure prediction by ZEFSAII (Michael W. Deem and Ramdas Pophale) SiO2 
 PCOD9448760
Probable space group: P M M N
;
_chemical_formula_sum "Si O2"
_cell_formula_units_Z 64
_cell_length_a 19.411680
_cell_length_b 14.622257
_cell_length_c 12.233199
_cell_angle_alpha 90.000000
_cell_angle_beta 90.000000
_cell_angle_gamma 90.000000
_cell_volume 3472.302689
_symmetry_space_group_name_H-M "P M M N"
_symmetry_group_IT_number 59
_space_group.IT_coordinate_system_code '2'
_symmetry_cell_setting 'orthorhombic'
loop_
_space_group_symop_operation_xyz
x,y,z
1/2-x,1/2-y,z
1/2+x,-y,-z
-x,1/2+y,-z
-x,-y,-z
1/2+x,1/2+y,-z
1/2-x,y,z
x,1/2-y,z
loop_
_atom_site_type_symbol
_atom_site_label
_atom_site_fract_x
_atom_site_fract_y
_atom_site_fract_z
Si Si1 0.669677 0.042396 0.440037
Si Si2 0.963902 0.642923 0.708119
Si Si3 0.963801 0.144807 0.521584
Si Si4 0.355008 0.646631 0.206768
Si Si5 0.486074 0.354771 0.749399
Si Si6 0.907918 0.476174 0.211267
Si Si7 0.673527 0.539194 0.667783
Si Si8 0.328740 0.646861 0.954039
O O1 0.750000 0.073354 0.435066
O O2 0.610964 0.110257 0.486380
O O3 0.641404 0.021052 0.318768
O O4 0.668087 0.965289 0.535310
O O5 0.963799 0.750000 0.739603
O O6 0.889364 0.596371 0.717165
O O7 0.985985 0.638005 0.580703
O O8 0.024179 0.585681 0.766212
O O9 0.954852 0.250000 0.553385
O O10 0.999338 0.102021 0.628228
O O11 0.335077 0.750000 0.242575
O O12 0.437904 0.644995 0.200125
O O13 0.332114 0.564939 0.285979
O O14 0.329034 0.632256 0.084071
O O15 0.461277 0.250000 0.743160
O O16 0.434348 0.421695 0.809397
O O17 0.869678 0.428814 0.111476
O O18 0.750000 0.573569 0.695757
O O19 0.250000 0.645665 0.915659
O O20 0.356484 0.750000 0.934044
#
# Coordination Sequence:
#
# PCOD9448760 Si02
#       8
#     8   8   8   8   8   8   8   8
#     4  10  20  31  49  80 111 141 178 221 268 317
#     4  10  20  34  52  77 107 147 186 218 258 314
#     4   9  17  31  51  75 110 148 179 215 265 322
#     4  10  20  37  58  82 107 136 177 222 269 323
#     4  10  19  33  56  85 110 138 180 225 272 320
#     4  11  20  36  58  79 110 144 181 220 269 318
#     4  11  21  34  53  79 110 142 176 221 272 318
#     4  10  22  39  58  80 108 143 180 219 267 326
#
# _framework density 18.431573
#
# number of rings (size 3 to 8) (size 9 to 14) (size 15 to 20)
#    0.000    1.875    2.500    1.875    0.000    4.250 
#    0.000    1.250    0.000    2.250    0.000    0.000 
#    0.000    0.000    0.000    0.000    0.000    0.000 
#
# Total GULP energy -356816.445955 kJ/mol
# GULP energy per Si atom -5575.256968 kJ/mol
# Density = 1.838962 g / cm^3
# Si number density = 18.431573 Si / 1000 Ang^3
#
#
#
# Elastic Constant Matrix: (Units=GPa)
#
#
# Indices 1 2 3 4 5 6 
#
# 1 96.2643 39.6502 16.2350 0.0000 0.0000 0.0000
# 2 39.6502 84.2171 19.0606 0.0000 0.0000 0.0000
# 3 16.2350 19.0606 35.5450 0.0000 0.0000 0.0000
# 4 0.0000 0.0000 0.0000 16.5708 0.0000 0.0000
# 5 0.0000 0.0000 0.0000 0.0000 12.3463 0.0000
# 6 0.0000 0.0000 0.0000 0.0000 0.0000 19.8242
#
#
#
# Elastic Compliance Matrix: (Units=1/GPa)
#
#
# Indices 1 2 3 4 5 6 
#
# 1 0.013174 -0.005509 -0.003063 0.000000 0.000000 0.000000
# 2 -0.005509 0.015818 -0.005966 0.000000 0.000000 0.000000
# 3 -0.003063 -0.005966 0.032732 0.000000 0.000000 0.000000
# 4 0.000000 0.000000 0.000000 0.060347 0.000000 0.000000
# 5 0.000000 0.000000 0.000000 0.000000 0.080996 0.000000
# 6 0.000000 0.000000 0.000000 0.000000 0.000000 0.050443
#
#
# Mechanical properties :
#
#
# Convention : Reuss Voigt Hill
#
# Bulk Modulus (GPa) = 30.63030 40.65756 35.64393
# Shear Modulus (GPa) = 17.03761 19.15362 18.09561
#
# Velocity S-wave (km/s) = 3.04364 3.22712 3.13672
# Velocity P-wave (km/s) = 5.38574 5.99936 5.70081
#
# Compressibility (1/GPa) = 0.03264741
#
# Stress axis : x y z
#
# Youngs Moduli (GPa) = 75.90842 63.21869 30.55154
#
# Poissons Ratio (x) = 0.34828 0.09357
# Poissons Ratio (y) = 0.41819 0.18227
# Poissons Ratio (z) = 0.23250 0.37717
#
# Static dielectric constant tensor:
#      x y z
#    x 1.641100 0.000000 0.000000 
#    y 0.000000 1.654540 0.000000 
#    z 0.000000 0.000000 1.641970 
# 
# From -- ./inp_files/17836.got.cif
#   From: 2010.05.17/outbox.cif.g08.bks.cpg/sg59_9_cif.got.tgz:17836.got - 2010.06.03 14:40:33.
