data_PCOD9448412
_publ_section_title
;
Structure prediction by ZEFSAII (Michael W. Deem and Ramdas Pophale) SiO2 
 PCOD9448412
Probable space group: P M M N
;
_chemical_formula_sum "Si O2"
_cell_formula_units_Z 56
_cell_length_a 19.884401
_cell_length_b 14.385701
_cell_length_c 9.818706
_cell_angle_alpha 90.000000
_cell_angle_beta 90.000000
_cell_angle_gamma 90.000000
_cell_volume 2808.651135
_symmetry_space_group_name_H-M "P M M N"
_symmetry_group_IT_number 59
_space_group.IT_coordinate_system_code '2'
_symmetry_cell_setting 'orthorhombic'
loop_
_space_group_symop_operation_xyz
x,y,z
1/2-x,1/2-y,z
1/2+x,-y,-z
-x,1/2+y,-z
-x,-y,-z
1/2+x,1/2+y,-z
1/2-x,y,z
x,1/2-y,z
loop_
_atom_site_type_symbol
_atom_site_label
_atom_site_fract_x
_atom_site_fract_y
_atom_site_fract_z
Si Si1 0.672757 0.538296 0.706410
Si Si2 0.669822 0.641960 0.992076
Si Si3 0.449639 0.412563 0.484426
Si Si4 0.175900 0.858073 0.133993
Si Si5 0.422629 0.056274 0.777891
Si Si6 0.455031 0.649434 0.741399
Si Si7 0.970003 0.355631 0.956968
O O1 0.750000 0.561502 0.669215
O O2 0.657099 0.590239 0.848987
O O3 0.618520 0.563164 0.594321
O O4 0.669353 0.428855 0.741462
O O5 0.750000 0.638519 0.013147
O O6 0.649087 0.750000 0.983868
O O7 0.632655 0.593137 0.117594
O O8 0.500000 0.500000 0.500000
O O9 0.430156 0.386147 0.638069
O O10 0.493251 0.349665 0.383401
O O11 0.250000 0.876849 0.071190
O O12 0.174697 0.750000 0.174487
O O13 0.110174 0.873329 0.042496
O O14 0.492008 0.072790 0.860938
O O15 0.414359 0.947690 0.738085
O O16 0.418675 0.750000 0.744382
O O17 0.492870 0.642542 0.886990
O O18 0.980735 0.250000 0.905393
#
# Coordination Sequence:
#
# PCOD9448412 Si02
#       7
#     8   8   8   8   8   8   8
#     4  10  20  37  59  81 110 148 189 233 282 343
#     4  10  22  40  62  88 115 147 191 242 297 352
#     4  10  22  37  54  81 115 154 193 235 285 340
#     4   9  17  30  52  83 113 140 177 228 280 328
#     4  11  21  36  58  83 114 149 189 236 288 342
#     4  10  21  36  55  80 113 150 188 231 280 339
#     4  10  19  32  54  82 109 143 187 233 282 337
#
# _framework density 19.938396000000001
#
# number of rings (size 3 to 8) (size 9 to 14) (size 15 to 20)
#    0.000    2.000    0.000    4.286    0.000    3.429 
#    0.000    4.286    0.000    3.000    0.000    0.000 
#    0.000    4.571    0.000    0.000    0.000    0.000 
#
# Total GULP energy -312238.304144 kJ/mol
# GULP energy per Si atom -5575.684003 kJ/mol
# Density = 1.989302 g / cm^3
# Si number density = 19.938396 Si / 1000 Ang^3
#
#
#
# Elastic Constant Matrix: (Units=GPa)
#
#
# Indices 1 2 3 4 5 6 
#
# 1 87.1456 23.6094 41.0807 0.0000 0.0000 0.0000
# 2 23.6094 97.7971 27.5714 0.0000 0.0000 0.0000
# 3 41.0807 27.5714 121.7673 0.0000 0.0000 0.0000
# 4 0.0000 0.0000 0.0000 8.9083 0.0000 0.0000
# 5 0.0000 0.0000 0.0000 0.0000 -413.8334 0.0000
# 6 0.0000 0.0000 0.0000 0.0000 0.0000 10.3298
#
#
#
# Elastic Compliance Matrix: (Units=1/GPa)
#
#
# Indices 1 2 3 4 5 6 
#
# 1 0.014075 -0.002200 -0.004250 0.000000 0.000000 0.000000
# 2 -0.002200 0.011266 -0.001809 0.000000 0.000000 0.000000
# 3 -0.004250 -0.001809 0.010056 0.000000 0.000000 0.000000
# 4 0.000000 0.000000 0.000000 0.112255 0.000000 0.000000
# 5 0.000000 0.000000 0.000000 0.000000 -0.002416 0.000000
# 6 0.000000 0.000000 0.000000 0.000000 0.000000 0.096807
#
#
# Mechanical properties :
#
#
# Convention : Reuss Voigt Hill
#
# Bulk Modulus (GPa) = 52.96838 54.58145 53.77492
# Shear Modulus (GPa) = 18.87843 -64.62249 -22.87203
#
# Velocity S-wave (km/s) = 3.08041 -5.69925 -3.39061
# Velocity P-wave (km/s) = 6.26703 3.98423 3.42064
#
# Compressibility (1/GPa) = 0.01887919
#
# Stress axis : x y z
#
# Youngs Moduli (GPa) = 71.05020 88.76095 99.44401
#
# Poissons Ratio (x) = 0.19523 0.42267
# Poissons Ratio (y) = 0.15628 0.17989
# Poissons Ratio (z) = 0.30199 0.16056
#
# Static dielectric constant tensor:
#      x y z
#    x 1.721670 0.000000 0.000000 
#    y 0.000000 1.765780 0.000000 
#    z 0.000000 0.000000 1.711170 
# 
# From -- ./inp_files/11433.got.cif
#   From: 2010.05.17/outbox.cif.g08.bks.cpg/sg59_6_cif.got.tgz:11433.got - 2010.06.03 14:40:33.
