data_PCOD9448506
_publ_section_title
;
Structure prediction by ZEFSAII (Michael W. Deem and Ramdas Pophale) SiO2 
 PCOD9448506
Probable space group: P M M N
;
_chemical_formula_sum "Si O2"
_cell_formula_units_Z 48
_cell_length_a 8.777286
_cell_length_b 26.474873
_cell_length_c 12.080039
_cell_angle_alpha 90.000000
_cell_angle_beta 90.000000
_cell_angle_gamma 90.000000
_cell_volume 2807.129651
_symmetry_space_group_name_H-M "P M M N"
_symmetry_group_IT_number 59
_space_group.IT_coordinate_system_code '2'
_symmetry_cell_setting 'orthorhombic'
loop_
_space_group_symop_operation_xyz
x,y,z
1/2-x,1/2-y,z
1/2+x,-y,-z
-x,1/2+y,-z
-x,-y,-z
1/2+x,1/2+y,-z
1/2-x,y,z
x,1/2-y,z
loop_
_atom_site_type_symbol
_atom_site_label
_atom_site_fract_x
_atom_site_fract_y
_atom_site_fract_z
Si Si1 0.425894 0.887698 0.843869
Si Si2 0.931085 0.428982 0.721128
Si Si3 0.568484 0.883922 0.484472
Si Si4 0.069475 0.053790 0.961025
Si Si5 0.066658 0.690823 0.660293
Si Si6 0.426471 0.967096 0.643778
O O1 0.250000 0.880552 0.879856
O O2 0.527313 0.905118 0.945864
O O3 0.476717 0.839203 0.772436
O O4 0.426822 0.933269 0.754852
O O5 0.750000 0.424886 0.724199
O O6 0.001243 0.387340 0.638789
O O7 0.981533 0.482631 0.669184
O O8 0.998755 0.429589 0.844275
O O9 0.750000 0.885978 0.481840
O O10 0.512047 0.836382 0.556494
O O11 0.502321 0.932292 0.550906
O O12 0.250000 0.047672 0.949676
O O13 0.000000 0.000000 0.000000
O O14 0.250000 0.683778 0.649031
O O15 0.033430 0.750000 0.666121
O O16 0.250000 0.978417 0.615799
#
# Coordination Sequence:
#
# PCOD9448506 Si02
#       6
#     8   8   8   8   8   8
#     4   9  18  33  54  80 110 142 182 226 269 319
#     4  12  23  35  52  74 106 147 188 225 269 323
#     4  11  22  35  52  78 111 142 179 225 274 326
#     4  12  23  35  52  76 110 150 189 226 269 324
#     4   9  19  38  63  86 109 139 178 226 278 329
#     4  10  19  33  52  75 108 145 183 222 264 320
#
# _framework density 17.099318
#
# number of rings (size 3 to 8) (size 9 to 14) (size 15 to 20)
#    0.000    1.500    1.667    6.500    0.000    3.000 
#    0.000    0.000    0.000    1.000    0.000    2.333 
#    0.000    0.000    0.000    0.000    0.000    0.000 
#
# Total GULP energy -268150.961941 kJ/mol
# GULP energy per Si atom -5586.478374 kJ/mol
# Density = 1.706040 g / cm^3
# Si number density = 17.099318 Si / 1000 Ang^3
#
#
#
# Elastic Constant Matrix: (Units=GPa)
#
#
# Indices 1 2 3 4 5 6 
#
# 1 133.7122 42.2119 69.1683 0.0000 0.0000 0.0000
# 2 42.2119 83.8678 57.6377 0.0000 0.0000 0.0000
# 3 69.1683 57.6377 123.9029 0.0000 0.0000 0.0000
# 4 0.0000 0.0000 0.0000 6.2514 0.0000 0.0000
# 5 0.0000 0.0000 0.0000 0.0000 31.0172 0.0000
# 6 0.0000 0.0000 0.0000 0.0000 0.0000 21.5140
#
#
#
# Elastic Compliance Matrix: (Units=1/GPa)
#
#
# Indices 1 2 3 4 5 6 
#
# 1 0.010714 -0.001885 -0.005104 0.000000 0.000000 0.000000
# 2 -0.001885 0.017858 -0.007255 0.000000 0.000000 0.000000
# 3 -0.005104 -0.007255 0.014295 0.000000 0.000000 0.000000
# 4 0.000000 0.000000 0.000000 0.159963 0.000000 0.000000
# 5 0.000000 0.000000 0.000000 0.000000 0.032240 0.000000
# 6 0.000000 0.000000 0.000000 0.000000 0.000000 0.046481
#
#
# Mechanical properties :
#
#
# Convention : Reuss Voigt Hill
#
# Bulk Modulus (GPa) = 69.54521 75.50207 72.52364
# Shear Modulus (GPa) = 15.88138 23.25420 19.56779
#
# Velocity S-wave (km/s) = 3.05088 3.69175 3.38651
# Velocity P-wave (km/s) = 7.29179 7.90082 7.60240
#
# Compressibility (1/GPa) = 0.01437914
#
# Stress axis : x y z
#
# Youngs Moduli (GPa) = 93.33404 55.99660 69.95236
#
# Poissons Ratio (x) = 0.10553 0.35707
# Poissons Ratio (y) = 0.17590 0.50753
# Poissons Ratio (z) = 0.47642 0.40627
#
# Static dielectric constant tensor:
#      x y z
#    x 1.419200 0.000000 0.000000 
#    y 0.000000 1.569620 0.000000 
#    z 0.000000 0.000000 1.595910 
# 
# From -- ./inp_files/14461.got.cif
#   From: 2010.05.17/outbox.cif.g08.bks.cpg/sg59_8_cif.got.tgz:14461.got - 2010.06.03 14:40:33.
