data_PCOD9448704
_publ_section_title
;
Structure prediction by ZEFSAII (Michael W. Deem and Ramdas Pophale) SiO2 
 PCOD9448704
Probable space group: P M M N
;
_chemical_formula_sum "Si O2"
_cell_formula_units_Z 64
_cell_length_a 29.164624
_cell_length_b 7.729853
_cell_length_c 13.386264
_cell_angle_alpha 90.000000
_cell_angle_beta 90.000000
_cell_angle_gamma 90.000000
_cell_volume 3017.776015
_symmetry_space_group_name_H-M "P M M N"
_symmetry_group_IT_number 59
_space_group.IT_coordinate_system_code '2'
_symmetry_cell_setting 'orthorhombic'
loop_
_space_group_symop_operation_xyz
x,y,z
1/2-x,1/2-y,z
1/2+x,-y,-z
-x,1/2+y,-z
-x,-y,-z
1/2+x,1/2+y,-z
1/2-x,y,z
x,1/2-y,z
loop_
_atom_site_type_symbol
_atom_site_label
_atom_site_fract_x
_atom_site_fract_y
_atom_site_fract_z
Si Si1 0.356098 0.548053 0.855316
Si Si2 0.864858 0.037003 0.923979
Si Si3 0.354680 0.040645 0.461791
Si Si4 0.301439 0.045069 0.658271
Si Si5 0.949566 0.542426 0.462911
Si Si6 0.048465 0.039834 0.763723
Si Si7 0.969627 0.457532 0.902951
Si Si8 0.802033 0.043176 0.741121
O O1 0.345269 0.750000 0.856868
O O2 0.328185 0.474309 0.762156
O O3 0.409874 0.523531 0.831823
O O4 0.347766 0.478957 0.966730
O O5 0.865391 0.250000 0.924955
O O6 0.917554 0.978403 0.908998
O O7 0.832361 0.978763 0.834039
O O8 0.354952 0.250000 0.463398
O O9 0.329310 0.977122 0.562585
O O10 0.407458 0.979854 0.469071
O O11 0.327971 0.988777 0.362732
O O12 0.250000 0.972649 0.663892
O O13 0.297812 0.250000 0.641029
O O14 0.946112 0.750000 0.458970
O O15 0.943940 0.479539 0.349221
O O16 0.000000 0.500000 0.500000
O O17 0.049806 0.250000 0.764817
O O18 0.999867 0.982439 0.808775
O O19 0.966716 0.250000 0.896762
O O20 0.000000 0.500000 0.000000
O O21 0.750000 0.974348 0.738998
O O22 0.799064 0.250000 0.753423
#
# Coordination Sequence:
#
# PCOD9448704 Si02
#       8
#     8   8   8   8   8   8   8   8
#     4  11  21  35  58  86 117 150 187 237 286 340
#     4   9  20  37  56  82 117 154 190 232 292 343
#     4  10  21  40  62  84 114 152 189 230 286 347
#     4  10  21  39  62  84 111 147 185 232 292 351
#     4  10  22  38  57  84 117 151 187 228 281 343
#     4  10  20  36  57  79 112 155 193 228 279 346
#     4  10  19  33  55  81 109 146 188 230 272 331
#     4  10  22  40  62  85 111 149 197 246 291 340
#
# _framework density 21.207671999999999
#
# number of rings (size 3 to 8) (size 9 to 14) (size 15 to 20)
#    0.000    2.000    2.500    0.750    1.750    3.000 
#    0.000    3.125    0.000    0.000    0.000    0.000 
#    0.000    0.000    0.000    0.000    0.000    0.000 
#
# Total GULP energy -357440.824720 kJ/mol
# GULP energy per Si atom -5585.012886 kJ/mol
# Density = 2.115940 g / cm^3
# Si number density = 21.207672 Si / 1000 Ang^3
#
#
#
# Elastic Constant Matrix: (Units=GPa)
#
#
# Indices 1 2 3 4 5 6 
#
# 1 174.8666 1.3127 102.8235 0.0000 0.0000 0.0000
# 2 1.3127 27.7175 -1.2833 0.0000 0.0000 0.0000
# 3 102.8235 -1.2833 169.3638 0.0000 0.0000 0.0000
# 4 0.0000 0.0000 0.0000 -139.3545 0.0000 0.0000
# 5 0.0000 0.0000 0.0000 0.0000 22.9838 0.0000
# 6 0.0000 0.0000 0.0000 0.0000 0.0000 16.1764
#
#
#
# Elastic Compliance Matrix: (Units=1/GPa)
#
#
# Indices 1 2 3 4 5 6 
#
# 1 0.008906 -0.000672 -0.005412 0.000000 0.000000 0.000000
# 2 -0.000672 0.036142 0.000682 0.000000 0.000000 0.000000
# 3 -0.005412 0.000682 0.009195 0.000000 0.000000 0.000000
# 4 0.000000 0.000000 0.000000 -0.007176 0.000000 0.000000
# 5 0.000000 0.000000 0.000000 0.000000 0.043509 0.000000
# 6 0.000000 0.000000 0.000000 0.000000 0.000000 0.061818
#
#
# Mechanical properties :
#
#
# Convention : Reuss Voigt Hill
#
# Bulk Modulus (GPa) = 23.02111 64.18373 43.60242
# Shear Modulus (GPa) = 28.14066 -2.09918 13.02074
#
# Velocity S-wave (km/s) = 3.64663 -0.99598 2.48052
# Velocity P-wave (km/s) = 5.34876 5.38586 5.36734
#
# Compressibility (1/GPa) = 0.04343840
#
# Stress axis : x y z
#
# Youngs Moduli (GPa) = 112.28288 27.66882 108.75002
#
# Poissons Ratio (x) = 0.01860 0.58857
# Poissons Ratio (y) = 0.07550 -0.07418
# Poissons Ratio (z) = 0.60769 -0.01887
#
# Static dielectric constant tensor:
#      x y z
#    x 1.763140 0.000000 0.000000 
#    y 0.000000 1.790090 0.000000 
#    z 0.000000 0.000000 1.765680 
# 
# From -- ./inp_files/19277.got.cif
#   From: 2010.05.17/outbox.cif.g08.bks.cpg/sg59_10_cif.got.tgz:19277.got - 2010.06.03 14:40:33.
