data_PCOD9448770
_publ_section_title
;
Structure prediction by ZEFSAII (Michael W. Deem and Ramdas Pophale) SiO2 
 PCOD9448770
Probable space group: P M M N
;
_chemical_formula_sum "Si O2"
_cell_formula_units_Z 64
_cell_length_a 7.532130
_cell_length_b 16.964214
_cell_length_c 22.259691
_cell_angle_alpha 90.000000
_cell_angle_beta 90.000000
_cell_angle_gamma 90.000000
_cell_volume 2844.269084
_symmetry_space_group_name_H-M "P M M N"
_symmetry_group_IT_number 59
_space_group.IT_coordinate_system_code '2'
_symmetry_cell_setting 'orthorhombic'
loop_
_space_group_symop_operation_xyz
x,y,z
1/2-x,1/2-y,z
1/2+x,-y,-z
-x,1/2+y,-z
-x,-y,-z
1/2+x,1/2+y,-z
1/2-x,y,z
x,1/2-y,z
loop_
_atom_site_type_symbol
_atom_site_label
_atom_site_fract_x
_atom_site_fract_y
_atom_site_fract_z
Si Si1 0.965017 0.913248 0.251071
Si Si2 0.540066 0.092014 0.999708
Si Si3 0.542177 0.836610 0.626416
Si Si4 0.034886 0.910217 0.748523
Si Si5 0.041489 0.836876 0.372512
Si Si6 0.962894 0.499899 0.570473
Si Si7 0.960142 0.662256 0.129448
Si Si8 0.533313 0.340592 0.125842
O O1 0.750000 0.914566 0.251765
O O2 0.027816 0.890622 0.184325
O O3 0.024487 0.851790 0.301245
O O4 0.025227 0.001409 0.267267
O O5 0.750000 0.104340 0.000965
O O6 0.468058 0.129052 0.061386
O O7 0.478736 0.128234 0.937049
O O8 0.500000 0.000000 0.000000
O O9 0.750000 0.834535 0.609804
O O10 0.466899 0.750000 0.610548
O O11 0.527814 0.850121 0.697907
O O12 0.466490 0.917462 0.597917
O O13 0.250000 0.908427 0.747965
O O14 0.976298 0.889161 0.815839
O O15 0.250000 0.834614 0.388179
O O16 0.967081 0.750000 0.388030
O O17 0.966682 0.917252 0.402068
O O18 0.750000 0.499864 0.581142
O O19 0.000000 0.500000 0.500000
O O20 0.750000 0.667882 0.140254
O O21 0.036543 0.750000 0.131973
O O22 0.750000 0.344910 0.124824
O O23 0.483883 0.250000 0.133881
#
# Coordination Sequence:
#
# PCOD9448770 Si02
#       8
#     8   8   8   8   8   8   8   8
#     4  10  20  35  57  85 116 151 191 236 288 345
#     4  11  22  37  56  77 106 145 190 238 291 351
#     4  10  21  38  59  84 117 154 188 228 283 339
#     4  10  19  33  57  85 111 143 187 235 281 335
#     4  10  21  38  60  86 117 153 192 238 289 337
#     4  10  22  40  60  85 119 153 189 233 278 334
#     4  10  21  37  56  80 112 147 186 237 292 345
#     4   9  18  33  53  77 105 138 179 230 283 334
#
# _framework density 22.501387000000001
#
# number of rings (size 3 to 8) (size 9 to 14) (size 15 to 20)
#    0.000    2.000    1.250    2.250    0.000    6.250 
#    0.000    2.500    0.000    3.000    0.000    0.000 
#    0.000    0.000    0.000    0.000    0.000    0.000 
#
# Total GULP energy -357486.856086 kJ/mol
# GULP energy per Si atom -5585.732126 kJ/mol
# Density = 2.245017 g / cm^3
# Si number density = 22.501387 Si / 1000 Ang^3
#
#
#
# Elastic Constant Matrix: (Units=GPa)
#
#
# Indices 1 2 3 4 5 6 
#
# 1 56.7619 6.9258 -9.9321 0.0000 0.0000 0.0000
# 2 6.9258 191.4066 58.9710 0.0000 0.0000 0.0000
# 3 -9.9321 58.9710 114.2045 0.0000 0.0000 0.0000
# 4 0.0000 0.0000 0.0000 14.3576 0.0000 0.0000
# 5 0.0000 0.0000 0.0000 0.0000 25.3681 0.0000
# 6 0.0000 0.0000 0.0000 0.0000 0.0000 8.8331
#
#
#
# Elastic Compliance Matrix: (Units=1/GPa)
#
#
# Indices 1 2 3 4 5 6 
#
# 1 0.018183 -0.001362 0.002285 0.000000 0.000000 0.000000
# 2 -0.001362 0.006315 -0.003379 0.000000 0.000000 0.000000
# 3 0.002285 -0.003379 0.010700 0.000000 0.000000 0.000000
# 4 0.000000 0.000000 0.000000 0.069649 0.000000 0.000000
# 5 0.000000 0.000000 0.000000 0.000000 0.039420 0.000000
# 6 0.000000 0.000000 0.000000 0.000000 0.000000 0.113211
#
#
# Mechanical properties :
#
#
# Convention : Reuss Voigt Hill
#
# Bulk Modulus (GPa) = 33.01953 52.70029 42.85991
# Shear Modulus (GPa) = 18.34957 30.13896 24.24427
#
# Velocity S-wave (km/s) = 2.85877 3.66379 3.28602
# Velocity P-wave (km/s) = 5.05995 6.43192 5.78673
#
# Compressibility (1/GPa) = 0.03028511
#
# Stress axis : x y z
#
# Youngs Moduli (GPa) = 54.99534 158.35655 93.45971
#
# Poissons Ratio (x) = 0.21565 -0.21351
# Poissons Ratio (y) = 0.07489 0.31582
# Poissons Ratio (z) = -0.12564 0.53512
#
# Static dielectric constant tensor:
#      x y z
#    x 1.854000 0.000000 0.000000 
#    y 0.000000 1.834390 0.000000 
#    z 0.000000 0.000000 1.810670 
# 
# From -- ./inp_files/29472.got.cif
#   From: 2010.05.17/outbox.cif.g08.bks.cpg/sg59_15_cif.got.tgz:29472.got - 2010.06.03 14:40:33.
