data_PCOD9448338
_publ_section_title
;
Structure prediction by ZEFSAII (Michael W. Deem and Ramdas Pophale) SiO2 
 PCOD9448338
Probable space group: P M M N
;
_chemical_formula_sum "Si O2"
_cell_formula_units_Z 64
_cell_length_a 7.635757
_cell_length_b 15.260890
_cell_length_c 25.259003
_cell_angle_alpha 90.000000
_cell_angle_beta 90.000000
_cell_angle_gamma 90.000000
_cell_volume 2943.392409
_symmetry_space_group_name_H-M "P M M N"
_symmetry_group_IT_number 59
_space_group.IT_coordinate_system_code '2'
_symmetry_cell_setting 'orthorhombic'
loop_
_space_group_symop_operation_xyz
x,y,z
1/2-x,1/2-y,z
1/2+x,-y,-z
-x,1/2+y,-z
-x,-y,-z
1/2+x,1/2+y,-z
1/2-x,y,z
x,1/2-y,z
loop_
_atom_site_type_symbol
_atom_site_label
_atom_site_fract_x
_atom_site_fract_y
_atom_site_fract_z
Si Si1 0.963158 0.150395 0.024976
Si Si2 0.456881 0.158399 0.404585
Si Si3 0.460515 0.847629 0.096156
Si Si4 0.542081 0.401243 0.517244
Si Si5 0.035229 0.651850 0.365058
Si Si6 0.959762 0.461282 0.122569
Si Si7 0.040389 0.849913 0.777808
Si Si8 0.038955 0.024861 0.320537
O O1 0.750000 0.146953 0.023739
O O2 0.009171 0.250000 0.041670
O O3 0.026036 0.078614 0.066864
O O4 0.023410 0.138283 0.964544
O O5 0.250000 0.159113 0.393802
O O6 0.533322 0.250000 0.384532
O O7 0.477792 0.153146 0.467198
O O8 0.526190 0.075086 0.373282
O O9 0.250000 0.843638 0.094680
O O10 0.521278 0.750000 0.113429
O O11 0.505052 0.935371 0.127938
O O12 0.500000 0.500000 0.500000
O O13 0.750000 0.391886 0.519565
O O14 0.477313 0.373556 0.575131
O O15 0.250000 0.652268 0.365621
O O16 0.978044 0.750000 0.352149
O O17 0.977374 0.575207 0.325202
O O18 0.750000 0.451825 0.121872
O O19 0.027391 0.400747 0.170254
O O20 0.250000 0.842916 0.783412
O O21 0.972891 0.750000 0.771670
O O22 0.007646 0.913476 0.728265
O O23 0.250000 0.020135 0.321597
#
# Coordination Sequence:
#
# PCOD9448338 Si02
#       8
#     8   8   8   8   8   8   8   8
#     4   8  14  27  49  76 106 141 178 214 259 317
#     4  10  20  34  52  77 108 139 173 214 262 314
#     4   9  18  32  50  75 108 143 178 216 257 307
#     4  11  20  33  53  78 110 143 176 212 258 314
#     4   9  18  34  56  79 104 136 175 215 254 304
#     4  10  19  32  53  78 104 138 177 219 267 314
#     4  10  22  39  57  79 106 134 170 217 266 317
#     4  10  20  37  58  78 103 137 177 219 264 311
#
# _framework density 21.743615999999999
#
# number of rings (size 3 to 8) (size 9 to 14) (size 15 to 20)
#    0.000    2.375    1.250    2.625    0.000    4.250 
#    0.000    0.625    0.000    6.000    0.000    0.000 
#    0.000    0.000    0.000    0.000    0.000    0.000 
#
# Total GULP energy -357075.627773 kJ/mol
# GULP energy per Si atom -5579.306684 kJ/mol
# Density = 2.169413 g / cm^3
# Si number density = 21.743616 Si / 1000 Ang^3
#
#
#
# Elastic Constant Matrix: (Units=GPa)
#
#
# Indices 1 2 3 4 5 6 
#
# 1 38.3939 6.4574 -0.1870 0.0000 0.0000 0.0000
# 2 6.4574 220.6448 68.0166 0.0000 0.0000 0.0000
# 3 -0.1870 68.0166 68.4197 0.0000 0.0000 0.0000
# 4 0.0000 0.0000 0.0000 25.1842 0.0000 0.0000
# 5 0.0000 0.0000 0.0000 0.0000 7.6483 0.0000
# 6 0.0000 0.0000 0.0000 0.0000 0.0000 13.1917
#
#
#
# Elastic Compliance Matrix: (Units=1/GPa)
#
#
# Indices 1 2 3 4 5 6 
#
# 1 0.026243 -0.001139 0.001204 0.000000 0.000000 0.000000
# 2 -0.001139 0.006584 -0.006548 0.000000 0.000000 0.000000
# 3 0.001204 -0.006548 0.021129 0.000000 0.000000 0.000000
# 4 0.000000 0.000000 0.000000 0.039707 0.000000 0.000000
# 5 0.000000 0.000000 0.000000 0.000000 0.130748 0.000000
# 6 0.000000 0.000000 0.000000 0.000000 0.000000 0.075805
#
#
# Mechanical properties :
#
#
# Convention : Reuss Voigt Hill
#
# Bulk Modulus (GPa) = 24.39660 52.89249 38.64454
# Shear Modulus (GPa) = 15.29766 26.08293 20.69029
#
# Velocity S-wave (km/s) = 2.65532 3.46723 3.08808
# Velocity P-wave (km/s) = 4.54373 6.35667 5.52507
#
# Compressibility (1/GPa) = 0.04098933
#
# Stress axis : x y z
#
# Youngs Moduli (GPa) = 38.10501 151.87941 47.32858
#
# Poissons Ratio (x) = 0.17303 -0.05700
# Poissons Ratio (y) = 0.04341 0.30993
# Poissons Ratio (z) = -0.04589 0.99458
#
# Static dielectric constant tensor:
#      x y z
#    x 1.814120 0.000000 0.000000 
#    y 0.000000 1.836080 0.000000 
#    z 0.000000 0.000000 1.778420 
# 
# From -- ./inp_files/31574.got.cif
#   From: 2010.05.17/outbox.cif.g08.bks.cpg/sg59_16_cif.got.tgz:31574.got - 2010.06.03 14:40:33.
