data_PCOD9448351
_publ_section_title
;
Structure prediction by ZEFSAII (Michael W. Deem and Ramdas Pophale) SiO2 
 PCOD9448351
Probable space group: P M M N
;
_chemical_formula_sum "Si O2"
_cell_formula_units_Z 64
_cell_length_a 16.020102
_cell_length_b 17.946931
_cell_length_c 12.641980
_cell_angle_alpha 90.000000
_cell_angle_beta 90.000000
_cell_angle_gamma 90.000000
_cell_volume 3634.716721
_symmetry_space_group_name_H-M "P M M N"
_symmetry_group_IT_number 59
_space_group.IT_coordinate_system_code '2'
_symmetry_cell_setting 'orthorhombic'
loop_
_space_group_symop_operation_xyz
x,y,z
1/2-x,1/2-y,z
1/2+x,-y,-z
-x,1/2+y,-z
-x,-y,-z
1/2+x,1/2+y,-z
1/2-x,y,z
x,1/2-y,z
loop_
_atom_site_type_symbol
_atom_site_label
_atom_site_fract_x
_atom_site_fract_y
_atom_site_fract_z
Si Si1 0.349955 0.077010 0.399387
Si Si2 0.567928 0.330821 0.685133
Si Si3 0.151488 0.020994 0.826987
Si Si4 0.949915 0.666436 0.109594
Si Si5 0.650680 0.037948 0.404160
Si Si6 0.346999 0.533452 0.221833
Si Si7 0.066202 0.566088 0.999781
Si Si8 0.013538 0.664229 0.551959
O O1 0.250000 0.097042 0.397146
O O2 0.419732 0.139520 0.418191
O O3 0.359364 0.016249 0.494240
O O4 0.375406 0.038101 0.288329
O O5 0.610205 0.250000 0.685403
O O6 0.503545 0.332623 0.782282
O O7 0.631909 0.396711 0.703966
O O8 0.520543 0.339278 0.575306
O O9 0.250000 0.025361 0.837332
O O10 0.113291 0.097922 0.872595
O O11 0.131238 0.007523 0.703701
O O12 0.119094 0.950540 0.895533
O O13 0.916122 0.750000 0.092839
O O14 0.014572 0.641877 0.017191
O O15 0.750000 0.059729 0.400810
O O16 0.585406 0.106460 0.409915
O O17 0.250000 0.524616 0.208768
O O18 0.383646 0.550883 0.107502
O O19 0.000000 0.500000 0.000000
O O20 0.029577 0.750000 0.584347
#
# Coordination Sequence:
#
# PCOD9448351 Si02
#       8
#     8   8   8   8   8   8   8   8
#     4  10  21  35  55  82 109 141 184 234 279 327
#     4   9  18  31  49  78 109 138 175 219 273 327
#     4  10  20  34  55  79 106 143 181 218 262 324
#     4   9  18  33  53  80 108 134 171 224 276 319
#     4  10  21  36  56  83 112 145 186 226 270 329
#     4  10  19  32  53  79 105 137 176 227 278 322
#     4   9  19  33  54  77 103 138 178 220 265 323
#     4  11  22  34  54  78 110 154 185 224 277 329
#
# _framework density 17.607976000000001
#
# number of rings (size 3 to 8) (size 9 to 14) (size 15 to 20)
#    0.000    2.250    1.250    1.500    5.250    1.000 
#    0.000    1.875    0.000    6.375    0.000    1.750 
#    0.000    0.000    0.000    0.000    0.000    0.000 
#
# Total GULP energy -356298.899818 kJ/mol
# GULP energy per Si atom -5567.170310 kJ/mol
# Density = 1.756790 g / cm^3
# Si number density = 17.607976 Si / 1000 Ang^3
#
#
#
# Elastic Constant Matrix: (Units=GPa)
#
#
# Indices 1 2 3 4 5 6 
#
# 1 32.2290 101.8304 115.4347 0.0000 0.0000 0.0000
# 2 101.8304 -310.7820 -621.0784 0.0000 0.0000 0.0000
# 3 115.4347 -621.0784 -973.8231 0.0000 0.0000 0.0000
# 4 0.0000 0.0000 0.0000 20.2193 0.0000 0.0000
# 5 0.0000 0.0000 0.0000 0.0000 20.5316 0.0000
# 6 0.0000 0.0000 0.0000 0.0000 0.0000 14.9330
#
#
#
# Elastic Compliance Matrix: (Units=1/GPa)
#
#
# Indices 1 2 3 4 5 6 
#
# 1 0.027333 -0.009036 0.009003 0.000000 0.000000 0.000000
# 2 -0.009036 0.014707 -0.010451 0.000000 0.000000 0.000000
# 3 0.009003 -0.010451 0.006706 0.000000 0.000000 0.000000
# 4 0.000000 0.000000 0.000000 0.049458 0.000000 0.000000
# 5 0.000000 0.000000 0.000000 0.000000 0.048706 0.000000
# 6 0.000000 0.000000 0.000000 0.000000 0.000000 0.066966
#
#
# Mechanical properties :
#
#
# Convention : Reuss Voigt Hill
#
# Bulk Modulus (GPa) = 36.00093 -228.88917 -96.44412
# Shear Modulus (GPa) = 20.48319 -45.43408 -12.47545
#
# Velocity S-wave (km/s) = 3.41440 -5.08519 -2.66468
# Velocity P-wave (km/s) = 6.00287 12.83561 8.02242
#
# Compressibility (1/GPa) = 0.02777706
#
# Stress axis : x y z
#
# Youngs Moduli (GPa) = 36.58620 67.99307 149.12498
#
# Poissons Ratio (x) = 0.61441 -1.34259
# Poissons Ratio (y) = 0.33061 1.55852
# Poissons Ratio (z) = -0.32939 0.71060
#
# Static dielectric constant tensor:
#      x y z
#    x 1.601840 0.000000 0.000000 
#    y 0.000000 1.639110 0.000000 
#    z 0.000000 0.000000 1.560720 
# 
# From -- ./inp_files/17237.got.cif
#   From: 2010.05.17/outbox.cif.g08.bks.cpg/sg59_9_cif.got.tgz:17237.got - 2010.06.03 14:40:33.
