data_PCOD9448936
_publ_section_title
;
Structure prediction by ZEFSAII (Michael W. Deem and Ramdas Pophale) SiO2 
 PCOD9448936
Probable space group: P M M N
;
_chemical_formula_sum "Si O2"
_cell_formula_units_Z 32
_cell_length_a 8.209827
_cell_length_b 19.652357
_cell_length_c 11.451431
_cell_angle_alpha 90.000000
_cell_angle_beta 90.000000
_cell_angle_gamma 90.000000
_cell_volume 1847.601946
_symmetry_space_group_name_H-M "P M M N"
_symmetry_group_IT_number 59
_space_group.IT_coordinate_system_code '2'
_symmetry_cell_setting 'orthorhombic'
loop_
_space_group_symop_operation_xyz
x,y,z
1/2-x,1/2-y,z
1/2+x,-y,-z
-x,1/2+y,-z
-x,-y,-z
1/2+x,1/2+y,-z
1/2-x,y,z
x,1/2-y,z
loop_
_atom_site_type_symbol
_atom_site_label
_atom_site_fract_x
_atom_site_fract_y
_atom_site_fract_z
Si Si1 0.250000 0.669305 0.691186
Si Si2 0.934066 0.603068 0.576863
Si Si3 0.063115 0.036533 0.662030
Si Si4 0.066477 0.943144 0.088141
Si Si5 0.750000 0.168423 0.035286
O O1 0.250000 0.750000 0.685705
O O2 0.415806 0.643280 0.631712
O O3 0.250000 0.649981 0.828079
O O4 0.750000 0.629066 0.597752
O O5 0.959720 0.593078 0.437813
O O6 0.949422 0.527052 0.630339
O O7 0.250000 0.012340 0.650490
O O8 0.033814 0.060878 0.793154
O O9 0.250000 0.964716 0.121711
O O10 0.096735 0.870757 0.024080
O O11 0.000000 0.000000 0.000000
O O12 0.750000 0.250000 0.020526
#
# Coordination Sequence:
#
# PCOD9448936 Si02
#       5
#     4   8   8   8   4
#     4  11  22  39  61  81 115 157 195 238 286 352
#     4  10  21  35  58  86 116 148 187 239 297 349
#     4  10  19  34  56  86 118 142 186 243 295 342
#     4  10  20  32  57  83 112 151 195 244 285 347
#     4   9  22  39  55  81 118 157 195 242 299 358
#
# _framework density 17.319747
#
# number of rings (size 3 to 8) (size 9 to 14) (size 15 to 20)
#    0.750    1.250    1.250    3.000    3.500    0.500 
#    0.000    3.750    0.000    7.500    0.000    0.000 
#    0.000    0.000    0.000    0.000    0.000    0.000 
#
# Total GULP energy -178206.025787 kJ/mol
# GULP energy per Si atom -5568.938306 kJ/mol
# Density = 1.728033 g / cm^3
# Si number density = 17.319747 Si / 1000 Ang^3
#
#
#
# Elastic Constant Matrix: (Units=GPa)
#
#
# Indices 1 2 3 4 5 6 
#
# 1 86.3177 19.1720 46.2440 0.0000 0.0000 0.0000
# 2 19.1720 50.3894 45.7489 0.0000 0.0000 0.0000
# 3 46.2440 45.7489 146.8591 0.0000 0.0000 0.0000
# 4 0.0000 0.0000 0.0000 21.6513 0.0000 0.0000
# 5 0.0000 0.0000 0.0000 0.0000 34.8233 0.0000
# 6 0.0000 0.0000 0.0000 0.0000 0.0000 20.8206
#
#
#
# Elastic Compliance Matrix: (Units=1/GPa)
#
#
# Indices 1 2 3 4 5 6 
#
# 1 0.014059 -0.001854 -0.003849 0.000000 0.000000 0.000000
# 2 -0.001854 0.027916 -0.008112 0.000000 0.000000 0.000000
# 3 -0.003849 -0.008112 0.010549 0.000000 0.000000 0.000000
# 4 0.000000 0.000000 0.000000 0.046187 0.000000 0.000000
# 5 0.000000 0.000000 0.000000 0.000000 0.028716 0.000000
# 6 0.000000 0.000000 0.000000 0.000000 0.000000 0.048029
#
#
# Mechanical properties :
#
#
# Convention : Reuss Voigt Hill
#
# Bulk Modulus (GPa) = 40.17398 56.21067 48.19233
# Shear Modulus (GPa) = 23.65337 26.95244 25.30291
#
# Velocity S-wave (km/s) = 3.69953 3.94911 3.82636
# Velocity P-wave (km/s) = 6.44163 7.30199 6.88526
#
# Compressibility (1/GPa) = 0.02489173
#
# Stress axis : x y z
#
# Youngs Moduli (GPa) = 71.12741 35.82127 94.79972
#
# Poissons Ratio (x) = 0.06642 0.36493
# Poissons Ratio (y) = 0.13189 0.76906
# Poissons Ratio (z) = 0.27380 0.29060
#
# Static dielectric constant tensor:
#      x y z
#    x 1.620990 0.000000 0.000000 
#    y 0.000000 1.576030 0.000000 
#    z 0.000000 0.000000 1.611860 
# 
# From -- ./inp_files/13767.got.cif
#   From: 2010.05.17/outbox.cif.g08.bks.cpg/sg59_7_cif.got.tgz:13767.got - 2010.06.03 14:40:33.
