data_PCOD9448627
_publ_section_title
;
Structure prediction by ZEFSAII (Michael W. Deem and Ramdas Pophale) SiO2 
 PCOD9448627
Probable space group: P M M N
;
_chemical_formula_sum "Si O2"
_cell_formula_units_Z 64
_cell_length_a 16.269926
_cell_length_b 14.636572
_cell_length_c 11.682517
_cell_angle_alpha 90.000000
_cell_angle_beta 90.000000
_cell_angle_gamma 90.000000
_cell_volume 2782.027206
_symmetry_space_group_name_H-M "P M M N"
_symmetry_group_IT_number 59
_space_group.IT_coordinate_system_code '2'
_symmetry_cell_setting 'orthorhombic'
loop_
_space_group_symop_operation_xyz
x,y,z
1/2-x,1/2-y,z
1/2+x,-y,-z
-x,1/2+y,-z
-x,-y,-z
1/2+x,1/2+y,-z
1/2-x,y,z
x,1/2-y,z
loop_
_atom_site_type_symbol
_atom_site_label
_atom_site_fract_x
_atom_site_fract_y
_atom_site_fract_z
Si Si1 0.115501 0.150928 0.154793
Si Si2 0.510185 0.354162 0.719308
Si Si3 0.664259 0.507764 0.012525
Si Si4 0.348625 0.351109 0.413470
Si Si5 0.347346 0.557804 0.424769
Si Si6 0.151848 0.850270 0.665713
Si Si7 0.540342 0.151767 0.989731
Si Si8 0.345210 0.050972 0.739131
O O1 0.154925 0.250000 0.134144
O O2 0.106616 0.143267 0.290368
O O3 0.032794 0.150271 0.080734
O O4 0.163360 0.067047 0.101419
O O5 0.521744 0.250000 0.680481
O O6 0.584969 0.414205 0.668929
O O7 0.513696 0.354371 0.857398
O O8 0.418968 0.389549 0.688581
O O9 0.750000 0.455933 0.022963
O O10 0.658693 0.570499 0.124906
O O11 0.593073 0.436206 0.011577
O O12 0.250000 0.348075 0.393120
O O13 0.369574 0.250000 0.463974
O O14 0.361967 0.452537 0.464429
O O15 0.250000 0.564967 0.390502
O O16 0.360626 0.624928 0.532377
O O17 0.250000 0.844596 0.683553
O O18 0.116174 0.750000 0.694503
O O19 0.128462 0.944147 0.728955
O O20 0.583895 0.250000 0.003070
O O21 0.250000 0.061895 0.695222
#
# Coordination Sequence:
#
# PCOD9448627 Si02
#       8
#     8   8   8   8   8   8   8   8
#     4  10  19  33  54  79 110 154 198 230 273 337
#     4  11  23  39  60  87 122 160 200 251 301 355
#     4  11  22  35  56  83 114 154 197 245 296 346
#     4   9  18  32  53  85 120 151 190 241 292 348
#     4  10  21  38  63  91 119 154 195 245 310 375
#     4   9  19  40  66  89 117 154 199 251 305 365
#     4  10  22  37  54  79 114 155 193 235 291 352
#     4  10  23  40  60  87 117 157 206 252 300 354
#
# _framework density 23.004807
#
# number of rings (size 3 to 8) (size 9 to 14) (size 15 to 20)
#    0.000    2.000    1.250    1.875    1.750    4.500 
#    0.000    5.000    0.000    2.250    0.000    0.000 
#    0.000    0.000    0.000    0.000    0.000    0.000 
#
# Total GULP energy -357118.481586 kJ/mol
# GULP energy per Si atom -5579.976275 kJ/mol
# Density = 2.295245 g / cm^3
# Si number density = 23.004807 Si / 1000 Ang^3
#
#
#
# Elastic Constant Matrix: (Units=GPa)
#
#
# Indices 1 2 3 4 5 6 
#
# 1 85.6843 48.0814 17.9720 0.0000 0.0000 0.0000
# 2 48.0814 109.6873 8.4744 0.0000 0.0000 0.0000
# 3 17.9720 8.4744 44.6541 0.0000 0.0000 0.0000
# 4 0.0000 0.0000 0.0000 25.2876 0.0000 0.0000
# 5 0.0000 0.0000 0.0000 0.0000 14.2506 0.0000
# 6 0.0000 0.0000 0.0000 0.0000 0.0000 528.1326
#
#
#
# Elastic Compliance Matrix: (Units=1/GPa)
#
#
# Indices 1 2 3 4 5 6 
#
# 1 0.016670 -0.006890 -0.005402 0.000000 0.000000 0.000000
# 2 -0.006890 0.012100 0.000477 0.000000 0.000000 0.000000
# 3 -0.005402 0.000477 0.024478 0.000000 0.000000 0.000000
# 4 0.000000 0.000000 0.000000 0.039545 0.000000 0.000000
# 5 0.000000 0.000000 0.000000 0.000000 0.070173 0.000000
# 6 0.000000 0.000000 0.000000 0.000000 0.000000 0.001893
#
#
# Mechanical properties :
#
#
# Convention : Reuss Voigt Hill
#
# Bulk Modulus (GPa) = 33.76296 43.23126 38.49711
# Shear Modulus (GPa) = 25.20645 124.56735 74.88690
#
# Velocity S-wave (km/s) = 3.31373 7.36654 5.71169
# Velocity P-wave (km/s) = 5.41751 9.54922 7.76328
#
# Compressibility (1/GPa) = 0.02961825
#
# Stress axis : x y z
#
# Youngs Moduli (GPa) = 59.98802 82.64317 40.85312
#
# Poissons Ratio (x) = 0.56941 0.22067
# Poissons Ratio (y) = 0.41332 -0.01947
# Poissons Ratio (z) = 0.32403 -0.03939
#
# Static dielectric constant tensor:
#      x y z
#    x 1.848930 0.000000 0.000000 
#    y 0.000000 1.870660 0.000000 
#    z 0.000000 0.000000 1.900330 
# 
# From -- ./inp_files/17850.got.cif
#   From: 2010.05.17/outbox.cif.g08.bks.cpg/sg59_9_cif.got.tgz:17850.got - 2010.06.03 14:40:33.
