data_PCOD9448988
_publ_section_title
;
Structure prediction by ZEFSAII (Michael W. Deem and Ramdas Pophale) SiO2 
 PCOD9448988
Probable space group: P M M N
;
_chemical_formula_sum "Si O2"
_cell_formula_units_Z 48
_cell_length_a 18.409629
_cell_length_b 8.274117
_cell_length_c 15.963228
_cell_angle_alpha 90.000000
_cell_angle_beta 90.000000
_cell_angle_gamma 90.000000
_cell_volume 2431.573551
_symmetry_space_group_name_H-M "P M M N"
_symmetry_group_IT_number 59
_space_group.IT_coordinate_system_code '2'
_symmetry_cell_setting 'orthorhombic'
loop_
_space_group_symop_operation_xyz
x,y,z
1/2-x,1/2-y,z
1/2+x,-y,-z
-x,1/2+y,-z
-x,-y,-z
1/2+x,1/2+y,-z
1/2-x,y,z
x,1/2-y,z
loop_
_atom_site_type_symbol
_atom_site_label
_atom_site_fract_x
_atom_site_fract_y
_atom_site_fract_z
Si Si1 0.915826 0.056543 0.667039
Si Si2 0.917003 0.443498 0.998449
Si Si3 0.418129 0.554760 0.667661
Si Si4 0.333231 0.443487 0.166846
Si Si5 0.833926 0.052407 0.499027
Si Si6 0.166126 0.947627 0.834339
O O1 0.916021 0.250000 0.665374
O O2 0.874528 0.998597 0.583309
O O3 0.873679 0.001132 0.749719
O O4 0.998504 0.997440 0.668024
O O5 0.916162 0.250000 0.999492
O O6 0.876374 0.500981 0.915186
O O7 0.874713 0.501332 0.081544
O O8 0.000000 0.500000 0.000000
O O9 0.416020 0.750000 0.667794
O O10 0.376803 0.499152 0.583876
O O11 0.376507 0.499232 0.751277
O O12 0.250000 0.503572 0.164942
O O13 0.332035 0.250000 0.167468
O O14 0.750000 0.001083 0.497758
O O15 0.834055 0.250000 0.498900
O O16 0.250000 0.998962 0.833339
O O17 0.165891 0.750000 0.834229
#
# Coordination Sequence:
#
# PCOD9448988 Si02
#       6
#     8   8   8   8   8   8
#     4  11  22  36  56  82 115 152 189 232 283 343
#     4  11  22  37  59  86 118 153 189 232 283 343
#     4  10  19  34  58  84 112 145 183 231 281 333
#     4  11  24  41  60  83 112 148 194 246 295 341
#     4   9  18  33  55  83 112 146 190 235 279 332
#     4   9  18  33  55  82 108 139 182 227 272 327
#
# _framework density 19.740303999999998
#
# number of rings (size 3 to 8) (size 9 to 14) (size 15 to 20)
#    0.000    1.833    0.000    4.500    0.000    6.000 
#    0.000    1.667    0.000    6.000    0.000    0.000 
#    0.000    0.000    0.000    0.000    0.000    0.000 
#
# Total GULP energy -268319.572226 kJ/mol
# GULP energy per Si atom -5589.991088 kJ/mol
# Density = 1.969537 g / cm^3
# Si number density = 19.740304 Si / 1000 Ang^3
#
#
#
# Elastic Constant Matrix: (Units=GPa)
#
#
# Indices 1 2 3 4 5 6 
#
# 1 239.3692 16.2472 148.8021 0.0000 0.0000 0.0000
# 2 16.2472 15.5875 23.0168 0.0000 0.0000 0.0000
# 3 148.8021 23.0168 245.4687 0.0000 0.0000 0.0000
# 4 0.0000 0.0000 0.0000 3.1161 0.0000 0.0000
# 5 0.0000 0.0000 0.0000 0.0000 47.7999 0.0000
# 6 0.0000 0.0000 0.0000 0.0000 0.0000 24.3415
#
#
#
# Elastic Compliance Matrix: (Units=1/GPa)
#
#
# Indices 1 2 3 4 5 6 
#
# 1 0.006722 -0.001148 -0.003967 0.000000 0.000000 0.000000
# 2 -0.001148 0.074660 -0.006304 0.000000 0.000000 0.000000
# 3 -0.003967 -0.006304 0.007070 0.000000 0.000000 0.000000
# 4 0.000000 0.000000 0.000000 0.320910 0.000000 0.000000
# 5 0.000000 0.000000 0.000000 0.000000 0.020921 0.000000
# 6 0.000000 0.000000 0.000000 0.000000 0.000000 0.041082
#
#
# Mechanical properties :
#
#
# Convention : Reuss Voigt Hill
#
# Bulk Modulus (GPa) = 15.24116 97.39530 56.31823
# Shear Modulus (GPa) = 9.68853 35.87544 22.78199
#
# Velocity S-wave (km/s) = 2.21780 4.26769 3.40087
# Velocity P-wave (km/s) = 3.78098 8.58660 6.63421
#
# Compressibility (1/GPa) = 0.06561180
#
# Stress axis : x y z
#
# Youngs Moduli (GPa) = 148.77394 13.39403 141.44824
#
# Poissons Ratio (x) = 0.01538 0.56111
# Poissons Ratio (y) = 0.17086 0.89175
# Poissons Ratio (z) = 0.59018 0.08444
#
# Static dielectric constant tensor:
#      x y z
#    x 1.654480 0.000000 0.000000 
#    y 0.000000 1.694080 0.000000 
#    z 0.000000 0.000000 1.663290 
# 
# From -- ./inp_files/20468.got.cif
#   From: 2010.05.17/outbox.cif.g08.bks.cpg/sg59_11_cif.got.tgz:20468.got - 2010.06.03 14:40:33.
