data_PCOD9448430
_publ_section_title
;
Structure prediction by ZEFSAII (Michael W. Deem and Ramdas Pophale) SiO2 
 PCOD9448430
Probable space group: P M M N
;
_chemical_formula_sum "Si O2"
_cell_formula_units_Z 64
_cell_length_a 19.037837
_cell_length_b 7.544407
_cell_length_c 20.579347
_cell_angle_alpha 90.000000
_cell_angle_beta 90.000000
_cell_angle_gamma 90.000000
_cell_volume 2955.794955
_symmetry_space_group_name_H-M "P M M N"
_symmetry_group_IT_number 59
_space_group.IT_coordinate_system_code '2'
_symmetry_cell_setting 'orthorhombic'
loop_
_space_group_symop_operation_xyz
x,y,z
1/2-x,1/2-y,z
1/2+x,-y,-z
-x,1/2+y,-z
-x,-y,-z
1/2+x,1/2+y,-z
1/2-x,y,z
x,1/2-y,z
loop_
_atom_site_type_symbol
_atom_site_label
_atom_site_fract_x
_atom_site_fract_y
_atom_site_fract_z
Si Si1 0.171253 0.958820 0.891306
Si Si2 0.086162 0.956307 0.637255
Si Si3 0.672223 0.039510 0.713063
Si Si4 0.569456 0.464978 0.600782
Si Si5 0.937131 0.467882 0.217122
Si Si6 0.918952 0.539351 0.983280
Si Si7 0.588252 0.963575 0.837456
Si Si8 0.170199 0.967016 0.516607
O O1 0.250000 0.033636 0.893078
O O2 0.177269 0.750000 0.877819
O O3 0.121034 0.029320 0.834395
O O4 0.131575 0.974344 0.959837
O O5 0.104471 0.750000 0.645925
O O6 0.078716 0.030512 0.709868
O O7 0.142607 0.029953 0.586633
O O8 0.009756 0.967942 0.603875
O O9 0.750000 0.966805 0.700457
O O10 0.675457 0.250000 0.701129
O O11 0.612190 0.972183 0.664490
O O12 0.648594 0.011699 0.786868
O O13 0.565617 0.250000 0.601119
O O14 0.614965 0.520681 0.538663
O O15 0.938498 0.250000 0.217523
O O16 0.013846 0.524952 0.192293
O O17 0.911025 0.750000 0.981815
O O18 0.902837 0.470228 0.910937
O O19 0.000000 0.500000 0.000000
O O20 0.585078 0.750000 0.840417
O O21 0.250000 0.021851 0.502835
O O22 0.169710 0.750000 0.516656
#
# Coordination Sequence:
#
# PCOD9448430 Si02
#       8
#     8   8   8   8   8   8   8   8
#     4  10  21  38  59  83 113 147 182 223 275 329
#     4  10  19  32  55  81 105 135 178 226 262 308
#     4  10  21  35  52  77 107 139 177 217 259 314
#     4  10  19  33  53  76 106 142 176 215 265 317
#     4   9  17  33  54  79 109 139 175 219 267 315
#     4  11  22  37  59  82 109 143 183 225 270 325
#     4  10  20  36  56  77 106 140 174 217 268 321
#     4   9  18  32  51  77 107 139 176 218 265 314
#
# _framework density 21.652381999999999
#
# number of rings (size 3 to 8) (size 9 to 14) (size 15 to 20)
#    0.000    2.125    2.500    1.125    0.000    4.000 
#    0.000    5.625    0.000    2.250    0.000    0.000 
#    0.000    0.000    0.000    0.000    0.000    0.000 
#
# Total GULP energy -357555.539533 kJ/mol
# GULP energy per Si atom -5586.805305 kJ/mol
# Density = 2.160310 g / cm^3
# Si number density = 21.652382 Si / 1000 Ang^3
#
#
#
# Elastic Constant Matrix: (Units=GPa)
#
#
# Indices 1 2 3 4 5 6 
#
# 1 62.8663 -11.8762 9.6702 0.0000 0.0000 0.0000
# 2 -11.8762 50.5860 -8.5772 0.0000 0.0000 0.0000
# 3 9.6702 -8.5772 114.0533 0.0000 0.0000 0.0000
# 4 0.0000 0.0000 0.0000 3.1593 0.0000 0.0000
# 5 0.0000 0.0000 0.0000 0.0000 15.2099 0.0000
# 6 0.0000 0.0000 0.0000 0.0000 0.0000 14.8148
#
#
#
# Elastic Compliance Matrix: (Units=1/GPa)
#
#
# Indices 1 2 3 4 5 6 
#
# 1 0.016791 0.003748 -0.001142 0.000000 0.000000 0.000000
# 2 0.003748 0.020860 0.001251 0.000000 0.000000 0.000000
# 3 -0.001142 0.001251 0.008959 0.000000 0.000000 0.000000
# 4 0.000000 0.000000 0.000000 0.316523 0.000000 0.000000
# 5 0.000000 0.000000 0.000000 0.000000 0.065747 0.000000
# 6 0.000000 0.000000 0.000000 0.000000 0.000000 0.067500
#
#
# Mechanical properties :
#
#
# Convention : Reuss Voigt Hill
#
# Bulk Modulus (GPa) = 18.40779 22.88215 20.64497
# Shear Modulus (GPa) = 9.86636 22.52272 16.19454
#
# Velocity S-wave (km/s) = 2.13696 3.22871 2.73780
# Velocity P-wave (km/s) = 3.82214 4.94877 4.42148
#
# Compressibility (1/GPa) = 0.05432482
#
# Stress axis : x y z
#
# Youngs Moduli (GPa) = 59.55748 47.93766 111.62321
#
# Poissons Ratio (x) = -0.17969 0.12744
# Poissons Ratio (y) = -0.22324 -0.13964
# Poissons Ratio (z) = 0.06800 -0.05997
#
# Static dielectric constant tensor:
#      x y z
#    x 1.745000 0.000000 0.000000 
#    y 0.000000 1.852850 0.000000 
#    z 0.000000 0.000000 1.771240 
# 
# From -- ./inp_files/30821.got.cif
#   From: 2010.05.17/outbox.cif.g08.bks.cpg/sg59_16_cif.got.tgz:30821.got - 2010.06.03 14:40:33.
