data_PCOD9448525
_publ_section_title
;
Structure prediction by ZEFSAII (Michael W. Deem and Ramdas Pophale) SiO2 
 PCOD9448525
Probable space group: P M M N
;
_chemical_formula_sum "Si O2"
_cell_formula_units_Z 64
_cell_length_a 21.285416
_cell_length_b 7.689246
_cell_length_c 19.047898
_cell_angle_alpha 90.000000
_cell_angle_beta 90.000000
_cell_angle_gamma 90.000000
_cell_volume 3117.546605
_symmetry_space_group_name_H-M "P M M N"
_symmetry_group_IT_number 59
_space_group.IT_coordinate_system_code '2'
_symmetry_cell_setting 'orthorhombic'
loop_
_space_group_symop_operation_xyz
x,y,z
1/2-x,1/2-y,z
1/2+x,-y,-z
-x,1/2+y,-z
-x,-y,-z
1/2+x,1/2+y,-z
1/2-x,y,z
x,1/2-y,z
loop_
_atom_site_type_symbol
_atom_site_label
_atom_site_fract_x
_atom_site_fract_y
_atom_site_fract_z
Si Si1 0.320064 0.541071 0.951165
Si Si2 0.060949 0.454445 0.045558
Si Si3 0.820582 0.037328 0.209939
Si Si4 0.820827 0.961947 0.701470
Si Si5 0.437147 0.464268 0.204518
Si Si6 0.941807 0.043734 0.290451
Si Si7 0.178888 0.037632 0.460090
Si Si8 0.060026 0.043081 0.547468
O O1 0.250000 0.478391 0.971338
O O2 0.317642 0.750000 0.949012
O O3 0.332805 0.484198 0.870892
O O4 0.375679 0.494718 0.003336
O O5 0.058531 0.250000 0.055081
O O6 0.060580 0.528091 0.124420
O O7 0.000000 0.500000 0.000000
O O8 0.750000 0.981352 0.229371
O O9 0.820073 0.250000 0.211000
O O10 0.876010 0.974381 0.260133
O O11 0.750000 0.017584 0.719848
O O12 0.820977 0.750000 0.701843
O O13 0.874391 0.019982 0.754682
O O14 0.833708 0.013974 0.620776
O O15 0.436873 0.250000 0.205033
O O16 0.498236 0.523429 0.247676
O O17 0.940715 0.250000 0.277158
O O18 0.948130 0.019009 0.373230
O O19 0.250000 0.983225 0.478746
O O20 0.178513 0.250000 0.461036
O O21 0.123831 0.974981 0.510989
O O22 0.065528 0.250000 0.550151
O O23 0.000000 0.000000 0.500000
#
# Coordination Sequence:
#
# PCOD9448525 Si02
#       8
#     8   8   8   8   8   8   8   8
#     4   9  18  35  58  81 107 141 179 218 264 319
#     4  11  22  35  53  77 106 140 180 224 270 321
#     4   8  15  30  53  77 101 135 176 212 252 310
#     4   8  13  24  44  68  92 119 155 198 241 288
#     4   9  18  31  48  71  98 131 168 208 256 308
#     4  10  19  33  53  74  98 129 170 217 258 299
#     4   8  15  29  50  74  98 126 160 198 241 291
#     4  11  22  35  52  75 104 136 170 208 253 306
#
# _framework density 20.528963000000001
#
# number of rings (size 3 to 8) (size 9 to 14) (size 15 to 20)
#    0.000    2.750    0.000    3.750    0.000    5.250 
#    0.000    4.375    0.000    1.875    0.000    0.000 
#    0.000    0.000    0.000    0.000    0.000    0.000 
#
# Total GULP energy -357198.662472 kJ/mol
# GULP energy per Si atom -5581.229101 kJ/mol
# Density = 2.048224 g / cm^3
# Si number density = 20.528963 Si / 1000 Ang^3
#
#
#
# Elastic Constant Matrix: (Units=GPa)
#
#
# Indices 1 2 3 4 5 6 
#
# 1 187.1056 -0.7792 124.3273 0.0000 0.0000 0.0000
# 2 -0.7792 29.6419 -7.0629 0.0000 0.0000 0.0000
# 3 124.3273 -7.0629 146.6724 0.0000 0.0000 0.0000
# 4 0.0000 0.0000 0.0000 17.7046 0.0000 0.0000
# 5 0.0000 0.0000 0.0000 0.0000 43.4109 0.0000
# 6 0.0000 0.0000 0.0000 0.0000 0.0000 5.8594
#
#
#
# Elastic Compliance Matrix: (Units=1/GPa)
#
#
# Indices 1 2 3 4 5 6 
#
# 1 0.012377 -0.002200 -0.010597 0.000000 0.000000 0.000000
# 2 -0.002200 0.034519 0.003527 0.000000 0.000000 0.000000
# 3 -0.010597 0.003527 0.015971 0.000000 0.000000 0.000000
# 4 0.000000 0.000000 0.000000 0.056483 0.000000 0.000000
# 5 0.000000 0.000000 0.000000 0.000000 0.023036 0.000000
# 6 0.000000 0.000000 0.000000 0.000000 0.000000 0.170667
#
#
# Mechanical properties :
#
#
# Convention : Reuss Voigt Hill
#
# Bulk Modulus (GPa) = 22.56026 66.26558 44.41292
# Shear Modulus (GPa) = 14.43553 29.85728 22.14640
#
# Velocity S-wave (km/s) = 2.65463 3.81779 3.28805
# Velocity P-wave (km/s) = 4.51768 7.19606 6.00802
#
# Compressibility (1/GPa) = 0.04432574
#
# Stress axis : x y z
#
# Youngs Moduli (GPa) = 80.79375 28.96988 62.61452
#
# Poissons Ratio (x) = 0.06373 0.66356
# Poissons Ratio (y) = 0.17772 -0.22083
# Poissons Ratio (z) = 0.85621 -0.10217
#
# Static dielectric constant tensor:
#      x y z
#    x 2.221930 0.000000 0.000000 
#    y 0.000000 1.776000 0.000000 
#    z 0.000000 0.000000 1.690750 
# 
# From -- ./inp_files/28211.got.cif
#   From: 2010.05.17/outbox.cif.g08.bks.cpg/sg59_15_cif.got.tgz:28211.got - 2010.06.03 14:40:33.
