data_PCOD9448415
_publ_section_title
;
Structure prediction by ZEFSAII (Michael W. Deem and Ramdas Pophale) SiO2 
 PCOD9448415
Probable space group: P M M N
;
_chemical_formula_sum "Si O2"
_cell_formula_units_Z 36
_cell_length_a 21.819937
_cell_length_b 9.969714
_cell_length_c 8.780404
_cell_angle_alpha 90.000000
_cell_angle_beta 90.000000
_cell_angle_gamma 90.000000
_cell_volume 1910.076191
_symmetry_space_group_name_H-M "P M M N"
_symmetry_group_IT_number 59
_space_group.IT_coordinate_system_code '2'
_symmetry_cell_setting 'orthorhombic'
loop_
_space_group_symop_operation_xyz
x,y,z
1/2-x,1/2-y,z
1/2+x,-y,-z
-x,1/2+y,-z
-x,-y,-z
1/2+x,1/2+y,-z
1/2-x,y,z
x,1/2-y,z
loop_
_atom_site_type_symbol
_atom_site_label
_atom_site_fract_x
_atom_site_fract_y
_atom_site_fract_z
Si Si1 0.607952 0.250000 0.109170
Si Si2 0.354526 0.750000 0.548120
Si Si3 0.099819 0.976196 0.125882
Si Si4 0.533943 0.250000 0.679749
Si Si5 0.588096 0.750000 0.502769
Si Si6 0.319111 0.472106 0.412246
Si Si7 0.962127 0.750000 0.849245
O O1 0.639449 0.250000 0.271734
O O2 0.534610 0.250000 0.132747
O O3 0.622151 0.117298 0.010994
O O4 0.421675 0.750000 0.467725
O O5 0.321866 0.617816 0.487069
O O6 0.053193 0.880738 0.222594
O O7 0.154674 0.013005 0.241089
O O8 0.066419 0.114021 0.081973
O O9 0.464464 0.250000 0.623604
O O10 0.632515 0.878009 0.500879
O O11 0.555954 0.750000 0.669862
O O12 0.250000 0.419856 0.413468
#
# Coordination Sequence:
#
# PCOD9448415 Si02
#       7
#     4   4   8   4   4   8   4
#     4  11  20  35  50  84 113 141 177 218 276 331
#     4  10  21  33  58  80 113 142 173 228 280 321
#     4   9  21  35  56  81 110 149 183 218 276 323
#     4   9  18  35  53  86 110 137 175 221 278 340
#     4  10  20  33  61  84 107 140 180 227 286 322
#     4  10  21  39  57  79 106 144 190 230 264 323
#     4  10  19  32  54  82 115 142 173 224 268 336
#
# _framework density 18.847415000000002
#
# number of rings (size 3 to 8) (size 9 to 14) (size 15 to 20)
#    0.000    2.222    1.111    2.000    3.111    2.667 
#    0.000    2.222    0.000    0.000    0.000    3.111 
#    0.000    0.000    0.000    0.000    0.000    0.000 
#
# Total GULP energy -201019.050226 kJ/mol
# GULP energy per Si atom -5583.862506 kJ/mol
# Density = 1.880452 g / cm^3
# Si number density = 18.847415 Si / 1000 Ang^3
#
#
#
# Elastic Constant Matrix: (Units=GPa)
#
#
# Indices 1 2 3 4 5 6 
#
# 1 101.4461 12.1680 10.4051 0.0000 0.0000 0.0000
# 2 12.1680 98.9920 3.7607 0.0000 0.0000 0.0000
# 3 10.4051 3.7607 49.5382 0.0000 0.0000 0.0000
# 4 0.0000 0.0000 0.0000 16.1968 0.0000 0.0000
# 5 0.0000 0.0000 0.0000 0.0000 10.4392 0.0000
# 6 0.0000 0.0000 0.0000 0.0000 0.0000 -30.0680
#
#
#
# Elastic Compliance Matrix: (Units=1/GPa)
#
#
# Indices 1 2 3 4 5 6 
#
# 1 0.010209 -0.001177 -0.002055 0.000000 0.000000 0.000000
# 2 -0.001177 0.010267 -0.000532 0.000000 0.000000 0.000000
# 3 -0.002055 -0.000532 0.020659 0.000000 0.000000 0.000000
# 4 0.000000 0.000000 0.000000 0.061741 0.000000 0.000000
# 5 0.000000 0.000000 0.000000 0.000000 0.095792 0.000000
# 6 0.000000 0.000000 0.000000 0.000000 0.000000 -0.033258
#
#
# Mechanical properties :
#
#
# Convention : Reuss Voigt Hill
#
# Bulk Modulus (GPa) = 29.75627 33.62709 31.69168
# Shear Modulus (GPa) = 27.15322 14.22311 20.68817
#
# Velocity S-wave (km/s) = 3.79976 2.75006 3.31670
# Velocity P-wave (km/s) = 5.92226 5.28812 5.61415
#
# Compressibility (1/GPa) = 0.03360636
#
# Stress axis : x y z
#
# Youngs Moduli (GPa) = 97.94904 97.40229 48.40621
#
# Poissons Ratio (x) = 0.11463 0.09948
# Poissons Ratio (y) = 0.11527 0.02576
# Poissons Ratio (z) = 0.20129 0.05184
#
# Static dielectric constant tensor:
#      x y z
#    x 1.635110 0.000000 0.000000 
#    y 0.000000 1.664850 0.000000 
#    z 0.000000 0.000000 1.644740 
# 
# From -- ./inp_files/11109.got.cif
#   From: 2010.05.17/outbox.cif.g08.bks.cpg/sg59_6_cif.got.tgz:11109.got - 2010.06.03 14:40:33.
