data_PCOD9448453
_publ_section_title
;
Structure prediction by ZEFSAII (Michael W. Deem and Ramdas Pophale) SiO2 
 PCOD9448453
Probable space group: P M M N
;
_chemical_formula_sum "Si O2"
_cell_formula_units_Z 40
_cell_length_a 15.858710
_cell_length_b 8.801674
_cell_length_c 14.737118
_cell_angle_alpha 90.000000
_cell_angle_beta 90.000000
_cell_angle_gamma 90.000000
_cell_volume 2057.054023
_symmetry_space_group_name_H-M "P M M N"
_symmetry_group_IT_number 59
_space_group.IT_coordinate_system_code '2'
_symmetry_cell_setting 'orthorhombic'
loop_
_space_group_symop_operation_xyz
x,y,z
1/2-x,1/2-y,z
1/2+x,-y,-z
-x,1/2+y,-z
-x,-y,-z
1/2+x,1/2+y,-z
1/2-x,y,z
x,1/2-y,z
loop_
_atom_site_type_symbol
_atom_site_label
_atom_site_fract_x
_atom_site_fract_y
_atom_site_fract_z
Si Si1 0.844169 0.431910 0.792855
Si Si2 0.914046 0.068956 0.597670
Si Si3 0.400672 0.929799 0.603835
Si Si4 0.498988 0.930641 0.899797
Si Si5 0.844615 0.569176 0.212049
O O1 0.750000 0.478464 0.820224
O O2 0.852263 0.250000 0.806826
O O3 0.857563 0.459095 0.685462
O O4 0.918001 0.513985 0.846703
O O5 0.935159 0.250000 0.596523
O O6 0.874026 0.034579 0.499626
O O7 0.000561 0.975692 0.607684
O O8 0.390655 0.750000 0.619263
O O9 0.355028 0.019605 0.683381
O O10 0.497590 0.750000 0.904544
O O11 0.417249 0.988677 0.845320
O O12 0.500000 0.000000 0.000000
O O13 0.750000 0.529899 0.181116
O O14 0.855933 0.750000 0.205060
#
# Coordination Sequence:
#
# PCOD9448453 Si02
#       5
#     8   8   8   8   8
#     4  10  21  39  64  93 126 165 206 249 300 360
#     4   9  18  33  56  86 126 169 208 248 296 357
#     4  10  19  32  56  90 125 165 209 253 299 355
#     4  12  26  45  69  93 120 156 199 253 314 371
#     4  11  24  42  64  91 125 164 206 255 309 365
#
# _framework density 19.445284999999998
#
# number of rings (size 3 to 8) (size 9 to 14) (size 15 to 20)
#    0.000    1.600    2.000    3.000    0.000    4.400 
#    0.000    2.000    0.000    0.000    0.000    0.000 
#    0.000    0.000    0.000    0.000    0.000    0.000 
#
# Total GULP energy -223537.513365 kJ/mol
# GULP energy per Si atom -5588.437834 kJ/mol
# Density = 1.940103 g / cm^3
# Si number density = 19.445285 Si / 1000 Ang^3
#
#
#
# Elastic Constant Matrix: (Units=GPa)
#
#
# Indices 1 2 3 4 5 6 
#
# 1 147.5672 75.0443 79.4355 0.0000 0.0000 0.0000
# 2 75.0443 82.1672 60.2667 0.0000 0.0000 0.0000
# 3 79.4355 60.2667 130.8297 0.0000 0.0000 0.0000
# 4 0.0000 0.0000 0.0000 34.8486 0.0000 0.0000
# 5 0.0000 0.0000 0.0000 0.0000 -6.6098 0.0000
# 6 0.0000 0.0000 0.0000 0.0000 0.0000 7.4175
#
#
#
# Elastic Compliance Matrix: (Units=1/GPa)
#
#
# Indices 1 2 3 4 5 6 
#
# 1 0.013858 -0.009795 -0.003902 0.000000 0.000000 0.000000
# 2 -0.009795 0.025303 -0.005709 0.000000 0.000000 0.000000
# 3 -0.003902 -0.005709 0.012643 0.000000 0.000000 0.000000
# 4 0.000000 0.000000 0.000000 0.028696 0.000000 0.000000
# 5 0.000000 0.000000 0.000000 0.000000 -0.151290 0.000000
# 6 0.000000 0.000000 0.000000 0.000000 0.000000 0.134816
#
#
# Mechanical properties :
#
#
# Convention : Reuss Voigt Hill
#
# Bulk Modulus (GPa) = 76.96882 87.78410 82.37646
# Shear Modulus (GPa) = 46.65564 16.85243 31.75403
#
# Velocity S-wave (km/s) = 4.90361 2.94710 4.04542
# Velocity P-wave (km/s) = 8.46928 7.53808 8.01721
#
# Compressibility (1/GPa) = 0.01299227
#
# Stress axis : x y z
#
# Youngs Moduli (GPa) = 72.15944 39.52081 79.09697
#
# Poissons Ratio (x) = 0.38709 0.30866
# Poissons Ratio (y) = 0.70677 0.45156
# Poissons Ratio (z) = 0.28159 0.22562
#
# Static dielectric constant tensor:
#      x y z
#    x 1.675010 0.000000 0.000000 
#    y 0.000000 1.649940 0.000000 
#    z 0.000000 0.000000 1.677090 
# 
# From -- ./inp_files/19857.got.cif
#   From: 2010.05.17/outbox.cif.g08.bks.cpg/sg59_10_cif.got.tgz:19857.got - 2010.06.03 14:40:33.
