data_PCOD9448046
_publ_section_title
;
Structure prediction by ZEFSAII (Michael W. Deem and Ramdas Pophale) SiO2 
 PCOD9448046
Probable space group: P M M N
;
_chemical_formula_sum "Si O2"
_cell_formula_units_Z 56
_cell_length_a 20.009510
_cell_length_b 8.533662
_cell_length_c 18.136104
_cell_angle_alpha 90.000000
_cell_angle_beta 90.000000
_cell_angle_gamma 90.000000
_cell_volume 3096.819468
_symmetry_space_group_name_H-M "P M M N"
_symmetry_group_IT_number 59
_space_group.IT_coordinate_system_code '2'
_symmetry_cell_setting 'orthorhombic'
loop_
_space_group_symop_operation_xyz
x,y,z
1/2-x,1/2-y,z
1/2+x,-y,-z
-x,1/2+y,-z
-x,-y,-z
1/2+x,1/2+y,-z
1/2-x,y,z
x,1/2-y,z
loop_
_atom_site_type_symbol
_atom_site_label
_atom_site_fract_x
_atom_site_fract_y
_atom_site_fract_z
Si Si1 0.431551 0.937701 0.689399
Si Si2 0.058027 0.437207 0.103173
Si Si3 0.923541 0.062543 0.738035
Si Si4 0.674781 0.939214 0.193513
Si Si5 0.326797 0.941345 0.392963
Si Si6 0.073089 0.560703 0.521800
Si Si7 0.912941 0.939186 0.059239
O O1 0.432984 0.750000 0.692332
O O2 0.413849 0.987353 0.606044
O O3 0.504972 0.998824 0.710628
O O4 0.377231 0.999426 0.746655
O O5 0.060322 0.250000 0.109154
O O6 0.086373 0.508896 0.177991
O O7 0.981080 0.489809 0.092281
O O8 0.093008 0.485892 0.026321
O O9 0.926546 0.250000 0.736036
O O10 0.866137 0.010413 0.681064
O O11 0.750000 0.995523 0.206122
O O12 0.674726 0.750000 0.196788
O O13 0.647341 0.983747 0.112695
O O14 0.250000 0.994310 0.395508
O O15 0.325878 0.750000 0.393689
O O16 0.371136 0.992006 0.463184
O O17 0.071591 0.750000 0.519369
O O18 0.000000 0.500000 0.500000
O O19 0.920039 0.750000 0.060864
#
# Coordination Sequence:
#
# PCOD9448046 Si02
#       7
#     8   8   8   8   8   8   8
#     4  11  22  34  54  84 112 142 182 230 276 325
#     4  10  19  31  52  81 109 137 177 228 270 317
#     4  11  20  33  56  81 108 144 183 228 273 323
#     4  10  21  37  56  78 109 149 188 225 272 331
#     4   9  19  36  57  80 107 144 185 222 268 326
#     4  10  20  35  57  83 110 142 181 226 270 323
#     4   9  18  33  52  76 106 142 180 219 269 325
#
# _framework density 18.083068999999998
#
# number of rings (size 3 to 8) (size 9 to 14) (size 15 to 20)
#    0.000    2.000    2.857    1.286    0.000    2.000 
#    0.000    2.143    0.000    4.714    0.000    0.000 
#    0.000    0.000    0.000    0.000    0.000    0.000 
#
# Total GULP energy -312520.842193 kJ/mol
# GULP energy per Si atom -5580.729325 kJ/mol
# Density = 1.804191 g / cm^3
# Si number density = 18.083069 Si / 1000 Ang^3
#
#
#
# Elastic Constant Matrix: (Units=GPa)
#
#
# Indices 1 2 3 4 5 6 
#
# 1 150.3042 20.4022 92.4954 0.0000 0.0000 0.0000
# 2 20.4022 13.3848 27.3896 0.0000 0.0000 0.0000
# 3 92.4954 27.3896 175.3832 0.0000 0.0000 0.0000
# 4 0.0000 0.0000 0.0000 21.7775 0.0000 0.0000
# 5 0.0000 0.0000 0.0000 0.0000 26.4509 0.0000
# 6 0.0000 0.0000 0.0000 0.0000 0.0000 14.0422
#
#
#
# Elastic Compliance Matrix: (Units=1/GPa)
#
#
# Indices 1 2 3 4 5 6 
#
# 1 0.010243 -0.006700 -0.004356 0.000000 0.000000 0.000000
# 2 -0.006700 0.114183 -0.014298 0.000000 0.000000 0.000000
# 3 -0.004356 -0.014298 0.010232 0.000000 0.000000 0.000000
# 4 0.000000 0.000000 0.000000 0.045919 0.000000 0.000000
# 5 0.000000 0.000000 0.000000 0.000000 0.037806 0.000000
# 6 0.000000 0.000000 0.000000 0.000000 0.000000 0.071214
#
#
# Mechanical properties :
#
#
# Convention : Reuss Voigt Hill
#
# Bulk Modulus (GPa) = 11.91188 68.84962 40.38075
# Shear Modulus (GPa) = 13.57629 25.70646 19.64137
#
# Velocity S-wave (km/s) = 2.74300 3.77447 3.29929
# Velocity P-wave (km/s) = 4.07844 7.55991 6.07396
#
# Compressibility (1/GPa) = 0.08394981
#
# Stress axis : x y z
#
# Youngs Moduli (GPa) = 97.62640 8.75785 97.73281
#
# Poissons Ratio (x) = 0.05868 0.42570
# Poissons Ratio (y) = 0.65411 1.39743
# Poissons Ratio (z) = 0.42524 0.12522
#
# Static dielectric constant tensor:
#      x y z
#    x 1.588500 0.000000 0.000000 
#    y 0.000000 1.621120 0.000000 
#    z 0.000000 0.000000 1.637160 
# 
# From -- ./inp_files/28110.got.cif
#   From: 2010.05.17/outbox.cif.g08.bks.cpg/sg59_15_cif.got.tgz:28110.got - 2010.06.03 14:40:33.
