data_PCOD9448461
_publ_section_title
;
Structure prediction by ZEFSAII (Michael W. Deem and Ramdas Pophale) SiO2 
 PCOD9448461
Probable space group: P M M N
;
_chemical_formula_sum "Si O2"
_cell_formula_units_Z 64
_cell_length_a 30.436989
_cell_length_b 8.692101
_cell_length_c 15.345617
_cell_angle_alpha 90.000000
_cell_angle_beta 90.000000
_cell_angle_gamma 90.000000
_cell_volume 4059.857649
_symmetry_space_group_name_H-M "P M M N"
_symmetry_group_IT_number 59
_space_group.IT_coordinate_system_code '2'
_symmetry_cell_setting 'orthorhombic'
loop_
_space_group_symop_operation_xyz
x,y,z
1/2-x,1/2-y,z
1/2+x,-y,-z
-x,1/2+y,-z
-x,-y,-z
1/2+x,1/2+y,-z
1/2-x,y,z
x,1/2-y,z
loop_
_atom_site_type_symbol
_atom_site_label
_atom_site_fract_x
_atom_site_fract_y
_atom_site_fract_z
Si Si1 0.106601 0.435975 0.456673
Si Si2 0.057927 0.436926 0.634687
Si Si3 0.200783 0.064216 0.516416
Si Si4 0.116577 0.433529 0.800127
Si Si5 0.539879 0.434371 0.681685
Si Si6 0.699550 0.432478 0.288789
Si Si7 0.968257 0.566248 0.873451
Si Si8 0.436777 0.933452 0.952553
O O1 0.104674 0.250000 0.453373
O O2 0.082703 0.486232 0.546787
O O3 0.157981 0.481289 0.461105
O O4 0.079299 0.502565 0.376763
O O5 0.058415 0.250000 0.634342
O O6 0.084535 0.485823 0.720834
O O7 0.007307 0.486893 0.642033
O O8 0.250000 0.021047 0.485045
O O9 0.199735 0.250000 0.524243
O O10 0.194985 0.994616 0.612686
O O11 0.112701 0.250000 0.807403
O O12 0.165011 0.481507 0.771445
O O13 0.101485 0.510363 0.889476
O O14 0.540275 0.250000 0.680676
O O15 0.542078 0.492034 0.780799
O O16 0.750000 0.459441 0.262494
O O17 0.691167 0.250000 0.287822
O O18 0.966469 0.750000 0.866273
O O19 0.017645 0.521341 0.903780
O O20 0.937744 0.509395 0.952453
O O21 0.436574 0.750000 0.961801
#
# Coordination Sequence:
#
# PCOD9448461 Si02
#       8
#     8   8   8   8   8   8   8   8
#     4  10  19  33  48  68  97 131 170 208 247 297
#     4   9  18  31  46  67  97 132 168 205 239 280
#     4   9  17  31  51  71  93 126 166 208 253 298
#     4  11  19  32  52  73  99 133 171 205 243 297
#     4  11  21  33  48  69  99 134 171 210 249 290
#     4  10  20  32  47  71 102 131 163 207 253 296
#     4  10  20  34  51  72  97 130 166 203 245 291
#     4  10  20  33  51  75 100 127 161 203 248 293
#
# _framework density 15.764099
#
# number of rings (size 3 to 8) (size 9 to 14) (size 15 to 20)
#    0.000    2.000    2.500    2.250    0.000    2.250 
#    0.000    0.625    0.000    0.000    0.000    0.875 
#    0.000    5.000    0.000    0.000    0.000    0.000 
#
# Total GULP energy -357087.073058 kJ/mol
# GULP energy per Si atom -5579.485517 kJ/mol
# Density = 1.572822 g / cm^3
# Si number density = 15.764099 Si / 1000 Ang^3
#
#
#
# Elastic Constant Matrix: (Units=GPa)
#
#
# Indices 1 2 3 4 5 6 
#
# 1 96.8875 25.6704 53.7640 0.0000 0.0000 0.0000
# 2 25.6704 18.6011 19.9218 0.0000 0.0000 0.0000
# 3 53.7640 19.9218 89.2704 0.0000 0.0000 0.0000
# 4 0.0000 0.0000 0.0000 24.3715 0.0000 0.0000
# 5 0.0000 0.0000 0.0000 0.0000 21.3841 0.0000
# 6 0.0000 0.0000 0.0000 0.0000 0.0000 20.9982
#
#
#
# Elastic Compliance Matrix: (Units=1/GPa)
#
#
# Indices 1 2 3 4 5 6 
#
# 1 0.019493 -0.018827 -0.007538 0.000000 0.000000 0.000000
# 2 -0.018827 0.088830 -0.008485 0.000000 0.000000 0.000000
# 3 -0.007538 -0.008485 0.017635 0.000000 0.000000 0.000000
# 4 0.000000 0.000000 0.000000 0.041032 0.000000 0.000000
# 5 0.000000 0.000000 0.000000 0.000000 0.046764 0.000000
# 6 0.000000 0.000000 0.000000 0.000000 0.000000 0.047623
#
#
# Mechanical properties :
#
#
# Convention : Reuss Voigt Hill
#
# Bulk Modulus (GPa) = 17.77527 44.83016 31.30271
# Shear Modulus (GPa) = 14.29270 20.37761 17.33515
#
# Velocity S-wave (km/s) = 3.01435 3.59926 3.31971
# Velocity P-wave (km/s) = 4.83894 6.76556 5.88167
#
# Compressibility (1/GPa) = 0.05625792
#
# Stress axis : x y z
#
# Youngs Moduli (GPa) = 51.30177 11.25742 56.70481
#
# Poissons Ratio (x) = 0.21195 0.42744
# Poissons Ratio (y) = 0.96588 0.48112
# Poissons Ratio (z) = 0.38671 0.09551
#
# Static dielectric constant tensor:
#      x y z
#    x 1.537860 0.000000 0.000000 
#    y 0.000000 1.525100 0.000000 
#    z 0.000000 0.000000 1.496260 
# 
# From -- ./inp_files/25008.got.cif
#   From: 2010.05.17/outbox.cif.g08.bks.cpg/sg59_13_cif.got.tgz:25008.got - 2010.06.03 14:40:33.
