data_PCOD9448045
_publ_section_title
;
Structure prediction by ZEFSAII (Michael W. Deem and Ramdas Pophale) SiO2 
 PCOD9448045
Probable space group: P M M N
;
_chemical_formula_sum "Si O2"
_cell_formula_units_Z 64
_cell_length_a 8.668069
_cell_length_b 24.787212
_cell_length_c 16.680897
_cell_angle_alpha 90.000000
_cell_angle_beta 90.000000
_cell_angle_gamma 90.000000
_cell_volume 3584.011889
_symmetry_space_group_name_H-M "P M M N"
_symmetry_group_IT_number 59
_space_group.IT_coordinate_system_code '2'
_symmetry_cell_setting 'orthorhombic'
loop_
_space_group_symop_operation_xyz
x,y,z
1/2-x,1/2-y,z
1/2+x,-y,-z
-x,1/2+y,-z
-x,-y,-z
1/2+x,1/2+y,-z
1/2-x,y,z
x,1/2-y,z
loop_
_atom_site_type_symbol
_atom_site_label
_atom_site_fract_x
_atom_site_fract_y
_atom_site_fract_z
Si Si1 0.565340 0.189206 0.293310
Si Si2 0.064612 0.441389 0.022618
Si Si3 0.568055 0.384603 0.608031
Si Si4 0.435027 0.611235 0.131891
Si Si5 0.434383 0.311188 0.471992
Si Si6 0.070737 0.186228 0.745348
Si Si7 0.437176 0.526673 0.272781
Si Si8 0.436388 0.086028 0.205242
O O1 0.750000 0.186971 0.294040
O O2 0.518271 0.250000 0.267896
O O3 0.504287 0.181745 0.383828
O O4 0.500848 0.141810 0.238301
O O5 0.250000 0.442624 0.018607
O O6 0.020282 0.425386 0.113006
O O7 0.000000 0.500000 0.000000
O O8 0.996976 0.401897 0.955623
O O9 0.750000 0.389178 0.592930
O O10 0.488909 0.358294 0.531099
O O11 0.535088 0.342217 0.679289
O O12 0.510889 0.441032 0.647645
O O13 0.250000 0.615867 0.131894
O O14 0.514474 0.663404 0.169934
O O15 0.476447 0.562557 0.194166
O O16 0.250000 0.312370 0.467132
O O17 0.478613 0.250000 0.500400
O O18 0.250000 0.171255 0.730955
O O19 0.058047 0.250000 0.740536
O O20 0.250000 0.526205 0.275904
O O21 0.489235 0.465605 0.258131
O O22 0.250000 0.087564 0.208980
#
# Coordination Sequence:
#
# PCOD9448045 Si02
#       8
#     8   8   8   8   8   8   8   8
#     4  10  22  40  60  83 109 136 176 230 281 328
#     4  11  21  34  56  84 112 142 180 225 270 321
#     4  10  19  31  52  80 112 146 182 224 271 321
#     4  10  19  34  53  76 108 142 181 227 273 321
#     4  10  20  35  56  80 107 142 185 230 274 323
#     4  10  20  33  49  73 108 147 186 226 270 325
#     4   8  16  32  51  76 110 144 175 216 265 316
#     4  10  20  37  59  82 110 143 181 221 270 328
#
# _framework density 17.857084
#
# number of rings (size 3 to 8) (size 9 to 14) (size 15 to 20)
#    0.000    2.125    1.250    3.375    0.000    5.000 
#    0.000    2.500    0.000    0.750    0.000    0.000 
#    0.000    0.000    0.000    0.000    0.000    0.000 
#
# Total GULP energy -357022.516621 kJ/mol
# GULP energy per Si atom -5578.476822 kJ/mol
# Density = 1.781644 g / cm^3
# Si number density = 17.857084 Si / 1000 Ang^3
#
#
#
# Elastic Constant Matrix: (Units=GPa)
#
#
# Indices 1 2 3 4 5 6 
#
# 1 27.3844 23.7260 18.5978 0.0000 0.0000 0.0000
# 2 23.7260 103.7388 60.8795 0.0000 0.0000 0.0000
# 3 18.5978 60.8795 86.2710 0.0000 0.0000 0.0000
# 4 0.0000 0.0000 0.0000 29.5050 0.0000 0.0000
# 5 0.0000 0.0000 0.0000 0.0000 32.1181 0.0000
# 6 0.0000 0.0000 0.0000 0.0000 0.0000 26.3884
#
#
#
# Elastic Compliance Matrix: (Units=1/GPa)
#
#
# Indices 1 2 3 4 5 6 
#
# 1 0.046456 -0.008104 -0.004296 0.000000 0.000000 0.000000
# 2 -0.008104 0.017867 -0.010861 0.000000 0.000000 0.000000
# 3 -0.004296 -0.010861 0.020182 0.000000 0.000000 0.000000
# 4 0.000000 0.000000 0.000000 0.033893 0.000000 0.000000
# 5 0.000000 0.000000 0.000000 0.000000 0.031135 0.000000
# 6 0.000000 0.000000 0.000000 0.000000 0.000000 0.037895
#
#
# Mechanical properties :
#
#
# Convention : Reuss Voigt Hill
#
# Bulk Modulus (GPa) = 26.32782 47.08897 36.70840
# Shear Modulus (GPa) = 20.27482 25.21503 22.74492
#
# Velocity S-wave (km/s) = 3.37322 3.76180 3.57279
# Velocity P-wave (km/s) = 5.47239 6.73018 6.13361
#
# Compressibility (1/GPa) = 0.03798263
#
# Stress axis : x y z
#
# Youngs Moduli (GPa) = 21.52584 55.96901 49.54865
#
# Poissons Ratio (x) = 0.45355 0.21287
# Poissons Ratio (y) = 0.17444 0.53817
# Poissons Ratio (z) = 0.09248 0.60790
#
# Static dielectric constant tensor:
#      x y z
#    x 1.597540 0.000000 0.000000 
#    y 0.000000 1.712450 0.000000 
#    z 0.000000 0.000000 1.628480 
# 
# From -- ./inp_files/21505.got.cif
#   From: 2010.05.17/outbox.cif.g08.bks.cpg/sg59_11_cif.got.tgz:21505.got - 2010.06.03 14:40:33.
