data_PCOD9448466
_publ_section_title
;
Structure prediction by ZEFSAII (Michael W. Deem and Ramdas Pophale) SiO2 
 PCOD9448466
Probable space group: P M M N
;
_chemical_formula_sum "Si O2"
_cell_formula_units_Z 64
_cell_length_a 19.287164
_cell_length_b 11.766552
_cell_length_c 16.757199
_cell_angle_alpha 90.000000
_cell_angle_beta 90.000000
_cell_angle_gamma 90.000000
_cell_volume 3802.936019
_symmetry_space_group_name_H-M "P M M N"
_symmetry_group_IT_number 59
_space_group.IT_coordinate_system_code '2'
_symmetry_cell_setting 'orthorhombic'
loop_
_space_group_symop_operation_xyz
x,y,z
1/2-x,1/2-y,z
1/2+x,-y,-z
-x,1/2+y,-z
-x,-y,-z
1/2+x,1/2+y,-z
1/2-x,y,z
x,1/2-y,z
loop_
_atom_site_type_symbol
_atom_site_label
_atom_site_fract_x
_atom_site_fract_y
_atom_site_fract_z
Si Si1 0.169333 0.384413 0.398904
Si Si2 0.897528 0.465997 0.464094
Si Si3 0.673497 0.385933 0.308822
Si Si4 0.329676 0.614878 0.115340
Si Si5 0.912337 0.009097 0.739238
Si Si6 0.547810 0.117631 0.199738
Si Si7 0.548371 0.114315 0.012084
Si Si8 0.013659 0.872523 0.399633
O O1 0.250000 0.414458 0.388821
O O2 0.162823 0.250000 0.407439
O O3 0.139657 0.445174 0.477385
O O4 0.126555 0.425888 0.322204
O O5 0.846720 0.412437 0.399775
O O6 0.934629 0.380021 0.524915
O O7 0.958291 0.528811 0.414950
O O8 0.750000 0.431682 0.290256
O O9 0.675560 0.250000 0.298896
O O10 0.612432 0.427796 0.251045
O O11 0.250000 0.579383 0.098828
O O12 0.328821 0.750000 0.130273
O O13 0.360762 0.554399 0.193385
O O14 0.383763 0.596827 0.042843
O O15 0.943785 0.105274 0.680910
O O16 0.977740 0.949051 0.780675
O O17 0.536732 0.250000 0.221918
O O18 0.564176 0.113124 0.106134
O O19 0.524342 0.250000 0.995817
O O20 0.500000 0.000000 0.000000
O O21 0.979097 0.750000 0.397599
#
# Coordination Sequence:
#
# PCOD9448466 Si02
#       8
#     8   8   8   8   8   8   8   8
#     4  10  21  34  49  72 104 143 183 224 272 326
#     4  10  19  33  50  71 100 140 174 226 271 321
#     4  10  20  34  53  78 106 137 177 227 279 328
#     4  10  21  36  57  86 117 147 181 225 276 335
#     4  11  19  34  54  76 108 141 178 225 272 325
#     4  10  20  34  55  82 109 140 180 227 276 327
#     4  10  20  37  61  87 117 150 189 230 279 335
#     4  10  20  31  48  75 100 131 178 222 270 320
#
# _framework density 16.829101999999999
#
# number of rings (size 3 to 8) (size 9 to 14) (size 15 to 20)
#    0.000    1.875    2.500    2.250    0.000    0.500 
#    0.000    2.500    0.000    7.125    0.000    0.000 
#    0.000    0.000    0.000    0.000    0.000    0.000 
#
# Total GULP energy -356540.088258 kJ/mol
# GULP energy per Si atom -5570.938879 kJ/mol
# Density = 1.679080 g / cm^3
# Si number density = 16.829102 Si / 1000 Ang^3
#
#
#
# Elastic Constant Matrix: (Units=GPa)
#
#
# Indices 1 2 3 4 5 6 
#
# 1 109.1143 32.1506 40.5152 0.0000 0.0000 0.0000
# 2 32.1506 49.5167 18.3909 0.0000 0.0000 0.0000
# 3 40.5152 18.3909 82.7067 0.0000 0.0000 0.0000
# 4 0.0000 0.0000 0.0000 2.6849 0.0000 0.0000
# 5 0.0000 0.0000 0.0000 0.0000 20.2138 0.0000
# 6 0.0000 0.0000 0.0000 0.0000 0.0000 26.0164
#
#
#
# Elastic Compliance Matrix: (Units=1/GPa)
#
#
# Indices 1 2 3 4 5 6 
#
# 1 0.012907 -0.006575 -0.004861 0.000000 0.000000 0.000000
# 2 -0.006575 0.025363 -0.002419 0.000000 0.000000 0.000000
# 3 -0.004861 -0.002419 0.015010 0.000000 0.000000 0.000000
# 4 0.000000 0.000000 0.000000 0.372456 0.000000 0.000000
# 5 0.000000 0.000000 0.000000 0.000000 0.049471 0.000000
# 6 0.000000 0.000000 0.000000 0.000000 0.000000 0.038437
#
#
# Mechanical properties :
#
#
# Convention : Reuss Voigt Hill
#
# Bulk Modulus (GPa) = 39.10765 47.05011 43.07888
# Shear Modulus (GPa) = 9.09297 19.80176 14.44736
#
# Velocity S-wave (km/s) = 2.32698 3.43394 2.93315
# Velocity P-wave (km/s) = 5.52344 6.61369 6.09300
#
# Compressibility (1/GPa) = 0.02557045
#
# Stress axis : x y z
#
# Youngs Moduli (GPa) = 77.47857 39.42814 66.62308
#
# Poissons Ratio (x) = 0.25924 0.32383
# Poissons Ratio (y) = 0.50942 0.16115
# Poissons Ratio (z) = 0.37659 0.09537
#
# Static dielectric constant tensor:
#      x y z
#    x 1.576570 0.000000 0.000000 
#    y 0.000000 1.578060 0.000000 
#    z 0.000000 0.000000 1.546630 
# 
# From -- ./inp_files/23936.got.cif
#   From: 2010.05.17/outbox.cif.g08.bks.cpg/sg59_12_cif.got.tgz:23936.got - 2010.06.03 14:40:33.
