data_PCOD9448951
_publ_section_title
;
Structure prediction by ZEFSAII (Michael W. Deem and Ramdas Pophale) SiO2 
 PCOD9448951
Probable space group: P M M N
;
_chemical_formula_sum "Si O2"
_cell_formula_units_Z 64
_cell_length_a 20.408288
_cell_length_b 8.722014
_cell_length_c 18.151027
_cell_angle_alpha 90.000000
_cell_angle_beta 90.000000
_cell_angle_gamma 90.000000
_cell_volume 3230.907739
_symmetry_space_group_name_H-M "P M M N"
_symmetry_group_IT_number 59
_space_group.IT_coordinate_system_code '2'
_symmetry_cell_setting 'orthorhombic'
loop_
_space_group_symop_operation_xyz
x,y,z
1/2-x,1/2-y,z
1/2+x,-y,-z
-x,1/2+y,-z
-x,-y,-z
1/2+x,1/2+y,-z
1/2-x,y,z
x,1/2-y,z
loop_
_atom_site_type_symbol
_atom_site_label
_atom_site_fract_x
_atom_site_fract_y
_atom_site_fract_z
Si Si1 0.825081 0.433973 0.720736
Si Si2 0.936197 0.921868 0.809535
Si Si3 0.978714 0.420566 0.337643
Si Si4 0.087886 0.931619 0.424072
Si Si5 0.676639 0.937297 0.129813
Si Si6 0.848664 0.929898 0.295442
Si Si7 0.966455 0.933433 0.072986
Si Si8 0.821030 0.934746 0.456560
O O1 0.750000 0.487723 0.719776
O O2 0.825638 0.250000 0.727827
O O3 0.867102 0.502926 0.787992
O O4 0.861457 0.467980 0.643175
O O5 0.927670 0.750000 0.839996
O O6 0.972410 0.910400 0.731216
O O7 0.984986 0.015851 0.861452
O O8 0.951146 0.250000 0.350792
O O9 0.924672 0.539780 0.310861
O O10 0.021127 0.480311 0.405592
O O11 0.076373 0.750000 0.423908
O O12 0.121902 0.986164 0.498410
O O13 0.750000 0.982002 0.102682
O O14 0.675313 0.750000 0.129729
O O15 0.670473 0.991289 0.215270
O O16 0.609185 0.985845 0.088776
O O17 0.833289 0.750000 0.292161
O O18 0.819080 0.988313 0.371838
O O19 0.964746 0.750000 0.068754
O O20 0.000000 0.000000 0.000000
O O21 0.750000 0.968000 0.490820
O O22 0.830374 0.750000 0.456878
#
# Coordination Sequence:
#
# PCOD9448951 Si02
#       8
#     8   8   8   8   8   8   8   8
#     4   9  18  33  54  80 109 145 192 243 293 342
#     4  10  20  35  56  83 115 148 187 232 280 340
#     4  10  20  34  54  80 110 143 184 235 288 341
#     4  10  20  34  53  75 105 147 195 242 291 347
#     4   9  18  35  62  92 117 147 192 239 282 336
#     4  10  19  34  57  82 109 143 187 235 288 345
#     4  11  22  38  63  91 120 154 189 230 282 340
#     4  10  21  35  51  74 106 143 184 237 298 353
#
# _framework density 19.808674
#
# number of rings (size 3 to 8) (size 9 to 14) (size 15 to 20)
#    0.000    2.125    1.250    2.250    0.000    5.000 
#    0.000    0.625    0.000    6.375    0.000    0.000 
#    0.000    0.000    0.000    0.000    0.000    0.000 
#
# Total GULP energy -356859.863668 kJ/mol
# GULP energy per Si atom -5575.935370 kJ/mol
# Density = 1.976359 g / cm^3
# Si number density = 19.808674 Si / 1000 Ang^3
#
#
#
# Elastic Constant Matrix: (Units=GPa)
#
#
# Indices 1 2 3 4 5 6 
#
# 1 120.2106 19.4956 44.8357 0.0000 0.0000 0.0000
# 2 19.4956 24.1639 25.0488 0.0000 0.0000 0.0000
# 3 44.8357 25.0488 82.9529 0.0000 0.0000 0.0000
# 4 0.0000 0.0000 0.0000 25.0082 0.0000 0.0000
# 5 0.0000 0.0000 0.0000 0.0000 -11.0345 0.0000
# 6 0.0000 0.0000 0.0000 0.0000 0.0000 15.9773
#
#
#
# Elastic Compliance Matrix: (Units=1/GPa)
#
#
# Indices 1 2 3 4 5 6 
#
# 1 0.010656 -0.003824 -0.004605 0.000000 0.000000 0.000000
# 2 -0.003824 0.061613 -0.016538 0.000000 0.000000 0.000000
# 3 -0.004605 -0.016538 0.019538 0.000000 0.000000 0.000000
# 4 0.000000 0.000000 0.000000 0.039987 0.000000 0.000000
# 5 0.000000 0.000000 0.000000 0.000000 -0.090625 0.000000
# 6 0.000000 0.000000 0.000000 0.000000 0.000000 0.062589
#
#
# Mechanical properties :
#
#
# Convention : Reuss Voigt Hill
#
# Bulk Modulus (GPa) = 23.88163 45.12084 34.50124
# Shear Modulus (GPa) = 29.82391 15.18667 22.50529
#
# Velocity S-wave (km/s) = 3.88441 2.77188 3.37431
# Velocity P-wave (km/s) = 5.67455 5.75084 5.71283
#
# Compressibility (1/GPa) = 0.04187319
#
# Stress axis : x y z
#
# Youngs Moduli (GPa) = 93.83957 16.23034 51.18244
#
# Poissons Ratio (x) = 0.06206 0.23570
# Poissons Ratio (y) = 0.35884 0.84646
# Poissons Ratio (z) = 0.43214 0.26842
#
# Static dielectric constant tensor:
#      x y z
#    x 1.740910 0.000000 0.000000 
#    y 0.000000 1.698270 0.000000 
#    z 0.000000 0.000000 1.702970 
# 
# From -- ./inp_files/28308.got.cif
#   From: 2010.05.17/outbox.cif.g08.bks.cpg/sg59_15_cif.got.tgz:28308.got - 2010.06.03 14:40:33.
