data_PCOD9448746
_publ_section_title
;
Structure prediction by ZEFSAII (Michael W. Deem and Ramdas Pophale) SiO2 
 PCOD9448746
Probable space group: P M M N
;
_chemical_formula_sum "Si O2"
_cell_formula_units_Z 32
_cell_length_a 20.228995
_cell_length_b 8.893577
_cell_length_c 10.266879
_cell_angle_alpha 90.000000
_cell_angle_beta 90.000000
_cell_angle_gamma 90.000000
_cell_volume 1847.094947
_symmetry_space_group_name_H-M "P M M N"
_symmetry_group_IT_number 59
_space_group.IT_coordinate_system_code '2'
_symmetry_cell_setting 'orthorhombic'
loop_
_space_group_symop_operation_xyz
x,y,z
1/2-x,1/2-y,z
1/2+x,-y,-z
-x,1/2+y,-z
-x,-y,-z
1/2+x,1/2+y,-z
1/2-x,y,z
x,1/2-y,z
loop_
_atom_site_type_symbol
_atom_site_label
_atom_site_fract_x
_atom_site_fract_y
_atom_site_fract_z
Si Si1 0.951214 0.429235 0.172534
Si Si2 0.907979 0.071164 0.889989
Si Si3 0.429054 0.929461 0.535480
Si Si4 0.326630 0.070314 0.333916
O O1 0.966385 0.250000 0.167630
O O2 0.918017 0.460054 0.311100
O O3 0.020177 0.517661 0.161224
O O4 0.908688 0.464648 0.044079
O O5 0.901788 0.250000 0.873652
O O6 0.853444 0.988749 0.804359
O O7 0.431928 0.750000 0.516389
O O8 0.500000 0.000000 0.500000
O O9 0.373165 0.998382 0.443875
O O10 0.250000 0.030122 0.352215
O O11 0.333309 0.250000 0.338643
#
# Coordination Sequence:
#
# PCOD9448746 Si02
#       4
#     8   8   8   8
#     4   9  19  34  54  83 115 141 176 228 282 332
#     4  10  19  33  56  83 109 143 183 227 279 335
#     4  11  21  35  58  86 115 147 186 233 284 338
#     4  11  24  40  56  78 113 154 193 236 285 337
#
# _framework density 17.324503
#
# number of rings (size 3 to 8) (size 9 to 14) (size 15 to 20)
#    0.000    1.750    2.500    2.250    0.000    4.000 
#    0.000    1.250    0.000    7.500    0.000    0.000 
#    0.000    0.000    0.000    0.000    0.000    0.000 
#
# Total GULP energy -178656.917475 kJ/mol
# GULP energy per Si atom -5583.028671 kJ/mol
# Density = 1.728507 g / cm^3
# Si number density = 17.324503 Si / 1000 Ang^3
#
#
#
# Elastic Constant Matrix: (Units=GPa)
#
#
# Indices 1 2 3 4 5 6 
#
# 1 129.2430 61.0162 85.4708 0.0000 0.0000 0.0000
# 2 61.0162 61.1925 60.8977 0.0000 0.0000 0.0000
# 3 85.4708 60.8977 148.9516 0.0000 0.0000 0.0000
# 4 0.0000 0.0000 0.0000 26.5521 0.0000 0.0000
# 5 0.0000 0.0000 0.0000 0.0000 24.5930 0.0000
# 6 0.0000 0.0000 0.0000 0.0000 0.0000 27.0998
#
#
#
# Elastic Compliance Matrix: (Units=1/GPa)
#
#
# Indices 1 2 3 4 5 6 
#
# 1 0.016268 -0.011686 -0.004557 0.000000 0.000000 0.000000
# 2 -0.011686 0.035947 -0.007991 0.000000 0.000000 0.000000
# 3 -0.004557 -0.007991 0.012596 0.000000 0.000000 0.000000
# 4 0.000000 0.000000 0.000000 0.037662 0.000000 0.000000
# 5 0.000000 0.000000 0.000000 0.000000 0.040662 0.000000
# 6 0.000000 0.000000 0.000000 0.000000 0.000000 0.036901
#
#
# Mechanical properties :
#
#
# Convention : Reuss Voigt Hill
#
# Bulk Modulus (GPa) = 61.19140 83.79518 72.49329
# Shear Modulus (GPa) = 21.37207 24.44914 22.91061
#
# Velocity S-wave (km/s) = 3.51612 3.76073 3.64048
# Velocity P-wave (km/s) = 7.20288 8.20552 7.72049
#
# Compressibility (1/GPa) = 0.01634217
#
# Stress axis : x y z
#
# Youngs Moduli (GPa) = 61.46992 27.81906 79.39308
#
# Poissons Ratio (x) = 0.32509 0.36181
# Poissons Ratio (y) = 0.71834 0.63442
# Poissons Ratio (z) = 0.28013 0.22230
#
# Static dielectric constant tensor:
#      x y z
#    x 1.544810 0.000000 0.000000 
#    y 0.000000 1.578730 0.000000 
#    z 0.000000 0.000000 1.614450 
# 
# From -- ./inp_files/10908.got.cif
#   From: 2010.05.17/outbox.cif.g08.bks.cpg/sg59_6_cif.got.tgz:10908.got - 2010.06.03 14:40:33.
