data_PCOD9448929
_publ_section_title
;
Structure prediction by ZEFSAII (Michael W. Deem and Ramdas Pophale) SiO2 
 PCOD9448929
Probable space group: P M M N
;
_chemical_formula_sum "Si O2"
_cell_formula_units_Z 64
_cell_length_a 25.354907
_cell_length_b 9.097977
_cell_length_c 15.075948
_cell_angle_alpha 90.000000
_cell_angle_beta 90.000000
_cell_angle_gamma 90.000000
_cell_volume 3477.694971
_symmetry_space_group_name_H-M "P M M N"
_symmetry_group_IT_number 59
_space_group.IT_coordinate_system_code '2'
_symmetry_cell_setting 'orthorhombic'
loop_
_space_group_symop_operation_xyz
x,y,z
1/2-x,1/2-y,z
1/2+x,-y,-z
-x,1/2+y,-z
-x,-y,-z
1/2+x,1/2+y,-z
1/2-x,y,z
x,1/2-y,z
loop_
_atom_site_type_symbol
_atom_site_label
_atom_site_fract_x
_atom_site_fract_y
_atom_site_fract_z
Si Si1 0.188329 0.576302 0.305671
Si Si2 0.517548 0.419037 0.715403
Si Si3 0.547538 0.579613 0.548102
Si Si4 0.334062 0.421888 0.493732
Si Si5 0.807869 0.073407 0.323333
Si Si6 0.057050 0.571370 0.980346
Si Si7 0.110752 0.579166 0.152002
Si Si8 0.086315 0.573341 0.777965
O O1 0.250000 0.566785 0.281633
O O2 0.174924 0.750000 0.319282
O O3 0.180497 0.494270 0.399354
O O4 0.152024 0.518227 0.224444
O O5 0.509603 0.250000 0.689740
O O6 0.551995 0.500592 0.642085
O O7 0.552775 0.424232 0.803432
O O8 0.461956 0.498059 0.726678
O O9 0.500000 0.500000 0.500000
O O10 0.535214 0.750000 0.560658
O O11 0.602578 0.566991 0.498015
O O12 0.319484 0.250000 0.492728
O O13 0.311290 0.502820 0.579212
O O14 0.750000 0.037892 0.285033
O O15 0.811094 0.250000 0.332950
O O16 0.857456 0.027463 0.262874
O O17 0.052022 0.750000 0.987481
O O18 0.099657 0.519068 0.053997
O O19 0.077409 0.537446 0.881532
O O20 0.000000 0.500000 0.000000
O O21 0.126651 0.750000 0.141320
O O22 0.081977 0.750000 0.768905
#
# Coordination Sequence:
#
# PCOD9448929 Si02
#       8
#     8   8   8   8   8   8   8   8
#     4  10  20  36  58  81 108 147 189 224 267 327
#     4  11  20  33  55  80 112 148 179 221 276 330
#     4  11  23  36  51  77 112 149 186 226 276 332
#     4  11  23  37  55  81 110 141 183 231 277 321
#     4  10  22  40  58  77 106 147 189 227 271 323
#     4  10  19  34  56  83 113 143 178 223 275 329
#     4   9  18  33  53  80 112 142 175 220 270 321
#     4  10  21  36  57  84 113 143 183 231 276 329
#
# _framework density 18.402994
#
# number of rings (size 3 to 8) (size 9 to 14) (size 15 to 20)
#    0.000    1.750    2.500    2.250    0.000    6.000 
#    0.000    1.250    0.000    3.750    0.000    0.000 
#    0.000    3.000    0.000    0.000    0.000    0.000 
#
# Total GULP energy -357048.232017 kJ/mol
# GULP energy per Si atom -5578.878625 kJ/mol
# Density = 1.836111 g / cm^3
# Si number density = 18.402994 Si / 1000 Ang^3
#
#
#
# Elastic Constant Matrix: (Units=GPa)
#
#
# Indices 1 2 3 4 5 6 
#
# 1 107.6823 30.9753 43.0222 0.0000 0.0000 0.0000
# 2 30.9753 33.0663 20.6792 0.0000 0.0000 0.0000
# 3 43.0222 20.6792 85.7172 0.0000 0.0000 0.0000
# 4 0.0000 0.0000 0.0000 17.5517 0.0000 0.0000
# 5 0.0000 0.0000 0.0000 0.0000 17.5049 0.0000
# 6 0.0000 0.0000 0.0000 0.0000 0.0000 19.4281
#
#
#
# Elastic Compliance Matrix: (Units=1/GPa)
#
#
# Indices 1 2 3 4 5 6 
#
# 1 0.014088 -0.010335 -0.004578 0.000000 0.000000 0.000000
# 2 -0.010335 0.043197 -0.005234 0.000000 0.000000 0.000000
# 3 -0.004578 -0.005234 0.015227 0.000000 0.000000 0.000000
# 4 0.000000 0.000000 0.000000 0.056975 0.000000 0.000000
# 5 0.000000 0.000000 0.000000 0.000000 0.057127 0.000000
# 6 0.000000 0.000000 0.000000 0.000000 0.000000 0.051472
#
#
# Mechanical properties :
#
#
# Convention : Reuss Voigt Hill
#
# Bulk Modulus (GPa) = 31.03799 46.20212 38.62006
# Shear Modulus (GPa) = 17.29401 19.68289 18.48845
#
# Velocity S-wave (km/s) = 3.06884 3.27394 3.17305
# Velocity P-wave (km/s) = 5.42765 6.28107 5.86989
#
# Compressibility (1/GPa) = 0.03221858
#
# Stress axis : x y z
#
# Youngs Moduli (GPa) = 70.98069 23.14996 65.67427
#
# Poissons Ratio (x) = 0.23924 0.30065
# Poissons Ratio (y) = 0.73355 0.34375
# Poissons Ratio (z) = 0.32494 0.12117
#
# Static dielectric constant tensor:
#      x y z
#    x 1.645850 0.000000 0.000000 
#    y 0.000000 1.624920 0.000000 
#    z 0.000000 0.000000 1.661190 
# 
# From -- ./inp_files/24705.got.cif
#   From: 2010.05.17/outbox.cif.g08.bks.cpg/sg59_13_cif.got.tgz:24705.got - 2010.06.03 14:40:33.
