data_PCOD9448277
_publ_section_title
;
Structure prediction by ZEFSAII (Michael W. Deem and Ramdas Pophale) SiO2 
 PCOD9448277
Probable space group: P M M N
;
_chemical_formula_sum "Si O2"
_cell_formula_units_Z 56
_cell_length_a 20.728586
_cell_length_b 7.754492
_cell_length_c 17.659103
_cell_angle_alpha 90.000000
_cell_angle_beta 90.000000
_cell_angle_gamma 90.000000
_cell_volume 2838.518112
_symmetry_space_group_name_H-M "P M M N"
_symmetry_group_IT_number 59
_space_group.IT_coordinate_system_code '2'
_symmetry_cell_setting 'orthorhombic'
loop_
_space_group_symop_operation_xyz
x,y,z
1/2-x,1/2-y,z
1/2+x,-y,-z
-x,1/2+y,-z
-x,-y,-z
1/2+x,1/2+y,-z
1/2-x,y,z
x,1/2-y,z
loop_
_atom_site_type_symbol
_atom_site_label
_atom_site_fract_x
_atom_site_fract_y
_atom_site_fract_z
Si Si1 0.908972 0.955247 0.958883
Si Si2 0.457903 0.548524 0.884963
Si Si3 0.058318 0.451921 0.716386
Si Si4 0.176882 0.541701 0.447265
Si Si5 0.677625 0.457307 0.823852
Si Si6 0.914514 0.038210 0.688270
Si Si7 0.322274 0.043881 0.621482
O O1 0.915437 0.750000 0.965091
O O2 0.973123 0.022441 0.914962
O O3 0.848557 0.998438 0.906812
O O4 0.910589 0.026823 0.043704
O O5 0.466381 0.750000 0.868868
O O6 0.436303 0.464917 0.806949
O O7 0.056212 0.250000 0.695811
O O8 0.120234 0.527115 0.673401
O O9 0.988125 0.523577 0.693393
O O10 0.250000 0.484242 0.427647
O O11 0.177246 0.750000 0.445467
O O12 0.124267 0.483612 0.386443
O O13 0.163200 0.486211 0.532981
O O14 0.750000 0.522259 0.810621
O O15 0.679403 0.250000 0.817301
O O16 0.626538 0.519466 0.761331
O O17 0.915478 0.250000 0.689596
O O18 0.250000 0.973871 0.636281
O O19 0.318944 0.250000 0.633678
#
# Coordination Sequence:
#
# PCOD9448277 Si02
#       7
#     8   8   8   8   8   8   8
#     4  10  20  34  53  76 103 137 173 210 256 308
#     4  10  20  34  54  78 103 131 170 217 260 305
#     4  10  19  33  54  76 101 135 172 214 263 311
#     4   9  17  31  51  73  99 134 173 210 252 305
#     4  10  19  32  52  77 107 141 174 213 258 305
#     4   9  17  30  50  76 103 132 173 214 252 304
#     4   9  19  35  52  72 100 134 171 211 261 316
#
# _framework density 19.728605000000002
#
# number of rings (size 3 to 8) (size 9 to 14) (size 15 to 20)
#    0.000    2.429    1.429    1.286    0.000    4.286 
#    0.000    2.143    0.000    4.286    0.000    0.000 
#    0.000    0.000    0.000    0.000    0.000    0.000 
#
# Total GULP energy -312481.120981 kJ/mol
# GULP energy per Si atom -5580.020018 kJ/mol
# Density = 1.968370 g / cm^3
# Si number density = 19.728605 Si / 1000 Ang^3
#
#
#
# Elastic Constant Matrix: (Units=GPa)
#
#
# Indices 1 2 3 4 5 6 
#
# 1 151.9800 6.4351 101.9142 0.0000 0.0000 0.0000
# 2 6.4351 27.2944 -9.0105 0.0000 0.0000 0.0000
# 3 101.9142 -9.0105 121.1645 0.0000 0.0000 0.0000
# 4 0.0000 0.0000 0.0000 19.7270 0.0000 0.0000
# 5 0.0000 0.0000 0.0000 0.0000 24.5891 0.0000
# 6 0.0000 0.0000 0.0000 0.0000 0.0000 8.7517
#
#
#
# Elastic Compliance Matrix: (Units=1/GPa)
#
#
# Indices 1 2 3 4 5 6 
#
# 1 0.016983 -0.008939 -0.014950 0.000000 0.000000 0.000000
# 2 -0.008939 0.042265 0.010662 0.000000 0.000000 0.000000
# 3 -0.014950 0.010662 0.021621 0.000000 0.000000 0.000000
# 4 0.000000 0.000000 0.000000 0.050692 0.000000 0.000000
# 5 0.000000 0.000000 0.000000 0.000000 0.040668 0.000000
# 6 0.000000 0.000000 0.000000 0.000000 0.000000 0.114263
#
#
# Mechanical properties :
#
#
# Convention : Reuss Voigt Hill
#
# Bulk Modulus (GPa) = 18.37727 55.45741 36.91734
# Shear Modulus (GPa) = 15.10183 24.02022 19.56103
#
# Velocity S-wave (km/s) = 2.76973 3.49310 3.15223
# Velocity P-wave (km/s) = 4.42310 6.66635 5.65703
#
# Compressibility (1/GPa) = 0.05441506
#
# Stress axis : x y z
#
# Youngs Moduli (GPa) = 58.88108 23.66022 46.25165
#
# Poissons Ratio (x) = 0.21151 0.69146
# Poissons Ratio (y) = 0.52636 -0.49315
# Poissons Ratio (z) = 0.88027 -0.25227
#
# Static dielectric constant tensor:
#      x y z
#    x 1.708080 0.000000 0.000000 
#    y 0.000000 1.717340 0.000000 
#    z 0.000000 0.000000 1.661480 
# 
# From -- ./inp_files/20895.got.cif
#   From: 2010.05.17/outbox.cif.g08.bks.cpg/sg59_11_cif.got.tgz:20895.got - 2010.06.03 14:40:33.
