data_PCOD9448860
_publ_section_title
;
Structure prediction by ZEFSAII (Michael W. Deem and Ramdas Pophale) SiO2 
 PCOD9448860
Probable space group: P M M N
;
_chemical_formula_sum "Si O2"
_cell_formula_units_Z 48
_cell_length_a 9.069690
_cell_length_b 30.875906
_cell_length_c 9.470613
_cell_angle_alpha 90.000000
_cell_angle_beta 90.000000
_cell_angle_gamma 90.000000
_cell_volume 2652.102125
_symmetry_space_group_name_H-M "P M M N"
_symmetry_group_IT_number 59
_space_group.IT_coordinate_system_code '2'
_symmetry_cell_setting 'orthorhombic'
loop_
_space_group_symop_operation_xyz
x,y,z
1/2-x,1/2-y,z
1/2+x,-y,-z
-x,1/2+y,-z
-x,-y,-z
1/2+x,1/2+y,-z
1/2-x,y,z
x,1/2-y,z
loop_
_atom_site_type_symbol
_atom_site_label
_atom_site_fract_x
_atom_site_fract_y
_atom_site_fract_z
Si Si1 0.572312 0.844147 0.528762
Si Si2 0.915166 0.898024 0.249382
Si Si3 0.425480 0.545714 0.030801
Si Si4 0.075064 0.619474 0.796698
Si Si5 0.914934 0.825339 0.012637
Si Si6 0.080400 0.750000 0.169041
Si Si7 0.921985 0.250000 0.492419
O O1 0.750000 0.839523 0.532084
O O2 0.532822 0.868677 0.381409
O O3 0.513822 0.875744 0.651848
O O4 0.500449 0.795993 0.545728
O O5 0.750000 0.914584 0.283974
O O6 0.901426 0.865559 0.117925
O O7 0.016406 0.934895 0.180061
O O8 0.250000 0.541649 0.038069
O O9 0.500000 0.500000 0.000000
O O10 0.457518 0.578468 0.898937
O O11 0.250000 0.620693 0.771641
O O12 0.019230 0.660757 0.885627
O O13 0.750000 0.812897 0.965238
O O14 0.993739 0.789932 0.105750
O O15 0.250000 0.750000 0.123857
O O16 0.076258 0.750000 0.337269
O O17 0.750000 0.250000 0.445159
#
# Coordination Sequence:
#
# PCOD9448860 Si02
#       7
#     8   8   8   8   8   4   4
#     4  11  22  38  59  85 117 156 197 238 285 340
#     4   9  19  35  57  83 112 145 186 232 280 335
#     4  10  21  38  63  89 115 146 186 234 287 347
#     4  10  22  39  57  83 116 148 184 233 289 342
#     4  10  19  34  55  78 106 144 187 233 280 329
#     4  11  21  32  51  80 111 144 188 238 281 330
#     4  11  23  36  55  82 117 158 196 238 283 334
#
# _framework density 18.098851
#
# number of rings (size 3 to 8) (size 9 to 14) (size 15 to 20)
#    0.000    1.833    1.667    2.500    0.000    5.333 
#    0.000    4.167    0.000    0.000    0.000    0.000 
#    0.000    0.000    0.000    0.000    0.000    0.000 
#
# Total GULP energy -267423.174665 kJ/mol
# GULP energy per Si atom -5571.316139 kJ/mol
# Density = 1.805766 g / cm^3
# Si number density = 18.098851 Si / 1000 Ang^3
#
#
#
# Elastic Constant Matrix: (Units=GPa)
#
#
# Indices 1 2 3 4 5 6 
#
# 1 90.4814 68.6697 31.3502 0.0000 0.0000 0.0000
# 2 68.6697 83.7637 25.0151 0.0000 0.0000 0.0000
# 3 31.3502 25.0151 80.3608 0.0000 0.0000 0.0000
# 4 0.0000 0.0000 0.0000 32.4138 0.0000 0.0000
# 5 0.0000 0.0000 0.0000 0.0000 28.3490 0.0000
# 6 0.0000 0.0000 0.0000 0.0000 0.0000 34.5527
#
#
#
# Elastic Compliance Matrix: (Units=1/GPa)
#
#
# Indices 1 2 3 4 5 6 
#
# 1 0.030700 -0.023804 -0.004567 0.000000 0.000000 0.000000
# 2 -0.023804 0.031619 -0.000556 0.000000 0.000000 0.000000
# 3 -0.004567 -0.000556 0.014399 0.000000 0.000000 0.000000
# 4 0.000000 0.000000 0.000000 0.030851 0.000000 0.000000
# 5 0.000000 0.000000 0.000000 0.000000 0.035275 0.000000
# 6 0.000000 0.000000 0.000000 0.000000 0.000000 0.028941
#
#
# Mechanical properties :
#
#
# Convention : Reuss Voigt Hill
#
# Bulk Modulus (GPa) = 53.01199 56.07508 54.54354
# Shear Modulus (GPa) = 21.19297 27.70117 24.44707
#
# Velocity S-wave (km/s) = 3.42564 3.91647 3.67925
# Velocity P-wave (km/s) = 6.70824 7.17646 6.94630
#
# Compressibility (1/GPa) = 0.01886366
#
# Stress axis : x y z
#
# Youngs Moduli (GPa) = 32.57300 31.62634 69.45127
#
# Poissons Ratio (x) = 0.75284 0.31717
# Poissons Ratio (y) = 0.77538 0.03862
# Poissons Ratio (z) = 0.14876 0.01759
#
# Static dielectric constant tensor:
#      x y z
#    x 1.635520 0.000000 0.000000 
#    y 0.000000 1.595290 0.000000 
#    z 0.000000 0.000000 1.624210 
# 
# From -- ./inp_files/6365.got.cif
#   From: 2010.05.17/outbox.cif.g08.bks.cpg/sg59_4_cif.got.tgz:6365.got - 2010.06.03 14:40:33.
