data_PCOD9448282
_publ_section_title
;
Structure prediction by ZEFSAII (Michael W. Deem and Ramdas Pophale) SiO2 
 PCOD9448282
Probable space group: P M M N
;
_chemical_formula_sum "Si O2"
_cell_formula_units_Z 64
_cell_length_a 25.185592
_cell_length_b 8.746622
_cell_length_c 15.383368
_cell_angle_alpha 90.000000
_cell_angle_beta 90.000000
_cell_angle_gamma 90.000000
_cell_volume 3388.784493
_symmetry_space_group_name_H-M "P M M N"
_symmetry_group_IT_number 59
_space_group.IT_coordinate_system_code '2'
_symmetry_cell_setting 'orthorhombic'
loop_
_space_group_symop_operation_xyz
x,y,z
1/2-x,1/2-y,z
1/2+x,-y,-z
-x,1/2+y,-z
-x,-y,-z
1/2+x,1/2+y,-z
1/2-x,y,z
x,1/2-y,z
loop_
_atom_site_type_symbol
_atom_site_label
_atom_site_fract_x
_atom_site_fract_y
_atom_site_fract_z
Si Si1 0.187135 0.931692 0.864395
Si Si2 0.808851 0.433625 0.638871
Si Si3 0.351475 0.075601 0.529761
Si Si4 0.885714 0.066803 0.795321
Si Si5 0.609388 0.566274 0.278351
Si Si6 0.992580 0.934280 0.753786
Si Si7 0.187357 0.432416 0.054599
Si Si8 0.462648 0.077815 0.432535
O O1 0.250000 0.953414 0.848063
O O2 0.176243 0.750000 0.863680
O O3 0.152828 0.015443 0.791506
O O4 0.175349 0.001380 0.959033
O O5 0.750000 0.482667 0.669379
O O6 0.811161 0.250000 0.640421
O O7 0.815113 0.484687 0.538210
O O8 0.854441 0.487721 0.706763
O O9 0.331556 0.250000 0.540898
O O10 0.369282 0.016904 0.625249
O O11 0.405214 0.079841 0.473502
O O12 0.889889 0.250000 0.790960
O O13 0.944554 0.997904 0.812371
O O14 0.847784 0.015108 0.873490
O O15 0.603298 0.750000 0.282408
O O16 0.552902 0.495003 0.248324
O O17 0.993371 0.750000 0.761997
O O18 0.969652 0.993125 0.661048
O O19 0.250000 0.460116 0.070986
O O20 0.178382 0.250000 0.056235
O O21 0.481605 0.250000 0.421616
O O22 0.500000 0.000000 0.500000
#
# Coordination Sequence:
#
# PCOD9448282 Si02
#       8
#     8   8   8   8   8   8   8   8
#     4  10  22  42  67  92 118 150 191 240 293 349
#     4  10  22  37  53  78 114 155 198 244 293 347
#     4  10  21  36  53  78 111 150 195 241 288 340
#     4  11  22  37  59  86 120 158 196 240 294 352
#     4  11  23  39  60  87 120 156 198 244 295 350
#     4  11  22  36  56  84 119 156 199 244 291 348
#     4  10  21  39  65  94 120 150 192 241 293 350
#     4  10  19  32  52  77 108 146 194 242 285 334
#
# _framework density 18.885829000000001
#
# number of rings (size 3 to 8) (size 9 to 14) (size 15 to 20)
#    0.000    1.625    2.500    2.250    0.000    5.250 
#    0.000    3.125    0.000    0.000    0.000    0.000 
#    0.000    0.000    0.000    0.000    0.000    0.000 
#
# Total GULP energy -356679.746428 kJ/mol
# GULP energy per Si atom -5573.121038 kJ/mol
# Density = 1.884284 g / cm^3
# Si number density = 18.885829 Si / 1000 Ang^3
#
#
#
# Elastic Constant Matrix: (Units=GPa)
#
#
# Indices 1 2 3 4 5 6 
#
# 1 81.4232 34.4636 47.8328 0.0000 0.0000 0.0000
# 2 34.4636 43.0768 27.6162 0.0000 0.0000 0.0000
# 3 47.8328 27.6162 96.4677 0.0000 0.0000 0.0000
# 4 0.0000 0.0000 0.0000 29.4007 0.0000 0.0000
# 5 0.0000 0.0000 0.0000 0.0000 22.4119 0.0000
# 6 0.0000 0.0000 0.0000 0.0000 0.0000 28.7880
#
#
#
# Elastic Compliance Matrix: (Units=1/GPa)
#
#
# Indices 1 2 3 4 5 6 
#
# 1 0.022007 -0.012996 -0.007192 0.000000 0.000000 0.000000
# 2 -0.012996 0.036108 -0.003892 0.000000 0.000000 0.000000
# 3 -0.007192 -0.003892 0.015046 0.000000 0.000000 0.000000
# 4 0.000000 0.000000 0.000000 0.034013 0.000000 0.000000
# 5 0.000000 0.000000 0.000000 0.000000 0.044619 0.000000
# 6 0.000000 0.000000 0.000000 0.000000 0.000000 0.034737
#
#
# Mechanical properties :
#
#
# Convention : Reuss Voigt Hill
#
# Bulk Modulus (GPa) = 39.99969 48.97701 44.48835
# Shear Modulus (GPa) = 20.57409 23.52378 22.04893
#
# Velocity S-wave (km/s) = 3.30418 3.53310 3.42056
# Velocity P-wave (km/s) = 5.98185 6.52942 6.26162
#
# Compressibility (1/GPa) = 0.02500020
#
# Stress axis : x y z
#
# Youngs Moduli (GPa) = 45.43965 27.69502 66.46117
#
# Poissons Ratio (x) = 0.35994 0.47796
# Poissons Ratio (y) = 0.59055 0.25870
# Poissons Ratio (z) = 0.32678 0.10780
#
# Static dielectric constant tensor:
#      x y z
#    x 1.674310 0.000000 0.000000 
#    y 0.000000 1.624260 0.000000 
#    z 0.000000 0.000000 1.625490 
# 
# From -- ./inp_files/21489.got.cif
#   From: 2010.05.17/outbox.cif.g08.bks.cpg/sg59_11_cif.got.tgz:21489.got - 2010.06.03 14:40:33.
