data_PCOD9448671
_publ_section_title
;
Structure prediction by ZEFSAII (Michael W. Deem and Ramdas Pophale) SiO2 
 PCOD9448671
Probable space group: P M M N
;
_chemical_formula_sum "Si O2"
_cell_formula_units_Z 56
_cell_length_a 19.365020
_cell_length_b 22.392426
_cell_length_c 5.640076
_cell_angle_alpha 90.000000
_cell_angle_beta 90.000000
_cell_angle_gamma 90.000000
_cell_volume 2445.704900
_symmetry_space_group_name_H-M "P M M N"
_symmetry_group_IT_number 59
_space_group.IT_coordinate_system_code '2'
_symmetry_cell_setting 'orthorhombic'
loop_
_space_group_symop_operation_xyz
x,y,z
1/2-x,1/2-y,z
1/2+x,-y,-z
-x,1/2+y,-z
-x,-y,-z
1/2+x,1/2+y,-z
1/2-x,y,z
x,1/2-y,z
loop_
_atom_site_type_symbol
_atom_site_label
_atom_site_fract_x
_atom_site_fract_y
_atom_site_fract_z
Si Si1 0.665610 0.180060 0.708980
Si Si2 0.167221 0.880809 0.788623
Si Si3 0.495347 0.567273 0.307347
Si Si4 0.462420 0.316621 0.936945
Si Si5 0.591871 0.598228 0.694392
Si Si6 0.171413 0.184274 0.640046
Si Si7 0.607752 0.003414 0.994698
O O1 0.750000 0.175984 0.707572
O O2 0.647305 0.250000 0.688506
O O3 0.645154 0.155570 0.972289
O O4 0.642500 0.145868 0.465286
O O5 0.250000 0.877894 0.782441
O O6 0.145901 0.949759 0.836706
O O7 0.500857 0.637443 0.240370
O O8 0.530939 0.561562 0.561678
O O9 0.422449 0.543738 0.219094
O O10 0.548941 0.530915 0.142067
O O11 0.490661 0.250000 0.945657
O O12 0.382924 0.313522 0.851526
O O13 0.454198 0.351066 0.180840
O O14 0.643961 0.631233 0.521268
O O15 0.637132 0.554540 0.860031
O O16 0.250000 0.175876 0.714652
O O17 0.166595 0.250000 0.519098
#
# Coordination Sequence:
#
# PCOD9448671 Si02
#       7
#     8   8   8   8   8   8   8
#     4   9  18  36  60  84 114 152 191 229 285 358
#     4  10  21  36  59  89 118 152 190 241 297 348
#     4   9  20  38  56  78 105 149 191 230 285 346
#     4   9  18  34  54  77 107 141 182 234 288 339
#     4  10  19  33  55  78 102 143 190 233 279 337
#     4   9  18  32  51  77 109 144 184 231 285 344
#     4  10  21  36  57  79 111 147 192 234 282 350
#
# _framework density 22.897283999999999
#
# number of rings (size 3 to 8) (size 9 to 14) (size 15 to 20)
#    0.000    2.571    0.000    1.286    2.000    3.429 
#    0.000    8.571    0.000    0.000    0.000    0.000 
#    0.000    0.000    0.000    0.000    0.000    0.000 
#
# Total GULP energy -312138.581027 kJ/mol
# GULP energy per Si atom -5573.903233 kJ/mol
# Density = 2.284517 g / cm^3
# Si number density = 22.897284 Si / 1000 Ang^3
#
#
#
# Elastic Constant Matrix: (Units=GPa)
#
#
# Indices 1 2 3 4 5 6 
#
# 1 35.5664 3.1473 10.1094 0.0000 0.0000 0.0000
# 2 3.1473 128.8640 56.2887 0.0000 0.0000 0.0000
# 3 10.1094 56.2887 105.5847 0.0000 0.0000 0.0000
# 4 0.0000 0.0000 0.0000 35.5887 0.0000 0.0000
# 5 0.0000 0.0000 0.0000 0.0000 16.3320 0.0000
# 6 0.0000 0.0000 0.0000 0.0000 0.0000 23.3379
#
#
#
# Elastic Compliance Matrix: (Units=1/GPa)
#
#
# Indices 1 2 3 4 5 6 
#
# 1 0.028946 0.000657 -0.003121 0.000000 0.000000 0.000000
# 2 0.000657 0.010131 -0.005464 0.000000 0.000000 0.000000
# 3 -0.003121 -0.005464 0.012683 0.000000 0.000000 0.000000
# 4 0.000000 0.000000 0.000000 0.028099 0.000000 0.000000
# 5 0.000000 0.000000 0.000000 0.000000 0.061229 0.000000
# 6 0.000000 0.000000 0.000000 0.000000 0.000000 0.042849
#
#
# Mechanical properties :
#
#
# Convention : Reuss Voigt Hill
#
# Bulk Modulus (GPa) = 27.85382 45.45622 36.65502
# Shear Modulus (GPa) = 23.61162 28.41639 26.01401
#
# Velocity S-wave (km/s) = 3.21471 3.52666 3.37429
# Velocity P-wave (km/s) = 5.09610 6.03974 5.58787
#
# Compressibility (1/GPa) = 0.03590172
#
# Stress axis : x y z
#
# Youngs Moduli (GPa) = 34.54763 98.71048 78.84771
#
# Poissons Ratio (x) = -0.06480 0.24612
# Poissons Ratio (y) = -0.02268 0.43080
# Poissons Ratio (z) = 0.10784 0.53932
#
# Static dielectric constant tensor:
#      x y z
#    x 1.859910 0.000000 0.000000 
#    y 0.000000 1.913330 0.000000 
#    z 0.000000 0.000000 1.921790 
# 
# From -- ./inp_files/3853.got.cif
#   From: 2010.05.17/outbox.cif.g08.bks.cpg/sg59_2_cif.got.tgz:3853.got - 2010.06.03 14:40:33.
