data_PCOD9448721
_publ_section_title
;
Structure prediction by ZEFSAII (Michael W. Deem and Ramdas Pophale) SiO2 
 PCOD9448721
Probable space group: P M M N
;
_chemical_formula_sum "Si O2"
_cell_formula_units_Z 64
_cell_length_a 16.479617
_cell_length_b 16.046893
_cell_length_c 12.184462
_cell_angle_alpha 90.000000
_cell_angle_beta 90.000000
_cell_angle_gamma 90.000000
_cell_volume 3222.140166
_symmetry_space_group_name_H-M "P M M N"
_symmetry_group_IT_number 59
_space_group.IT_coordinate_system_code '2'
_symmetry_cell_setting 'orthorhombic'
loop_
_space_group_symop_operation_xyz
x,y,z
1/2-x,1/2-y,z
1/2+x,-y,-z
-x,1/2+y,-z
-x,-y,-z
1/2+x,1/2+y,-z
1/2-x,y,z
x,1/2-y,z
loop_
_atom_site_type_symbol
_atom_site_label
_atom_site_fract_x
_atom_site_fract_y
_atom_site_fract_z
Si Si1 0.398660 0.460624 0.648800
Si Si2 0.517324 0.850532 0.979590
Si Si3 0.480821 0.343253 0.472327
Si Si4 0.342431 0.149936 0.846900
Si Si5 0.838001 0.422617 0.735079
Si Si6 0.161612 0.887575 0.519356
Si Si7 0.339262 0.846569 0.039263
Si Si8 0.463819 0.431184 0.252620
O O1 0.458110 0.407190 0.569492
O O2 0.354786 0.398787 0.732599
O O3 0.345705 0.518916 0.568683
O O4 0.449664 0.526207 0.721453
O O5 0.514276 0.750000 0.985573
O O6 0.539194 0.879280 0.857999
O O7 0.585946 0.876079 0.068366
O O8 0.425333 0.883296 0.000715
O O9 0.454685 0.250000 0.500434
O O10 0.577611 0.343794 0.449786
O O11 0.442462 0.376651 0.359643
O O12 0.250000 0.134327 0.887326
O O13 0.350163 0.250000 0.830080
O O14 0.750000 0.463474 0.747828
O O15 0.841949 0.388904 0.612445
O O16 0.843690 0.353212 0.828723
O O17 0.904709 0.490985 0.755231
O O18 0.250000 0.853614 0.552833
O O19 0.250000 0.882468 0.006678
O O20 0.338112 0.750000 0.005485
#
# Coordination Sequence:
#
# PCOD9448721 Si02
#       8
#     8   8   8   8   8   8   8   8
#     4  11  20  38  60  85 114 152 190 236 293 340
#     4  10  22  39  60  82 113 156 195 239 291 343
#     4  11  22  37  59  85 114 152 195 236 289 354
#     4  10  22  39  59  85 116 151 196 244 287 335
#     4  10  19  33  55  82 115 149 184 235 293 347
#     4  10  20  36  56  83 118 150 182 231 292 350
#     4   9  19  36  57  85 117 150 193 242 291 346
#     4  11  21  39  57  83 116 153 195 236 284 351
#
# _framework density 19.862575
#
# number of rings (size 3 to 8) (size 9 to 14) (size 15 to 20)
#    0.000    1.750    2.500    2.625    0.000    3.250 
#    0.000    5.625    0.000    4.875    0.000    0.000 
#    0.000    0.000    0.000    0.000    0.000    0.000 
#
# Total GULP energy -356711.993655 kJ/mol
# GULP energy per Si atom -5573.624901 kJ/mol
# Density = 1.981737 g / cm^3
# Si number density = 19.862575 Si / 1000 Ang^3
#
#
#
# Elastic Constant Matrix: (Units=GPa)
#
#
# Indices 1 2 3 4 5 6 
#
# 1 73.4213 4.0679 4.0497 0.0000 0.0000 0.0000
# 2 4.0679 36.9984 6.1092 0.0000 0.0000 0.0000
# 3 4.0497 6.1092 71.3219 0.0000 0.0000 0.0000
# 4 0.0000 0.0000 0.0000 55.2686 0.0000 0.0000
# 5 0.0000 0.0000 0.0000 0.0000 21.1902 0.0000
# 6 0.0000 0.0000 0.0000 0.0000 0.0000 5.3000
#
#
#
# Elastic Compliance Matrix: (Units=1/GPa)
#
#
# Indices 1 2 3 4 5 6 
#
# 1 0.013734 -0.001401 -0.000660 0.000000 0.000000 0.000000
# 2 -0.001401 0.027559 -0.002281 0.000000 0.000000 0.000000
# 3 -0.000660 -0.002281 0.014254 0.000000 0.000000 0.000000
# 4 0.000000 0.000000 0.000000 0.018093 0.000000 0.000000
# 5 0.000000 0.000000 0.000000 0.000000 0.047192 0.000000
# 6 0.000000 0.000000 0.000000 0.000000 0.000000 0.188680
#
#
# Mechanical properties :
#
#
# Convention : Reuss Voigt Hill
#
# Bulk Modulus (GPa) = 21.33886 23.35501 22.34693
# Shear Modulus (GPa) = 14.97829 27.51941 21.24885
#
# Velocity S-wave (km/s) = 2.74906 3.72626 3.27432
# Velocity P-wave (km/s) = 4.56541 5.50428 5.05669
#
# Compressibility (1/GPa) = 0.04686287
#
# Stress axis : x y z
#
# Youngs Moduli (GPa) = 72.81172 36.28594 70.15676
#
# Poissons Ratio (x) = 0.05084 0.04629
# Poissons Ratio (y) = 0.10201 0.16003
# Poissons Ratio (z) = 0.04804 0.08277
#
# Static dielectric constant tensor:
#      x y z
#    x 1.852220 0.000000 0.000000 
#    y 0.000000 1.697210 0.000000 
#    z 0.000000 0.000000 1.682300 
# 
# From -- ./inp_files/17825.got.cif
#   From: 2010.05.17/outbox.cif.g08.bks.cpg/sg59_9_cif.got.tgz:17825.got - 2010.06.03 14:40:33.
