data_PCOD9448556
_publ_section_title
;
Structure prediction by ZEFSAII (Michael W. Deem and Ramdas Pophale) SiO2 
 PCOD9448556
Probable space group: P M M N
;
_chemical_formula_sum "Si O2"
_cell_formula_units_Z 48
_cell_length_a 32.325996
_cell_length_b 8.295653
_cell_length_c 9.337646
_cell_angle_alpha 90.000000
_cell_angle_beta 90.000000
_cell_angle_gamma 90.000000
_cell_volume 2504.032134
_symmetry_space_group_name_H-M "P M M N"
_symmetry_group_IT_number 59
_space_group.IT_coordinate_system_code '2'
_symmetry_cell_setting 'orthorhombic'
loop_
_space_group_symop_operation_xyz
x,y,z
1/2-x,1/2-y,z
1/2+x,-y,-z
-x,1/2+y,-z
-x,-y,-z
1/2+x,1/2+y,-z
1/2-x,y,z
x,1/2-y,z
loop_
_atom_site_type_symbol
_atom_site_label
_atom_site_fract_x
_atom_site_fract_y
_atom_site_fract_z
Si Si1 0.659048 0.941951 0.668810
Si Si2 0.250000 0.938851 0.679138
Si Si3 0.250000 0.444320 0.355893
Si Si4 0.079572 0.552687 0.837383
Si Si5 0.920268 0.441185 0.835071
Si Si6 0.999517 0.941504 0.662584
Si Si7 0.660175 0.053832 0.339393
O O1 0.654106 0.750000 0.677394
O O2 0.706144 0.983029 0.716093
O O3 0.623564 0.021937 0.762230
O O4 0.655254 0.993345 0.502280
O O5 0.250000 0.750000 0.715627
O O6 0.204798 0.004104 0.721428
O O7 0.250000 0.963423 0.507174
O O8 0.250000 0.250000 0.384510
O O9 0.079443 0.750000 0.838080
O O10 0.039195 0.496238 0.751085
O O11 0.121408 0.503212 0.756262
O O12 0.078514 0.498010 0.001644
O O13 0.926303 0.250000 0.838325
O O14 0.957276 0.512718 0.741455
O O15 0.002908 0.750000 0.659966
O O16 0.000000 0.000000 0.500000
O O17 0.661091 0.250000 0.344301
#
# Coordination Sequence:
#
# PCOD9448556 Si02
#       7
#     8   4   4   8   8   8   8
#     4  10  19  33  53  79 106 138 178 221 264 312
#     4   8  14  24  47  78 104 130 168 214 263 312
#     4   8  16  30  49  72 104 138 172 216 265 308
#     4   9  20  36  54  75 105 140 175 214 261 310
#     4  11  22  37  54  76 107 143 176 214 260 311
#     4  11  22  38  59  83 106 135 174 218 263 312
#     4   9  16  31  53  78 105 136 173 218 265 313
#
# _framework density 19.169083000000001
#
# number of rings (size 3 to 8) (size 9 to 14) (size 15 to 20)
#    0.000    2.333    0.000    3.000    0.000    2.000 
#    0.000    5.833    0.000    2.000    0.000    3.500 
#    0.000    0.000    0.000    0.000    0.000    0.000 
#
# Total GULP energy -267759.442933 kJ/mol
# GULP energy per Si atom -5578.321728 kJ/mol
# Density = 1.912545 g / cm^3
# Si number density = 19.169083 Si / 1000 Ang^3
#
#
#
# Elastic Constant Matrix: (Units=GPa)
#
#
# Indices 1 2 3 4 5 6 
#
# 1 168.4281 9.4352 85.9115 0.0000 0.0000 0.0000
# 2 9.4352 19.0377 10.8788 0.0000 0.0000 0.0000
# 3 85.9115 10.8788 125.5433 0.0000 0.0000 0.0000
# 4 0.0000 0.0000 0.0000 15.7783 0.0000 0.0000
# 5 0.0000 0.0000 0.0000 0.0000 -13.4158 0.0000
# 6 0.0000 0.0000 0.0000 0.0000 0.0000 5.9203
#
#
#
# Elastic Compliance Matrix: (Units=1/GPa)
#
#
# Indices 1 2 3 4 5 6 
#
# 1 0.009139 -0.001005 -0.006167 0.000000 0.000000 0.000000
# 2 -0.001005 0.055374 -0.004110 0.000000 0.000000 0.000000
# 3 -0.006167 -0.004110 0.012542 0.000000 0.000000 0.000000
# 4 0.000000 0.000000 0.000000 0.063378 0.000000 0.000000
# 5 0.000000 0.000000 0.000000 0.000000 -0.074539 0.000000
# 6 0.000000 0.000000 0.000000 0.000000 0.000000 0.168911
#
#
# Mechanical properties :
#
#
# Convention : Reuss Voigt Hill
#
# Bulk Modulus (GPa) = 18.35206 58.38445 38.36826
# Shear Modulus (GPa) = 18.14656 15.44215 16.79435
#
# Velocity S-wave (km/s) = 3.08012 2.84135 2.96314
# Velocity P-wave (km/s) = 4.71636 6.42558 5.63614
#
# Compressibility (1/GPa) = 0.05448978
#
# Stress axis : x y z
#
# Youngs Moduli (GPa) = 109.41841 18.05890 79.73370
#
# Poissons Ratio (x) = 0.01816 0.49172
# Poissons Ratio (y) = 0.11001 0.32773
# Poissons Ratio (z) = 0.67478 0.07423
#
# Static dielectric constant tensor:
#      x y z
#    x 1.685950 0.000000 0.000000 
#    y 0.000000 1.663410 0.000000 
#    z 0.000000 0.000000 1.728100 
# 
# From -- ./inp_files/6411.got.cif
#   From: 2010.05.17/outbox.cif.g08.bks.cpg/sg59_4_cif.got.tgz:6411.got - 2010.06.03 14:40:33.
