data_PCOD9448150
_publ_section_title
;
Structure prediction by ZEFSAII (Michael W. Deem and Ramdas Pophale) SiO2 
 PCOD9448150
Probable space group: P M M N
;
_chemical_formula_sum "Si O2"
_cell_formula_units_Z 56
_cell_length_a 15.040143
_cell_length_b 7.412219
_cell_length_c 22.232138
_cell_angle_alpha 90.000000
_cell_angle_beta 90.000000
_cell_angle_gamma 90.000000
_cell_volume 2478.457279
_symmetry_space_group_name_H-M "P M M N"
_symmetry_group_IT_number 59
_space_group.IT_coordinate_system_code '2'
_symmetry_cell_setting 'orthorhombic'
loop_
_space_group_symop_operation_xyz
x,y,z
1/2-x,1/2-y,z
1/2+x,-y,-z
-x,1/2+y,-z
-x,-y,-z
1/2+x,1/2+y,-z
1/2-x,y,z
x,1/2-y,z
loop_
_atom_site_type_symbol
_atom_site_label
_atom_site_fract_x
_atom_site_fract_y
_atom_site_fract_z
Si Si1 0.647787 0.967943 0.046545
Si Si2 0.150261 0.964998 0.744340
Si Si3 0.649221 0.529510 0.909086
Si Si4 0.650128 0.967757 0.483739
Si Si5 0.960720 0.966931 0.372504
Si Si6 0.520106 0.457120 0.155291
Si Si7 0.847576 0.457988 0.623940
O O1 0.750000 0.019578 0.060335
O O2 0.643421 0.750000 0.048689
O O3 0.579974 0.041210 0.095217
O O4 0.628315 0.024238 0.977957
O O5 0.250000 0.037458 0.750919
O O6 0.155657 0.750000 0.755002
O O7 0.079841 0.040332 0.792329
O O8 0.111217 0.993415 0.678297
O O9 0.750000 0.474999 0.895228
O O10 0.647465 0.750000 0.909122
O O11 0.574519 0.463072 0.863476
O O12 0.750000 0.012674 0.461595
O O13 0.644896 0.750000 0.487674
O O14 0.576563 0.032330 0.436666
O O15 0.642838 0.039248 0.551286
O O16 0.968470 0.750000 0.377377
O O17 0.058540 0.037744 0.354900
O O18 0.502340 0.250000 0.173026
O O19 0.750000 0.538395 0.637785
O O20 0.844350 0.250000 0.644002
#
# Coordination Sequence:
#
# PCOD9448150 Si02
#       7
#     8   8   8   8   8   8   8
#     4   9  17  29  47  73 102 129 158 194 238 289
#     4  10  22  37  50  69  98 127 158 200 245 286
#     4   8  15  29  49  73 100 128 158 194 238 288
#     4   9  17  29  47  73 101 126 157 199 241 281
#     4  10  20  34  52  72  96 130 168 201 235 280
#     4  10  19  32  51  72  96 128 163 200 241 283
#     4   9  18  32  50  74 102 129 158 194 239 289
#
# _framework density 22.594701000000001
#
# number of rings (size 3 to 8) (size 9 to 14) (size 15 to 20)
#    0.000    2.714    0.000    2.571    0.000    3.429 
#    0.000    2.143    0.000    2.143    0.000    0.000 
#    0.000    0.000    0.000    0.000    0.000    0.000 
#
# Total GULP energy -312694.040671 kJ/mol
# GULP energy per Si atom -5583.822155 kJ/mol
# Density = 2.254327 g / cm^3
# Si number density = 22.594701 Si / 1000 Ang^3
#
#
#
# Elastic Constant Matrix: (Units=GPa)
#
#
# Indices 1 2 3 4 5 6 
#
# 1 64.4284 -8.9008 19.6455 0.0000 0.0000 0.0000
# 2 -8.9008 75.0857 -10.9866 0.0000 0.0000 0.0000
# 3 19.6455 -10.9866 36.0064 0.0000 0.0000 0.0000
# 4 0.0000 0.0000 0.0000 11.4156 0.0000 0.0000
# 5 0.0000 0.0000 0.0000 0.0000 30.5678 0.0000
# 6 0.0000 0.0000 0.0000 0.0000 0.0000 5.6909
#
#
#
# Elastic Compliance Matrix: (Units=1/GPa)
#
#
# Indices 1 2 3 4 5 6 
#
# 1 0.018660 0.000756 -0.009950 0.000000 0.000000 0.000000
# 2 0.000756 0.013971 0.003850 0.000000 0.000000 0.000000
# 3 -0.009950 0.003850 0.034377 0.000000 0.000000 0.000000
# 4 0.000000 0.000000 0.000000 0.087599 0.000000 0.000000
# 5 0.000000 0.000000 0.000000 0.000000 0.032714 0.000000
# 6 0.000000 0.000000 0.000000 0.000000 0.000000 0.175718
#
#
# Mechanical properties :
#
#
# Convention : Reuss Voigt Hill
#
# Bulk Modulus (GPa) = 17.75567 19.44854 18.60211
# Shear Modulus (GPa) = 12.73886 21.25237 16.99562
#
# Velocity S-wave (km/s) = 2.37702 3.07023 2.74559
# Velocity P-wave (km/s) = 3.92543 4.60377 4.27807
#
# Compressibility (1/GPa) = 0.05632003
#
# Stress axis : x y z
#
# Youngs Moduli (GPa) = 53.59188 71.57616 29.08948
#
# Poissons Ratio (x) = -0.05411 0.28945
# Poissons Ratio (y) = -0.04052 -0.11201
# Poissons Ratio (z) = 0.53325 -0.27560
#
# Static dielectric constant tensor:
#      x y z
#    x 1.873830 0.000000 0.000000 
#    y 0.000000 1.881260 0.000000 
#    z 0.000000 0.000000 1.785040 
# 
# From -- ./inp_files/30306.got.cif
#   From: 2010.05.17/outbox.cif.g08.bks.cpg/sg59_16_cif.got.tgz:30306.got - 2010.06.03 14:40:33.
