data_PCOD9448164
_publ_section_title
;
Structure prediction by ZEFSAII (Michael W. Deem and Ramdas Pophale) SiO2 
 PCOD9448164
Probable space group: P M M N
;
_chemical_formula_sum "Si O2"
_cell_formula_units_Z 64
_cell_length_a 23.401632
_cell_length_b 9.141441
_cell_length_c 16.541950
_cell_angle_alpha 90.000000
_cell_angle_beta 90.000000
_cell_angle_gamma 90.000000
_cell_volume 3538.730669
_symmetry_space_group_name_H-M "P M M N"
_symmetry_group_IT_number 59
_space_group.IT_coordinate_system_code '2'
_symmetry_cell_setting 'orthorhombic'
loop_
_space_group_symop_operation_xyz
x,y,z
1/2-x,1/2-y,z
1/2+x,-y,-z
-x,1/2+y,-z
-x,-y,-z
1/2+x,1/2+y,-z
1/2-x,y,z
x,1/2-y,z
loop_
_atom_site_type_symbol
_atom_site_label
_atom_site_fract_x
_atom_site_fract_y
_atom_site_fract_z
Si Si1 0.470005 0.424000 0.880806
Si Si2 0.084722 0.575593 0.726723
Si Si3 0.681650 0.415156 0.515157
Si Si4 0.003211 0.424743 0.412500
Si Si5 0.818146 0.920357 0.350919
Si Si6 0.316063 0.072517 0.166316
Si Si7 0.874476 0.926032 0.664066
Si Si8 0.917185 0.925059 0.947186
O O1 0.474273 0.250000 0.869431
O O2 0.445677 0.502238 0.802432
O O3 0.531734 0.490810 0.902303
O O4 0.428505 0.451193 0.957980
O O5 0.084865 0.750000 0.734977
O O6 0.147635 0.511331 0.715124
O O7 0.049528 0.537547 0.645473
O O8 0.750000 0.406059 0.515670
O O9 0.658210 0.250000 0.507809
O O10 0.666110 0.512131 0.437943
O O11 0.662011 0.492880 0.596253
O O12 0.003520 0.250000 0.425404
O O13 0.060197 0.460555 0.360380
O O14 0.000000 0.500000 0.500000
O O15 0.750000 0.933284 0.341504
O O16 0.833613 0.750000 0.347456
O O17 0.250000 0.020094 0.165683
O O18 0.313209 0.250000 0.166837
O O19 0.350957 0.030610 0.247637
O O20 0.355982 0.031471 0.090116
O O21 0.867828 0.750000 0.657920
O O22 0.924137 0.750000 0.933361
#
# Coordination Sequence:
#
# PCOD9448164 Si02
#       8
#     8   8   8   8   8   8   8   8
#     4  10  20  34  56  84 110 140 179 222 271 324
#     4  11  22  37  57  80 108 139 174 216 264 319
#     4  10  20  33  49  71 101 137 177 218 260 307
#     4  10  22  36  51  75 106 141 177 219 268 314
#     4  10  21  37  56  77 102 133 172 218 263 308
#     4   9  17  31  54  81 107 139 180 226 276 329
#     4  10  19  32  51  74 101 135 178 221 262 313
#     4   9  18  35  57  81 109 139 177 223 270 324
#
# _framework density 18.085581000000001
#
# number of rings (size 3 to 8) (size 9 to 14) (size 15 to 20)
#    0.000    2.125    0.000    3.375    0.000    8.000 
#    0.000    2.500    0.000    3.375    0.000    0.000 
#    0.000    0.000    0.000    0.000    0.000    0.000 
#
# Total GULP energy -357114.639205 kJ/mol
# GULP energy per Si atom -5579.916238 kJ/mol
# Density = 1.804442 g / cm^3
# Si number density = 18.085581 Si / 1000 Ang^3
#
#
#
# Elastic Constant Matrix: (Units=GPa)
#
#
# Indices 1 2 3 4 5 6 
#
# 1 91.9079 38.5138 65.1643 0.0000 0.0000 0.0000
# 2 38.5138 52.4121 48.3698 0.0000 0.0000 0.0000
# 3 65.1643 48.3698 96.5340 0.0000 0.0000 0.0000
# 4 0.0000 0.0000 0.0000 26.0556 0.0000 0.0000
# 5 0.0000 0.0000 0.0000 0.0000 26.7986 0.0000
# 6 0.0000 0.0000 0.0000 0.0000 0.0000 25.3557
#
#
#
# Elastic Compliance Matrix: (Units=1/GPa)
#
#
# Indices 1 2 3 4 5 6 
#
# 1 0.021413 -0.004455 -0.012222 0.000000 0.000000 0.000000
# 2 -0.004455 0.036419 -0.015241 0.000000 0.000000 0.000000
# 3 -0.012222 -0.015241 0.026246 0.000000 0.000000 0.000000
# 4 0.000000 0.000000 0.000000 0.038379 0.000000 0.000000
# 5 0.000000 0.000000 0.000000 0.000000 0.037315 0.000000
# 6 0.000000 0.000000 0.000000 0.000000 0.000000 0.039439
#
#
# Mechanical properties :
#
#
# Convention : Reuss Voigt Hill
#
# Bulk Modulus (GPa) = 49.40354 60.54998 54.97676
# Shear Modulus (GPa) = 18.53254 21.56239 20.04746
#
# Velocity S-wave (km/s) = 3.20459 3.45663 3.33299
# Velocity P-wave (km/s) = 6.40846 7.03445 6.72874
#
# Compressibility (1/GPa) = 0.02024146
#
# Stress axis : x y z
#
# Youngs Moduli (GPa) = 46.69977 27.45853 38.10072
#
# Poissons Ratio (x) = 0.12234 0.46569
# Poissons Ratio (y) = 0.20806 0.58068
# Poissons Ratio (z) = 0.57079 0.41848
#
# Static dielectric constant tensor:
#      x y z
#    x 1.663400 0.000000 0.000000 
#    y 0.000000 1.606010 0.000000 
#    z 0.000000 0.000000 1.604440 
# 
# From -- ./inp_files/24703.got.cif
#   From: 2010.05.17/outbox.cif.g08.bks.cpg/sg59_13_cif.got.tgz:24703.got - 2010.06.03 14:40:33.
