data_PCOD9448062
_publ_section_title
;
Structure prediction by ZEFSAII (Michael W. Deem and Ramdas Pophale) SiO2 
 PCOD9448062
Probable space group: P M M N
;
_chemical_formula_sum "Si O2"
_cell_formula_units_Z 56
_cell_length_a 15.156365
_cell_length_b 19.033097
_cell_length_c 9.618887
_cell_angle_alpha 90.000000
_cell_angle_beta 90.000000
_cell_angle_gamma 90.000000
_cell_volume 2774.785007
_symmetry_space_group_name_H-M "P M M N"
_symmetry_group_IT_number 59
_space_group.IT_coordinate_system_code '2'
_symmetry_cell_setting 'orthorhombic'
loop_
_space_group_symop_operation_xyz
x,y,z
1/2-x,1/2-y,z
1/2+x,-y,-z
-x,1/2+y,-z
-x,-y,-z
1/2+x,1/2+y,-z
1/2-x,y,z
x,1/2-y,z
loop_
_atom_site_type_symbol
_atom_site_label
_atom_site_fract_x
_atom_site_fract_y
_atom_site_fract_z
Si Si1 0.950763 0.833826 0.182392
Si Si2 0.750000 0.835045 0.202406
Si Si3 0.938842 0.329273 0.102904
Si Si4 0.382552 0.169421 0.249217
Si Si5 0.150297 0.022679 0.146987
Si Si6 0.351422 0.530858 0.849662
Si Si7 0.750000 0.666645 0.512430
Si Si8 0.497204 0.031630 0.654875
O O1 0.953676 0.750000 0.218528
O O2 0.848182 0.852751 0.149608
O O3 0.984403 0.885480 0.305588
O O4 0.009461 0.843142 0.042975
O O5 0.750000 0.750000 0.197616
O O6 0.750000 0.864248 0.360430
O O7 0.905687 0.250000 0.097142
O O8 0.865332 0.386238 0.131559
O O9 0.012923 0.333883 0.224821
O O10 0.356750 0.250000 0.212784
O O11 0.346795 0.106700 0.156400
O O12 0.337581 0.152498 0.397258
O O13 0.250000 0.995329 0.164620
O O14 0.084578 0.994186 0.263673
O O15 0.117023 0.000703 0.996251
O O16 0.250000 0.511760 0.828979
O O17 0.413849 0.504073 0.729398
O O18 0.750000 0.750000 0.491823
O O19 0.500000 0.000000 0.500000
#
# Coordination Sequence:
#
# PCOD9448062 Si02
#       8
#     8   4   8   8   8   8   4   8
#     4  10  22  40  62  90 129 169 213 262 321 391
#     4   9  20  35  53  83 125 168 200 247 313 384
#     4  10  20  38  64  90 120 163 213 270 322 375
#     4  10  19  31  54  86 116 153 199 246 304 373
#     4  11  22  39  64  89 125 166 205 262 319 374
#     4  11  24  43  65  91 125 167 213 269 324 378
#     4   9  18  31  49  79 123 160 196 239 297 378
#     4  12  26  42  64  95 131 173 214 260 325 390
#
# _framework density 20.181743999999998
#
# number of rings (size 3 to 8) (size 9 to 14) (size 15 to 20)
#    0.000    1.571    3.571    1.286    3.000    1.429 
#    0.000    3.571    0.000    0.429    0.000    0.000 
#    0.000    0.000    0.000    0.000    0.000    0.000 
#
# Total GULP energy -312518.764774 kJ/mol
# GULP energy per Si atom -5580.692228 kJ/mol
# Density = 2.013581 g / cm^3
# Si number density = 20.181744 Si / 1000 Ang^3
#
#
#
# Elastic Constant Matrix: (Units=GPa)
#
#
# Indices 1 2 3 4 5 6 
#
# 1 68.4697 25.0962 47.6382 0.0000 0.0000 0.0000
# 2 25.0962 106.2524 34.7460 0.0000 0.0000 0.0000
# 3 47.6382 34.7460 123.9282 0.0000 0.0000 0.0000
# 4 0.0000 0.0000 0.0000 21.2986 0.0000 0.0000
# 5 0.0000 0.0000 0.0000 0.0000 -12.7875 0.0000
# 6 0.0000 0.0000 0.0000 0.0000 0.0000 19.3808
#
#
#
# Elastic Compliance Matrix: (Units=1/GPa)
#
#
# Indices 1 2 3 4 5 6 
#
# 1 0.020521 -0.002496 -0.007189 0.000000 0.000000 0.000000
# 2 -0.002496 0.010665 -0.002031 0.000000 0.000000 0.000000
# 3 -0.007189 -0.002031 0.011402 0.000000 0.000000 0.000000
# 4 0.000000 0.000000 0.000000 0.046952 0.000000 0.000000
# 5 0.000000 0.000000 0.000000 0.000000 -0.078202 0.000000
# 6 0.000000 0.000000 0.000000 0.000000 0.000000 0.051597
#
#
# Mechanical properties :
#
#
# Convention : Reuss Voigt Hill
#
# Bulk Modulus (GPa) = 52.19899 57.06788 54.63344
# Shear Modulus (GPa) = 53.90668 18.32304 36.11486
#
# Velocity S-wave (km/s) = 5.17384 3.01641 4.23482
# Velocity P-wave (km/s) = 7.84934 6.36160 7.14430
#
# Compressibility (1/GPa) = 0.01915746
#
# Stress axis : x y z
#
# Youngs Moduli (GPa) = 48.72940 93.76285 87.70515
#
# Poissons Ratio (x) = 0.23406 0.63048
# Poissons Ratio (y) = 0.12164 0.17810
# Poissons Ratio (z) = 0.35030 0.19040
#
# Static dielectric constant tensor:
#      x y z
#    x 1.715340 0.000000 0.000000 
#    y 0.000000 1.759090 0.000000 
#    z 0.000000 0.000000 1.732000 
# 
# From -- ./inp_files/9420.got.cif
#   From: 2010.05.17/outbox.cif.g08.bks.cpg/sg59_5_cif.got.tgz:9420.got - 2010.06.03 14:40:33.
