data_PCOD9448620
_publ_section_title
;
Structure prediction by ZEFSAII (Michael W. Deem and Ramdas Pophale) SiO2 
 PCOD9448620
Probable space group: P M M N
;
_chemical_formula_sum "Si O2"
_cell_formula_units_Z 48
_cell_length_a 13.726890
_cell_length_b 9.732469
_cell_length_c 20.273003
_cell_angle_alpha 90.000000
_cell_angle_beta 90.000000
_cell_angle_gamma 90.000000
_cell_volume 2708.402882
_symmetry_space_group_name_H-M "P M M N"
_symmetry_group_IT_number 59
_space_group.IT_coordinate_system_code '2'
_symmetry_cell_setting 'orthorhombic'
loop_
_space_group_symop_operation_xyz
x,y,z
1/2-x,1/2-y,z
1/2+x,-y,-z
-x,1/2+y,-z
-x,-y,-z
1/2+x,1/2+y,-z
1/2-x,y,z
x,1/2-y,z
loop_
_atom_site_type_symbol
_atom_site_label
_atom_site_fract_x
_atom_site_fract_y
_atom_site_fract_z
Si Si1 0.025018 0.411672 0.602631
Si Si2 0.553805 0.084150 0.267921
Si Si3 0.750000 0.896097 0.062719
Si Si4 0.250000 0.586838 0.814056
Si Si5 0.139036 0.416630 0.184433
Si Si6 0.134833 0.408395 0.465338
Si Si7 0.926464 0.594988 0.961612
O O1 0.012448 0.250000 0.617332
O O2 0.925874 0.483673 0.577391
O O3 0.060145 0.498593 0.664966
O O4 0.099249 0.422767 0.540917
O O5 0.552676 0.250000 0.279123
O O6 0.649808 0.052325 0.224450
O O7 0.451528 0.046107 0.231710
O O8 0.750000 0.750000 0.099748
O O9 0.661083 0.898365 0.012787
O O10 0.750000 0.014846 0.115570
O O11 0.250000 0.750000 0.822479
O O12 0.250000 0.464119 0.200541
O O13 0.143017 0.250000 0.185080
O O14 0.110038 0.456467 0.109611
O O15 0.250000 0.428256 0.459991
O O16 0.112037 0.250000 0.445174
O O17 0.965650 0.750000 0.950930
O O18 0.000000 0.500000 0.000000
#
# Coordination Sequence:
#
# PCOD9448620 Si02
#       7
#     8   8   4   4   8   8   8
#     4  10  21  36  56  85 116 146 184 232 283 329
#     4  10  21  36  55  79 110 149 191 232 277 335
#     4  10  20  34  54  80 108 137 180 233 286 337
#     4  10  22  38  54  80 114 149 192 237 282 335
#     4   9  17  33  55  76 101 140 187 226 266 329
#     4   9  19  37  60  83 111 148 190 228 270 334
#     4  10  19  33  54  79 105 136 177 226 279 333
#
# _framework density 17.722621
#
# number of rings (size 3 to 8) (size 9 to 14) (size 15 to 20)
#    0.000    2.333    0.833    1.500    1.167    4.333 
#    0.000    2.500    0.000    1.000    0.000    0.000 
#    0.000    0.000    0.000    0.000    0.000    0.000 
#
# Total GULP energy -267507.794680 kJ/mol
# GULP energy per Si atom -5573.079056 kJ/mol
# Density = 1.768228 g / cm^3
# Si number density = 17.722621 Si / 1000 Ang^3
#
#
#
# Elastic Constant Matrix: (Units=GPa)
#
#
# Indices 1 2 3 4 5 6 
#
# 1 59.6323 12.5065 -14.8230 0.0000 0.0000 0.0000
# 2 12.5065 36.2134 18.5437 0.0000 0.0000 0.0000
# 3 -14.8230 18.5437 43.2347 0.0000 0.0000 0.0000
# 4 0.0000 0.0000 0.0000 31.8041 0.0000 0.0000
# 5 0.0000 0.0000 0.0000 0.0000 -62.1806 0.0000
# 6 0.0000 0.0000 0.0000 0.0000 0.0000 19.4184
#
#
#
# Elastic Compliance Matrix: (Units=1/GPa)
#
#
# Indices 1 2 3 4 5 6 
#
# 1 0.023833 -0.015909 0.014995 0.000000 0.000000 0.000000
# 2 -0.015909 0.046006 -0.025187 0.000000 0.000000 0.000000
# 3 0.014995 -0.025187 0.039073 0.000000 0.000000 0.000000
# 4 0.000000 0.000000 0.000000 0.031442 0.000000 0.000000
# 5 0.000000 0.000000 0.000000 0.000000 -0.016082 0.000000
# 6 0.000000 0.000000 0.000000 0.000000 0.000000 0.051497
#
#
# Mechanical properties :
#
#
# Convention : Reuss Voigt Hill
#
# Bulk Modulus (GPa) = 17.63355 19.05943 18.34649
# Shear Modulus (GPa) = 20.25305 5.99860 13.12582
#
# Velocity S-wave (km/s) = 3.38417 1.84175 2.72440
# Velocity P-wave (km/s) = 5.02409 3.91157 4.50233
#
# Compressibility (1/GPa) = 0.05671008
#
# Stress axis : x y z
#
# Youngs Moduli (GPa) = 41.95788 21.73636 25.59285
#
# Poissons Ratio (x) = 0.34581 -0.38376
# Poissons Ratio (y) = 0.66753 0.64460
# Poissons Ratio (z) = -0.62916 0.54747
#
# Static dielectric constant tensor:
#      x y z
#    x 1.601280 0.000000 0.000000 
#    y 0.000000 1.615830 0.000000 
#    z 0.000000 0.000000 1.583020 
# 
# From -- ./inp_files/27409.got.cif
#   From: 2010.05.17/outbox.cif.g08.bks.cpg/sg59_14_cif.got.tgz:27409.got - 2010.06.03 14:40:33.
