data_PCOD9448093
_publ_section_title
;
Structure prediction by ZEFSAII (Michael W. Deem and Ramdas Pophale) SiO2 
 PCOD9448093
Probable space group: P M M N
;
_chemical_formula_sum "Si O2"
_cell_formula_units_Z 48
_cell_length_a 26.862407
_cell_length_b 7.465550
_cell_length_c 11.930218
_cell_angle_alpha 90.000000
_cell_angle_beta 90.000000
_cell_angle_gamma 90.000000
_cell_volume 2392.517444
_symmetry_space_group_name_H-M "P M M N"
_symmetry_group_IT_number 59
_space_group.IT_coordinate_system_code '2'
_symmetry_cell_setting 'orthorhombic'
loop_
_space_group_symop_operation_xyz
x,y,z
1/2-x,1/2-y,z
1/2+x,-y,-z
-x,1/2+y,-z
-x,-y,-z
1/2+x,1/2+y,-z
1/2-x,y,z
x,1/2-y,z
loop_
_atom_site_type_symbol
_atom_site_label
_atom_site_fract_x
_atom_site_fract_y
_atom_site_fract_z
Si Si1 0.193411 0.034212 0.874991
Si Si2 0.001242 0.035421 0.631538
Si Si3 0.904496 0.467322 0.766382
Si Si4 0.942375 0.038851 0.011359
Si Si5 0.900839 0.549209 0.244963
Si Si6 0.194052 0.964721 0.137581
O O1 0.250000 0.970680 0.857086
O O2 0.193052 0.250000 0.865605
O O3 0.153146 0.965857 0.784129
O O4 0.180630 0.995076 0.005727
O O5 0.002185 0.250000 0.652538
O O6 0.949465 0.968179 0.687043
O O7 0.053413 0.965845 0.684579
O O8 0.000000 0.000000 0.500000
O O9 0.903591 0.250000 0.753871
O O10 0.846987 0.529209 0.772289
O O11 0.920545 0.512312 0.892364
O O12 0.933303 0.250000 0.028530
O O13 0.922333 0.940283 0.119337
O O14 0.000000 0.000000 0.000000
O O15 0.892493 0.750000 0.291123
O O16 0.250000 0.035692 0.153323
O O17 0.195676 0.750000 0.149104
#
# Coordination Sequence:
#
# PCOD9448093 Si02
#       6
#     8   8   8   8   8   8
#     4   9  17  28  44  70 102 131 156 185 228 282
#     4  10  21  37  51  66  90 122 163 207 247 285
#     4   9  17  30  47  68  98 127 151 192 237 278
#     4  11  19  29  46  72 102 129 157 189 238 295
#     4  10  19  32  49  70  99 130 158 196 241 287
#     4   9  16  27  45  70  99 130 158 183 224 284
#
# _framework density 20.062550000000002
#
# number of rings (size 3 to 8) (size 9 to 14) (size 15 to 20)
#    0.000    2.333    3.333    0.500    0.000    0.667 
#    0.000    0.833    0.000    1.000    0.000    0.000 
#    0.000    0.000    0.000    0.000    0.000    0.000 
#
# Total GULP energy -267309.984845 kJ/mol
# GULP energy per Si atom -5568.958018 kJ/mol
# Density = 2.001689 g / cm^3
# Si number density = 20.062550 Si / 1000 Ang^3
#
#
#
# Elastic Constant Matrix: (Units=GPa)
#
#
# Indices 1 2 3 4 5 6 
#
# 1 202.1782 2.6198 71.5990 0.0000 0.0000 0.0000
# 2 2.6198 56.7656 5.9339 0.0000 0.0000 0.0000
# 3 71.5990 5.9339 89.2125 0.0000 0.0000 0.0000
# 4 0.0000 0.0000 0.0000 18.1937 0.0000 0.0000
# 5 0.0000 0.0000 0.0000 0.0000 14.2991 0.0000
# 6 0.0000 0.0000 0.0000 0.0000 0.0000 -2.7280
#
#
#
# Elastic Compliance Matrix: (Units=1/GPa)
#
#
# Indices 1 2 3 4 5 6 
#
# 1 0.006914 0.000263 -0.005566 0.000000 0.000000 0.000000
# 2 0.000263 0.017750 -0.001392 0.000000 0.000000 0.000000
# 3 -0.005566 -0.001392 0.015769 0.000000 0.000000 0.000000
# 4 0.000000 0.000000 0.000000 0.054964 0.000000 0.000000
# 5 0.000000 0.000000 0.000000 0.000000 0.069935 0.000000
# 6 0.000000 0.000000 0.000000 0.000000 0.000000 -0.366564
#
#
# Mechanical properties :
#
#
# Convention : Reuss Voigt Hill
#
# Bulk Modulus (GPa) = 36.97882 56.49576 46.73729
# Shear Modulus (GPa) = -27.95978 23.81986 -2.06996
#
# Velocity S-wave (km/s) = -3.73719 3.44943 -1.01686
# Velocity P-wave (km/s) = 0.38769 6.63971 4.68697
#
# Compressibility (1/GPa) = 0.02704251
#
# Stress axis : x y z
#
# Youngs Moduli (GPa) = 144.63389 56.33921 63.41488
#
# Poissons Ratio (x) = -0.01481 0.35299
# Poissons Ratio (y) = -0.03801 0.08824
# Poissons Ratio (z) = 0.80509 0.07840
#
# Static dielectric constant tensor:
#      x y z
#    x 1.828160 0.000000 0.000000 
#    y 0.000000 1.760360 0.000000 
#    z 0.000000 0.000000 1.645120 
# 
# From -- ./inp_files/14509.got.cif
#   From: 2010.05.17/outbox.cif.g08.bks.cpg/sg59_8_cif.got.tgz:14509.got - 2010.06.03 14:40:33.
