data_PCOD9448807
_publ_section_title
;
Structure prediction by ZEFSAII (Michael W. Deem and Ramdas Pophale) SiO2 
 PCOD9448807
Probable space group: P M M N
;
_chemical_formula_sum "Si O2"
_cell_formula_units_Z 64
_cell_length_a 18.636276
_cell_length_b 7.892736
_cell_length_c 22.366620
_cell_angle_alpha 90.000000
_cell_angle_beta 90.000000
_cell_angle_gamma 90.000000
_cell_volume 3289.933121
_symmetry_space_group_name_H-M "P M M N"
_symmetry_group_IT_number 59
_space_group.IT_coordinate_system_code '2'
_symmetry_cell_setting 'orthorhombic'
loop_
_space_group_symop_operation_xyz
x,y,z
1/2-x,1/2-y,z
1/2+x,-y,-z
-x,1/2+y,-z
-x,-y,-z
1/2+x,1/2+y,-z
1/2-x,y,z
x,1/2-y,z
loop_
_atom_site_type_symbol
_atom_site_label
_atom_site_fract_x
_atom_site_fract_y
_atom_site_fract_z
Si Si1 0.331857 0.454659 0.502539
Si Si2 0.101983 0.049975 0.751507
Si Si3 0.026098 0.549423 0.934696
Si Si4 0.170237 0.454398 0.873624
Si Si5 0.584322 0.541822 0.379547
Si Si6 0.457515 0.452862 0.187261
Si Si7 0.919312 0.453418 0.615569
Si Si8 0.831728 0.454286 0.731225
O O1 0.250000 0.515956 0.497295
O O2 0.330074 0.250000 0.504539
O O3 0.369435 0.513337 0.563732
O O4 0.378459 0.504970 0.445371
O O5 0.117765 0.250000 0.749304
O O6 0.145921 0.979613 0.808024
O O7 0.113703 0.983111 0.684858
O O8 0.018400 0.027432 0.768813
O O9 0.022187 0.750000 0.931403
O O10 0.107599 0.498665 0.919728
O O11 0.977669 0.483401 0.879246
O O12 0.000000 0.500000 0.000000
O O13 0.250000 0.514484 0.888837
O O14 0.171906 0.250000 0.870342
O O15 0.584570 0.750000 0.379055
O O16 0.501502 0.485977 0.385201
O O17 0.464799 0.250000 0.188817
O O18 0.379796 0.499939 0.211705
O O19 0.922660 0.250000 0.621230
O O20 0.874079 0.517974 0.672436
O O21 0.750000 0.516839 0.733381
O O22 0.829135 0.250000 0.727456
#
# Coordination Sequence:
#
# PCOD9448807 Si02
#       8
#     8   8   8   8   8   8   8   8
#     4  10  21  34  47  69 101 133 168 215 268 315
#     4   9  16  31  54  76 103 138 174 211 256 311
#     4  10  21  37  58  83 110 147 186 219 259 308
#     4   9  18  32  54  85 115 143 178 220 264 312
#     4   9  17  31  52  74  97 131 173 214 257 309
#     4  10  20  34  53  79 109 135 167 211 260 309
#     4  10  19  34  54  72  94 130 176 217 257 311
#     4  10  20  34  54  78 102 133 174 216 261 316
#
# _framework density 19.453282000000002
#
# number of rings (size 3 to 8) (size 9 to 14) (size 15 to 20)
#    0.000    2.375    1.250    1.500    0.000    3.750 
#    0.000    3.750    0.000    0.750    0.000    1.750 
#    0.000    0.000    0.000    0.000    0.000    0.000 
#
# Total GULP energy -357138.164098 kJ/mol
# GULP energy per Si atom -5580.283814 kJ/mol
# Density = 1.940901 g / cm^3
# Si number density = 19.453282 Si / 1000 Ang^3
#
#
#
# Elastic Constant Matrix: (Units=GPa)
#
#
# Indices 1 2 3 4 5 6 
#
# 1 94.1803 2.6600 65.2957 0.0000 0.0000 0.0000
# 2 2.6600 17.7105 3.5727 0.0000 0.0000 0.0000
# 3 65.2957 3.5727 141.4410 0.0000 0.0000 0.0000
# 4 0.0000 0.0000 0.0000 22.2977 0.0000 0.0000
# 5 0.0000 0.0000 0.0000 0.0000 18.7900 0.0000
# 6 0.0000 0.0000 0.0000 0.0000 0.0000 15.7968
#
#
#
# Elastic Compliance Matrix: (Units=1/GPa)
#
#
# Indices 1 2 3 4 5 6 
#
# 1 0.015630 -0.000897 -0.007193 0.000000 0.000000 0.000000
# 2 -0.000897 0.056804 -0.001021 0.000000 0.000000 0.000000
# 3 -0.007193 -0.001021 0.010416 0.000000 0.000000 0.000000
# 4 0.000000 0.000000 0.000000 0.044848 0.000000 0.000000
# 5 0.000000 0.000000 0.000000 0.000000 0.053220 0.000000
# 6 0.000000 0.000000 0.000000 0.000000 0.000000 0.063304
#
#
# Mechanical properties :
#
#
# Convention : Reuss Voigt Hill
#
# Bulk Modulus (GPa) = 15.47271 44.04319 29.75795
# Shear Modulus (GPa) = 17.60646 23.49712 20.55179
#
# Velocity S-wave (km/s) = 3.01169 3.47922 3.25386
# Velocity P-wave (km/s) = 4.47937 6.23134 5.42653
#
# Compressibility (1/GPa) = 0.06462993
#
# Stress axis : x y z
#
# Youngs Moduli (GPa) = 63.97878 17.60435 96.00170
#
# Poissons Ratio (x) = 0.01578 0.69054
# Poissons Ratio (y) = 0.05736 0.09801
# Poissons Ratio (z) = 0.46020 0.01797
#
# Static dielectric constant tensor:
#      x y z
#    x 1.665410 0.000000 0.000000 
#    y 0.000000 1.708450 0.000000 
#    z 0.000000 0.000000 1.916910 
# 
# From -- ./inp_files/30733.got.cif
#   From: 2010.05.17/outbox.cif.g08.bks.cpg/sg59_16_cif.got.tgz:30733.got - 2010.06.03 14:40:33.
