data_PCOD9448374
_publ_section_title
;
Structure prediction by ZEFSAII (Michael W. Deem and Ramdas Pophale) SiO2 
 PCOD9448374
Probable space group: P M M N
;
_chemical_formula_sum "Si O2"
_cell_formula_units_Z 48
_cell_length_a 22.675141
_cell_length_b 7.654647
_cell_length_c 12.540632
_cell_angle_alpha 90.000000
_cell_angle_beta 90.000000
_cell_angle_gamma 90.000000
_cell_volume 2176.680005
_symmetry_space_group_name_H-M "P M M N"
_symmetry_group_IT_number 59
_space_group.IT_coordinate_system_code '2'
_symmetry_cell_setting 'orthorhombic'
loop_
_space_group_symop_operation_xyz
x,y,z
1/2-x,1/2-y,z
1/2+x,-y,-z
-x,1/2+y,-z
-x,-y,-z
1/2+x,1/2+y,-z
1/2-x,y,z
x,1/2-y,z
loop_
_atom_site_type_symbol
_atom_site_label
_atom_site_fract_x
_atom_site_fract_y
_atom_site_fract_z
Si Si1 0.186316 0.539169 0.598552
Si Si2 0.344923 0.537951 0.361086
Si Si3 0.021789 0.959945 0.381318
Si Si4 0.917521 0.542974 0.240314
Si Si5 0.314766 0.455876 0.124054
Si Si6 0.570706 0.960096 0.004505
O O1 0.250000 0.482606 0.639524
O O2 0.184199 0.750000 0.596188
O O3 0.179797 0.481012 0.475790
O O4 0.134828 0.481310 0.676263
O O5 0.342015 0.750000 0.359762
O O6 0.412598 0.477523 0.361879
O O7 0.316736 0.475728 0.251840
O O8 0.023294 0.750000 0.372478
O O9 0.975962 0.031495 0.295587
O O10 0.000000 0.000000 0.500000
O O11 0.926602 0.750000 0.228101
O O12 0.908502 0.476453 0.121437
O O13 0.250000 0.527417 0.087888
O O14 0.313842 0.250000 0.097960
O O15 0.377733 0.525361 0.077019
O O16 0.572591 0.750000 0.996550
O O17 0.500000 0.000000 0.000000
#
# Coordination Sequence:
#
# PCOD9448374 Si02
#       6
#     8   8   8   8   8   8
#     4  10  21  36  54  79 112 149 187 227 276 334
#     4  10  20  36  58  83 114 151 188 232 285 342
#     4  10  19  32  53  81 111 142 179 223 274 336
#     4  10  21  36  56  83 112 144 185 228 278 340
#     4  10  22  39  59  85 116 153 198 245 293 346
#     4  10  22  41  63  87 116 151 193 243 294 345
#
# _framework density 22.051932000000001
#
# number of rings (size 3 to 8) (size 9 to 14) (size 15 to 20)
#    0.000    2.000    1.667    1.500    0.000    6.000 
#    0.000    1.667    0.000    0.000    0.000    0.000 
#    0.000    0.000    0.000    0.000    0.000    0.000 
#
# Total GULP energy -267820.590458 kJ/mol
# GULP energy per Si atom -5579.595635 kJ/mol
# Density = 2.200174 g / cm^3
# Si number density = 22.051932 Si / 1000 Ang^3
#
#
#
# Elastic Constant Matrix: (Units=GPa)
#
#
# Indices 1 2 3 4 5 6 
#
# 1 172.1712 3.2093 50.1263 0.0000 0.0000 0.0000
# 2 3.2093 39.2318 -4.2148 0.0000 0.0000 0.0000
# 3 50.1263 -4.2148 111.2972 0.0000 0.0000 0.0000
# 4 0.0000 0.0000 0.0000 16.9564 0.0000 0.0000
# 5 0.0000 0.0000 0.0000 0.0000 7.4084 0.0000
# 6 0.0000 0.0000 0.0000 0.0000 0.0000 12.4001
#
#
#
# Elastic Compliance Matrix: (Units=1/GPa)
#
#
# Indices 1 2 3 4 5 6 
#
# 1 0.006715 -0.000878 -0.003057 0.000000 0.000000 0.000000
# 2 -0.000878 0.025708 0.001369 0.000000 0.000000 0.000000
# 3 -0.003057 0.001369 0.010414 0.000000 0.000000 0.000000
# 4 0.000000 0.000000 0.000000 0.058975 0.000000 0.000000
# 5 0.000000 0.000000 0.000000 0.000000 0.134982 0.000000
# 6 0.000000 0.000000 0.000000 0.000000 0.000000 0.080644
#
#
# Mechanical properties :
#
#
# Convention : Reuss Voigt Hill
#
# Bulk Modulus (GPa) = 26.52216 46.77131 36.64674
# Shear Modulus (GPa) = 14.91922 25.59162 20.25542
#
# Velocity S-wave (km/s) = 2.60388 3.41033 3.03402
# Velocity P-wave (km/s) = 4.59276 6.06323 5.37849
#
# Compressibility (1/GPa) = 0.03770431
#
# Stress axis : x y z
#
# Youngs Moduli (GPa) = 148.92753 38.89784 96.02649
#
# Poissons Ratio (x) = 0.03414 0.29359
# Poissons Ratio (y) = 0.13072 -0.13145
# Poissons Ratio (z) = 0.45533 -0.05325
#
# Static dielectric constant tensor:
#      x y z
#    x 1.877340 0.000000 0.000000 
#    y 0.000000 1.834240 0.000000 
#    z 0.000000 0.000000 1.791750 
# 
# From -- ./inp_files/18590.got.cif
#   From: 2010.05.17/outbox.cif.g08.bks.cpg/sg59_10_cif.got.tgz:18590.got - 2010.06.03 14:40:33.
