data_PCOD9448507
_publ_section_title
;
Structure prediction by ZEFSAII (Michael W. Deem and Ramdas Pophale) SiO2 
 PCOD9448507
Probable space group: P M M N
;
_chemical_formula_sum "Si O2"
_cell_formula_units_Z 48
_cell_length_a 8.594420
_cell_length_b 21.354374
_cell_length_c 15.438889
_cell_angle_alpha 90.000000
_cell_angle_beta 90.000000
_cell_angle_gamma 90.000000
_cell_volume 2833.475507
_symmetry_space_group_name_H-M "P M M N"
_symmetry_group_IT_number 59
_space_group.IT_coordinate_system_code '2'
_symmetry_cell_setting 'orthorhombic'
loop_
_space_group_symop_operation_xyz
x,y,z
1/2-x,1/2-y,z
1/2+x,-y,-z
-x,1/2+y,-z
-x,-y,-z
1/2+x,1/2+y,-z
1/2-x,y,z
x,1/2-y,z
loop_
_atom_site_type_symbol
_atom_site_label
_atom_site_fract_x
_atom_site_fract_y
_atom_site_fract_z
Si Si1 0.560262 0.182322 0.492767
Si Si2 0.568691 0.155420 0.299073
Si Si3 0.063484 0.457579 0.077263
Si Si4 0.436007 0.181885 0.113651
Si Si5 0.569404 0.490652 0.262622
Si Si6 0.436615 0.949341 0.431185
O O1 0.750000 0.180631 0.492310
O O2 0.512152 0.250000 0.528640
O O3 0.512503 0.178265 0.392101
O O4 0.508272 0.120042 0.541687
O O5 0.750000 0.173606 0.288010
O O6 0.475316 0.177865 0.215694
O O7 0.562758 0.080147 0.299510
O O8 0.250000 0.456461 0.074006
O O9 0.006130 0.384610 0.074976
O O10 0.010664 0.486496 0.169119
O O11 0.000000 0.500000 0.000000
O O12 0.250000 0.181899 0.102745
O O13 0.495189 0.250000 0.081517
O O14 0.750000 0.507668 0.251854
O O15 0.490585 0.533436 0.334813
O O16 0.250000 0.951120 0.435719
O O17 0.500000 0.000000 0.500000
#
# Coordination Sequence:
#
# PCOD9448507 Si02
#       6
#     8   8   8   8   8   8
#     4   9  17  29  45  67  97 133 172 212 252 294
#     4   9  16  28  46  69  97 130 166 200 240 296
#     4  10  20  35  55  79 105 134 166 207 254 303
#     4   9  18  31  47  71 103 133 160 196 248 304
#     4  10  19  33  52  76 101 131 170 211 252 300
#     4  11  20  32  50  73 101 135 174 213 251 297
#
# _framework density 16.940325999999999
#
# number of rings (size 3 to 8) (size 9 to 14) (size 15 to 20)
#    0.000    2.333    1.667    2.000    0.000    2.333 
#    0.000    0.000    0.000    4.000    0.000    0.000 
#    0.000    0.000    0.000    0.000    0.000    0.000 
#
# Total GULP energy -267545.142431 kJ/mol
# GULP energy per Si atom -5573.857134 kJ/mol
# Density = 1.690177 g / cm^3
# Si number density = 16.940326 Si / 1000 Ang^3
#
#
#
# Elastic Constant Matrix: (Units=GPa)
#
#
# Indices 1 2 3 4 5 6 
#
# 1 34.6657 27.6125 22.0444 0.0000 0.0000 0.0000
# 2 27.6125 158.8370 77.9043 0.0000 0.0000 0.0000
# 3 22.0444 77.9043 91.8399 0.0000 0.0000 0.0000
# 4 0.0000 0.0000 0.0000 17.7696 0.0000 0.0000
# 5 0.0000 0.0000 0.0000 0.0000 27.6824 0.0000
# 6 0.0000 0.0000 0.0000 0.0000 0.0000 14.0443
#
#
#
# Elastic Compliance Matrix: (Units=1/GPa)
#
#
# Indices 1 2 3 4 5 6 
#
# 1 0.035066 -0.003370 -0.005559 0.000000 0.000000 0.000000
# 2 -0.003370 0.011105 -0.008611 0.000000 0.000000 0.000000
# 3 -0.005559 -0.008611 0.019527 0.000000 0.000000 0.000000
# 4 0.000000 0.000000 0.000000 0.056276 0.000000 0.000000
# 5 0.000000 0.000000 0.000000 0.000000 0.036124 0.000000
# 6 0.000000 0.000000 0.000000 0.000000 0.000000 0.071203
#
#
# Mechanical properties :
#
#
# Convention : Reuss Voigt Hill
#
# Bulk Modulus (GPa) = 32.65905 60.05168 46.35537
# Shear Modulus (GPa) = 18.20923 22.41803 20.31363
#
# Velocity S-wave (km/s) = 3.28213 3.64174 3.46660
# Velocity P-wave (km/s) = 5.80378 7.29444 6.59139
#
# Compressibility (1/GPa) = 0.03061938
#
# Stress axis : x y z
#
# Youngs Moduli (GPa) = 28.51787 90.04921 51.21042
#
# Poissons Ratio (x) = 0.30343 0.28466
# Poissons Ratio (y) = 0.09609 0.44098
# Poissons Ratio (z) = 0.15852 0.77543
#
# Static dielectric constant tensor:
#      x y z
#    x 1.582970 0.000000 0.000000 
#    y 0.000000 1.624550 0.000000 
#    z 0.000000 0.000000 1.536200 
# 
# From -- ./inp_files/20690.got.cif
#   From: 2010.05.17/outbox.cif.g08.bks.cpg/sg59_11_cif.got.tgz:20690.got - 2010.06.03 14:40:33.
