data_PCOD9448695
_publ_section_title
;
Structure prediction by ZEFSAII (Michael W. Deem and Ramdas Pophale) SiO2 
 PCOD9448695
Probable space group: P M M N
;
_chemical_formula_sum "Si O2"
_cell_formula_units_Z 64
_cell_length_a 21.330249
_cell_length_b 15.826227
_cell_length_c 8.604447
_cell_angle_alpha 90.000000
_cell_angle_beta 90.000000
_cell_angle_gamma 90.000000
_cell_volume 2904.666525
_symmetry_space_group_name_H-M "P M M N"
_symmetry_group_IT_number 59
_space_group.IT_coordinate_system_code '2'
_symmetry_cell_setting 'orthorhombic'
loop_
_space_group_symop_operation_xyz
x,y,z
1/2-x,1/2-y,z
1/2+x,-y,-z
-x,1/2+y,-z
-x,-y,-z
1/2+x,1/2+y,-z
1/2-x,y,z
x,1/2-y,z
loop_
_atom_site_type_symbol
_atom_site_label
_atom_site_fract_x
_atom_site_fract_y
_atom_site_fract_z
Si Si1 0.387216 0.852726 0.218529
Si Si2 0.850350 0.344521 0.109992
Si Si3 0.490955 0.632521 0.815093
Si Si4 0.181137 0.147237 0.281730
Si Si5 0.612879 0.655790 0.014173
Si Si6 0.323274 0.851000 0.542212
Si Si7 0.522688 0.563278 0.226729
Si Si8 0.940062 0.654408 0.516572
O O1 0.386616 0.750000 0.217307
O O2 0.362073 0.881192 0.389532
O O3 0.458714 0.884568 0.196522
O O4 0.345638 0.880779 0.066869
O O5 0.822130 0.250000 0.106701
O O6 0.925068 0.337442 0.125967
O O7 0.832756 0.384490 0.279136
O O8 0.550169 0.663760 0.910479
O O9 0.490754 0.531554 0.819473
O O10 0.504531 0.659810 0.640942
O O11 0.250000 0.117909 0.329601
O O12 0.181563 0.250000 0.274911
O O13 0.163848 0.120700 0.106127
O O14 0.123995 0.128281 0.396604
O O15 0.630812 0.750000 0.069405
O O16 0.586410 0.595278 0.144698
O O17 0.250000 0.861559 0.504958
O O18 0.336813 0.750000 0.554012
O O19 0.539260 0.581432 0.402987
O O20 0.932587 0.750000 0.448350
#
# Coordination Sequence:
#
# PCOD9448695 Si02
#       8
#     8   8   8   8   8   8   8   8
#     4  10  20  33  54  81 113 147 183 230 284 340
#     4  10  19  33  56  80 106 148 188 227 280 341
#     4  11  21  34  53  80 111 146 181 221 273 336
#     4   8  16  33  56  79 102 137 187 229 263 321
#     4  10  19  33  55  80 110 143 178 222 275 329
#     4   9  19  35  54  79 107 139 189 243 281 323
#     4  12  22  33  52  85 117 142 174 231 284 334
#     4  10  20  34  55  80 112 148 181 223 277 335
#
# _framework density 22.03351
#
# number of rings (size 3 to 8) (size 9 to 14) (size 15 to 20)
#    0.000    2.000    1.250    4.500    0.000    1.500 
#    0.000    3.125    0.000   10.500    0.000    0.000 
#    0.000    0.000    0.000    0.000    0.000    0.000 
#
# Total GULP energy -356682.548722 kJ/mol
# GULP energy per Si atom -5573.164824 kJ/mol
# Density = 2.198336 g / cm^3
# Si number density = 22.033510 Si / 1000 Ang^3
#
#
#
# Elastic Constant Matrix: (Units=GPa)
#
#
# Indices 1 2 3 4 5 6 
#
# 1 71.2383 4.1995 26.4474 0.0000 0.0000 0.0000
# 2 4.1995 51.1844 12.3093 0.0000 0.0000 0.0000
# 3 26.4474 12.3093 112.8505 0.0000 0.0000 0.0000
# 4 0.0000 0.0000 0.0000 15.3837 0.0000 0.0000
# 5 0.0000 0.0000 0.0000 0.0000 18.5465 0.0000
# 6 0.0000 0.0000 0.0000 0.0000 0.0000 15.0737
#
#
#
# Elastic Compliance Matrix: (Units=1/GPa)
#
#
# Indices 1 2 3 4 5 6 
#
# 1 0.015383 -0.000406 -0.003561 0.000000 0.000000 0.000000
# 2 -0.000406 0.020074 -0.002095 0.000000 0.000000 0.000000
# 3 -0.003561 -0.002095 0.009924 0.000000 0.000000 0.000000
# 4 0.000000 0.000000 0.000000 0.065004 0.000000 0.000000
# 5 0.000000 0.000000 0.000000 0.000000 0.053919 0.000000
# 6 0.000000 0.000000 0.000000 0.000000 0.000000 0.066341
#
#
# Mechanical properties :
#
#
# Convention : Reuss Voigt Hill
#
# Bulk Modulus (GPa) = 30.06675 35.68730 32.87702
# Shear Modulus (GPa) = 19.69636 22.62190 21.15913
#
# Velocity S-wave (km/s) = 2.99311 3.20770 3.10226
# Velocity P-wave (km/s) = 5.06167 5.47276 5.27122
#
# Compressibility (1/GPa) = 0.03325933
#
# Stress axis : x y z
#
# Youngs Moduli (GPa) = 65.00541 49.81519 100.76300
#
# Poissons Ratio (x) = 0.02021 0.35881
# Poissons Ratio (y) = 0.02638 0.21105
# Poissons Ratio (z) = 0.23148 0.10434
#
# Static dielectric constant tensor:
#      x y z
#    x 1.781900 0.000000 0.000000 
#    y 0.000000 1.621410 0.000000 
#    z 0.000000 0.000000 1.922840 
# 
# From -- ./inp_files/11631.got.cif
#   From: 2010.05.17/outbox.cif.g08.bks.cpg/sg59_6_cif.got.tgz:11631.got - 2010.06.03 14:40:33.
