data_PCOD9448966
_publ_section_title
;
Structure prediction by ZEFSAII (Michael W. Deem and Ramdas Pophale) SiO2 
 PCOD9448966
Probable space group: P M M N
;
_chemical_formula_sum "Si O2"
_cell_formula_units_Z 64
_cell_length_a 15.457662
_cell_length_b 9.180901
_cell_length_c 22.932033
_cell_angle_alpha 90.000000
_cell_angle_beta 90.000000
_cell_angle_gamma 90.000000
_cell_volume 3254.405529
_symmetry_space_group_name_H-M "P M M N"
_symmetry_group_IT_number 59
_space_group.IT_coordinate_system_code '2'
_symmetry_cell_setting 'orthorhombic'
loop_
_space_group_symop_operation_xyz
x,y,z
1/2-x,1/2-y,z
1/2+x,-y,-z
-x,1/2+y,-z
-x,-y,-z
1/2+x,1/2+y,-z
1/2-x,y,z
x,1/2-y,z
loop_
_atom_site_type_symbol
_atom_site_label
_atom_site_fract_x
_atom_site_fract_y
_atom_site_fract_z
Si Si1 0.643938 0.083479 0.004598
Si Si2 0.897575 0.416556 0.236752
Si Si3 0.145624 0.414583 0.880323
Si Si4 0.896985 0.918123 0.762674
Si Si5 0.499347 0.925071 0.436863
Si Si6 0.848709 0.575592 0.635913
Si Si7 0.354306 0.416833 0.111019
Si Si8 0.348723 0.923470 0.633727
O O1 0.750000 0.081241 0.004603
O O2 0.616065 0.250000 0.004819
O O3 0.614876 0.003935 0.063471
O O4 0.615636 0.003473 0.945628
O O5 0.870352 0.250000 0.224487
O O6 0.877247 0.511976 0.180758
O O7 0.855203 0.462137 0.297683
O O8 0.000446 0.417901 0.246692
O O9 0.250000 0.410891 0.883766
O O10 0.112889 0.250000 0.882775
O O11 0.865853 0.750000 0.767569
O O12 0.855455 0.975419 0.703399
O O13 0.878453 0.983737 0.826160
O O14 0.498050 0.750000 0.440905
O O15 0.500000 0.000000 0.500000
O O16 0.416319 0.986323 0.402134
O O17 0.583511 0.982075 0.402145
O O18 0.750000 0.559681 0.615792
O O19 0.870313 0.750000 0.634855
O O20 0.250000 0.411724 0.108936
O O21 0.387209 0.250000 0.108204
O O22 0.250000 0.942803 0.613896
O O23 0.370441 0.750000 0.629461
#
# Coordination Sequence:
#
# PCOD9448966 Si02
#       8
#     8   8   8   8   8   8   8   8
#     4   9  17  30  48  70  99 137 183 236 294 354
#     4  10  19  34  57  83 115 151 190 238 294 355
#     4  10  20  33  50  74 104 139 185 241 296 354
#     4   9  17  32  56  85 116 150 191 238 290 353
#     4  12  26  44  67  94 131 170 207 253 301 357
#     4  10  20  39  68  97 127 165 209 254 303 362
#     4   9  16  28  49  77 106 139 182 231 286 346
#     4  10  21  40  67  96 127 164 207 255 306 362
#
# _framework density 19.665649999999999
#
# number of rings (size 3 to 8) (size 9 to 14) (size 15 to 20)
#    0.000    2.125    1.250    2.625    0.000    5.750 
#    0.000    1.875    0.000    1.500    0.000    0.000 
#    0.000    0.000    0.000    0.000    0.000    0.000 
#
# Total GULP energy -357336.487142 kJ/mol
# GULP energy per Si atom -5583.382612 kJ/mol
# Density = 1.962089 g / cm^3
# Si number density = 19.665650 Si / 1000 Ang^3
#
#
#
# Elastic Constant Matrix: (Units=GPa)
#
#
# Indices 1 2 3 4 5 6 
#
# 1 69.5052 46.8151 47.9612 0.0000 0.0000 0.0000
# 2 46.8151 116.2054 91.8241 0.0000 0.0000 0.0000
# 3 47.9612 91.8241 165.7171 0.0000 0.0000 0.0000
# 4 0.0000 0.0000 0.0000 31.8752 0.0000 0.0000
# 5 0.0000 0.0000 0.0000 0.0000 27.3402 0.0000
# 6 0.0000 0.0000 0.0000 0.0000 0.0000 17.3280
#
#
#
# Elastic Compliance Matrix: (Units=1/GPa)
#
#
# Indices 1 2 3 4 5 6 
#
# 1 0.020262 -0.006278 -0.002386 0.000000 0.000000 0.000000
# 2 -0.006278 0.017253 -0.007743 0.000000 0.000000 0.000000
# 3 -0.002386 -0.007743 0.011015 0.000000 0.000000 0.000000
# 4 0.000000 0.000000 0.000000 0.031372 0.000000 0.000000
# 5 0.000000 0.000000 0.000000 0.000000 0.036576 0.000000
# 6 0.000000 0.000000 0.000000 0.000000 0.000000 0.057710
#
#
# Mechanical properties :
#
#
# Convention : Reuss Voigt Hill
#
# Bulk Modulus (GPa) = 63.62378 80.51426 72.06902
# Shear Modulus (GPa) = 23.55815 26.29716 24.92766
#
# Velocity S-wave (km/s) = 3.46487 3.66076 3.56416
# Velocity P-wave (km/s) = 6.95917 7.67455 7.32560
#
# Compressibility (1/GPa) = 0.01571739
#
# Stress axis : x y z
#
# Youngs Moduli (GPa) = 49.35359 57.96108 90.78339
#
# Poissons Ratio (x) = 0.36386 0.21658
# Poissons Ratio (y) = 0.30983 0.70294
# Poissons Ratio (z) = 0.11774 0.44879
#
# Static dielectric constant tensor:
#      x y z
#    x 1.705500 0.000000 0.000000 
#    y 0.000000 1.675580 0.000000 
#    z 0.000000 0.000000 1.683470 
# 
# From -- ./inp_files/32189.got.cif
#   From: 2010.05.17/outbox.cif.g08.bks.cpg/sg59_17_cif.got.tgz:32189.got - 2010.06.03 14:40:33.
