data_PCOD9448687
_publ_section_title
;
Structure prediction by ZEFSAII (Michael W. Deem and Ramdas Pophale) SiO2 
 PCOD9448687
Probable space group: P M M N
;
_chemical_formula_sum "Si O2"
_cell_formula_units_Z 64
_cell_length_a 32.074108
_cell_length_b 8.532535
_cell_length_c 12.293612
_cell_angle_alpha 90.000000
_cell_angle_beta 90.000000
_cell_angle_gamma 90.000000
_cell_volume 3364.435198
_symmetry_space_group_name_H-M "P M M N"
_symmetry_group_IT_number 59
_space_group.IT_coordinate_system_code '2'
_symmetry_cell_setting 'orthorhombic'
loop_
_space_group_symop_operation_xyz
x,y,z
1/2-x,1/2-y,z
1/2+x,-y,-z
-x,1/2+y,-z
-x,-y,-z
1/2+x,1/2+y,-z
1/2-x,y,z
x,1/2-y,z
loop_
_atom_site_type_symbol
_atom_site_label
_atom_site_fract_x
_atom_site_fract_y
_atom_site_fract_z
Si Si1 0.201523 0.924390 0.192263
Si Si2 0.842854 0.934829 0.628322
Si Si3 0.880107 0.937584 0.415906
Si Si4 0.548164 0.439792 0.002120
Si Si5 0.920278 0.062466 0.767137
Si Si6 0.958148 0.062773 0.549185
Si Si7 0.700894 0.440922 0.043977
Si Si8 0.619449 0.560546 0.166735
O O1 0.250000 0.907291 0.169585
O O2 0.183436 0.750000 0.207622
O O3 0.196796 0.018961 0.302271
O O4 0.186323 0.992982 0.077731
O O5 0.847749 0.750000 0.623324
O O6 0.845860 0.995488 0.504524
O O7 0.878955 0.999521 0.708478
O O8 0.876121 0.750000 0.406621
O O9 0.881892 0.996023 0.292694
O O10 0.921599 0.980930 0.481635
O O11 0.547045 0.250000 0.005437
O O12 0.579731 0.497658 0.097176
O O13 0.500000 0.500000 0.000000
O O14 0.568894 0.493038 0.887368
O O15 0.917249 0.250000 0.773104
O O16 0.955227 0.023568 0.677145
O O17 0.953965 0.250000 0.538632
O O18 0.000000 0.000000 0.500000
O O19 0.750000 0.486040 0.065521
O O20 0.699961 0.250000 0.044606
O O21 0.664477 0.505131 0.121025
O O22 0.617622 0.750000 0.163276
#
# Coordination Sequence:
#
# PCOD9448687 Si02
#       8
#     8   8   8   8   8   8   8   8
#     4   9  18  33  54  80 111 144 174 214 273 334
#     4  10  19  33  55  80 105 135 177 225 269 320
#     4   9  21  39  54  74 108 148 185 225 277 333
#     4  11  24  40  57  81 113 150 189 231 282 341
#     4   9  20  37  54  73 103 139 171 212 270 325
#     4  10  20  34  55  80 103 134 177 225 275 325
#     4   9  19  37  60  86 116 150 189 233 284 343
#     4  11  23  39  59  82 114 154 193 238 289 339
#
# _framework density 19.022507999999998
#
# number of rings (size 3 to 8) (size 9 to 14) (size 15 to 20)
#    0.000    2.250    0.000    3.000    1.750    7.000 
#    0.000    1.875    0.000    3.750    0.000    0.000 
#    0.000    0.000    0.000    0.000    0.000    0.000 
#
# Total GULP energy -356312.682205 kJ/mol
# GULP energy per Si atom -5567.385659 kJ/mol
# Density = 1.897921 g / cm^3
# Si number density = 19.022508 Si / 1000 Ang^3
#
#
#
# Elastic Constant Matrix: (Units=GPa)
#
#
# Indices 1 2 3 4 5 6 
#
# 1 62.5881 9.5566 48.6096 0.0000 0.0000 0.0000
# 2 9.5566 17.9361 26.2397 0.0000 0.0000 0.0000
# 3 48.6096 26.2397 182.8417 0.0000 0.0000 0.0000
# 4 0.0000 0.0000 0.0000 25.5311 0.0000 0.0000
# 5 0.0000 0.0000 0.0000 0.0000 24.1099 0.0000
# 6 0.0000 0.0000 0.0000 0.0000 0.0000 31.1200
#
#
#
# Elastic Compliance Matrix: (Units=1/GPa)
#
#
# Indices 1 2 3 4 5 6 
#
# 1 0.020327 -0.003702 -0.004873 0.000000 0.000000 0.000000
# 2 -0.003702 0.071244 -0.009240 0.000000 0.000000 0.000000
# 3 -0.004873 -0.009240 0.008091 0.000000 0.000000 0.000000
# 4 0.000000 0.000000 0.000000 0.039168 0.000000 0.000000
# 5 0.000000 0.000000 0.000000 0.000000 0.041477 0.000000
# 6 0.000000 0.000000 0.000000 0.000000 0.000000 0.032134
#
#
# Mechanical properties :
#
#
# Convention : Reuss Voigt Hill
#
# Bulk Modulus (GPa) = 15.61716 48.01974 31.81845
# Shear Modulus (GPa) = 18.55884 28.08287 23.32085
#
# Velocity S-wave (km/s) = 3.12689 3.84643 3.50517
# Velocity P-wave (km/s) = 4.61132 6.71008 5.75714
#
# Compressibility (1/GPa) = 0.06403212
#
# Stress axis : x y z
#
# Youngs Moduli (GPa) = 49.19502 14.03636 123.59813
#
# Poissons Ratio (x) = 0.05196 0.60228
# Poissons Ratio (y) = 0.18211 1.14205
# Poissons Ratio (z) = 0.23972 0.12970
#
# Static dielectric constant tensor:
#      x y z
#    x 1.717040 0.000000 0.000000 
#    y 0.000000 1.670800 0.000000 
#    z 0.000000 0.000000 1.724250 
# 
# From -- ./inp_files/19216.got.cif
#   From: 2010.05.17/outbox.cif.g08.bks.cpg/sg59_10_cif.got.tgz:19216.got - 2010.06.03 14:40:33.
