data_PCOD9448479
_publ_section_title
;
Structure prediction by ZEFSAII (Michael W. Deem and Ramdas Pophale) SiO2 
 PCOD9448479
Probable space group: P M M N
;
_chemical_formula_sum "Si O2"
_cell_formula_units_Z 64
_cell_length_a 9.049116
_cell_length_b 23.795577
_cell_length_c 18.439178
_cell_angle_alpha 90.000000
_cell_angle_beta 90.000000
_cell_angle_gamma 90.000000
_cell_volume 3970.488590
_symmetry_space_group_name_H-M "P M M N"
_symmetry_group_IT_number 59
_space_group.IT_coordinate_system_code '2'
_symmetry_cell_setting 'orthorhombic'
loop_
_space_group_symop_operation_xyz
x,y,z
1/2-x,1/2-y,z
1/2+x,-y,-z
-x,1/2+y,-z
-x,-y,-z
1/2+x,1/2+y,-z
1/2-x,y,z
x,1/2-y,z
loop_
_atom_site_type_symbol
_atom_site_label
_atom_site_fract_x
_atom_site_fract_y
_atom_site_fract_z
Si Si1 0.072555 0.873853 0.643188
Si Si2 0.580350 0.181683 0.069849
Si Si3 0.570355 0.186895 0.503316
Si Si4 0.928751 0.107084 0.635885
Si Si5 0.080317 0.318324 0.923388
Si Si6 0.426618 0.183855 0.220379
Si Si7 0.427054 0.997028 0.579876
Si Si8 0.427599 0.684615 0.227381
O O1 0.250000 0.868662 0.652406
O O2 0.026250 0.834451 0.575813
O O3 0.993524 0.853319 0.715536
O O4 0.040866 0.937330 0.617773
O O5 0.750000 0.163187 0.073734
O O6 0.580199 0.250000 0.067399
O O7 0.492597 0.166524 0.142516
O O8 0.503811 0.162184 0.995581
O O9 0.750000 0.187512 0.504264
O O10 0.518663 0.250000 0.517778
O O11 0.526426 0.143819 0.565783
O O12 0.750000 0.099938 0.634212
O O13 0.966755 0.143200 0.707029
O O14 0.007562 0.047577 0.627550
O O15 0.250000 0.336798 0.923910
O O16 0.079527 0.250000 0.925608
O O17 0.000810 0.333125 0.848282
O O18 0.250000 0.179845 0.218789
O O19 0.465741 0.250000 0.232275
O O20 0.250000 0.001698 0.572111
O O21 0.500000 0.000000 0.500000
O O22 0.250000 0.683737 0.219526
O O23 0.468800 0.750000 0.243082
#
# Coordination Sequence:
#
# PCOD9448479 Si02
#       8
#     8   8   8   8   8   8   8   8
#     4  10  20  34  51  70  93 127 169 205 242 291
#     4   9  16  27  45  68  96 132 170 201 234 285
#     4   9  16  28  48  71  95 125 161 198 238 290
#     4  10  19  33  51  73  98 127 165 207 251 292
#     4   9  16  26  42  66  99 135 167 201 243 288
#     4  10  20  32  47  72 105 133 159 198 249 297
#     4  11  22  37  55  73  93 123 166 213 254 294
#     4   9  17  29  47  72 102 134 168 204 242 293
#
# _framework density 16.118922999999999
#
# number of rings (size 3 to 8) (size 9 to 14) (size 15 to 20)
#    0.000    2.375    1.250    2.250    0.000    7.250 
#    0.000    0.000    0.000    1.125    0.000    0.875 
#    0.000    0.000    0.000    0.000    0.000    0.000 
#
# Total GULP energy -356867.034254 kJ/mol
# GULP energy per Si atom -5576.047410 kJ/mol
# Density = 1.608224 g / cm^3
# Si number density = 16.118923 Si / 1000 Ang^3
#
#
#
# Elastic Constant Matrix: (Units=GPa)
#
#
# Indices 1 2 3 4 5 6 
#
# 1 53.1324 30.4135 52.6156 0.0000 0.0000 0.0000
# 2 30.4135 55.2198 29.1593 0.0000 0.0000 0.0000
# 3 52.6156 29.1593 127.6713 0.0000 0.0000 0.0000
# 4 0.0000 0.0000 0.0000 4.4763 0.0000 0.0000
# 5 0.0000 0.0000 0.0000 0.0000 20.7697 0.0000
# 6 0.0000 0.0000 0.0000 0.0000 0.0000 21.2862
#
#
#
# Elastic Compliance Matrix: (Units=1/GPa)
#
#
# Indices 1 2 3 4 5 6 
#
# 1 0.040851 -0.015476 -0.013301 0.000000 0.000000 0.000000
# 2 -0.015476 0.026456 0.000336 0.000000 0.000000 0.000000
# 3 -0.013301 0.000336 0.013237 0.000000 0.000000 0.000000
# 4 0.000000 0.000000 0.000000 0.223400 0.000000 0.000000
# 5 0.000000 0.000000 0.000000 0.000000 0.048147 0.000000
# 6 0.000000 0.000000 0.000000 0.000000 0.000000 0.046979
#
#
# Mechanical properties :
#
#
# Convention : Reuss Voigt Hill
#
# Bulk Modulus (GPa) = 42.26188 51.15558 46.70873
# Shear Modulus (GPa) = 10.77959 17.56213 14.17086
#
# Velocity S-wave (km/s) = 2.58883 3.30439 2.96825
# Velocity P-wave (km/s) = 5.93395 6.80910 6.38654
#
# Compressibility (1/GPa) = 0.02366198
#
# Stress axis : x y z
#
# Youngs Moduli (GPa) = 24.47932 37.79868 75.54332
#
# Poissons Ratio (x) = 0.58497 1.00478
# Poissons Ratio (y) = 0.37884 -0.02535
# Poissons Ratio (z) = 0.32559 -0.01268
#
# Static dielectric constant tensor:
#      x y z
#    x 1.541050 0.000000 0.000000 
#    y 0.000000 1.522660 0.000000 
#    z 0.000000 0.000000 1.524500 
# 
# From -- ./inp_files/26456.got.cif
#   From: 2010.05.17/outbox.cif.g08.bks.cpg/sg59_14_cif.got.tgz:26456.got - 2010.06.03 14:40:33.
