data_PCOD9448275
_publ_section_title
;
Structure prediction by ZEFSAII (Michael W. Deem and Ramdas Pophale) SiO2 
 PCOD9448275
Probable space group: P M M N
;
_chemical_formula_sum "Si O2"
_cell_formula_units_Z 48
_cell_length_a 7.414627
_cell_length_b 29.669160
_cell_length_c 10.315975
_cell_angle_alpha 90.000000
_cell_angle_beta 90.000000
_cell_angle_gamma 90.000000
_cell_volume 2269.367547
_symmetry_space_group_name_H-M "P M M N"
_symmetry_group_IT_number 59
_space_group.IT_coordinate_system_code '2'
_symmetry_cell_setting 'orthorhombic'
loop_
_space_group_symop_operation_xyz
x,y,z
1/2-x,1/2-y,z
1/2+x,-y,-z
-x,1/2+y,-z
-x,-y,-z
1/2+x,1/2+y,-z
1/2-x,y,z
x,1/2-y,z
loop_
_atom_site_type_symbol
_atom_site_label
_atom_site_fract_x
_atom_site_fract_y
_atom_site_fract_z
Si Si1 0.465401 0.480225 0.358600
Si Si2 0.543478 0.632081 0.006512
Si Si3 0.464262 0.535607 0.113692
Si Si4 0.530181 0.698100 0.225023
Si Si5 0.969762 0.698201 0.518174
Si Si6 0.028758 0.120065 0.285796
O O1 0.500000 0.500000 0.500000
O O2 0.250000 0.478163 0.340806
O O3 0.533735 0.513796 0.246820
O O4 0.530745 0.429100 0.336337
O O5 0.750000 0.647136 0.986558
O O6 0.544247 0.583138 0.072288
O O7 0.462184 0.666358 0.110561
O O8 0.466687 0.627596 0.862056
O O9 0.250000 0.542509 0.124733
O O10 0.500000 0.500000 0.000000
O O11 0.750000 0.695504 0.226263
O O12 0.481650 0.750000 0.202384
O O13 0.473549 0.686019 0.371424
O O14 0.750000 0.698405 0.519428
O O15 0.025421 0.750000 0.545219
O O16 0.028075 0.660868 0.621142
O O17 0.250000 0.119424 0.285684
#
# Coordination Sequence:
#
# PCOD9448275 Si02
#       6
#     8   8   8   8   8   8
#     4  10  22  37  52  75 105 135 172 216 257 309
#     4  10  19  32  52  77 106 137 171 215 263 309
#     4  11  22  38  56  76 106 140 177 217 262 316
#     4   8  15  27  45  73 104 133 169 209 253 308
#     4   8  14  25  42  67 100 134 166 205 253 304
#     4   9  17  30  45  68 102 133 165 205 252 303
#
# _framework density 21.151266
#
# number of rings (size 3 to 8) (size 9 to 14) (size 15 to 20)
#    0.000    2.667    1.667    1.500    2.333    2.000 
#    0.000    3.333    0.000    0.500    0.000    0.000 
#    0.000    0.667    0.000    0.000    0.000    0.000 
#
# Total GULP energy -267979.333217 kJ/mol
# GULP energy per Si atom -5582.902775 kJ/mol
# Density = 2.110313 g / cm^3
# Si number density = 21.151266 Si / 1000 Ang^3
#
#
#
# Elastic Constant Matrix: (Units=GPa)
#
#
# Indices 1 2 3 4 5 6 
#
# 1 69.8534 -3.1555 -1.4672 0.0000 0.0000 0.0000
# 2 -3.1555 156.4848 144.4667 0.0000 0.0000 0.0000
# 3 -1.4672 144.4667 236.2772 0.0000 0.0000 0.0000
# 4 0.0000 0.0000 0.0000 48.8409 0.0000 0.0000
# 5 0.0000 0.0000 0.0000 0.0000 5.9294 0.0000
# 6 0.0000 0.0000 0.0000 0.0000 0.0000 8.1591
#
#
#
# Elastic Compliance Matrix: (Units=1/GPa)
#
#
# Indices 1 2 3 4 5 6 
#
# 1 0.014333 0.000475 -0.000201 0.000000 0.000000 0.000000
# 2 0.000475 0.014688 -0.008978 0.000000 0.000000 0.000000
# 3 -0.000201 -0.008978 0.009720 0.000000 0.000000 0.000000
# 4 0.000000 0.000000 0.000000 0.020475 0.000000 0.000000
# 5 0.000000 0.000000 0.000000 0.000000 0.168652 0.000000
# 6 0.000000 0.000000 0.000000 0.000000 0.000000 0.122562
#
#
# Mechanical properties :
#
#
# Convention : Reuss Voigt Hill
#
# Bulk Modulus (GPa) = 46.87582 82.47816 64.67699
# Shear Modulus (GPa) = 13.33510 34.10397 23.71954
#
# Velocity S-wave (km/s) = 2.51363 4.01981 3.35240
# Velocity P-wave (km/s) = 5.53486 7.78616 6.75496
#
# Compressibility (1/GPa) = 0.02133296
#
# Stress axis : x y z
#
# Youngs Moduli (GPa) = 69.76947 68.08063 102.87559
#
# Poissons Ratio (x) = -0.03233 0.02072
# Poissons Ratio (y) = -0.03314 0.92362
# Poissons Ratio (z) = 0.01405 0.61123
#
# Static dielectric constant tensor:
#      x y z
#    x 1.885010 0.000000 0.000000 
#    y 0.000000 1.721470 0.000000 
#    z 0.000000 0.000000 1.734750 
# 
# From -- ./inp_files/6259.got.cif
#   From: 2010.05.17/outbox.cif.g08.bks.cpg/sg59_4_cif.got.tgz:6259.got - 2010.06.03 14:40:33.
