data_PCOD9448588
_publ_section_title
;
Structure prediction by ZEFSAII (Michael W. Deem and Ramdas Pophale) SiO2 
 PCOD9448588
Probable space group: P M M N
;
_chemical_formula_sum "Si O2"
_cell_formula_units_Z 64
_cell_length_a 19.529544
_cell_length_b 7.379005
_cell_length_c 20.371806
_cell_angle_alpha 90.000000
_cell_angle_beta 90.000000
_cell_angle_gamma 90.000000
_cell_volume 2935.752500
_symmetry_space_group_name_H-M "P M M N"
_symmetry_group_IT_number 59
_space_group.IT_coordinate_system_code '2'
_symmetry_cell_setting 'orthorhombic'
loop_
_space_group_symop_operation_xyz
x,y,z
1/2-x,1/2-y,z
1/2+x,-y,-z
-x,1/2+y,-z
-x,-y,-z
1/2+x,1/2+y,-z
1/2-x,y,z
x,1/2-y,z
loop_
_atom_site_type_symbol
_atom_site_label
_atom_site_fract_x
_atom_site_fract_y
_atom_site_fract_z
Si Si1 0.445805 0.971962 0.212003
Si Si2 0.172637 0.534910 0.116301
Si Si3 0.078689 0.471148 0.586303
Si Si4 0.093791 0.028849 0.839150
Si Si5 0.327295 0.035721 0.467889
Si Si6 0.672327 0.970555 0.290925
Si Si7 0.935069 0.032451 0.637406
Si Si8 0.171684 0.467474 0.967119
O O1 0.445906 0.750000 0.212371
O O2 0.381924 0.034583 0.168484
O O3 0.517256 0.028204 0.179226
O O4 0.440947 0.030604 0.287617
O O5 0.250000 0.460998 0.121956
O O6 0.177031 0.750000 0.127126
O O7 0.149244 0.509443 0.041134
O O8 0.077183 0.250000 0.584130
O O9 0.120693 0.536578 0.523199
O O10 0.121148 0.524067 0.651137
O O11 0.000493 0.532681 0.595134
O O12 0.093503 0.250000 0.839862
O O13 0.143599 0.973719 0.779708
O O14 0.122886 0.967021 0.908984
O O15 0.250000 0.962376 0.470475
O O16 0.321889 0.250000 0.480722
O O17 0.364614 0.013421 0.398425
O O18 0.750000 0.030693 0.302237
O O19 0.672916 0.750000 0.291247
O O20 0.939552 0.250000 0.639475
O O21 0.250000 0.534110 0.959153
O O22 0.174227 0.250000 0.961789
#
# Coordination Sequence:
#
# PCOD9448588 Si02
#       8
#     8   8   8   8   8   8   8   8
#     4   9  17  30  48  70  95 122 157 202 243 280
#     4   9  18  32  48  65  88 123 163 197 234 282
#     4   9  16  29  48  72  99 128 161 198 240 289
#     4   9  15  25  42  68  99 124 150 192 242 286
#     4  10  21  35  50  72 103 134 163 199 244 293
#     4   9  14  21  39  68  99 128 157 191 235 286
#     4  10  19  33  54  76  98 127 164 206 247 287
#     4   9  17  29  46  70  98 124 152 191 238 284
#
# _framework density 21.800204000000001
#
# number of rings (size 3 to 8) (size 9 to 14) (size 15 to 20)
#    0.000    2.750    1.250    1.125    0.000    4.250 
#    0.000    1.875    0.000    2.250    0.000    0.000 
#    0.000    3.000    0.000    0.000    0.000    0.000 
#
# Total GULP energy -357478.057910 kJ/mol
# GULP energy per Si atom -5585.594655 kJ/mol
# Density = 2.175059 g / cm^3
# Si number density = 21.800204 Si / 1000 Ang^3
#
#
#
# Elastic Constant Matrix: (Units=GPa)
#
#
# Indices 1 2 3 4 5 6 
#
# 1 111.9573 -0.3606 81.6780 0.0000 0.0000 0.0000
# 2 -0.3606 76.5705 -1.7663 0.0000 0.0000 0.0000
# 3 81.6780 -1.7663 130.0396 0.0000 0.0000 0.0000
# 4 0.0000 0.0000 0.0000 11.8926 0.0000 0.0000
# 5 0.0000 0.0000 0.0000 0.0000 -3.9449 0.0000
# 6 0.0000 0.0000 0.0000 0.0000 0.0000 -1.5873
#
#
#
# Elastic Compliance Matrix: (Units=1/GPa)
#
#
# Indices 1 2 3 4 5 6 
#
# 1 0.016489 -0.000161 -0.010359 0.000000 0.000000 0.000000
# 2 -0.000161 0.013066 0.000279 0.000000 0.000000 0.000000
# 3 -0.010359 0.000279 0.014200 0.000000 0.000000 0.000000
# 4 0.000000 0.000000 0.000000 0.084086 0.000000 0.000000
# 5 0.000000 0.000000 0.000000 0.000000 -0.253493 0.000000
# 6 0.000000 0.000000 0.000000 0.000000 0.000000 -0.630013
#
#
# Mechanical properties :
#
#
# Convention : Reuss Voigt Hill
#
# Bulk Modulus (GPa) = 42.97056 53.07440 48.02248
# Shear Modulus (GPa) = -6.87354 17.20652 5.16649
#
# Velocity S-wave (km/s) = -1.77759 2.81246 1.54113
# Velocity P-wave (km/s) = 3.94218 5.91145 5.02425
#
# Compressibility (1/GPa) = 0.02327174
#
# Stress axis : x y z
#
# Youngs Moduli (GPa) = 60.64792 76.53731 70.42223
#
# Poissons Ratio (x) = 0.01235 0.72948
# Poissons Ratio (y) = 0.00978 -0.01963
# Poissons Ratio (z) = 0.62823 -0.02134
#
# Static dielectric constant tensor:
#      x y z
#    x 1.766890 0.000000 0.000000 
#    y 0.000000 1.874540 0.000000 
#    z 0.000000 0.000000 1.749630 
# 
# From -- ./inp_files/30903.got.cif
#   From: 2010.05.17/outbox.cif.g08.bks.cpg/sg59_16_cif.got.tgz:30903.got - 2010.06.03 14:40:33.
