data_PCOD9448230
_publ_section_title
;
Structure prediction by ZEFSAII (Michael W. Deem and Ramdas Pophale) SiO2 
 PCOD9448230
Probable space group: P M M N
;
_chemical_formula_sum "Si O2"
_cell_formula_units_Z 56
_cell_length_a 7.501683
_cell_length_b 14.953980
_cell_length_c 22.927037
_cell_angle_alpha 90.000000
_cell_angle_beta 90.000000
_cell_angle_gamma 90.000000
_cell_volume 2571.955413
_symmetry_space_group_name_H-M "P M M N"
_symmetry_group_IT_number 59
_space_group.IT_coordinate_system_code '2'
_symmetry_cell_setting 'orthorhombic'
loop_
_space_group_symop_operation_xyz
x,y,z
1/2-x,1/2-y,z
1/2+x,-y,-z
-x,1/2+y,-z
-x,-y,-z
1/2+x,1/2+y,-z
1/2-x,y,z
x,1/2-y,z
loop_
_atom_site_type_symbol
_atom_site_label
_atom_site_fract_x
_atom_site_fract_y
_atom_site_fract_z
Si Si1 0.967884 0.350233 0.897978
Si Si2 0.531958 0.648374 0.411769
Si Si3 0.534613 0.853434 0.544773
Si Si4 0.044888 0.978688 0.651241
Si Si5 0.534822 0.351371 0.032699
Si Si6 0.955107 0.535255 0.857147
Si Si7 0.957193 0.149845 0.251065
O O1 0.750000 0.351501 0.897478
O O2 0.022934 0.250000 0.880384
O O3 0.030315 0.434800 0.860659
O O4 0.020951 0.364354 0.965645
O O5 0.750000 0.646766 0.411848
O O6 0.477906 0.750000 0.399088
O O7 0.478779 0.626088 0.478387
O O8 0.466040 0.574030 0.366935
O O9 0.750000 0.859354 0.547300
O O10 0.486465 0.750000 0.557055
O O11 0.458242 0.919214 0.592760
O O12 0.250000 0.996881 0.668346
O O13 0.961556 0.918748 0.702165
O O14 0.750000 0.355735 0.034118
O O15 0.483059 0.250000 0.049878
O O16 0.464469 0.422718 0.078333
O O17 0.750000 0.528548 0.839316
O O18 0.039538 0.603893 0.811993
O O19 0.750000 0.159189 0.268057
O O20 0.034263 0.250000 0.250586
#
# Coordination Sequence:
#
# PCOD9448230 Si02
#       7
#     8   8   8   8   8   8   8
#     4   8  16  32  52  74 100 129 159 191 236 294
#     4   8  15  29  49  74 102 128 154 190 242 297
#     4   9  17  29  47  73 104 132 154 186 242 301
#     4  10  19  32  52  73  93 125 169 207 234 273
#     4   9  17  31  52  75 101 133 160 186 234 296
#     4  11  21  32  51  76  98 125 164 206 240 275
#     4  10  22  38  51  66  95 132 164 197 241 289
#
# _framework density 21.773316999999999
#
# number of rings (size 3 to 8) (size 9 to 14) (size 15 to 20)
#    0.000    2.714    0.000    3.857    0.000    3.714 
#    0.000    1.429    0.000    5.571    0.000    0.000 
#    0.000    0.000    0.000    0.000    0.000    0.000 
#
# Total GULP energy -312625.972833 kJ/mol
# GULP energy per Si atom -5582.606658 kJ/mol
# Density = 2.172376 g / cm^3
# Si number density = 21.773317 Si / 1000 Ang^3
#
#
#
# Elastic Constant Matrix: (Units=GPa)
#
#
# Indices 1 2 3 4 5 6 
#
# 1 55.8489 -3.5661 -1.4565 0.0000 0.0000 0.0000
# 2 -3.5661 114.7397 49.6715 0.0000 0.0000 0.0000
# 3 -1.4565 49.6715 42.9843 0.0000 0.0000 0.0000
# 4 0.0000 0.0000 0.0000 29.8120 0.0000 0.0000
# 5 0.0000 0.0000 0.0000 0.0000 11.1315 0.0000
# 6 0.0000 0.0000 0.0000 0.0000 0.0000 7.3134
#
#
#
# Elastic Compliance Matrix: (Units=1/GPa)
#
#
# Indices 1 2 3 4 5 6 
#
# 1 0.017941 0.000589 -0.000073 0.000000 0.000000 0.000000
# 2 0.000589 0.017459 -0.020155 0.000000 0.000000 0.000000
# 3 -0.000073 -0.020155 0.046553 0.000000 0.000000 0.000000
# 4 0.000000 0.000000 0.000000 0.033544 0.000000 0.000000
# 5 0.000000 0.000000 0.000000 0.000000 0.089835 0.000000
# 6 0.000000 0.000000 0.000000 0.000000 0.000000 0.136735
#
#
# Mechanical properties :
#
#
# Convention : Reuss Voigt Hill
#
# Bulk Modulus (GPa) = 23.43292 33.65227 28.54260
# Shear Modulus (GPa) = 12.64001 20.91298 16.77650
#
# Velocity S-wave (km/s) = 2.41203 3.10253 2.77881
# Velocity P-wave (km/s) = 4.30613 5.32199 4.84078
#
# Compressibility (1/GPa) = 0.04267501
#
# Stress axis : x y z
#
# Youngs Moduli (GPa) = 55.73776 57.27706 21.48104
#
# Poissons Ratio (x) = -0.03375 0.00157
# Poissons Ratio (y) = -0.03284 0.43295
# Poissons Ratio (z) = 0.00406 1.15443
#
# Static dielectric constant tensor:
#      x y z
#    x 1.843890 0.000000 0.000000 
#    y 0.000000 1.811250 0.000000 
#    z 0.000000 0.000000 1.755240 
# 
# From -- ./inp_files/28966.got.cif
#   From: 2010.05.17/outbox.cif.g08.bks.cpg/sg59_15_cif.got.tgz:28966.got - 2010.06.03 14:40:33.
