data_PCOD9448022
_publ_section_title
;
Structure prediction by ZEFSAII (Michael W. Deem and Ramdas Pophale) SiO2 
 PCOD9448022
Probable space group: P M M N
;
_chemical_formula_sum "Si O2"
_cell_formula_units_Z 56
_cell_length_a 21.753936
_cell_length_b 23.743107
_cell_length_c 5.352598
_cell_angle_alpha 90.000000
_cell_angle_beta 90.000000
_cell_angle_gamma 90.000000
_cell_volume 2764.649144
_symmetry_space_group_name_H-M "P M M N"
_symmetry_group_IT_number 59
_space_group.IT_coordinate_system_code '2'
_symmetry_cell_setting 'orthorhombic'
loop_
_space_group_symop_operation_xyz
x,y,z
1/2-x,1/2-y,z
1/2+x,-y,-z
-x,1/2+y,-z
-x,-y,-z
1/2+x,1/2+y,-z
1/2-x,y,z
x,1/2-y,z
loop_
_atom_site_type_symbol
_atom_site_label
_atom_site_fract_x
_atom_site_fract_y
_atom_site_fract_z
Si Si1 0.319422 0.818022 0.785303
Si Si2 0.602855 0.597226 0.332275
Si Si3 0.319571 0.312199 0.430814
Si Si4 0.392146 0.682625 0.276846
Si Si5 0.985496 0.129062 0.386865
Si Si6 0.565669 0.689623 0.946910
Si Si7 0.960025 0.488210 0.248464
O O1 0.250000 0.839757 0.808941
O O2 0.316711 0.750000 0.804920
O O3 0.361566 0.835799 0.018075
O O4 0.347093 0.829340 0.512535
O O5 0.663399 0.632234 0.408900
O O6 0.553250 0.604857 0.553623
O O7 0.597290 0.531797 0.258150
O O8 0.574574 0.635499 0.115424
O O9 0.250000 0.317438 0.332577
O O10 0.321999 0.250000 0.561913
O O11 0.373229 0.308800 0.225305
O O12 0.402645 0.750000 0.269132
O O13 0.453073 0.650436 0.363231
O O14 0.947528 0.078275 0.265268
O O15 0.003130 0.181087 0.210763
O O16 0.561901 0.750000 0.081920
O O17 0.000000 0.500000 0.500000
O O18 0.000000 0.500000 0.000000
#
# Coordination Sequence:
#
# PCOD9448022 Si02
#       7
#     8   8   8   8   8   8   8
#     4   9  18  33  51  72 100 137 180 217 255 315
#     4  10  20  34  55  79 108 148 188 236 285 341
#     4   9  19  35  53  79 112 148 194 242 293 353
#     4  10  20  31  50  78 106 139 174 217 275 329
#     4  10  21  34  50  79 114 143 182 226 283 337
#     4  10  19  31  51  78 112 147 180 230 292 348
#     4  10  20  36  57  80 106 144 189 224 267 332
#
# _framework density 20.255732999999999
#
# number of rings (size 3 to 8) (size 9 to 14) (size 15 to 20)
#    0.000    2.286    1.429    1.286    2.000    4.000 
#    0.000    1.429    0.000    1.714    0.000    0.000 
#    0.000    0.000    0.000    0.000    0.000    0.000 
#
# Total GULP energy -311883.735229 kJ/mol
# GULP energy per Si atom -5569.352415 kJ/mol
# Density = 2.020963 g / cm^3
# Si number density = 20.255733 Si / 1000 Ang^3
#
#
#
# Elastic Constant Matrix: (Units=GPa)
#
#
# Indices 1 2 3 4 5 6 
#
# 1 85.9499 43.5903 19.4903 0.0000 0.0000 0.0000
# 2 43.5903 104.4371 21.1751 0.0000 0.0000 0.0000
# 3 19.4903 21.1751 79.1104 0.0000 0.0000 0.0000
# 4 0.0000 0.0000 0.0000 23.8001 0.0000 0.0000
# 5 0.0000 0.0000 0.0000 0.0000 18.9737 0.0000
# 6 0.0000 0.0000 0.0000 0.0000 0.0000 19.1204
#
#
#
# Elastic Compliance Matrix: (Units=1/GPa)
#
#
# Indices 1 2 3 4 5 6 
#
# 1 0.015097 -0.005865 -0.002149 0.000000 0.000000 0.000000
# 2 -0.005865 0.012403 -0.001875 0.000000 0.000000 0.000000
# 3 -0.002149 -0.001875 0.013672 0.000000 0.000000 0.000000
# 4 0.000000 0.000000 0.000000 0.042017 0.000000 0.000000
# 5 0.000000 0.000000 0.000000 0.000000 0.052705 0.000000
# 6 0.000000 0.000000 0.000000 0.000000 0.000000 0.052300
#
#
# Mechanical properties :
#
#
# Convention : Reuss Voigt Hill
#
# Bulk Modulus (GPa) = 46.74477 48.66763 47.70620
# Shear Modulus (GPa) = 23.24460 24.72828 23.98644
#
# Velocity S-wave (km/s) = 3.39124 3.49779 3.44493
# Velocity P-wave (km/s) = 6.20172 6.35543 6.27905
#
# Compressibility (1/GPa) = 0.02139277
#
# Stress axis : x y z
#
# Youngs Moduli (GPa) = 66.23946 80.62324 73.14235
#
# Poissons Ratio (x) = 0.47288 0.15721
# Poissons Ratio (y) = 0.38852 0.13714
# Poissons Ratio (z) = 0.14238 0.15116
#
# Static dielectric constant tensor:
#      x y z
#    x 1.714450 0.000000 0.000000 
#    y 0.000000 1.771770 0.000000 
#    z 0.000000 0.000000 1.630190 
# 
# From -- ./inp_files/3434.got.cif
#   From: 2010.05.17/outbox.cif.g08.bks.cpg/sg59_2_cif.got.tgz:3434.got - 2010.06.03 14:40:33.
