data_PCOD9448241
_publ_section_title
;
Structure prediction by ZEFSAII (Michael W. Deem and Ramdas Pophale) SiO2 
 PCOD9448241
Probable space group: P M M N
;
_chemical_formula_sum "Si O2"
_cell_formula_units_Z 64
_cell_length_a 7.541471
_cell_length_b 15.332391
_cell_length_c 25.082526
_cell_angle_alpha 90.000000
_cell_angle_beta 90.000000
_cell_angle_gamma 90.000000
_cell_volume 2900.261933
_symmetry_space_group_name_H-M "P M M N"
_symmetry_group_IT_number 59
_space_group.IT_coordinate_system_code '2'
_symmetry_cell_setting 'orthorhombic'
loop_
_space_group_symop_operation_xyz
x,y,z
1/2-x,1/2-y,z
1/2+x,-y,-z
-x,1/2+y,-z
-x,-y,-z
1/2+x,1/2+y,-z
1/2-x,y,z
x,1/2-y,z
loop_
_atom_site_type_symbol
_atom_site_label
_atom_site_fract_x
_atom_site_fract_y
_atom_site_fract_z
Si Si1 0.036032 0.152194 0.031435
Si Si2 0.458285 0.158713 0.403897
Si Si3 0.533299 0.847353 0.092359
Si Si4 0.539707 0.401304 0.517393
Si Si5 0.032692 0.652065 0.364116
Si Si6 0.957127 0.469185 0.127615
Si Si7 0.038775 0.849090 0.778493
Si Si8 0.036311 0.024707 0.320206
O O1 0.250000 0.149646 0.032755
O O2 0.980716 0.250000 0.049119
O O3 0.981978 0.141916 0.969840
O O4 0.968640 0.077613 0.070363
O O5 0.250000 0.160031 0.391339
O O6 0.537612 0.250000 0.384560
O O7 0.473941 0.152916 0.467097
O O8 0.528800 0.074782 0.373399
O O9 0.750000 0.847971 0.093285
O O10 0.477786 0.750000 0.109877
O O11 0.469261 0.932629 0.123867
O O12 0.500000 0.500000 0.500000
O O13 0.750000 0.390926 0.519579
O O14 0.474317 0.373649 0.575677
O O15 0.250000 0.652533 0.364579
O O16 0.974981 0.750000 0.351258
O O17 0.974074 0.575042 0.324381
O O18 0.750000 0.479468 0.141369
O O19 0.035025 0.401842 0.170542
O O20 0.250000 0.840283 0.785908
O O21 0.968642 0.750000 0.772036
O O22 0.011720 0.912637 0.728339
O O23 0.250000 0.019641 0.320810
#
# Coordination Sequence:
#
# PCOD9448241 Si02
#       8
#     8   8   8   8   8   8   8   8
#     4   9  17  29  47  74 107 138 170 210 253 303
#     4  10  20  34  52  77 107 135 169 214 259 305
#     4   8  15  29  49  74 104 138 173 207 249 304
#     4  11  20  33  53  78 110 143 175 207 250 308
#     4   9  18  34  56  79 104 135 171 209 250 302
#     4  10  19  32  52  75 101 136 174 213 258 306
#     4  10  22  38  53  74 105 134 165 212 265 311
#     4  10  20  37  58  77  99 132 175 216 256 305
#
# _framework density 22.066970999999999
#
# number of rings (size 3 to 8) (size 9 to 14) (size 15 to 20)
#    0.000    2.375    1.250    2.625    0.000    3.250 
#    0.000    0.625    0.000    3.750    0.000    0.000 
#    0.000    0.000    0.000    0.000    0.000    0.000 
#
# Total GULP energy -357134.453125 kJ/mol
# GULP energy per Si atom -5580.225830 kJ/mol
# Density = 2.201675 g / cm^3
# Si number density = 22.066971 Si / 1000 Ang^3
#
#
#
# Elastic Constant Matrix: (Units=GPa)
#
#
# Indices 1 2 3 4 5 6 
#
# 1 49.6993 8.2517 0.2826 0.0000 0.0000 0.0000
# 2 8.2517 244.9212 74.7184 0.0000 0.0000 0.0000
# 3 0.2826 74.7184 66.3265 0.0000 0.0000 0.0000
# 4 0.0000 0.0000 0.0000 22.3127 0.0000 0.0000
# 5 0.0000 0.0000 0.0000 0.0000 14.1261 0.0000
# 6 0.0000 0.0000 0.0000 0.0000 0.0000 10.7633
#
#
#
# Elastic Compliance Matrix: (Units=1/GPa)
#
#
# Indices 1 2 3 4 5 6 
#
# 1 0.020281 -0.001001 0.001041 0.000000 0.000000 0.000000
# 2 -0.001001 0.006270 -0.007059 0.000000 0.000000 0.000000
# 3 0.001041 -0.007059 0.023025 0.000000 0.000000 0.000000
# 4 0.000000 0.000000 0.000000 0.044818 0.000000 0.000000
# 5 0.000000 0.000000 0.000000 0.000000 0.070791 0.000000
# 6 0.000000 0.000000 0.000000 0.000000 0.000000 0.092908
#
#
# Mechanical properties :
#
#
# Convention : Reuss Voigt Hill
#
# Bulk Modulus (GPa) = 28.13864 58.60583 43.37223
# Shear Modulus (GPa) = 17.60704 27.95338 22.78021
#
# Velocity S-wave (km/s) = 2.82776 3.56301 3.21646
# Velocity P-wave (km/s) = 4.84157 6.59868 5.78720
#
# Compressibility (1/GPa) = 0.03553832
#
# Stress axis : x y z
#
# Youngs Moduli (GPa) = 49.30653 159.48274 43.43106
#
# Poissons Ratio (x) = 0.15963 -0.04522
# Poissons Ratio (y) = 0.04935 0.30659
# Poissons Ratio (z) = -0.05134 1.12584
#
# Static dielectric constant tensor:
#      x y z
#    x 1.836130 0.000000 0.000000 
#    y 0.000000 1.854810 0.000000 
#    z 0.000000 0.000000 1.787180 
# 
# From -- ./inp_files/31575.got.cif
#   From: 2010.05.17/outbox.cif.g08.bks.cpg/sg59_16_cif.got.tgz:31575.got - 2010.06.03 14:40:33.
