data_PCOD9448283
_publ_section_title
;
Structure prediction by ZEFSAII (Michael W. Deem and Ramdas Pophale) SiO2 
 PCOD9448283
Probable space group: P M M N
;
_chemical_formula_sum "Si O2"
_cell_formula_units_Z 40
_cell_length_a 9.517805
_cell_length_b 26.824602
_cell_length_c 7.914474
_cell_angle_alpha 90.000000
_cell_angle_beta 90.000000
_cell_angle_gamma 90.000000
_cell_volume 2020.654891
_symmetry_space_group_name_H-M "P M M N"
_symmetry_group_IT_number 59
_space_group.IT_coordinate_system_code '2'
_symmetry_cell_setting 'orthorhombic'
loop_
_space_group_symop_operation_xyz
x,y,z
1/2-x,1/2-y,z
1/2+x,-y,-z
-x,1/2+y,-z
-x,-y,-z
1/2+x,1/2+y,-z
1/2-x,y,z
x,1/2-y,z
loop_
_atom_site_type_symbol
_atom_site_label
_atom_site_fract_x
_atom_site_fract_y
_atom_site_fract_z
Si Si1 0.590614 0.100829 0.713264
Si Si2 0.906668 0.102876 0.309379
Si Si3 0.587559 0.804756 0.688212
Si Si4 0.419287 0.005566 0.824751
Si Si5 0.911926 0.693657 0.275412
O O1 0.750000 0.092738 0.777582
O O2 0.600122 0.107515 0.511572
O O3 0.489501 0.053921 0.742074
O O4 0.517157 0.150717 0.783379
O O5 0.750000 0.109669 0.239216
O O6 0.005703 0.147147 0.247002
O O7 0.949777 0.046341 0.270817
O O8 0.750000 0.807481 0.739279
O O9 0.531326 0.750000 0.737600
O O10 0.585474 0.806129 0.481931
O O11 0.250000 0.010980 0.838723
O O12 0.500000 0.000000 0.000000
O O13 0.750000 0.683188 0.226868
O O14 0.947725 0.750000 0.221099
#
# Coordination Sequence:
#
# PCOD9448283 Si02
#       5
#     8   8   8   8   8
#     4  10  19  32  52  78 104 131 165 204 248 297
#     4   9  19  33  51  76 103 131 165 205 247 294
#     4   8  14  25  44  72 103 132 162 197 239 289
#     4  11  23  38  53  71  98 132 170 211 255 301
#     4   8  14  26  45  71 103 135 164 197 240 288
#
# _framework density 19.795563999999999
#
# number of rings (size 3 to 8) (size 9 to 14) (size 15 to 20)
#    0.000    2.800    0.000    3.000    0.000    3.200 
#    0.000    4.000    0.000    1.200    0.000    5.600 
#    0.000    0.000    0.000    0.000    0.000    0.000 
#
# Total GULP energy -222974.104478 kJ/mol
# GULP energy per Si atom -5574.352612 kJ/mol
# Density = 1.975051 g / cm^3
# Si number density = 19.795564 Si / 1000 Ang^3
#
#
#
# Elastic Constant Matrix: (Units=GPa)
#
#
# Indices 1 2 3 4 5 6 
#
# 1 119.1718 112.4130 10.8418 0.0000 0.0000 0.0000
# 2 112.4130 188.0583 2.7238 0.0000 0.0000 0.0000
# 3 10.8418 2.7238 13.8925 0.0000 0.0000 0.0000
# 4 0.0000 0.0000 0.0000 -22.9204 0.0000 0.0000
# 5 0.0000 0.0000 0.0000 0.0000 11.7292 0.0000
# 6 0.0000 0.0000 0.0000 0.0000 0.0000 44.2488
#
#
#
# Elastic Compliance Matrix: (Units=1/GPa)
#
#
# Indices 1 2 3 4 5 6 
#
# 1 0.021811 -0.012828 -0.014507 0.000000 0.000000 0.000000
# 2 -0.012828 0.012877 0.007486 0.000000 0.000000 0.000000
# 3 -0.014507 0.007486 0.081834 0.000000 0.000000 0.000000
# 4 0.000000 0.000000 0.000000 -0.043629 0.000000 0.000000
# 5 0.000000 0.000000 0.000000 0.000000 0.085257 0.000000
# 6 0.000000 0.000000 0.000000 0.000000 0.000000 0.022599
#
#
# Mechanical properties :
#
#
# Convention : Reuss Voigt Hill
#
# Bulk Modulus (GPa) = 13.01637 63.67555 38.34596
# Shear Modulus (GPa) = 20.32069 19.62113 19.97091
#
# Velocity S-wave (km/s) = 3.20742 3.15173 3.17970
# Velocity P-wave (km/s) = 4.50626 6.74396 5.73530
#
# Compressibility (1/GPa) = 0.07682632
#
# Stress axis : x y z
#
# Youngs Moduli (GPa) = 45.84819 77.65866 12.21979
#
# Poissons Ratio (x) = 0.99618 0.17727
# Poissons Ratio (y) = 0.58812 -0.09148
# Poissons Ratio (z) = 0.66510 -0.58136
#
# Static dielectric constant tensor:
#      x y z
#    x 1.619880 0.000000 0.000000 
#    y 0.000000 1.753720 0.000000 
#    z 0.000000 0.000000 1.731420 
# 
# From -- ./inp_files/5676.got.cif
#   From: 2010.05.17/outbox.cif.g08.bks.cpg/sg59_3_cif.got.tgz:5676.got - 2010.06.03 14:40:33.
