data_PCOD9448994
_publ_section_title
;
Structure prediction by ZEFSAII (Michael W. Deem and Ramdas Pophale) SiO2 
 PCOD9448994
Probable space group: P M M N
;
_chemical_formula_sum "Si O2"
_cell_formula_units_Z 64
_cell_length_a 7.821210
_cell_length_b 20.374864
_cell_length_c 19.104887
_cell_angle_alpha 90.000000
_cell_angle_beta 90.000000
_cell_angle_gamma 90.000000
_cell_volume 3044.480093
_symmetry_space_group_name_H-M "P M M N"
_symmetry_group_IT_number 59
_space_group.IT_coordinate_system_code '2'
_symmetry_cell_setting 'orthorhombic'
loop_
_space_group_symop_operation_xyz
x,y,z
1/2-x,1/2-y,z
1/2+x,-y,-z
-x,1/2+y,-z
-x,-y,-z
1/2+x,1/2+y,-z
1/2-x,y,z
x,1/2-y,z
loop_
_atom_site_type_symbol
_atom_site_label
_atom_site_fract_x
_atom_site_fract_y
_atom_site_fract_z
Si Si1 0.446085 0.502514 0.708073
Si Si2 0.543542 0.923745 0.927759
Si Si3 0.543102 0.444357 0.857946
Si Si4 0.458764 0.180605 0.182240
Si Si5 0.944052 0.642999 0.670931
Si Si6 0.049299 0.822290 0.518369
Si Si7 0.545487 0.174351 0.945201
Si Si8 0.956054 0.052818 0.560430
O O1 0.250000 0.523920 0.713230
O O2 0.493066 0.465545 0.779665
O O3 0.556130 0.567482 0.694582
O O4 0.469910 0.462087 0.636606
O O5 0.750000 0.926029 0.930847
O O6 0.486313 0.883041 0.859359
O O7 0.484293 0.998655 0.913456
O O8 0.487716 0.875179 0.989876
O O9 0.750000 0.444568 0.860876
O O10 0.483114 0.371805 0.880902
O O11 0.250000 0.178397 0.183932
O O12 0.508127 0.250000 0.148246
O O13 0.519152 0.178825 0.261740
O O14 0.750000 0.665643 0.659906
O O15 0.036557 0.653775 0.598307
O O16 0.250000 0.818133 0.501656
O O17 0.973142 0.750000 0.512070
O O18 0.976771 0.878067 0.468641
O O19 0.750000 0.180305 0.939098
O O20 0.478807 0.250000 0.950831
O O21 0.750000 0.053239 0.566511
O O22 0.000000 0.000000 0.500000
#
# Coordination Sequence:
#
# PCOD9448994 Si02
#       8
#     8   8   8   8   8   8   8   8
#     4  12  24  38  59  88 118 150 195 249 299 348
#     4  10  19  34  58  85 114 151 192 237 284 340
#     4  10  21  40  62  84 114 153 198 243 291 350
#     4   9  17  29  47  76 113 150 187 225 273 336
#     4  11  20  34  56  81 116 157 195 236 286 351
#     4  10  22  39  58  85 120 154 192 240 293 349
#     4  10  22  39  59  86 119 153 191 240 299 357
#     4  11  22  38  62  88 118 156 197 240 288 347
#
# _framework density 21.021653000000001
#
# number of rings (size 3 to 8) (size 9 to 14) (size 15 to 20)
#    0.000    1.625    2.500    3.000    0.000    3.000 
#    0.000    0.625    0.000    6.000    0.000    0.000 
#    0.000    0.000    0.000    0.000    0.000    0.000 
#
# Total GULP energy -357125.031671 kJ/mol
# GULP energy per Si atom -5580.078620 kJ/mol
# Density = 2.097381 g / cm^3
# Si number density = 21.021653 Si / 1000 Ang^3
#
#
#
# Elastic Constant Matrix: (Units=GPa)
#
#
# Indices 1 2 3 4 5 6 
#
# 1 42.8588 8.7220 -4.3723 0.0000 0.0000 0.0000
# 2 8.7220 171.8360 76.5567 0.0000 0.0000 0.0000
# 3 -4.3723 76.5567 102.9423 0.0000 0.0000 0.0000
# 4 0.0000 0.0000 0.0000 24.7765 0.0000 0.0000
# 5 0.0000 0.0000 0.0000 0.0000 22.3957 0.0000
# 6 0.0000 0.0000 0.0000 0.0000 0.0000 12.8629
#
#
#
# Elastic Compliance Matrix: (Units=1/GPa)
#
#
# Indices 1 2 3 4 5 6 
#
# 1 0.024140 -0.002516 0.002896 0.000000 0.000000 0.000000
# 2 -0.002516 0.008965 -0.006774 0.000000 0.000000 0.000000
# 3 0.002896 -0.006774 0.014875 0.000000 0.000000 0.000000
# 4 0.000000 0.000000 0.000000 0.040361 0.000000 0.000000
# 5 0.000000 0.000000 0.000000 0.000000 0.044651 0.000000
# 6 0.000000 0.000000 0.000000 0.000000 0.000000 0.077743
#
#
# Mechanical properties :
#
#
# Convention : Reuss Voigt Hill
#
# Bulk Modulus (GPa) = 28.41494 53.27224 40.84359
# Shear Modulus (GPa) = 21.25368 27.78907 24.52137
#
# Velocity S-wave (km/s) = 3.18313 3.63977 3.41908
# Velocity P-wave (km/s) = 5.20155 6.56205 5.92101
#
# Compressibility (1/GPa) = 0.03519276
#
# Stress axis : x y z
#
# Youngs Moduli (GPa) = 41.42539 111.54219 67.22678
#
# Poissons Ratio (x) = 0.28059 -0.19469
# Poissons Ratio (y) = 0.10421 0.45540
# Poissons Ratio (z) = -0.11997 0.75560
#
# Static dielectric constant tensor:
#      x y z
#    x 1.772070 0.000000 0.000000 
#    y 0.000000 1.824160 0.000000 
#    z 0.000000 0.000000 1.753070 
# 
# From -- ./inp_files/26209.got.cif
#   From: 2010.05.17/outbox.cif.g08.bks.cpg/sg59_14_cif.got.tgz:26209.got - 2010.06.03 14:40:33.
