data_PCOD9448337
_publ_section_title
;
Structure prediction by ZEFSAII (Michael W. Deem and Ramdas Pophale) SiO2 
 PCOD9448337
Probable space group: P M M N
;
_chemical_formula_sum "Si O2"
_cell_formula_units_Z 48
_cell_length_a 32.398571
_cell_length_b 7.926886
_cell_length_c 9.338865
_cell_angle_alpha 90.000000
_cell_angle_beta 90.000000
_cell_angle_gamma 90.000000
_cell_volume 2398.405244
_symmetry_space_group_name_H-M "P M M N"
_symmetry_group_IT_number 59
_space_group.IT_coordinate_system_code '2'
_symmetry_cell_setting 'orthorhombic'
loop_
_space_group_symop_operation_xyz
x,y,z
1/2-x,1/2-y,z
1/2+x,-y,-z
-x,1/2+y,-z
-x,-y,-z
1/2+x,1/2+y,-z
1/2-x,y,z
x,1/2-y,z
loop_
_atom_site_type_symbol
_atom_site_label
_atom_site_fract_x
_atom_site_fract_y
_atom_site_fract_z
Si Si1 0.250000 0.053326 0.329128
Si Si2 0.999685 0.548260 0.334115
Si Si3 0.160542 0.455424 0.346805
Si Si4 0.659658 0.049676 0.318791
Si Si5 0.750000 0.455364 0.339854
Si Si6 0.078279 0.449997 0.844992
Si Si7 0.582128 0.952313 0.832789
O O1 0.250000 0.250000 0.288415
O O2 0.294881 0.982546 0.288397
O O3 0.250000 0.035197 0.501839
O O4 0.999179 0.750000 0.327395
O O5 0.958923 0.481195 0.252668
O O6 0.000000 0.500000 0.500000
O O7 0.040732 0.487282 0.254871
O O8 0.161390 0.250000 0.346277
O O9 0.155667 0.508547 0.512278
O O10 0.122190 0.515797 0.252736
O O11 0.657118 0.250000 0.301690
O O12 0.706053 0.995708 0.272423
O O13 0.622170 0.972503 0.231182
O O14 0.750000 0.250000 0.355713
O O15 0.070722 0.250000 0.857842
O O16 0.078751 0.520698 0.005878
O O17 0.587152 0.750000 0.841888
#
# Coordination Sequence:
#
# PCOD9448337 Si02
#       7
#     4   8   8   8   4   8   8
#     4   8  14  26  47  74 100 128 164 204 249 298
#     4  11  23  38  57  79 103 133 171 214 258 307
#     4   9  17  31  52  76 102 132 167 209 253 298
#     4  10  19  32  53  78 104 136 174 214 254 300
#     4   8  16  30  47  72 104 134 168 212 255 292
#     4  10  22  38  53  74 106 139 170 209 258 308
#     4  10  21  37  55  76 105 137 169 210 258 306
#
# _framework density 20.013297999999999
#
# number of rings (size 3 to 8) (size 9 to 14) (size 15 to 20)
#    0.000    2.333    0.000    2.500    0.000    7.333 
#    0.000    0.833    0.000    2.000    0.000    3.500 
#    0.000    0.000    0.000    0.000    0.000    0.000 
#
# Total GULP energy -267769.605076 kJ/mol
# GULP energy per Si atom -5578.533439 kJ/mol
# Density = 1.996775 g / cm^3
# Si number density = 20.013298 Si / 1000 Ang^3
#
#
#
# Elastic Constant Matrix: (Units=GPa)
#
#
# Indices 1 2 3 4 5 6 
#
# 1 194.4968 -11.7444 90.2817 0.0000 0.0000 0.0000
# 2 -11.7444 11.4109 -7.0317 0.0000 0.0000 0.0000
# 3 90.2817 -7.0317 123.0265 0.0000 0.0000 0.0000
# 4 0.0000 0.0000 0.0000 10.0131 0.0000 0.0000
# 5 0.0000 0.0000 0.0000 0.0000 -12.3645 0.0000
# 6 0.0000 0.0000 0.0000 0.0000 0.0000 -8.6105
#
#
#
# Elastic Compliance Matrix: (Units=1/GPa)
#
#
# Indices 1 2 3 4 5 6 
#
# 1 0.008045 0.004811 -0.005628 0.000000 0.000000 0.000000
# 2 0.004811 0.093712 0.001825 0.000000 0.000000 0.000000
# 3 -0.005628 0.001825 0.012363 0.000000 0.000000 0.000000
# 4 0.000000 0.000000 0.000000 0.099869 0.000000 0.000000
# 5 0.000000 0.000000 0.000000 0.000000 -0.080877 0.000000
# 6 0.000000 0.000000 0.000000 0.000000 0.000000 -0.116138
#
#
# Mechanical properties :
#
#
# Convention : Reuss Voigt Hill
#
# Bulk Modulus (GPa) = 8.61053 52.43838 30.52446
# Shear Modulus (GPa) = 93.16143 14.96953 54.06548
#
# Velocity S-wave (km/s) = 6.83014 2.73789 5.20321
# Velocity P-wave (km/s) = 8.15554 6.02108 7.16820
#
# Compressibility (1/GPa) = 0.11613682
#
# Stress axis : x y z
#
# Youngs Moduli (GPa) = 124.30656 10.67094 80.88608
#
# Poissons Ratio (x) = -0.05134 0.45527
# Poissons Ratio (y) = -0.59808 -0.14765
# Poissons Ratio (z) = 0.69966 -0.01948
#
# Static dielectric constant tensor:
#      x y z
#    x 1.734760 0.000000 0.000000 
#    y 0.000000 1.735870 0.000000 
#    z 0.000000 0.000000 1.663130 
# 
# From -- ./inp_files/6412.got.cif
#   From: 2010.05.17/outbox.cif.g08.bks.cpg/sg59_4_cif.got.tgz:6412.got - 2010.06.03 14:40:33.
