data_PCOD9448725
_publ_section_title
;
Structure prediction by ZEFSAII (Michael W. Deem and Ramdas Pophale) SiO2 
 PCOD9448725
Probable space group: P M M N
;
_chemical_formula_sum "Si O2"
_cell_formula_units_Z 64
_cell_length_a 23.082215
_cell_length_b 8.710223
_cell_length_c 18.102821
_cell_angle_alpha 90.000000
_cell_angle_beta 90.000000
_cell_angle_gamma 90.000000
_cell_volume 3639.594609
_symmetry_space_group_name_H-M "P M M N"
_symmetry_group_IT_number 59
_space_group.IT_coordinate_system_code '2'
_symmetry_cell_setting 'orthorhombic'
loop_
_space_group_symop_operation_xyz
x,y,z
1/2-x,1/2-y,z
1/2+x,-y,-z
-x,1/2+y,-z
-x,-y,-z
1/2+x,1/2+y,-z
1/2-x,y,z
x,1/2-y,z
loop_
_atom_site_type_symbol
_atom_site_label
_atom_site_fract_x
_atom_site_fract_y
_atom_site_fract_z
Si Si1 0.064409 0.934483 0.491874
Si Si2 0.418345 0.565342 0.653677
Si Si3 0.518103 0.065671 0.078800
Si Si4 0.548808 0.434158 0.669307
Si Si5 0.587298 0.566331 0.819280
Si Si6 0.151241 0.935187 0.905368
Si Si7 0.814209 0.566541 0.248631
Si Si8 0.183600 0.934189 0.072637
O O1 0.062609 0.750000 0.492957
O O2 0.095604 0.980158 0.568095
O O3 0.079836 0.979944 0.408207
O O4 0.000000 0.000000 0.500000
O O5 0.421097 0.750000 0.659470
O O6 0.483046 0.501791 0.671064
O O7 0.368012 0.505284 0.706995
O O8 0.516310 0.250000 0.073978
O O9 0.471811 0.016204 0.139518
O O10 0.583411 0.022930 0.098300
O O11 0.500000 0.000000 0.000000
O O12 0.544015 0.250000 0.671497
O O13 0.584868 0.493510 0.738665
O O14 0.587324 0.750000 0.813314
O O15 0.639467 0.513126 0.871522
O O16 0.157423 0.750000 0.898800
O O17 0.181687 0.013479 0.836435
O O18 0.172749 0.979147 0.987142
O O19 0.750000 0.520720 0.276931
O O20 0.818705 0.750000 0.252548
O O21 0.250000 0.967536 0.091753
O O22 0.174519 0.750000 0.076111
#
# Coordination Sequence:
#
# PCOD9448725 Si02
#       8
#     8   8   8   8   8   8   8   8
#     4   8  16  30  51  80 109 136 167 204 250 308
#     4  10  19  34  56  81 110 141 175 215 263 319
#     4  10  20  33  51  75 103 132 167 211 260 314
#     4  10  19  33  55  83 113 142 173 214 266 320
#     4  11  22  34  51  79 110 141 176 217 266 316
#     4  10  20  36  57  78 102 136 178 221 266 317
#     4  11  24  38  52  75 107 144 186 226 265 315
#     4  10  21  37  56  75  97 134 182 225 266 313
#
# _framework density 17.584375999999999
#
# number of rings (size 3 to 8) (size 9 to 14) (size 15 to 20)
#    0.000    2.000    1.250    2.625    0.000    5.250 
#    0.000    0.000    0.000    0.750    0.000    1.750 
#    0.000    0.000    0.000    0.000    0.000    0.000 
#
# Total GULP energy -356989.617365 kJ/mol
# GULP energy per Si atom -5577.962771 kJ/mol
# Density = 1.754435 g / cm^3
# Si number density = 17.584376 Si / 1000 Ang^3
#
#
#
# Elastic Constant Matrix: (Units=GPa)
#
#
# Indices 1 2 3 4 5 6 
#
# 1 70.6968 27.4039 37.8941 0.0000 0.0000 0.0000
# 2 27.4039 30.0054 31.7219 0.0000 0.0000 0.0000
# 3 37.8941 31.7219 137.1572 0.0000 0.0000 0.0000
# 4 0.0000 0.0000 0.0000 24.7855 0.0000 0.0000
# 5 0.0000 0.0000 0.0000 0.0000 12.7589 0.0000
# 6 0.0000 0.0000 0.0000 0.0000 0.0000 18.4113
#
#
#
# Elastic Compliance Matrix: (Units=1/GPa)
#
#
# Indices 1 2 3 4 5 6 
#
# 1 0.022271 -0.018313 -0.001918 0.000000 0.000000 0.000000
# 2 -0.018313 0.059172 -0.008626 0.000000 0.000000 0.000000
# 3 -0.001918 -0.008626 0.009816 0.000000 0.000000 0.000000
# 4 0.000000 0.000000 0.000000 0.040346 0.000000 0.000000
# 5 0.000000 0.000000 0.000000 0.000000 0.078377 0.000000
# 6 0.000000 0.000000 0.000000 0.000000 0.000000 0.054314
#
#
# Mechanical properties :
#
#
# Convention : Reuss Voigt Hill
#
# Bulk Modulus (GPa) = 29.80989 47.98880 38.89934
# Shear Modulus (GPa) = 15.00638 20.58043 17.79340
#
# Velocity S-wave (km/s) = 2.92446 3.42480 3.18447
# Velocity P-wave (km/s) = 5.32847 6.55658 5.97417
#
# Compressibility (1/GPa) = 0.03354592
#
# Stress axis : x y z
#
# Youngs Moduli (GPa) = 44.90055 16.89992 101.87726
#
# Poissons Ratio (x) = 0.30949 0.19537
# Poissons Ratio (y) = 0.82226 0.87877
# Poissons Ratio (z) = 0.08611 0.14578
#
# Static dielectric constant tensor:
#      x y z
#    x 1.569050 0.000000 0.000000 
#    y 0.000000 1.593050 0.000000 
#    z 0.000000 0.000000 1.628220 
# 
# From -- ./inp_files/28414.got.cif
#   From: 2010.05.17/outbox.cif.g08.bks.cpg/sg59_15_cif.got.tgz:28414.got - 2010.06.03 14:40:33.
