data_PCOD9448824
_publ_section_title
;
Structure prediction by ZEFSAII (Michael W. Deem and Ramdas Pophale) SiO2 
 PCOD9448824
Probable space group: P M M N
;
_chemical_formula_sum "Si O2"
_cell_formula_units_Z 64
_cell_length_a 20.665263
_cell_length_b 8.432743
_cell_length_c 20.680021
_cell_angle_alpha 90.000000
_cell_angle_beta 90.000000
_cell_angle_gamma 90.000000
_cell_volume 3603.800797
_symmetry_space_group_name_H-M "P M M N"
_symmetry_group_IT_number 59
_space_group.IT_coordinate_system_code '2'
_symmetry_cell_setting 'orthorhombic'
loop_
_space_group_symop_operation_xyz
x,y,z
1/2-x,1/2-y,z
1/2+x,-y,-z
-x,1/2+y,-z
-x,-y,-z
1/2+x,1/2+y,-z
1/2-x,y,z
x,1/2-y,z
loop_
_atom_site_type_symbol
_atom_site_label
_atom_site_fract_x
_atom_site_fract_y
_atom_site_fract_z
Si Si1 0.102809 0.441114 0.696378
Si Si2 0.954454 0.060704 0.669046
Si Si3 0.323741 0.556577 0.946275
Si Si4 0.566358 0.939696 0.808927
Si Si5 0.176020 0.941536 0.094724
Si Si6 0.322850 0.443838 0.570091
Si Si7 0.579763 0.059242 0.164561
Si Si8 0.567572 0.939549 0.529180
O O1 0.176597 0.250000 0.569670
O O2 0.152439 0.492200 0.641094
O O3 0.111694 0.511580 0.767350
O O4 0.030440 0.485836 0.673071
O O5 0.951395 0.250000 0.666436
O O6 0.923933 0.002078 0.736071
O O7 0.925836 0.992394 0.603218
O O8 0.250000 0.508183 0.929710
O O9 0.324278 0.750000 0.945339
O O10 0.377196 0.500366 0.895288
O O11 0.337070 0.508999 0.020378
O O12 0.564378 0.750000 0.806875
O O13 0.495006 0.997363 0.832604
O O14 0.622737 0.993895 0.856592
O O15 0.250000 0.989730 0.110619
O O16 0.174097 0.750000 0.096453
O O17 0.250000 0.496641 0.557611
O O18 0.395239 0.250000 0.701273
O O19 0.373958 0.496944 0.516241
O O20 0.577823 0.250000 0.160715
O O21 0.566524 0.750000 0.526407
O O22 0.500000 0.000000 0.500000
#
# Coordination Sequence:
#
# PCOD9448824 Si02
#       8
#     8   8   8   8   8   8   8   8
#     4   9  17  31  49  71  98 132 170 204 249 302
#     4  10  19  34  54  77 101 132 174 216 254 302
#     4   8  15  30  51  72  98 135 175 211 253 308
#     4  10  20  33  50  77 108 136 165 210 265 313
#     4   9  18  34  55  75  96 131 177 218 258 309
#     4   9  18  33  51  73 103 136 170 208 253 307
#     4   9  18  31  48  74 105 135 168 209 253 300
#     4  11  20  33  55  80 102 134 175 216 262 313
#
# _framework density 17.759027
#
# number of rings (size 3 to 8) (size 9 to 14) (size 15 to 20)
#    0.000    2.625    1.250    1.875    0.000    2.250 
#    0.000    1.250    0.000    6.000    0.000    0.000 
#    0.000    0.000    0.000    0.000    0.000    0.000 
#
# Total GULP energy -356881.671638 kJ/mol
# GULP energy per Si atom -5576.276119 kJ/mol
# Density = 1.771861 g / cm^3
# Si number density = 17.759027 Si / 1000 Ang^3
#
#
#
# Elastic Constant Matrix: (Units=GPa)
#
#
# Indices 1 2 3 4 5 6 
#
# 1 128.9915 19.0020 108.8225 0.0000 0.0000 0.0000
# 2 19.0020 13.4658 20.9632 0.0000 0.0000 0.0000
# 3 108.8225 20.9632 157.5535 0.0000 0.0000 0.0000
# 4 0.0000 0.0000 0.0000 27.1768 0.0000 0.0000
# 5 0.0000 0.0000 0.0000 0.0000 30.9376 0.0000
# 6 0.0000 0.0000 0.0000 0.0000 0.0000 16.2415
#
#
#
# Elastic Compliance Matrix: (Units=1/GPa)
#
#
# Indices 1 2 3 4 5 6 
#
# 1 0.019263 -0.008160 -0.012220 0.000000 0.000000 0.000000
# 2 -0.008160 0.097120 -0.007286 0.000000 0.000000 0.000000
# 3 -0.012220 -0.007286 0.015757 0.000000 0.000000 0.000000
# 4 0.000000 0.000000 0.000000 0.036796 0.000000 0.000000
# 5 0.000000 0.000000 0.000000 0.000000 0.032323 0.000000
# 6 0.000000 0.000000 0.000000 0.000000 0.000000 0.061571
#
#
# Mechanical properties :
#
#
# Convention : Reuss Voigt Hill
#
# Bulk Modulus (GPa) = 13.01941 66.39848 39.70894
# Shear Modulus (GPa) = 14.54488 24.95273 19.74880
#
# Velocity S-wave (km/s) = 2.86495 3.75250 3.33835
# Velocity P-wave (km/s) = 4.27679 7.49965 6.10474
#
# Compressibility (1/GPa) = 0.07680837
#
# Stress axis : x y z
#
# Youngs Moduli (GPa) = 51.91182 10.29657 63.46566
#
# Poissons Ratio (x) = 0.08402 0.77552
# Poissons Ratio (y) = 0.42361 0.46241
# Poissons Ratio (z) = 0.63434 0.07502
#
# Static dielectric constant tensor:
#      x y z
#    x 1.602020 0.000000 0.000000 
#    y 0.000000 1.613310 0.000000 
#    z 0.000000 0.000000 1.592610 
# 
# From -- ./inp_files/28139.got.cif
#   From: 2010.05.17/outbox.cif.g08.bks.cpg/sg59_15_cif.got.tgz:28139.got - 2010.06.03 14:40:33.
