data_PCOD9448968
_publ_section_title
;
Structure prediction by ZEFSAII (Michael W. Deem and Ramdas Pophale) SiO2 
 PCOD9448968
Probable space group: P M M N
;
_chemical_formula_sum "Si O2"
_cell_formula_units_Z 48
_cell_length_a 28.614584
_cell_length_b 8.781092
_cell_length_c 10.431765
_cell_angle_alpha 90.000000
_cell_angle_beta 90.000000
_cell_angle_gamma 90.000000
_cell_volume 2621.161370
_symmetry_space_group_name_H-M "P M M N"
_symmetry_group_IT_number 59
_space_group.IT_coordinate_system_code '2'
_symmetry_cell_setting 'orthorhombic'
loop_
_space_group_symop_operation_xyz
x,y,z
1/2-x,1/2-y,z
1/2+x,-y,-z
-x,1/2+y,-z
-x,-y,-z
1/2+x,1/2+y,-z
1/2-x,y,z
x,1/2-y,z
loop_
_atom_site_type_symbol
_atom_site_label
_atom_site_fract_x
_atom_site_fract_y
_atom_site_fract_z
Si Si1 0.554619 0.933289 0.866962
Si Si2 0.196328 0.434491 0.490502
Si Si3 0.865447 0.430390 0.283504
Si Si4 0.156326 0.435028 0.217565
Si Si5 0.455230 0.068440 0.832642
Si Si6 0.695216 0.568584 0.057258
O O1 0.550462 0.750000 0.857951
O O2 0.602311 0.981800 0.797881
O O3 0.507732 0.008740 0.813759
O O4 0.557718 0.970619 0.018945
O O5 0.250000 0.480282 0.516321
O O6 0.194816 0.250000 0.494938
O O7 0.160935 0.498484 0.595177
O O8 0.180625 0.484905 0.348410
O O9 0.866813 0.250000 0.294735
O O10 0.917316 0.494659 0.260332
O O11 0.835699 0.480345 0.159203
O O12 0.156849 0.250000 0.219612
O O13 0.183096 0.478989 0.087746
O O14 0.453552 0.250000 0.820890
O O15 0.750000 0.548304 0.082608
O O16 0.684511 0.750000 0.068842
#
# Coordination Sequence:
#
# PCOD9448968 Si02
#       6
#     8   8   8   8   8   8
#     4   9  17  32  56  86 118 144 175 226 287 339
#     4  10  21  38  60  83 110 149 192 231 278 335
#     4  12  24  37  54  79 114 152 191 232 280 331
#     4   9  17  34  59  87 113 142 183 232 281 333
#     4  10  19  34  57  84 114 146 186 230 279 335
#     4  10  19  34  58  85 111 141 184 235 283 334
#
# _framework density 18.312493
#
# number of rings (size 3 to 8) (size 9 to 14) (size 15 to 20)
#    0.000    2.000    1.667    3.000    0.000    5.333 
#    0.000    2.500    0.000    2.000    0.000    0.000 
#    0.000    0.000    0.000    0.000    0.000    0.000 
#
# Total GULP energy -268032.831420 kJ/mol
# GULP energy per Si atom -5584.017321 kJ/mol
# Density = 1.827081 g / cm^3
# Si number density = 18.312493 Si / 1000 Ang^3
#
#
#
# Elastic Constant Matrix: (Units=GPa)
#
#
# Indices 1 2 3 4 5 6 
#
# 1 52.2530 13.9387 -16.6955 0.0000 0.0000 0.0000
# 2 13.9387 23.5702 -2.7229 0.0000 0.0000 0.0000
# 3 -16.6955 -2.7229 29.3938 0.0000 0.0000 0.0000
# 4 0.0000 0.0000 0.0000 -8.6823 0.0000 0.0000
# 5 0.0000 0.0000 0.0000 0.0000 32.2339 0.0000
# 6 0.0000 0.0000 0.0000 0.0000 0.0000 27.8762
#
#
#
# Elastic Compliance Matrix: (Units=1/GPa)
#
#
# Indices 1 2 3 4 5 6 
#
# 1 0.027636 -0.014687 0.014337 0.000000 0.000000 0.000000
# 2 -0.014687 0.050691 -0.003646 0.000000 0.000000 0.000000
# 3 0.014337 -0.003646 0.041826 0.000000 0.000000 0.000000
# 4 0.000000 0.000000 0.000000 -0.115177 0.000000 0.000000
# 5 0.000000 0.000000 0.000000 0.000000 0.031023 0.000000
# 6 0.000000 0.000000 0.000000 0.000000 0.000000 0.035873
#
#
# Mechanical properties :
#
#
# Convention : Reuss Voigt Hill
#
# Bulk Modulus (GPa) = 8.91588 10.47307 9.69447
# Shear Modulus (GPa) = 42.64310 17.66533 30.15421
#
# Velocity S-wave (km/s) = 4.83083 3.10927 4.06229
# Velocity P-wave (km/s) = 5.99960 4.31527 5.22574
#
# Compressibility (1/GPa) = 0.11215949
#
# Stress axis : x y z
#
# Youngs Moduli (GPa) = 36.18438 19.72753 23.90847
#
# Poissons Ratio (x) = 0.28974 -0.34277
# Poissons Ratio (y) = 0.53144 0.08718
# Poissons Ratio (z) = -0.51876 0.07194
#
# Static dielectric constant tensor:
#      x y z
#    x 1.624610 0.000000 0.000000 
#    y 0.000000 1.619140 0.000000 
#    z 0.000000 0.000000 1.616220 
# 
# From -- ./inp_files/12964.got.cif
#   From: 2010.05.17/outbox.cif.g08.bks.cpg/sg59_7_cif.got.tgz:12964.got - 2010.06.03 14:40:33.
