data_PCOD9448076
_publ_section_title
;
Structure prediction by ZEFSAII (Michael W. Deem and Ramdas Pophale) SiO2 
 PCOD9448076
Probable space group: P M M N
;
_chemical_formula_sum "Si O2"
_cell_formula_units_Z 56
_cell_length_a 19.934295
_cell_length_b 7.519300
_cell_length_c 18.364679
_cell_angle_alpha 90.000000
_cell_angle_beta 90.000000
_cell_angle_gamma 90.000000
_cell_volume 2752.717443
_symmetry_space_group_name_H-M "P M M N"
_symmetry_group_IT_number 59
_space_group.IT_coordinate_system_code '2'
_symmetry_cell_setting 'orthorhombic'
loop_
_space_group_symop_operation_xyz
x,y,z
1/2-x,1/2-y,z
1/2+x,-y,-z
-x,1/2+y,-z
-x,-y,-z
1/2+x,1/2+y,-z
1/2-x,y,z
x,1/2-y,z
loop_
_atom_site_type_symbol
_atom_site_label
_atom_site_fract_x
_atom_site_fract_y
_atom_site_fract_z
Si Si1 0.911056 0.538585 0.723671
Si Si2 0.831543 0.044800 0.024752
Si Si3 0.173101 0.964886 0.133367
Si Si4 0.172837 0.531428 0.815343
Si Si5 0.673015 0.532117 0.584501
Si Si6 0.060158 0.957312 0.705986
Si Si7 0.571059 0.961408 0.461617
O O1 0.916781 0.750000 0.710784
O O2 0.874416 0.512234 0.800131
O O3 0.865227 0.470996 0.657361
O O4 0.986450 0.464362 0.721185
O O5 0.750000 0.045933 0.023776
O O6 0.854515 0.250000 0.025126
O O7 0.849462 0.969855 0.103767
O O8 0.850604 0.967574 0.946138
O O9 0.250000 0.025295 0.146643
O O10 0.175403 0.750000 0.128562
O O11 0.250000 0.476726 0.802410
O O12 0.174198 0.750000 0.817054
O O13 0.121146 0.469705 0.754004
O O14 0.750000 0.474536 0.583148
O O15 0.673200 0.750000 0.584736
O O16 0.630068 0.474180 0.514686
O O17 0.056534 0.750000 0.726905
O O18 0.073008 0.966470 0.619918
O O19 0.577369 0.750000 0.455623
O O20 0.500000 0.000000 0.500000
#
# Coordination Sequence:
#
# PCOD9448076 Si02
#       7
#     8   8   8   8   8   8   8
#     4  10  19  32  48  68  99 136 167 196 237 297
#     4   7  11  23  44  69  96 128 164 202 248 293
#     4   9  17  29  47  72  99 126 165 214 251 285
#     4   8  14  27  50  76 100 129 167 210 249 287
#     4   9  18  33  52  72  95 128 167 199 232 287
#     4  10  20  34  52  76 102 129 166 203 243 296
#     4  11  21  36  56  75  98 130 166 203 244 293
#
# _framework density 20.343533999999998
#
# number of rings (size 3 to 8) (size 9 to 14) (size 15 to 20)
#    0.000    2.857    1.429    2.571    0.000    2.000 
#    0.000    0.714    0.000    3.000    0.000    2.000 
#    0.000    0.000    0.000    0.000    0.000    0.000 
#
# Total GULP energy -312293.211816 kJ/mol
# GULP energy per Si atom -5576.664497 kJ/mol
# Density = 2.029723 g / cm^3
# Si number density = 20.343534 Si / 1000 Ang^3
#
#
#
# Elastic Constant Matrix: (Units=GPa)
#
#
# Indices 1 2 3 4 5 6 
#
# 1 163.7400 4.2159 118.1738 0.0000 0.0000 0.0000
# 2 4.2159 48.4553 -14.0920 0.0000 0.0000 0.0000
# 3 118.1738 -14.0920 190.1541 0.0000 0.0000 0.0000
# 4 0.0000 0.0000 0.0000 -3.5488 0.0000 0.0000
# 5 0.0000 0.0000 0.0000 0.0000 35.1574 0.0000
# 6 0.0000 0.0000 0.0000 0.0000 0.0000 -10.2602
#
#
#
# Elastic Compliance Matrix: (Units=1/GPa)
#
#
# Indices 1 2 3 4 5 6 
#
# 1 0.011527 -0.003154 -0.007398 0.000000 0.000000 0.000000
# 2 -0.003154 0.021955 0.003587 0.000000 0.000000 0.000000
# 3 -0.007398 0.003587 0.010122 0.000000 0.000000 0.000000
# 4 0.000000 0.000000 0.000000 -0.281788 0.000000 0.000000
# 5 0.000000 0.000000 0.000000 0.000000 0.028443 0.000000
# 6 0.000000 0.000000 0.000000 0.000000 0.000000 -0.097464
#
#
# Mechanical properties :
#
#
# Convention : Reuss Voigt Hill
#
# Bulk Modulus (GPa) = 33.69766 68.77164 51.23465
# Shear Modulus (GPa) = -17.64403 23.87314 3.11455
#
# Velocity S-wave (km/s) = -2.94820 3.42935 1.23867
# Velocity P-wave (km/s) = 2.23855 7.03983 5.22352
#
# Compressibility (1/GPa) = 0.02967566
#
# Stress axis : x y z
#
# Youngs Moduli (GPa) = 86.74927 45.54699 98.79352
#
# Poissons Ratio (x) = 0.14367 0.73084
# Poissons Ratio (y) = 0.27364 -0.35441
# Poissons Ratio (z) = 0.64174 -0.16340
#
# Static dielectric constant tensor:
#      x y z
#    x 1.694440 0.000000 0.000000 
#    y 0.000000 1.786090 0.000000 
#    z 0.000000 0.000000 1.712240 
# 
# From -- ./inp_files/28098.got.cif
#   From: 2010.05.17/outbox.cif.g08.bks.cpg/sg59_15_cif.got.tgz:28098.got - 2010.06.03 14:40:33.
