data_PCOD9448882
_publ_section_title
;
Structure prediction by ZEFSAII (Michael W. Deem and Ramdas Pophale) SiO2 
 PCOD9448882
Probable space group: P M M N
;
_chemical_formula_sum "Si O2"
_cell_formula_units_Z 48
_cell_length_a 8.407556
_cell_length_b 24.291834
_cell_length_c 13.090118
_cell_angle_alpha 90.000000
_cell_angle_beta 90.000000
_cell_angle_gamma 90.000000
_cell_volume 2673.459657
_symmetry_space_group_name_H-M "P M M N"
_symmetry_group_IT_number 59
_space_group.IT_coordinate_system_code '2'
_symmetry_cell_setting 'orthorhombic'
loop_
_space_group_symop_operation_xyz
x,y,z
1/2-x,1/2-y,z
1/2+x,-y,-z
-x,1/2+y,-z
-x,-y,-z
1/2+x,1/2+y,-z
1/2-x,y,z
x,1/2-y,z
loop_
_atom_site_type_symbol
_atom_site_label
_atom_site_fract_x
_atom_site_fract_y
_atom_site_fract_z
Si Si1 0.057381 0.113639 0.193529
Si Si2 0.559485 0.998084 0.116944
Si Si3 0.057890 0.120002 0.801402
Si Si4 0.944092 0.687135 0.999535
Si Si5 0.442106 0.313091 0.383099
Si Si6 0.940119 0.312879 0.610278
O O1 0.250000 0.112445 0.193555
O O2 0.006107 0.150302 0.096404
O O3 0.004133 0.144244 0.296666
O O4 0.997012 0.052155 0.176323
O O5 0.750000 0.997074 0.113724
O O6 0.504575 0.941831 0.171630
O O7 0.500000 0.000000 0.000000
O O8 0.250000 0.120041 0.800346
O O9 0.999877 0.145173 0.695490
O O10 0.005243 0.159143 0.894824
O O11 0.750000 0.687528 0.999017
O O12 0.997781 0.750000 0.991112
O O13 0.250000 0.313417 0.383310
O O14 0.492384 0.250000 0.359283
O O15 0.500854 0.326634 0.496519
O O16 0.750000 0.312612 0.610384
O O17 0.996033 0.250000 0.633162
#
# Coordination Sequence:
#
# PCOD9448882 Si02
#       6
#     8   8   8   8   8   8
#     4  10  19  34  55  82 111 140 180 224 270 321
#     4  11  22  37  56  79 108 146 186 224 269 321
#     4  10  20  35  55  78 105 142 187 224 261 318
#     4   9  16  28  50  79 108 136 170 217 267 317
#     4   9  18  34  58  84 110 144 184 223 265 323
#     4  10  21  36  55  81 113 144 176 222 278 327
#
# _framework density 17.954263999999998
#
# number of rings (size 3 to 8) (size 9 to 14) (size 15 to 20)
#    0.000    2.167    1.667    2.000    0.000    5.667 
#    0.000    0.833    0.000    1.500    0.000    0.000 
#    0.000    0.000    0.000    0.000    0.000    0.000 
#
# Total GULP energy -267925.889302 kJ/mol
# GULP energy per Si atom -5581.789360 kJ/mol
# Density = 1.791340 g / cm^3
# Si number density = 17.954264 Si / 1000 Ang^3
#
#
#
# Elastic Constant Matrix: (Units=GPa)
#
#
# Indices 1 2 3 4 5 6 
#
# 1 14.1511 21.6844 22.2795 0.0000 0.0000 0.0000
# 2 21.6844 146.3010 90.5970 0.0000 0.0000 0.0000
# 3 22.2795 90.5970 142.6188 0.0000 0.0000 0.0000
# 4 0.0000 0.0000 0.0000 25.6196 0.0000 0.0000
# 5 0.0000 0.0000 0.0000 0.0000 11.4036 0.0000
# 6 0.0000 0.0000 0.0000 0.0000 0.0000 25.6415
#
#
#
# Elastic Compliance Matrix: (Units=1/GPa)
#
#
# Indices 1 2 3 4 5 6 
#
# 1 0.099686 -0.008460 -0.010199 0.000000 0.000000 0.000000
# 2 -0.008460 0.011985 -0.006292 0.000000 0.000000 0.000000
# 3 -0.010199 -0.006292 0.012602 0.000000 0.000000 0.000000
# 4 0.000000 0.000000 0.000000 0.039033 0.000000 0.000000
# 5 0.000000 0.000000 0.000000 0.000000 0.087691 0.000000
# 6 0.000000 0.000000 0.000000 0.000000 0.000000 0.038999
#
#
# Mechanical properties :
#
#
# Convention : Reuss Voigt Hill
#
# Bulk Modulus (GPa) = 13.44587 63.57695 38.51141
# Shear Modulus (GPa) = 13.71035 23.76696 18.73865
#
# Velocity S-wave (km/s) = 2.76638 3.64228 3.23412
# Velocity P-wave (km/s) = 4.20821 7.29217 5.95335
#
# Compressibility (1/GPa) = 0.07437228
#
# Stress axis : x y z
#
# Youngs Moduli (GPa) = 10.03152 83.43436 79.35303
#
# Poissons Ratio (x) = 0.70582 0.80930
# Poissons Ratio (y) = 0.08486 0.49930
# Poissons Ratio (z) = 0.10231 0.52498
#
# Static dielectric constant tensor:
#      x y z
#    x 1.624980 0.000000 0.000000 
#    y 0.000000 1.607890 0.000000 
#    z 0.000000 0.000000 1.583210 
# 
# From -- ./inp_files/14342.got.cif
#   From: 2010.05.17/outbox.cif.g08.bks.cpg/sg59_8_cif.got.tgz:14342.got - 2010.06.03 14:40:33.
