data_PCOD9448176
_publ_section_title
;
Structure prediction by ZEFSAII (Michael W. Deem and Ramdas Pophale) SiO2 
 PCOD9448176
Probable space group: P M M N
;
_chemical_formula_sum "Si O2"
_cell_formula_units_Z 48
_cell_length_a 8.840511
_cell_length_b 32.628854
_cell_length_c 9.545572
_cell_angle_alpha 90.000000
_cell_angle_beta 90.000000
_cell_angle_gamma 90.000000
_cell_volume 2753.475061
_symmetry_space_group_name_H-M "P M M N"
_symmetry_group_IT_number 59
_space_group.IT_coordinate_system_code '2'
_symmetry_cell_setting 'orthorhombic'
loop_
_space_group_symop_operation_xyz
x,y,z
1/2-x,1/2-y,z
1/2+x,-y,-z
-x,1/2+y,-z
-x,-y,-z
1/2+x,1/2+y,-z
1/2-x,y,z
x,1/2-y,z
loop_
_atom_site_type_symbol
_atom_site_label
_atom_site_fract_x
_atom_site_fract_y
_atom_site_fract_z
Si Si1 0.575526 0.250000 0.671678
Si Si2 0.430870 0.997883 0.844019
Si Si3 0.068434 0.411710 0.828582
Si Si4 0.924664 0.250000 0.330288
Si Si5 0.568730 0.914138 0.841312
Si Si6 0.567560 0.338713 0.650983
Si Si7 0.568486 0.664526 0.658615
O O1 0.750000 0.250000 0.718430
O O2 0.573059 0.250000 0.501217
O O3 0.511397 0.294467 0.711043
O O4 0.250000 0.995836 0.853708
O O5 0.469849 0.042031 0.777743
O O6 0.494139 0.955677 0.782487
O O7 0.500000 0.000000 0.000000
O O8 0.250000 0.406540 0.815696
O O9 0.985486 0.376435 0.744138
O O10 0.030003 0.409555 0.994077
O O11 0.750000 0.250000 0.286796
O O12 0.005858 0.291941 0.287149
O O13 0.750000 0.919057 0.833773
O O14 0.525918 0.873491 0.757248
O O15 0.750000 0.337055 0.641791
O O16 0.500300 0.342614 0.495312
O O17 0.750000 0.666589 0.649197
#
# Coordination Sequence:
#
# PCOD9448176 Si02
#       7
#     4   8   8   4   8   8   8
#     4   7  14  29  46  65  92 122 156 196 234 275
#     4   9  17  30  50  72  97 129 165 203 245 295
#     4   9  18  33  50  72 100 128 161 203 246 293
#     4   9  17  31  50  73 100 130 166 204 238 289
#     4   9  19  34  52  74 100 129 166 208 247 293
#     4  10  19  32  51  74  99 129 164 205 247 292
#     4  10  19  33  53  75 100 132 165 202 249 295
#
# _framework density 17.432517000000001
#
# number of rings (size 3 to 8) (size 9 to 14) (size 15 to 20)
#    0.000    2.833    0.000    3.750    0.000    4.667 
#    0.000    2.917    0.000    3.000    0.000    0.000 
#    0.000    0.000    0.000    0.000    0.000    0.000 
#
# Total GULP energy -267321.734568 kJ/mol
# GULP energy per Si atom -5569.202804 kJ/mol
# Density = 1.739284 g / cm^3
# Si number density = 17.432517 Si / 1000 Ang^3
#
#
#
# Elastic Constant Matrix: (Units=GPa)
#
#
# Indices 1 2 3 4 5 6 
#
# 1 47.7671 66.0207 24.6184 0.0000 0.0000 0.0000
# 2 66.0207 223.2815 61.9344 0.0000 0.0000 0.0000
# 3 24.6184 61.9344 35.8521 0.0000 0.0000 0.0000
# 4 0.0000 0.0000 0.0000 30.3516 0.0000 0.0000
# 5 0.0000 0.0000 0.0000 0.0000 16.7105 0.0000
# 6 0.0000 0.0000 0.0000 0.0000 0.0000 34.7751
#
#
#
# Elastic Compliance Matrix: (Units=1/GPa)
#
#
# Indices 1 2 3 4 5 6 
#
# 1 0.038290 -0.007735 -0.012930 0.000000 0.000000 0.000000
# 2 -0.007735 0.010162 -0.012243 0.000000 0.000000 0.000000
# 3 -0.012930 -0.012243 0.057921 0.000000 0.000000 0.000000
# 4 0.000000 0.000000 0.000000 0.032947 0.000000 0.000000
# 5 0.000000 0.000000 0.000000 0.000000 0.059843 0.000000
# 6 0.000000 0.000000 0.000000 0.000000 0.000000 0.028756
#
#
# Mechanical properties :
#
#
# Convention : Reuss Voigt Hill
#
# Bulk Modulus (GPa) = 24.65709 68.00530 46.33119
# Shear Modulus (GPa) = 16.27324 26.65592 21.46458
#
# Velocity S-wave (km/s) = 3.05864 3.91460 3.51279
# Velocity P-wave (km/s) = 5.16224 7.71540 6.56415
#
# Compressibility (1/GPa) = 0.04055629
#
# Stress axis : x y z
#
# Youngs Moduli (GPa) = 26.11658 98.40739 17.26501
#
# Poissons Ratio (x) = 0.76120 0.22323
# Poissons Ratio (y) = 0.20202 0.21138
# Poissons Ratio (z) = 0.33768 1.20481
#
# Static dielectric constant tensor:
#      x y z
#    x 1.586780 0.000000 0.000000 
#    y 0.000000 1.640460 0.000000 
#    z 0.000000 0.000000 1.570880 
# 
# From -- ./inp_files/6369.got.cif
#   From: 2010.05.17/outbox.cif.g08.bks.cpg/sg59_4_cif.got.tgz:6369.got - 2010.06.03 14:40:33.
