data_PCOD9448347
_publ_section_title
;
Structure prediction by ZEFSAII (Michael W. Deem and Ramdas Pophale) SiO2 
 PCOD9448347
Probable space group: P M M N
;
_chemical_formula_sum "Si O2"
_cell_formula_units_Z 48
_cell_length_a 13.129291
_cell_length_b 14.762628
_cell_length_c 12.057811
_cell_angle_alpha 90.000000
_cell_angle_beta 90.000000
_cell_angle_gamma 90.000000
_cell_volume 2337.079159
_symmetry_space_group_name_H-M "P M M N"
_symmetry_group_IT_number 59
_space_group.IT_coordinate_system_code '2'
_symmetry_cell_setting 'orthorhombic'
loop_
_space_group_symop_operation_xyz
x,y,z
1/2-x,1/2-y,z
1/2+x,-y,-z
-x,1/2+y,-z
-x,-y,-z
1/2+x,1/2+y,-z
1/2-x,y,z
x,1/2-y,z
loop_
_atom_site_type_symbol
_atom_site_label
_atom_site_fract_x
_atom_site_fract_y
_atom_site_fract_z
Si Si1 0.437769 0.859557 0.550147
Si Si2 0.133581 0.603139 0.797863
Si Si3 0.750000 0.140196 0.858518
Si Si4 0.637453 0.856154 0.437147
Si Si5 0.250000 0.639568 0.398675
Si Si6 0.865250 0.614124 0.180287
Si Si7 0.960405 0.102178 0.981491
O O1 0.440111 0.750000 0.542292
O O2 0.409843 0.882212 0.675796
O O3 0.546870 0.895472 0.510040
O O4 0.349397 0.890166 0.466411
O O5 0.250000 0.637510 0.803709
O O6 0.137444 0.495187 0.818187
O O7 0.064335 0.641431 0.896983
O O8 0.750000 0.250000 0.865338
O O9 0.750000 0.112230 0.729546
O O10 0.852473 0.105181 0.917611
O O11 0.750000 0.897749 0.450142
O O12 0.645331 0.750000 0.466018
O O13 0.610501 0.859620 0.306879
O O14 0.250000 0.750000 0.398605
O O15 0.750000 0.644963 0.154389
O O16 0.951671 0.644961 0.094893
O O17 0.000000 0.000000 0.000000
#
# Coordination Sequence:
#
# PCOD9448347 Si02
#       7
#     8   8   4   8   4   8   8
#     4  10  19  32  53  78 110 148 182 226 291 351
#     4  10  19  34  52  77 112 146 187 226 280 348
#     4  11  22  37  61  93 118 147 205 262 295 342
#     4   9  18  34  54  74 101 139 182 226 282 341
#     4   9  18  31  51  83 117 143 179 244 306 342
#     4   9  19  35  58  81 107 147 190 236 282 343
#     4  10  21  37  58  81 119 157 192 240 298 355
#
# _framework density 20.538456
#
# number of rings (size 3 to 8) (size 9 to 14) (size 15 to 20)
#    0.000    2.333    1.667    1.000    1.167    3.333 
#    0.000    0.833    1.833    0.000    0.000    0.000 
#    0.000    0.000    0.000    0.000    0.000    0.000 
#
# Total GULP energy -267947.287343 kJ/mol
# GULP energy per Si atom -5582.235153 kJ/mol
# Density = 2.049171 g / cm^3
# Si number density = 20.538456 Si / 1000 Ang^3
#
#
#
# Elastic Constant Matrix: (Units=GPa)
#
#
# Indices 1 2 3 4 5 6 
#
# 1 173.0317 25.4324 115.3881 0.0000 0.0000 0.0000
# 2 25.4324 61.5475 9.7010 0.0000 0.0000 0.0000
# 3 115.3881 9.7010 167.7933 0.0000 0.0000 0.0000
# 4 0.0000 0.0000 0.0000 24.4099 0.0000 0.0000
# 5 0.0000 0.0000 0.0000 0.0000 35.7560 0.0000
# 6 0.0000 0.0000 0.0000 0.0000 0.0000 -56.1269
#
#
#
# Elastic Compliance Matrix: (Units=1/GPa)
#
#
# Indices 1 2 3 4 5 6 
#
# 1 0.011375 -0.003499 -0.007620 0.000000 0.000000 0.000000
# 2 -0.003499 0.017474 0.001396 0.000000 0.000000 0.000000
# 3 -0.007620 0.001396 0.011119 0.000000 0.000000 0.000000
# 4 0.000000 0.000000 0.000000 0.040967 0.000000 0.000000
# 5 0.000000 0.000000 0.000000 0.000000 0.027967 0.000000
# 6 0.000000 0.000000 0.000000 0.000000 0.000000 -0.017817
#
#
# Mechanical properties :
#
#
# Convention : Reuss Voigt Hill
#
# Bulk Modulus (GPa) = 48.72984 78.15729 63.44356
# Shear Modulus (GPa) = 42.59931 17.59786 30.09858
#
# Velocity S-wave (km/s) = 4.55920 2.93033 3.83230
# Velocity P-wave (km/s) = 7.17584 7.04172 7.10910
#
# Compressibility (1/GPa) = 0.02052131
#
# Stress axis : x y z
#
# Youngs Moduli (GPa) = 87.91012 57.22937 89.93404
#
# Poissons Ratio (x) = 0.20027 0.68532
# Poissons Ratio (y) = 0.30763 -0.12557
# Poissons Ratio (z) = 0.66989 -0.07990
#
# Static dielectric constant tensor:
#      x y z
#    x 1.746440 0.000000 0.000000 
#    y 0.000000 1.767650 0.000000 
#    z 0.000000 0.000000 1.704940 
# 
# From -- ./inp_files/15961.got.cif
#   From: 2010.05.17/outbox.cif.g08.bks.cpg/sg59_8_cif.got.tgz:15961.got - 2010.06.03 14:40:33.
