data_PCOD9448211
_publ_section_title
;
Structure prediction by ZEFSAII (Michael W. Deem and Ramdas Pophale) SiO2 
 PCOD9448211
Probable space group: P M M N
;
_chemical_formula_sum "Si O2"
_cell_formula_units_Z 64
_cell_length_a 29.894364
_cell_length_b 7.560015
_cell_length_c 12.956795
_cell_angle_alpha 90.000000
_cell_angle_beta 90.000000
_cell_angle_gamma 90.000000
_cell_volume 2928.259514
_symmetry_space_group_name_H-M "P M M N"
_symmetry_group_IT_number 59
_space_group.IT_coordinate_system_code '2'
_symmetry_cell_setting 'orthorhombic'
loop_
_space_group_symop_operation_xyz
x,y,z
1/2-x,1/2-y,z
1/2+x,-y,-z
-x,1/2+y,-z
-x,-y,-z
1/2+x,1/2+y,-z
1/2-x,y,z
x,1/2-y,z
loop_
_atom_site_type_symbol
_atom_site_label
_atom_site_fract_x
_atom_site_fract_y
_atom_site_fract_z
Si Si1 0.560203 0.466079 0.249915
Si Si2 0.948523 0.038711 0.018061
Si Si3 0.841583 0.466278 0.282646
Si Si4 0.868283 0.464143 0.880890
Si Si5 0.298720 0.540118 0.509087
Si Si6 0.521031 0.962426 0.611599
Si Si7 0.801646 0.033979 0.061938
Si Si8 0.378718 0.044534 0.355983
O O1 0.558739 0.250000 0.250041
O O2 0.606867 0.517691 0.302111
O O3 0.515161 0.529121 0.304985
O O4 0.563376 0.526546 0.131892
O O5 0.942516 0.250000 0.020317
O O6 0.915290 0.972753 0.929904
O O7 0.000000 0.000000 0.000000
O O8 0.840551 0.250000 0.280817
O O9 0.811970 0.530039 0.377929
O O10 0.824186 0.522448 0.170000
O O11 0.867649 0.250000 0.879099
O O12 0.865096 0.522387 0.763239
O O13 0.830086 0.521392 0.961812
O O14 0.250000 0.471825 0.474856
O O15 0.294685 0.750000 0.522090
O O16 0.339086 0.518286 0.429490
O O17 0.522968 0.750000 0.624572
O O18 0.571488 0.033732 0.625074
O O19 0.500000 0.000000 0.500000
O O20 0.750000 0.978897 0.057279
O O21 0.802439 0.250000 0.062499
O O22 0.383126 0.250000 0.379342
#
# Coordination Sequence:
#
# PCOD9448211 Si02
#       8
#     8   8   8   8   8   8   8   8
#     4   9  16  29  50  75 107 144 177 217 275 335
#     4  10  19  32  51  76 107 144 185 225 273 328
#     4   9  15  28  53  85 115 139 173 229 290 339
#     4  10  20  35  55  81 112 148 191 237 280 332
#     4  10  21  37  60  88 112 141 189 244 292 342
#     4  10  21  36  55  80 110 148 192 234 280 336
#     4   9  16  28  50  82 115 142 176 230 289 336
#     4  11  24  40  57  80 115 156 193 233 287 349
#
# _framework density 21.855985
#
# number of rings (size 3 to 8) (size 9 to 14) (size 15 to 20)
#    0.000    2.250    1.250    2.250    0.000    5.750 
#    0.000    1.875    0.000    1.500    0.000    0.000 
#    0.000    0.000    0.000    0.000    0.000    0.000 
#
# Total GULP energy -357450.108476 kJ/mol
# GULP energy per Si atom -5585.157945 kJ/mol
# Density = 2.180624 g / cm^3
# Si number density = 21.855985 Si / 1000 Ang^3
#
#
#
# Elastic Constant Matrix: (Units=GPa)
#
#
# Indices 1 2 3 4 5 6 
#
# 1 194.5416 4.9388 77.4666 0.0000 0.0000 0.0000
# 2 4.9388 46.6953 -7.9630 0.0000 0.0000 0.0000
# 3 77.4666 -7.9630 129.9162 0.0000 0.0000 0.0000
# 4 0.0000 0.0000 0.0000 -2.8999 0.0000 0.0000
# 5 0.0000 0.0000 0.0000 0.0000 32.4554 0.0000
# 6 0.0000 0.0000 0.0000 0.0000 0.0000 13.1545
#
#
#
# Elastic Compliance Matrix: (Units=1/GPa)
#
#
# Indices 1 2 3 4 5 6 
#
# 1 0.006834 -0.001433 -0.004163 0.000000 0.000000 0.000000
# 2 -0.001433 0.021942 0.002199 0.000000 0.000000 0.000000
# 3 -0.004163 0.002199 0.010314 0.000000 0.000000 0.000000
# 4 0.000000 0.000000 0.000000 -0.344838 0.000000 0.000000
# 5 0.000000 0.000000 0.000000 0.000000 0.030812 0.000000
# 6 0.000000 0.000000 0.000000 0.000000 0.000000 0.076020
#
#
# Mechanical properties :
#
#
# Convention : Reuss Voigt Hill
#
# Bulk Modulus (GPa) = 30.96200 57.78199 44.37200
# Shear Modulus (GPa) = -27.57001 28.32270 0.37635
#
# Velocity S-wave (km/s) = -3.55553 3.60374 0.41541
# Velocity P-wave (km/s) = 1.63052 6.61898 4.53609
#
# Compressibility (1/GPa) = 0.03229766
#
# Stress axis : x y z
#
# Youngs Moduli (GPa) = 146.31897 45.57467 96.95176
#
# Poissons Ratio (x) = 0.06530 0.40361
# Poissons Ratio (y) = 0.20964 -0.21322
# Poissons Ratio (z) = 0.60913 -0.10023
#
# Static dielectric constant tensor:
#      x y z
#    x 1.815260 0.000000 0.000000 
#    y 0.000000 1.804130 0.000000 
#    z 0.000000 0.000000 1.763110 
# 
# From -- ./inp_files/19294.got.cif
#   From: 2010.05.17/outbox.cif.g08.bks.cpg/sg59_10_cif.got.tgz:19294.got - 2010.06.03 14:40:33.
