data_PCOD9448383
_publ_section_title
;
Structure prediction by ZEFSAII (Michael W. Deem and Ramdas Pophale) SiO2 
 PCOD9448383
Probable space group: P M M N
;
_chemical_formula_sum "Si O2"
_cell_formula_units_Z 56
_cell_length_a 20.881002
_cell_length_b 14.390456
_cell_length_c 9.301844
_cell_angle_alpha 90.000000
_cell_angle_beta 90.000000
_cell_angle_gamma 90.000000
_cell_volume 2795.084505
_symmetry_space_group_name_H-M "P M M N"
_symmetry_group_IT_number 59
_space_group.IT_coordinate_system_code '2'
_symmetry_cell_setting 'orthorhombic'
loop_
_space_group_symop_operation_xyz
x,y,z
1/2-x,1/2-y,z
1/2+x,-y,-z
-x,1/2+y,-z
-x,-y,-z
1/2+x,1/2+y,-z
1/2-x,y,z
x,1/2-y,z
loop_
_atom_site_type_symbol
_atom_site_label
_atom_site_fract_x
_atom_site_fract_y
_atom_site_fract_z
Si Si1 0.675960 0.359833 0.343546
Si Si2 0.324225 0.139263 0.582941
Si Si3 0.367609 0.857220 0.961512
Si Si4 0.181868 0.470121 0.101679
Si Si5 0.124529 0.985543 0.402716
Si Si6 0.610679 0.859923 0.125315
Si Si7 0.532854 0.359586 0.783274
O O1 0.750000 0.380526 0.304052
O O2 0.671716 0.250000 0.372622
O O3 0.629991 0.380626 0.207547
O O4 0.656791 0.415808 0.484258
O O5 0.250000 0.115088 0.547809
O O6 0.331990 0.250000 0.562760
O O7 0.337869 0.118260 0.750376
O O8 0.376445 0.081629 0.492171
O O9 0.346816 0.750000 0.969865
O O10 0.429880 0.866862 0.063275
O O11 0.318889 0.928734 0.030512
O O12 0.250000 0.422402 0.080531
O O13 0.167852 0.487141 0.267194
O O14 0.127286 0.413993 0.018966
O O15 0.065066 0.930490 0.330204
O O16 0.612354 0.750000 0.097708
O O17 0.540862 0.881869 0.187795
O O18 0.538756 0.250000 0.738685
#
# Coordination Sequence:
#
# PCOD9448383 Si02
#       7
#     8   8   8   8   8   8   8
#     4  10  19  32  53  82 115 151 189 228 277 341
#     4  10  21  38  59  83 114 153 195 239 289 343
#     4   9  19  35  56  82 114 151 190 234 283 340
#     4  11  22  35  57  86 112 144 188 238 292 344
#     4  11  22  36  57  84 119 152 185 232 290 345
#     4  10  22  41  63  84 111 151 198 245 289 340
#     4   9  20  40  62  86 117 152 192 238 290 345
#
# _framework density 20.035171999999999
#
# number of rings (size 3 to 8) (size 9 to 14) (size 15 to 20)
#    0.000    2.000    0.000    3.429    0.000    5.714 
#    0.000    1.429    0.000    6.000    0.000    0.000 
#    0.000    0.000    0.000    0.000    0.000    0.000 
#
# Total GULP energy -312304.473872 kJ/mol
# GULP energy per Si atom -5576.865605 kJ/mol
# Density = 1.998957 g / cm^3
# Si number density = 20.035172 Si / 1000 Ang^3
#
#
#
# Elastic Constant Matrix: (Units=GPa)
#
#
# Indices 1 2 3 4 5 6 
#
# 1 56.1283 19.7963 10.6351 0.0000 0.0000 0.0000
# 2 19.7963 60.3574 40.6145 0.0000 0.0000 0.0000
# 3 10.6351 40.6145 115.4223 0.0000 0.0000 0.0000
# 4 0.0000 0.0000 0.0000 27.0950 0.0000 0.0000
# 5 0.0000 0.0000 0.0000 0.0000 9.8273 0.0000
# 6 0.0000 0.0000 0.0000 0.0000 0.0000 3.2524
#
#
#
# Elastic Compliance Matrix: (Units=1/GPa)
#
#
# Indices 1 2 3 4 5 6 
#
# 1 0.020180 -0.007033 0.000615 0.000000 0.000000 0.000000
# 2 -0.007033 0.024159 -0.007853 0.000000 0.000000 0.000000
# 3 0.000615 -0.007853 0.011370 0.000000 0.000000 0.000000
# 4 0.000000 0.000000 0.000000 0.036907 0.000000 0.000000
# 5 0.000000 0.000000 0.000000 0.000000 0.101758 0.000000
# 6 0.000000 0.000000 0.000000 0.000000 0.000000 0.307467
#
#
# Mechanical properties :
#
#
# Convention : Reuss Voigt Hill
#
# Bulk Modulus (GPa) = 36.80733 41.55554 39.18143
# Shear Modulus (GPa) = 9.26890 18.75907 14.01398
#
# Velocity S-wave (km/s) = 2.15322 3.06323 2.64762
# Velocity P-wave (km/s) = 4.95914 5.77040 5.38008
#
# Compressibility (1/GPa) = 0.02716850
#
# Stress axis : x y z
#
# Youngs Moduli (GPa) = 49.55352 41.39264 87.94744
#
# Poissons Ratio (x) = 0.29111 -0.05411
# Poissons Ratio (y) = 0.34850 0.69065
# Poissons Ratio (z) = -0.03049 0.32505
#
# Static dielectric constant tensor:
#      x y z
#    x 1.719720 0.000000 0.000000 
#    y 0.000000 1.735230 0.000000 
#    z 0.000000 0.000000 1.700600 
# 
# From -- ./inp_files/9325.got.cif
#   From: 2010.05.17/outbox.cif.g08.bks.cpg/sg59_5_cif.got.tgz:9325.got - 2010.06.03 14:40:33.
