data_PCOD9448803
_publ_section_title
;
Structure prediction by ZEFSAII (Michael W. Deem and Ramdas Pophale) SiO2 
 PCOD9448803
Probable space group: P M M N
;
_chemical_formula_sum "Si O2"
_cell_formula_units_Z 48
_cell_length_a 14.026901
_cell_length_b 20.444359
_cell_length_c 8.648223
_cell_angle_alpha 90.000000
_cell_angle_beta 90.000000
_cell_angle_gamma 90.000000
_cell_volume 2480.059555
_symmetry_space_group_name_H-M "P M M N"
_symmetry_group_IT_number 59
_space_group.IT_coordinate_system_code '2'
_symmetry_cell_setting 'orthorhombic'
loop_
_space_group_symop_operation_xyz
x,y,z
1/2-x,1/2-y,z
1/2+x,-y,-z
-x,1/2+y,-z
-x,-y,-z
1/2+x,1/2+y,-z
1/2-x,y,z
x,1/2-y,z
loop_
_atom_site_type_symbol
_atom_site_label
_atom_site_fract_x
_atom_site_fract_y
_atom_site_fract_z
Si Si1 0.643343 0.828951 0.041016
Si Si2 0.057609 0.672769 0.196614
Si Si3 0.510872 0.605433 0.476510
Si Si4 0.361189 0.542471 0.063123
Si Si5 0.465445 0.513369 0.746619
Si Si6 0.136589 0.323093 0.297994
O O1 0.750000 0.852798 0.084115
O O2 0.651399 0.750000 0.027638
O O3 0.615872 0.854213 0.869856
O O4 0.553312 0.839628 0.149296
O O5 0.078890 0.750000 0.174072
O O6 0.117612 0.619457 0.099818
O O7 0.058817 0.650702 0.375533
O O8 0.463365 0.573573 0.628218
O O9 0.549811 0.548486 0.365380
O O10 0.597821 0.644172 0.549823
O O11 0.250000 0.528451 0.086092
O O12 0.430610 0.502519 0.178894
O O13 0.395253 0.523599 0.890514
O O14 0.250000 0.319924 0.303050
O O15 0.095754 0.250000 0.294361
#
# Coordination Sequence:
#
# PCOD9448803 Si02
#       6
#     8   8   8   8   8   8
#     4   8  15  29  48  72 106 145 181 217 261 320
#     4  10  20  34  56  84 113 147 184 226 278 333
#     4  10  19  34  53  77 113 141 171 224 280 334
#     4  10  21  40  62  80 106 143 189 238 272 320
#     4   9  21  39  57  81 106 140 187 228 278 326
#     4   9  17  28  45  73 107 142 177 215 268 331
#
# _framework density 19.354375000000001
#
# number of rings (size 3 to 8) (size 9 to 14) (size 15 to 20)
#    0.000    2.667    0.000    2.500    0.000    2.333 
#    0.000   19.167    0.000    0.000    0.000    0.000 
#    0.000    0.000    0.000    0.000    0.000    0.000 
#
# Total GULP energy -267423.073066 kJ/mol
# GULP energy per Si atom -5571.314022 kJ/mol
# Density = 1.931032 g / cm^3
# Si number density = 19.354375 Si / 1000 Ang^3
#
#
#
# Elastic Constant Matrix: (Units=GPa)
#
#
# Indices 1 2 3 4 5 6 
#
# 1 65.7823 12.5758 20.9128 0.0000 0.0000 0.0000
# 2 12.5758 44.8485 8.6783 0.0000 0.0000 0.0000
# 3 20.9128 8.6783 81.6728 0.0000 0.0000 0.0000
# 4 0.0000 0.0000 0.0000 27.7440 0.0000 0.0000
# 5 0.0000 0.0000 0.0000 0.0000 12.5886 0.0000
# 6 0.0000 0.0000 0.0000 0.0000 0.0000 15.7204
#
#
#
# Elastic Compliance Matrix: (Units=1/GPa)
#
#
# Indices 1 2 3 4 5 6 
#
# 1 0.017245 -0.004065 -0.003984 0.000000 0.000000 0.000000
# 2 -0.004065 0.023723 -0.001480 0.000000 0.000000 0.000000
# 3 -0.003984 -0.001480 0.013421 0.000000 0.000000 0.000000
# 4 0.000000 0.000000 0.000000 0.036044 0.000000 0.000000
# 5 0.000000 0.000000 0.000000 0.000000 0.079437 0.000000
# 6 0.000000 0.000000 0.000000 0.000000 0.000000 0.063612
#
#
# Mechanical properties :
#
#
# Convention : Reuss Voigt Hill
#
# Bulk Modulus (GPa) = 28.30226 30.73746 29.51986
# Shear Modulus (GPa) = 18.91666 21.21971 20.06818
#
# Velocity S-wave (km/s) = 3.12971 3.31475 3.22356
# Velocity P-wave (km/s) = 5.26450 5.52865 5.39819
#
# Compressibility (1/GPa) = 0.03533287
#
# Stress axis : x y z
#
# Youngs Moduli (GPa) = 57.98702 42.15234 74.50832
#
# Poissons Ratio (x) = 0.17134 0.29683
# Poissons Ratio (y) = 0.23571 0.11027
# Poissons Ratio (z) = 0.23101 0.06238
#
# Static dielectric constant tensor:
#      x y z
#    x 1.652920 0.000000 0.000000 
#    y 0.000000 1.765020 0.000000 
#    z 0.000000 0.000000 1.693200 
# 
# From -- ./inp_files/9223.got.cif
#   From: 2010.05.17/outbox.cif.g08.bks.cpg/sg59_5_cif.got.tgz:9223.got - 2010.06.03 14:40:33.
