data_PCOD9448088
_publ_section_title
;
Structure prediction by ZEFSAII (Michael W. Deem and Ramdas Pophale) SiO2 
 PCOD9448088
Probable space group: P M M N
;
_chemical_formula_sum "Si O2"
_cell_formula_units_Z 64
_cell_length_a 9.081376
_cell_length_b 18.931004
_cell_length_c 20.372461
_cell_angle_alpha 90.000000
_cell_angle_beta 90.000000
_cell_angle_gamma 90.000000
_cell_volume 3502.424641
_symmetry_space_group_name_H-M "P M M N"
_symmetry_group_IT_number 59
_space_group.IT_coordinate_system_code '2'
_symmetry_cell_setting 'orthorhombic'
loop_
_space_group_symop_operation_xyz
x,y,z
1/2-x,1/2-y,z
1/2+x,-y,-z
-x,1/2+y,-z
-x,-y,-z
1/2+x,1/2+y,-z
1/2-x,y,z
x,1/2-y,z
loop_
_atom_site_type_symbol
_atom_site_label
_atom_site_fract_x
_atom_site_fract_y
_atom_site_fract_z
Si Si1 0.572812 0.043017 0.780541
Si Si2 0.576031 0.562638 0.586293
Si Si3 0.083344 0.172150 0.295432
Si Si4 0.922982 0.394164 0.183358
Si Si5 0.073967 0.074462 0.643578
Si Si6 0.428407 0.170377 0.525768
Si Si7 0.918040 0.905211 0.947117
Si Si8 0.081121 0.924240 0.076066
O O1 0.750000 0.037399 0.775673
O O2 0.505310 0.073499 0.713943
O O3 0.537984 0.085259 0.847876
O O4 0.505043 0.965359 0.792204
O O5 0.750000 0.545025 0.576811
O O6 0.565402 0.612970 0.649787
O O7 0.483992 0.493094 0.602445
O O8 0.521985 0.610680 0.525835
O O9 0.250000 0.165020 0.268287
O O10 0.072080 0.250000 0.325841
O O11 0.968664 0.162687 0.237300
O O12 0.750000 0.406787 0.181139
O O13 0.983000 0.375508 0.111433
O O14 0.250000 0.069128 0.652198
O O15 0.040116 0.142473 0.598821
O O16 0.250000 0.172115 0.518642
O O17 0.482717 0.250000 0.513835
O O18 0.750000 0.882108 0.940451
O O19 0.921154 0.990611 0.935924
O O20 0.980096 0.891873 0.019661
O O21 0.250000 0.901328 0.067252
#
# Coordination Sequence:
#
# PCOD9448088 Si02
#       8
#     8   8   8   8   8   8   8   8
#     4  10  19  32  49  70 101 137 172 211 258 314
#     4  10  19  34  57  78 102 138 175 214 259 314
#     4  10  20  33  50  72  99 136 180 219 261 318
#     4  11  20  30  46  68  99 135 172 216 262 307
#     4  11  21  32  52  81 109 137 171 218 268 312
#     4   9  19  36  56  79 106 138 177 215 256 313
#     4   9  16  26  42  64  94 131 167 205 252 307
#     4   8  15  26  41  64  93 126 165 208 253 299
#
# _framework density 18.273054999999999
#
# number of rings (size 3 to 8) (size 9 to 14) (size 15 to 20)
#    0.000    2.250    1.250    3.750    0.000    5.250 
#    0.000    0.625    0.000    4.125    0.000    0.875 
#    0.000    3.000    0.000    0.000    0.000    0.000 
#
# Total GULP energy -356903.228838 kJ/mol
# GULP energy per Si atom -5576.612951 kJ/mol
# Density = 1.823146 g / cm^3
# Si number density = 18.273055 Si / 1000 Ang^3
#
#
#
# Elastic Constant Matrix: (Units=GPa)
#
#
# Indices 1 2 3 4 5 6 
#
# 1 73.0972 11.8422 49.6849 0.0000 0.0000 0.0000
# 2 11.8422 15.7868 13.9657 0.0000 0.0000 0.0000
# 3 49.6849 13.9657 128.0930 0.0000 0.0000 0.0000
# 4 0.0000 0.0000 0.0000 0.0883 0.0000 0.0000
# 5 0.0000 0.0000 0.0000 0.0000 21.8806 0.0000
# 6 0.0000 0.0000 0.0000 0.0000 0.0000 12.4667
#
#
#
# Elastic Compliance Matrix: (Units=1/GPa)
#
#
# Indices 1 2 3 4 5 6 
#
# 1 0.019634 -0.008844 -0.006652 0.000000 0.000000 0.000000
# 2 -0.008844 0.074089 -0.004647 0.000000 0.000000 0.000000
# 3 -0.006652 -0.004647 0.010894 0.000000 0.000000 0.000000
# 4 0.000000 0.000000 0.000000 11.321695 0.000000 0.000000
# 5 0.000000 0.000000 0.000000 0.000000 0.045703 0.000000
# 6 0.000000 0.000000 0.000000 0.000000 0.000000 0.080214
#
#
# Mechanical properties :
#
#
# Convention : Reuss Voigt Hill
#
# Bulk Modulus (GPa) = 15.54453 40.88475 28.21464
# Shear Modulus (GPa) = 0.43052 16.31941 8.37496
#
# Velocity S-wave (km/s) = 0.48591 2.99170 2.14317
# Velocity P-wave (km/s) = 2.97323 5.86145 4.64740
#
# Compressibility (1/GPa) = 0.06433131
#
# Stress axis : x y z
#
# Youngs Moduli (GPa) = 50.93121 13.49719 91.79770
#
# Poissons Ratio (x) = 0.11937 0.61060
# Poissons Ratio (y) = 0.45044 0.42662
# Poissons Ratio (z) = 0.33877 0.06273
#
# Static dielectric constant tensor:
#      x y z
#    x 1.624780 0.000000 0.000000 
#    y 0.000000 1.616120 0.000000 
#    z 0.000000 0.000000 1.655890 
# 
# From -- ./inp_files/29598.got.cif
#   From: 2010.05.17/outbox.cif.g08.bks.cpg/sg59_15_cif.got.tgz:29598.got - 2010.06.03 14:40:33.
