data_PCOD9448000
_publ_section_title
;
Structure prediction by ZEFSAII (Michael W. Deem and Ramdas Pophale) SiO2 
 PCOD9448000
Probable space group: P M M N
;
_chemical_formula_sum "Si O2"
_cell_formula_units_Z 64
_cell_length_a 7.559289
_cell_length_b 18.853779
_cell_length_c 20.501316
_cell_angle_alpha 90.000000
_cell_angle_beta 90.000000
_cell_angle_gamma 90.000000
_cell_volume 2921.871424
_symmetry_space_group_name_H-M "P M M N"
_symmetry_group_IT_number 59
_space_group.IT_coordinate_system_code '2'
_symmetry_cell_setting 'orthorhombic'
loop_
_space_group_symop_operation_xyz
x,y,z
1/2-x,1/2-y,z
1/2+x,-y,-z
-x,1/2+y,-z
-x,-y,-z
1/2+x,1/2+y,-z
1/2-x,y,z
x,1/2-y,z
loop_
_atom_site_type_symbol
_atom_site_label
_atom_site_fract_x
_atom_site_fract_y
_atom_site_fract_z
Si Si1 0.952344 0.392236 0.041288
Si Si2 0.961965 0.079809 0.524295
Si Si3 0.466390 0.672543 0.831761
Si Si4 0.960948 0.170553 0.643695
Si Si5 0.966062 0.430238 0.282040
Si Si6 0.039365 0.080967 0.763140
Si Si7 0.533683 0.168870 0.400606
Si Si8 0.041097 0.545729 0.089558
O O1 0.750000 0.368908 0.031479
O O2 0.032661 0.340785 0.095140
O O3 0.954436 0.469019 0.077479
O O4 0.028079 0.404717 0.969376
O O5 0.750000 0.082644 0.526762
O O6 0.029679 0.109929 0.593672
O O7 0.021579 0.135456 0.469209
O O8 0.000000 0.000000 0.500000
O O9 0.250000 0.669847 0.833387
O O10 0.516280 0.750000 0.807253
O O11 0.522823 0.611976 0.782377
O O12 0.750000 0.173745 0.634138
O O13 0.030485 0.250000 0.630662
O O14 0.991101 0.147061 0.718144
O O15 0.750000 0.431043 0.283757
O O16 0.028108 0.510581 0.274444
O O17 0.024220 0.385266 0.344265
O O18 0.250000 0.076733 0.765391
O O19 0.980671 0.076278 0.838251
O O20 0.750000 0.169872 0.399334
O O21 0.476042 0.250000 0.391223
O O22 0.250000 0.534517 0.077871
#
# Coordination Sequence:
#
# PCOD9448000 Si02
#       8
#     8   8   8   8   8   8   8   8
#     4   9  17  31  49  74 105 137 182 231 273 322
#     4  10  20  35  56  82 111 143 178 221 269 317
#     4   9  15  25  44  71 104 138 173 218 268 312
#     4  10  22  40  59  80 110 148 189 233 281 333
#     4   9  16  26  44  74 107 135 168 215 262 308
#     4  11  21  35  56  81 109 138 177 231 280 331
#     4   9  16  27  46  74 105 135 170 210 254 305
#     4  10  19  31  51  76 104 140 181 226 278 331
#
# _framework density 21.903770000000002
#
# number of rings (size 3 to 8) (size 9 to 14) (size 15 to 20)
#    0.000    2.375    1.250    2.250    0.000    5.250 
#    0.000    0.625    0.000    3.750    0.000    0.000 
#    0.000    0.000    0.000    0.000    0.000    0.000 
#
# Total GULP energy -357166.370516 kJ/mol
# GULP energy per Si atom -5580.724539 kJ/mol
# Density = 2.185392 g / cm^3
# Si number density = 21.903770 Si / 1000 Ang^3
#
#
#
# Elastic Constant Matrix: (Units=GPa)
#
#
# Indices 1 2 3 4 5 6 
#
# 1 57.4406 -0.0602 -2.9013 0.0000 0.0000 0.0000
# 2 -0.0602 69.0366 34.7348 0.0000 0.0000 0.0000
# 3 -2.9013 34.7348 138.8871 0.0000 0.0000 0.0000
# 4 0.0000 0.0000 0.0000 14.1031 0.0000 0.0000
# 5 0.0000 0.0000 0.0000 0.0000 9.1365 0.0000
# 6 0.0000 0.0000 0.0000 0.0000 0.0000 10.8545
#
#
#
# Elastic Compliance Matrix: (Units=1/GPa)
#
#
# Indices 1 2 3 4 5 6 
#
# 1 0.017430 -0.000192 0.000412 0.000000 0.000000 0.000000
# 2 -0.000192 0.016572 -0.004149 0.000000 0.000000 0.000000
# 3 0.000412 -0.004149 0.008246 0.000000 0.000000 0.000000
# 4 0.000000 0.000000 0.000000 0.070906 0.000000 0.000000
# 5 0.000000 0.000000 0.000000 0.000000 0.109451 0.000000
# 6 0.000000 0.000000 0.000000 0.000000 0.000000 0.092128
#
#
# Mechanical properties :
#
#
# Convention : Reuss Voigt Hill
#
# Bulk Modulus (GPa) = 29.07729 36.54566 32.81148
# Shear Modulus (GPa) = 14.96763 22.39157 18.67960
#
# Velocity S-wave (km/s) = 2.61691 3.20076 2.92345
# Velocity P-wave (km/s) = 4.73653 5.51187 5.13885
#
# Compressibility (1/GPa) = 0.03439110
#
# Stress axis : x y z
#
# Youngs Moduli (GPa) = 57.37270 60.34194 121.26730
#
# Poissons Ratio (x) = 0.01160 -0.04998
# Poissons Ratio (y) = 0.01103 0.50309
# Poissons Ratio (z) = -0.02365 0.25034
#
# Static dielectric constant tensor:
#      x y z
#    x 1.845880 0.000000 0.000000 
#    y 0.000000 1.785730 0.000000 
#    z 0.000000 0.000000 1.824880 
# 
# From -- ./inp_files/29510.got.cif
#   From: 2010.05.17/outbox.cif.g08.bks.cpg/sg59_15_cif.got.tgz:29510.got - 2010.06.03 14:40:33.
