data_PCOD9448448
_publ_section_title
;
Structure prediction by ZEFSAII (Michael W. Deem and Ramdas Pophale) SiO2 
 PCOD9448448
Probable space group: P M M N
;
_chemical_formula_sum "Si O2"
_cell_formula_units_Z 40
_cell_length_a 28.860892
_cell_length_b 9.001023
_cell_length_c 7.807419
_cell_angle_alpha 90.000000
_cell_angle_beta 90.000000
_cell_angle_gamma 90.000000
_cell_volume 2028.192201
_symmetry_space_group_name_H-M "P M M N"
_symmetry_group_IT_number 59
_space_group.IT_coordinate_system_code '2'
_symmetry_cell_setting 'orthorhombic'
loop_
_space_group_symop_operation_xyz
x,y,z
1/2-x,1/2-y,z
1/2+x,-y,-z
-x,1/2+y,-z
-x,-y,-z
1/2+x,1/2+y,-z
1/2-x,y,z
x,1/2-y,z
loop_
_atom_site_type_symbol
_atom_site_label
_atom_site_fract_x
_atom_site_fract_y
_atom_site_fract_z
Si Si1 0.863468 0.427662 0.666282
Si Si2 0.945332 0.425415 0.146655
Si Si3 0.843207 0.074258 0.292116
Si Si4 0.696360 0.925709 0.963390
Si Si5 0.046133 0.425863 0.221994
O O1 0.864872 0.250000 0.676040
O O2 0.838106 0.470167 0.489686
O O3 0.915793 0.488641 0.668411
O O4 0.836862 0.492045 0.829659
O O5 0.948518 0.250000 0.097529
O O6 0.897440 0.445609 0.244893
O O7 0.991910 0.460038 0.252850
O O8 0.945631 0.522922 0.974824
O O9 0.832696 0.250000 0.275043
O O10 0.814375 0.983994 0.153605
O O11 0.750000 0.954684 0.921353
O O12 0.687743 0.750000 0.954462
O O13 0.053317 0.250000 0.238863
#
# Coordination Sequence:
#
# PCOD9448448 Si02
#       5
#     8   8   8   8   8
#     4  11  23  39  61  90 123 159 200 242 290 354
#     4   9  18  34  56  84 120 160 201 244 291 347
#     4  10  22  40  63  90 120 157 200 244 292 352
#     4  11  25  44  65  89 117 150 193 249 308 359
#     4  10  19  32  55  87 121 160 203 243 290 345
#
# _framework density 19.721996000000001
#
# number of rings (size 3 to 8) (size 9 to 14) (size 15 to 20)
#    0.000    1.800    2.000    1.800    0.000    5.600 
#    0.000    4.000    0.000    0.000    0.000    0.000 
#    0.000    0.000    0.000    0.000    0.000    0.000 
#
# Total GULP energy -223466.348839 kJ/mol
# GULP energy per Si atom -5586.658721 kJ/mol
# Density = 1.967711 g / cm^3
# Si number density = 19.721996 Si / 1000 Ang^3
#
#
#
# Elastic Constant Matrix: (Units=GPa)
#
#
# Indices 1 2 3 4 5 6 
#
# 1 40.2478 26.8473 -2.3255 0.0000 0.0000 0.0000
# 2 26.8473 37.1020 8.0278 0.0000 0.0000 0.0000
# 3 -2.3255 8.0278 42.7079 0.0000 0.0000 0.0000
# 4 0.0000 0.0000 0.0000 9.2722 0.0000 0.0000
# 5 0.0000 0.0000 0.0000 0.0000 11.4865 0.0000
# 6 0.0000 0.0000 0.0000 0.0000 0.0000 23.0472
#
#
#
# Elastic Compliance Matrix: (Units=1/GPa)
#
#
# Indices 1 2 3 4 5 6 
#
# 1 0.052067 -0.039913 0.010338 0.000000 0.000000 0.000000
# 2 -0.039913 0.058691 -0.013206 0.000000 0.000000 0.000000
# 3 0.010338 -0.013206 0.026460 0.000000 0.000000 0.000000
# 4 0.000000 0.000000 0.000000 0.107849 0.000000 0.000000
# 5 0.000000 0.000000 0.000000 0.000000 0.087059 0.000000
# 6 0.000000 0.000000 0.000000 0.000000 0.000000 0.043389
#
#
# Mechanical properties :
#
#
# Convention : Reuss Voigt Hill
#
# Bulk Modulus (GPa) = 19.35857 20.57300 19.96578
# Shear Modulus (GPa) = 10.45376 14.59504 12.52440
#
# Velocity S-wave (km/s) = 2.30479 2.72332 2.52275
# Velocity P-wave (km/s) = 4.11337 4.51029 4.31640
#
# Compressibility (1/GPa) = 0.05165671
#
# Stress axis : x y z
#
# Youngs Moduli (GPa) = 19.20590 17.03829 37.79287
#
# Poissons Ratio (x) = 0.68005 -0.39069
# Poissons Ratio (y) = 0.76657 0.49908
# Poissons Ratio (z) = -0.19854 0.22500
#
# Static dielectric constant tensor:
#      x y z
#    x 1.710380 0.000000 0.000000 
#    y 0.000000 1.673410 0.000000 
#    z 0.000000 0.000000 1.684900 
# 
# From -- ./inp_files/12774.got.cif
#   From: 2010.05.17/outbox.cif.g08.bks.cpg/sg59_7_cif.got.tgz:12774.got - 2010.06.03 14:40:33.
