data_PCOD9448581
_publ_section_title
;
Structure prediction by ZEFSAII (Michael W. Deem and Ramdas Pophale) SiO2 
 PCOD9448581
Probable space group: P M M N
;
_chemical_formula_sum "Si O2"
_cell_formula_units_Z 64
_cell_length_a 9.239135
_cell_length_b 15.381086
_cell_length_c 24.637876
_cell_angle_alpha 90.000000
_cell_angle_beta 90.000000
_cell_angle_gamma 90.000000
_cell_volume 3501.237558
_symmetry_space_group_name_H-M "P M M N"
_symmetry_group_IT_number 59
_space_group.IT_coordinate_system_code '2'
_symmetry_cell_setting 'orthorhombic'
loop_
_space_group_symop_operation_xyz
x,y,z
1/2-x,1/2-y,z
1/2+x,-y,-z
-x,1/2+y,-z
-x,-y,-z
1/2+x,1/2+y,-z
1/2-x,y,z
x,1/2-y,z
loop_
_atom_site_type_symbol
_atom_site_label
_atom_site_fract_x
_atom_site_fract_y
_atom_site_fract_z
Si Si1 0.926310 0.154438 0.782951
Si Si2 0.576314 0.012104 0.578967
Si Si3 0.915217 0.411026 0.896660
Si Si4 0.924447 0.502511 0.705304
Si Si5 0.083234 0.351578 0.999274
Si Si6 0.416835 0.384939 0.120525
Si Si7 0.081752 0.848786 0.769981
Si Si8 0.924468 0.853117 0.500243
O O1 0.750000 0.150470 0.785523
O O2 0.967890 0.250000 0.763702
O O3 0.977057 0.139958 0.844810
O O4 0.971773 0.078913 0.742311
O O5 0.750000 0.023921 0.573684
O O6 0.498106 0.092394 0.548688
O O7 0.538662 0.009858 0.642367
O O8 0.541577 0.918314 0.551004
O O9 0.750000 0.381895 0.906093
O O10 0.913310 0.510812 0.878246
O O11 0.999293 0.401380 0.952608
O O12 0.750000 0.509743 0.709284
O O13 0.996155 0.587026 0.730956
O O14 0.250000 0.382057 0.001120
O O15 0.080569 0.250000 0.984729
O O16 0.027272 0.360244 0.060738
O O17 0.250000 0.353872 0.125537
O O18 0.511530 0.353201 0.170275
O O19 0.250000 0.873632 0.773209
O O20 0.071537 0.750000 0.750265
O O21 0.750000 0.853626 0.493918
O O22 0.967204 0.750000 0.504733
#
# Coordination Sequence:
#
# PCOD9448581 Si02
#       8
#     8   8   8   8   8   8   8   8
#     4   9  17  31  52  78 107 138 176 224 275 325
#     4   9  19  34  56  85 114 148 194 238 274 321
#     4  10  19  33  54  76 100 135 178 220 271 334
#     4  10  20  37  59  83 112 148 189 231 273 320
#     4  10  21  34  49  74 105 134 170 221 278 333
#     4  10  20  37  58  77 100 136 182 226 273 332
#     4  11  24  39  56  81 112 145 182 228 281 333
#     4   9  18  34  55  81 117 156 190 229 279 330
#
# _framework density 18.279250999999999
#
# number of rings (size 3 to 8) (size 9 to 14) (size 15 to 20)
#    0.000    2.250    1.250    1.500    0.000    5.000 
#    0.000    2.500    0.000    0.375    0.000    0.000 
#    0.000    0.000    0.000    0.000    0.000    0.000 
#
# Total GULP energy -356896.903435 kJ/mol
# GULP energy per Si atom -5576.514116 kJ/mol
# Density = 1.823765 g / cm^3
# Si number density = 18.279251 Si / 1000 Ang^3
#
#
#
# Elastic Constant Matrix: (Units=GPa)
#
#
# Indices 1 2 3 4 5 6 
#
# 1 24.6526 23.6084 33.0326 0.0000 0.0000 0.0000
# 2 23.6084 101.5575 40.5111 0.0000 0.0000 0.0000
# 3 33.0326 40.5111 111.4414 0.0000 0.0000 0.0000
# 4 0.0000 0.0000 0.0000 143.1561 0.0000 0.0000
# 5 0.0000 0.0000 0.0000 0.0000 25.6713 0.0000
# 6 0.0000 0.0000 0.0000 0.0000 0.0000 24.7662
#
#
#
# Elastic Compliance Matrix: (Units=1/GPa)
#
#
# Indices 1 2 3 4 5 6 
#
# 1 0.075123 -0.010036 -0.018619 0.000000 0.000000 0.000000
# 2 -0.010036 0.012857 -0.001699 0.000000 0.000000 0.000000
# 3 -0.018619 -0.001699 0.015110 0.000000 0.000000 0.000000
# 4 0.000000 0.000000 0.000000 0.006985 0.000000 0.000000
# 5 0.000000 0.000000 0.000000 0.000000 0.038954 0.000000
# 6 0.000000 0.000000 0.000000 0.000000 0.000000 0.040378
#
#
# Mechanical properties :
#
#
# Convention : Reuss Voigt Hill
#
# Bulk Modulus (GPa) = 23.59514 47.99507 35.79511
# Shear Modulus (GPa) = 18.92200 48.08533 33.50366
#
# Velocity S-wave (km/s) = 3.22088 5.13450 4.28586
# Velocity P-wave (km/s) = 5.17381 7.83992 6.64201
#
# Compressibility (1/GPa) = 0.04238160
#
# Stress axis : x y z
#
# Youngs Moduli (GPa) = 13.31155 77.77592 66.18198
#
# Poissons Ratio (x) = 0.78057 1.23224
# Poissons Ratio (y) = 0.13360 0.11245
# Poissons Ratio (z) = 0.24785 0.13215
#
# Static dielectric constant tensor:
#      x y z
#    x 1.627260 0.000000 0.000000 
#    y 0.000000 1.645520 0.000000 
#    z 0.000000 0.000000 1.616350 
# 
# From -- ./inp_files/31429.got.cif
#   From: 2010.05.17/outbox.cif.g08.bks.cpg/sg59_16_cif.got.tgz:31429.got - 2010.06.03 14:40:33.
