data_PCOD9448160
_publ_section_title
;
Structure prediction by ZEFSAII (Michael W. Deem and Ramdas Pophale) SiO2 
 PCOD9448160
Probable space group: P M M N
;
_chemical_formula_sum "Si O2"
_cell_formula_units_Z 48
_cell_length_a 7.810935
_cell_length_b 18.746400
_cell_length_c 16.191600
_cell_angle_alpha 90.000000
_cell_angle_beta 90.000000
_cell_angle_gamma 90.000000
_cell_volume 2370.885986
_symmetry_space_group_name_H-M "P M M N"
_symmetry_group_IT_number 59
_space_group.IT_coordinate_system_code '2'
_symmetry_cell_setting 'orthorhombic'
loop_
_space_group_symop_operation_xyz
x,y,z
1/2-x,1/2-y,z
1/2+x,-y,-z
-x,1/2+y,-z
-x,-y,-z
1/2+x,1/2+y,-z
1/2-x,y,z
x,1/2-y,z
loop_
_atom_site_type_symbol
_atom_site_label
_atom_site_fract_x
_atom_site_fract_y
_atom_site_fract_z
Si Si1 0.549520 0.081155 0.683838
Si Si2 0.956344 0.583003 0.000541
Si Si3 0.040494 0.332157 0.161597
Si Si4 0.546113 0.916065 0.496264
Si Si5 0.459775 0.083036 0.323691
Si Si6 0.546959 0.830226 0.158331
O O1 0.750000 0.076331 0.700531
O O2 0.525020 0.110388 0.590897
O O3 0.474446 0.130292 0.754755
O O4 0.482017 0.999401 0.686150
O O5 0.750000 0.587862 0.000310
O O6 0.022451 0.622264 0.082895
O O7 0.017020 0.623192 0.918056
O O8 0.000000 0.500000 0.000000
O O9 0.250000 0.332718 0.161674
O O10 0.986622 0.250000 0.156884
O O11 0.985409 0.369963 0.246356
O O12 0.750000 0.908421 0.492251
O O13 0.486626 0.888388 0.585839
O O14 0.500000 0.000000 0.500000
O O15 0.250000 0.081730 0.324698
O O16 0.750000 0.824298 0.143890
O O17 0.475323 0.750000 0.159461
#
# Coordination Sequence:
#
# PCOD9448160 Si02
#       6
#     8   8   8   8   8   8
#     4  10  19  32  51  74 100 133 174 218 262 309
#     4  10  20  34  54  79 103 130 165 204 248 299
#     4   9  16  28  48  73 100 129 162 201 243 290
#     4   9  16  28  47  73 104 136 172 215 259 302
#     4   8  15  27  45  71 100 130 167 209 250 293
#     4  10  21  36  52  73 103 136 170 211 259 310
#
# _framework density 20.245598000000001
#
# number of rings (size 3 to 8) (size 9 to 14) (size 15 to 20)
#    0.000    2.667    0.000    3.500    0.000    4.333 
#    0.000    0.833    0.000    5.500    0.000    0.000 
#    0.000    0.000    0.000    0.000    0.000    0.000 
#
# Total GULP energy -267726.434920 kJ/mol
# GULP energy per Si atom -5577.634061 kJ/mol
# Density = 2.019952 g / cm^3
# Si number density = 20.245598 Si / 1000 Ang^3
#
#
#
# Elastic Constant Matrix: (Units=GPa)
#
#
# Indices 1 2 3 4 5 6 
#
# 1 22.1405 2.8106 -4.2209 0.0000 0.0000 0.0000
# 2 2.8106 139.9995 108.8823 0.0000 0.0000 0.0000
# 3 -4.2209 108.8823 211.3523 0.0000 0.0000 0.0000
# 4 0.0000 0.0000 0.0000 -7.3248 0.0000 0.0000
# 5 0.0000 0.0000 0.0000 0.0000 10.7659 0.0000
# 6 0.0000 0.0000 0.0000 0.0000 0.0000 17.1403
#
#
#
# Elastic Compliance Matrix: (Units=1/GPa)
#
#
# Indices 1 2 3 4 5 6 
#
# 1 0.045956 -0.002730 0.002324 0.000000 0.000000 0.000000
# 2 -0.002730 0.012080 -0.006278 0.000000 0.000000 0.000000
# 3 0.002324 -0.006278 0.008012 0.000000 0.000000 0.000000
# 4 0.000000 0.000000 0.000000 -0.136523 0.000000 0.000000
# 5 0.000000 0.000000 0.000000 0.000000 0.092886 0.000000
# 6 0.000000 0.000000 0.000000 0.000000 0.000000 0.058342
#
#
# Mechanical properties :
#
#
# Convention : Reuss Voigt Hill
#
# Bulk Modulus (GPa) = 18.98243 65.38181 42.18212
# Shear Modulus (GPa) = 44.77032 21.85096 33.31064
#
# Velocity S-wave (km/s) = 4.70761 3.28883 4.06066
# Velocity P-wave (km/s) = 6.24061 6.84005 6.54719
#
# Compressibility (1/GPa) = 0.05268030
#
# Stress axis : x y z
#
# Youngs Moduli (GPa) = 21.76005 82.77994 124.81225
#
# Poissons Ratio (x) = 0.22602 -0.29011
# Poissons Ratio (y) = 0.05941 0.78356
# Poissons Ratio (z) = -0.05058 0.51968
#
# Static dielectric constant tensor:
#      x y z
#    x 1.743000 0.000000 0.000000 
#    y 0.000000 1.684580 0.000000 
#    z 0.000000 0.000000 1.725350 
# 
# From -- ./inp_files/20289.got.cif
#   From: 2010.05.17/outbox.cif.g08.bks.cpg/sg59_11_cif.got.tgz:20289.got - 2010.06.03 14:40:33.
