data_PCOD9448963
_publ_section_title
;
Structure prediction by ZEFSAII (Michael W. Deem and Ramdas Pophale) SiO2 
 PCOD9448963
Probable space group: P M M N
;
_chemical_formula_sum "Si O2"
_cell_formula_units_Z 56
_cell_length_a 15.734262
_cell_length_b 21.516754
_cell_length_c 8.089155
_cell_angle_alpha 90.000000
_cell_angle_beta 90.000000
_cell_angle_gamma 90.000000
_cell_volume 2738.585406
_symmetry_space_group_name_H-M "P M M N"
_symmetry_group_IT_number 59
_space_group.IT_coordinate_system_code '2'
_symmetry_cell_setting 'orthorhombic'
loop_
_space_group_symop_operation_xyz
x,y,z
1/2-x,1/2-y,z
1/2+x,-y,-z
-x,1/2+y,-z
-x,-y,-z
1/2+x,1/2+y,-z
1/2-x,y,z
x,1/2-y,z
loop_
_atom_site_type_symbol
_atom_site_label
_atom_site_fract_x
_atom_site_fract_y
_atom_site_fract_z
Si Si1 0.648786 0.069624 0.033369
Si Si2 0.653291 0.824135 0.799179
Si Si3 0.450722 0.103362 0.447534
Si Si4 0.344311 0.946194 0.326061
Si Si5 0.480626 0.820775 0.992848
Si Si6 0.578106 0.319197 0.634401
Si Si7 0.923850 0.005174 0.334826
O O1 0.750000 0.083808 0.023734
O O2 0.591232 0.130585 0.065960
O O3 0.631257 0.020305 0.176707
O O4 0.617801 0.043334 0.855951
O O5 0.750000 0.837307 0.856028
O O6 0.649948 0.750000 0.760183
O O7 0.629688 0.866531 0.640805
O O8 0.575177 0.836049 0.926328
O O9 0.516851 0.158156 0.487394
O O10 0.494392 0.050831 0.331867
O O11 0.440350 0.066497 0.621606
O O12 0.250000 0.970550 0.314957
O O13 0.350713 0.871714 0.346479
O O14 0.380556 0.972310 0.494989
O O15 0.461371 0.750000 0.937797
O O16 0.473380 0.820289 0.192172
O O17 0.610246 0.250000 0.607935
#
# Coordination Sequence:
#
# PCOD9448963 Si02
#       7
#     8   8   8   8   8   8   8
#     4  10  19  34  57  83 114 151 186 225 274 331
#     4  10  20  35  56  78 103 141 184 229 282 331
#     4  10  20  36  55  79 104 142 188 231 281 335
#     4   9  19  34  53  83 118 151 185 222 273 336
#     4   9  18  35  55  80 115 146 180 229 278 331
#     4   9  18  34  57  81 108 145 183 229 283 329
#     4  10  20  36  55  80 112 149 186 228 280 329
#
# _framework density 20.448512000000001
#
# number of rings (size 3 to 8) (size 9 to 14) (size 15 to 20)
#    0.000    2.429    1.429    0.857    0.000    1.714 
#    2.571    6.429    0.000    4.286    0.000    0.000 
#    0.000    0.000    0.000    0.000    0.000    0.000 
#
# Total GULP energy -311902.486392 kJ/mol
# GULP energy per Si atom -5569.687257 kJ/mol
# Density = 2.040197 g / cm^3
# Si number density = 20.448512 Si / 1000 Ang^3
#
#
#
# Elastic Constant Matrix: (Units=GPa)
#
#
# Indices 1 2 3 4 5 6 
#
# 1 75.4857 3.1473 17.6728 0.0000 0.0000 0.0000
# 2 3.1473 33.0583 26.6670 0.0000 0.0000 0.0000
# 3 17.6728 26.6670 60.4957 0.0000 0.0000 0.0000
# 4 0.0000 0.0000 0.0000 27.2285 0.0000 0.0000
# 5 0.0000 0.0000 0.0000 0.0000 24.1793 0.0000
# 6 0.0000 0.0000 0.0000 0.0000 0.0000 6.7815
#
#
#
# Elastic Compliance Matrix: (Units=1/GPa)
#
#
# Indices 1 2 3 4 5 6 
#
# 1 0.014428 0.003145 -0.005601 0.000000 0.000000 0.000000
# 2 0.003145 0.047627 -0.021913 0.000000 0.000000 0.000000
# 3 -0.005601 -0.021913 0.027826 0.000000 0.000000 0.000000
# 4 0.000000 0.000000 0.000000 0.036726 0.000000 0.000000
# 5 0.000000 0.000000 0.000000 0.000000 0.041358 0.000000
# 6 0.000000 0.000000 0.000000 0.000000 0.000000 0.147461
#
#
# Mechanical properties :
#
#
# Convention : Reuss Voigt Hill
#
# Bulk Modulus (GPa) = 24.30635 29.33488 26.82062
# Shear Modulus (GPa) = 13.23181 19.74136 16.48659
#
# Velocity S-wave (km/s) = 2.54654 3.11049 2.84253
# Velocity P-wave (km/s) = 4.53419 5.22274 4.89060
#
# Compressibility (1/GPa) = 0.04114151
#
# Stress axis : x y z
#
# Youngs Moduli (GPa) = 69.31095 20.99668 35.93805
#
# Poissons Ratio (x) = -0.06602 0.20129
# Poissons Ratio (y) = -0.21795 0.78750
# Poissons Ratio (z) = 0.38821 0.46010
#
# Static dielectric constant tensor:
#      x y z
#    x 1.756180 0.000000 0.000000 
#    y 0.000000 1.767650 0.000000 
#    z 0.000000 0.000000 1.739140 
# 
# From -- ./inp_files/9356.got.cif
#   From: 2010.05.17/outbox.cif.g08.bks.cpg/sg59_5_cif.got.tgz:9356.got - 2010.06.03 14:40:33.
