data_PCOD9448433
_publ_section_title
;
Structure prediction by ZEFSAII (Michael W. Deem and Ramdas Pophale) SiO2 
 PCOD9448433
Probable space group: P M M N
;
_chemical_formula_sum "Si O2"
_cell_formula_units_Z 64
_cell_length_a 16.484887
_cell_length_b 15.687809
_cell_length_c 11.147563
_cell_angle_alpha 90.000000
_cell_angle_beta 90.000000
_cell_angle_gamma 90.000000
_cell_volume 2882.890872
_symmetry_space_group_name_H-M "P M M N"
_symmetry_group_IT_number 59
_space_group.IT_coordinate_system_code '2'
_symmetry_cell_setting 'orthorhombic'
loop_
_space_group_symop_operation_xyz
x,y,z
1/2-x,1/2-y,z
1/2+x,-y,-z
-x,1/2+y,-z
-x,-y,-z
1/2+x,1/2+y,-z
1/2-x,y,z
x,1/2-y,z
loop_
_atom_site_type_symbol
_atom_site_label
_atom_site_fract_x
_atom_site_fract_y
_atom_site_fract_z
Si Si1 0.158393 0.445411 0.674037
Si Si2 0.000303 0.152770 0.321621
Si Si3 0.837118 0.494153 0.835219
Si Si4 0.430476 0.654795 0.056863
Si Si5 0.005345 0.147499 0.584889
Si Si6 0.091656 0.348354 0.080424
Si Si7 0.839352 0.450593 0.576425
Si Si8 0.843696 0.114749 0.194404
O O1 0.250000 0.406632 0.678667
O O2 0.079049 0.386234 0.666592
O O3 0.155542 0.500349 0.549934
O O4 0.151564 0.513114 0.782404
O O5 0.026745 0.250000 0.330702
O O6 0.022783 0.114076 0.448461
O O7 0.041395 0.122753 0.199755
O O8 0.904332 0.150375 0.295904
O O9 0.750000 0.452055 0.860841
O O10 0.843503 0.577358 0.918212
O O11 0.838264 0.512384 0.692915
O O12 0.904673 0.425042 0.865288
O O13 0.414738 0.750000 0.105838
O O14 0.525188 0.649237 0.023534
O O15 0.380190 0.644492 0.932196
O O16 0.003613 0.250000 0.588930
O O17 0.915069 0.110943 0.601282
O O18 0.119442 0.250000 0.091542
O O19 0.750000 0.407452 0.576266
O O20 0.750000 0.139801 0.207203
#
# Coordination Sequence:
#
# PCOD9448433 Si02
#       8
#     8   8   8   8   8   8   8   8
#     4  10  21  37  58  84 112 145 191 244 291 342
#     4   9  18  31  52  82 112 143 183 231 283 336
#     4  11  23  37  59  85 115 158 192 227 284 346
#     4  10  22  39  60  85 112 147 191 238 287 342
#     4  11  22  35  55  81 114 159 192 229 289 345
#     4   9  19  37  59  87 115 143 189 244 289 336
#     4  10  22  38  57  86 118 153 194 232 282 349
#     4  10  19  32  55  83 107 139 180 235 294 331
#
# _framework density 22.199939000000001
#
# number of rings (size 3 to 8) (size 9 to 14) (size 15 to 20)
#    0.000    2.000    1.250    3.000    3.500    3.000 
#    0.000    2.500    0.000    4.500    0.000    1.750 
#    0.000    0.000    0.000    0.000    0.000    0.000 
#
# Total GULP energy -356832.703345 kJ/mol
# GULP energy per Si atom -5575.510990 kJ/mol
# Density = 2.214941 g / cm^3
# Si number density = 22.199939 Si / 1000 Ang^3
#
#
#
# Elastic Constant Matrix: (Units=GPa)
#
#
# Indices 1 2 3 4 5 6 
#
# 1 105.6749 32.5999 -5.1675 0.0000 0.0000 0.0000
# 2 32.5999 71.1868 13.2414 0.0000 0.0000 0.0000
# 3 -5.1675 13.2414 39.7107 0.0000 0.0000 0.0000
# 4 0.0000 0.0000 0.0000 23.1029 0.0000 0.0000
# 5 0.0000 0.0000 0.0000 0.0000 18.0693 0.0000
# 6 0.0000 0.0000 0.0000 0.0000 0.0000 -1.2539
#
#
#
# Elastic Compliance Matrix: (Units=1/GPa)
#
#
# Indices 1 2 3 4 5 6 
#
# 1 0.011447 -0.005884 0.003452 0.000000 0.000000 0.000000
# 2 -0.005884 0.018001 -0.006768 0.000000 0.000000 0.000000
# 3 0.003452 -0.006768 0.027888 0.000000 0.000000 0.000000
# 4 0.000000 0.000000 0.000000 0.043285 0.000000 0.000000
# 5 0.000000 0.000000 0.000000 0.000000 0.055342 0.000000
# 6 0.000000 0.000000 0.000000 0.000000 0.000000 -0.797500
#
#
# Mechanical properties :
#
#
# Convention : Reuss Voigt Hill
#
# Bulk Modulus (GPa) = 25.68388 33.10223 29.39306
# Shear Modulus (GPa) = -8.19462 19.71023 5.75781
#
# Velocity S-wave (km/s) = -1.92335 2.98291 1.61222
# Velocity P-wave (km/s) = 2.58110 5.17755 4.09079
#
# Compressibility (1/GPa) = 0.03893492
#
# Stress axis : x y z
#
# Youngs Moduli (GPa) = 87.35921 55.55206 35.85757
#
# Poissons Ratio (x) = 0.32688 -0.12377
# Poissons Ratio (y) = 0.51404 0.24269
# Poissons Ratio (z) = -0.30153 0.37598
#
# Static dielectric constant tensor:
#      x y z
#    x 1.846280 0.000000 0.000000 
#    y 0.000000 1.830340 0.000000 
#    z 0.000000 0.000000 1.875130 
# 
# From -- ./inp_files/17228.got.cif
#   From: 2010.05.17/outbox.cif.g08.bks.cpg/sg59_9_cif.got.tgz:17228.got - 2010.06.03 14:40:33.
