data_PCOD9448915
_publ_section_title
;
Structure prediction by ZEFSAII (Michael W. Deem and Ramdas Pophale) SiO2 
 PCOD9448915
Probable space group: P M M N
;
_chemical_formula_sum "Si O2"
_cell_formula_units_Z 64
_cell_length_a 13.080404
_cell_length_b 29.300948
_cell_length_c 9.551291
_cell_angle_alpha 90.000000
_cell_angle_beta 90.000000
_cell_angle_gamma 90.000000
_cell_volume 3660.706467
_symmetry_space_group_name_H-M "P M M N"
_symmetry_group_IT_number 59
_space_group.IT_coordinate_system_code '2'
_symmetry_cell_setting 'orthorhombic'
loop_
_space_group_symop_operation_xyz
x,y,z
1/2-x,1/2-y,z
1/2+x,-y,-z
-x,1/2+y,-z
-x,-y,-z
1/2+x,1/2+y,-z
1/2-x,y,z
x,1/2-y,z
loop_
_atom_site_type_symbol
_atom_site_label
_atom_site_fract_x
_atom_site_fract_y
_atom_site_fract_z
Si Si1 0.022947 0.562470 0.076872
Si Si2 0.868759 0.871183 0.586661
Si Si3 0.629529 0.014446 0.167303
Si Si4 0.864277 0.880985 0.913452
Si Si5 0.533677 0.050027 0.448777
Si Si6 0.868633 0.113477 0.676282
Si Si7 0.634799 0.699666 0.131775
Si Si8 0.501022 0.196892 0.593109
O O1 0.068335 0.598729 0.185577
O O2 0.948668 0.528323 0.161903
O O3 0.109825 0.537560 0.985005
O O4 0.949753 0.583906 0.959407
O O5 0.750000 0.875117 0.542170
O O6 0.871467 0.866134 0.753738
O O7 0.934452 0.916851 0.556648
O O8 0.925016 0.828567 0.514397
O O9 0.750000 0.003617 0.184054
O O10 0.590250 0.044589 0.298942
O O11 0.750000 0.900397 0.935685
O O12 0.877436 0.838292 0.015556
O O13 0.606983 0.074857 0.560428
O O14 0.500000 0.000000 0.500000
O O15 0.750000 0.114478 0.709934
O O16 0.904943 0.162153 0.614407
O O17 0.750000 0.695221 0.190129
O O18 0.625795 0.750000 0.067877
O O19 0.556861 0.696286 0.258208
O O20 0.523023 0.250000 0.558005
#
# Coordination Sequence:
#
# PCOD9448915 Si02
#       8
#     8   8   8   8   8   8   8   8
#     4  11  21  39  56  85 117 145 198 235 286 338
#     4  10  22  37  57  83 115 153 190 231 285 342
#     4  11  23  38  59  81 113 157 194 236 285 341
#     4  10  19  34  56  81 114 149 181 226 279 336
#     4  11  22  41  55  84 117 151 193 235 283 341
#     4  11  23  39  61  86 114 150 192 242 294 345
#     4   9  17  30  52  82 111 140 175 218 273 331
#     4  10  21  38  59  84 115 148 188 239 288 344
#
# _framework density 17.482963999999999
#
# number of rings (size 3 to 8) (size 9 to 14) (size 15 to 20)
#    0.000    1.625    3.750    1.500    0.000    2.500 
#    0.000    1.250    0.000    0.000    0.000    0.000 
#    0.000    0.000    0.000    0.000    0.000    0.000 
#
# Total GULP energy -356854.537656 kJ/mol
# GULP energy per Si atom -5575.852151 kJ/mol
# Density = 1.744317 g / cm^3
# Si number density = 17.482964 Si / 1000 Ang^3
#
#
#
# Elastic Constant Matrix: (Units=GPa)
#
#
# Indices 1 2 3 4 5 6 
#
# 1 93.2117 38.4145 30.1234 0.0000 0.0000 0.0000
# 2 38.4145 97.6982 22.7936 0.0000 0.0000 0.0000
# 3 30.1234 22.7936 58.8648 0.0000 0.0000 0.0000
# 4 0.0000 0.0000 0.0000 8.9173 0.0000 0.0000
# 5 0.0000 0.0000 0.0000 0.0000 22.1584 0.0000
# 6 0.0000 0.0000 0.0000 0.0000 0.0000 -2.6180
#
#
#
# Elastic Compliance Matrix: (Units=1/GPa)
#
#
# Indices 1 2 3 4 5 6 
#
# 1 0.014338 -0.004316 -0.005666 0.000000 0.000000 0.000000
# 2 -0.004316 0.012551 -0.002652 0.000000 0.000000 0.000000
# 3 -0.005666 -0.002652 0.020914 0.000000 0.000000 0.000000
# 4 0.000000 0.000000 0.000000 0.112142 0.000000 0.000000
# 5 0.000000 0.000000 0.000000 0.000000 0.045130 0.000000
# 6 0.000000 0.000000 0.000000 0.000000 0.000000 -0.381964
#
#
# Mechanical properties :
#
#
# Convention : Reuss Voigt Hill
#
# Bulk Modulus (GPa) = 44.37205 48.04865 46.21035
# Shear Modulus (GPa) = -34.69576 16.25441 -9.22068
#
# Velocity S-wave (km/s) = -4.45966 3.05245 -2.29903
# Velocity P-wave (km/s) = 1.04058 6.32187 4.40927
#
# Compressibility (1/GPa) = 0.02253671
#
# Stress axis : x y z
#
# Youngs Moduli (GPa) = 69.74473 79.67411 47.81391
#
# Poissons Ratio (x) = 0.34385 0.27092
# Poissons Ratio (y) = 0.30100 0.12678
# Poissons Ratio (z) = 0.39519 0.21126
#
# Static dielectric constant tensor:
#      x y z
#    x 1.602210 0.000000 0.000000 
#    y 0.000000 1.495240 0.000000 
#    z 0.000000 0.000000 1.581590 
# 
# From -- ./inp_files/8047.got.cif
#   From: 2010.05.17/outbox.cif.g08.bks.cpg/sg59_5_cif.got.tgz:8047.got - 2010.06.03 14:40:33.
