data_PCOD9448634
_publ_section_title
;
Structure prediction by ZEFSAII (Michael W. Deem and Ramdas Pophale) SiO2 
 PCOD9448634
Probable space group: P M M N
;
_chemical_formula_sum "Si O2"
_cell_formula_units_Z 48
_cell_length_a 7.498526
_cell_length_b 19.742418
_cell_length_c 15.590217
_cell_angle_alpha 90.000000
_cell_angle_beta 90.000000
_cell_angle_gamma 90.000000
_cell_volume 2307.960675
_symmetry_space_group_name_H-M "P M M N"
_symmetry_group_IT_number 59
_space_group.IT_coordinate_system_code '2'
_symmetry_cell_setting 'orthorhombic'
loop_
_space_group_symop_operation_xyz
x,y,z
1/2-x,1/2-y,z
1/2+x,-y,-z
-x,1/2+y,-z
-x,-y,-z
1/2+x,1/2+y,-z
1/2-x,y,z
x,1/2-y,z
loop_
_atom_site_type_symbol
_atom_site_label
_atom_site_fract_x
_atom_site_fract_y
_atom_site_fract_z
Si Si1 0.039574 0.416271 0.285139
Si Si2 0.465069 0.326865 0.636137
Si Si3 0.032155 0.327731 0.441768
Si Si4 0.536457 0.424352 0.966646
Si Si5 0.460487 0.939512 0.224020
Si Si6 0.033927 0.672338 0.881923
O O1 0.250000 0.425926 0.301777
O O2 0.966640 0.379386 0.369711
O O3 0.963895 0.489607 0.259626
O O4 0.019983 0.366772 0.204117
O O5 0.250000 0.326024 0.635262
O O6 0.525159 0.250000 0.655053
O O7 0.523110 0.344318 0.539089
O O8 0.520911 0.380647 0.706675
O O9 0.250000 0.328104 0.440529
O O10 0.978955 0.250000 0.422898
O O11 0.750000 0.414850 0.964385
O O12 0.466570 0.419493 0.869482
O O13 0.500000 0.500000 0.000000
O O14 0.468722 0.370085 0.035703
O O15 0.250000 0.951711 0.210084
O O16 0.250000 0.672780 0.883609
O O17 0.973064 0.750000 0.882167
#
# Coordination Sequence:
#
# PCOD9448634 Si02
#       6
#     8   8   8   8   8   8
#     4  10  19  33  54  80 107 137 175 215 258 313
#     4   9  19  36  55  75 101 137 181 220 257 310
#     4   8  15  30  52  75 102 138 175 214 261 307
#     4  10  20  36  55  75 104 141 175 212 259 312
#     4  10  21  34  52  80 108 136 172 216 265 315
#     4  10  21  35  52  77 107 139 175 215 262 314
#
# _framework density 20.79758
#
# number of rings (size 3 to 8) (size 9 to 14) (size 15 to 20)
#    0.000    2.500    1.667    1.500    0.000    4.000 
#    0.000    2.500    0.000    1.000    0.000    0.000 
#    0.000    0.000    0.000    0.000    0.000    0.000 
#
# Total GULP energy -267993.868492 kJ/mol
# GULP energy per Si atom -5583.205594 kJ/mol
# Density = 2.075024 g / cm^3
# Si number density = 20.797580 Si / 1000 Ang^3
#
#
#
# Elastic Constant Matrix: (Units=GPa)
#
#
# Indices 1 2 3 4 5 6 
#
# 1 48.6969 -20.1283 -17.3405 0.0000 0.0000 0.0000
# 2 -20.1283 136.5065 95.8546 0.0000 0.0000 0.0000
# 3 -17.3405 95.8546 170.8603 0.0000 0.0000 0.0000
# 4 0.0000 0.0000 0.0000 42.6858 0.0000 0.0000
# 5 0.0000 0.0000 0.0000 0.0000 14.6156 0.0000
# 6 0.0000 0.0000 0.0000 0.0000 0.0000 9.1759
#
#
#
# Elastic Compliance Matrix: (Units=1/GPa)
#
#
# Indices 1 2 3 4 5 6 
#
# 1 0.021916 0.002755 0.000679 0.000000 0.000000 0.000000
# 2 0.002755 0.012434 -0.006696 0.000000 0.000000 0.000000
# 3 0.000679 -0.006696 0.009678 0.000000 0.000000 0.000000
# 4 0.000000 0.000000 0.000000 0.023427 0.000000 0.000000
# 5 0.000000 0.000000 0.000000 0.000000 0.068420 0.000000
# 6 0.000000 0.000000 0.000000 0.000000 0.000000 0.108981
#
#
# Mechanical properties :
#
#
# Convention : Reuss Voigt Hill
#
# Bulk Modulus (GPa) = 26.66461 52.53725 39.60093
# Shear Modulus (GPa) = 18.94795 33.14066 26.04430
#
# Velocity S-wave (km/s) = 3.02166 3.99618 3.54259
# Velocity P-wave (km/s) = 5.00227 6.82706 5.98462
#
# Compressibility (1/GPa) = 0.03750289
#
# Stress axis : x y z
#
# Youngs Moduli (GPa) = 45.62959 80.42654 103.32661
#
# Poissons Ratio (x) = -0.22158 -0.07012
# Poissons Ratio (y) = -0.12571 0.69186
# Poissons Ratio (z) = -0.03096 0.53852
#
# Static dielectric constant tensor:
#      x y z
#    x 1.791720 0.000000 0.000000 
#    y 0.000000 1.709260 0.000000 
#    z 0.000000 0.000000 1.724010 
# 
# From -- ./inp_files/20344.got.cif
#   From: 2010.05.17/outbox.cif.g08.bks.cpg/sg59_11_cif.got.tgz:20344.got - 2010.06.03 14:40:33.
