data_PCOD9448306
_publ_section_title
;
Structure prediction by ZEFSAII (Michael W. Deem and Ramdas Pophale) SiO2 
 PCOD9448306
Probable space group: P M M N
;
_chemical_formula_sum "Si O2"
_cell_formula_units_Z 64
_cell_length_a 19.953600
_cell_length_b 15.293135
_cell_length_c 10.516281
_cell_angle_alpha 90.000000
_cell_angle_beta 90.000000
_cell_angle_gamma 90.000000
_cell_volume 3209.075732
_symmetry_space_group_name_H-M "P M M N"
_symmetry_group_IT_number 59
_space_group.IT_coordinate_system_code '2'
_symmetry_cell_setting 'orthorhombic'
loop_
_space_group_symop_operation_xyz
x,y,z
1/2-x,1/2-y,z
1/2+x,-y,-z
-x,1/2+y,-z
-x,-y,-z
1/2+x,1/2+y,-z
1/2-x,y,z
x,1/2-y,z
loop_
_atom_site_type_symbol
_atom_site_label
_atom_site_fract_x
_atom_site_fract_y
_atom_site_fract_z
Si Si1 0.323736 0.095802 0.062275
Si Si2 0.536135 0.644163 0.299282
Si Si3 0.324102 0.898700 0.963460
Si Si4 0.944965 0.650896 0.785572
Si Si5 0.324348 0.643854 0.667598
Si Si6 0.324534 0.148747 0.782647
Si Si7 0.963554 0.142769 0.445892
Si Si8 0.974893 0.100494 0.972630
O O1 0.250000 0.124703 0.104184
O O2 0.377985 0.102225 0.171998
O O3 0.320253 0.998070 0.009754
O O4 0.341710 0.147824 0.933342
O O5 0.539923 0.750000 0.306735
O O6 0.612553 0.609085 0.291189
O O7 0.494586 0.613411 0.420937
O O8 0.501339 0.621569 0.166809
O O9 0.250000 0.858727 0.994713
O O10 0.396318 0.873358 0.020247
O O11 0.331219 0.891005 0.811405
O O12 0.925971 0.750000 0.752601
O O13 0.988694 0.614113 0.670269
O O14 0.990199 0.650962 0.911843
O O15 0.250000 0.619856 0.619846
O O16 0.326613 0.750000 0.677066
O O17 0.387422 0.615718 0.583363
O O18 0.250000 0.108827 0.768045
O O19 0.319570 0.250000 0.744375
O O20 0.963604 0.250000 0.444845
O O21 0.000000 0.000000 0.000000
#
# Coordination Sequence:
#
# PCOD9448306 Si02
#       8
#     8   8   8   8   8   8   8   8
#     4  10  19  32  52  79 111 142 176 223 277 325
#     4  10  20  35  54  80 110 142 179 225 276 325
#     4  10  20  33  52  78 111 143 177 226 279 320
#     4  11  20  33  55  81 108 140 179 226 270 323
#     4   9  17  31  53  78 103 139 187 230 272 328
#     4   9  16  28  49  75 102 133 173 217 263 320
#     4   9  19  34  52  76 108 140 176 224 275 324
#     4  12  21  34  56  81 109 141 183 226 273 327
#
# _framework density 19.943435999999998
#
# number of rings (size 3 to 8) (size 9 to 14) (size 15 to 20)
#    0.000    2.000    3.750    0.750    0.000    1.250 
#    0.000    1.875    0.000    3.000    0.000    0.000 
#    0.000    0.000    0.000    0.000    0.000    0.000 
#
# Total GULP energy -356743.200777 kJ/mol
# GULP energy per Si atom -5574.112512 kJ/mol
# Density = 1.989804 g / cm^3
# Si number density = 19.943436 Si / 1000 Ang^3
#
#
#
# Elastic Constant Matrix: (Units=GPa)
#
#
# Indices 1 2 3 4 5 6 
#
# 1 205.1507 2.3575 88.6762 0.0000 0.0000 0.0000
# 2 2.3575 20.6733 3.6952 0.0000 0.0000 0.0000
# 3 88.6762 3.6952 121.8434 0.0000 0.0000 0.0000
# 4 0.0000 0.0000 0.0000 -11.8025 0.0000 0.0000
# 5 0.0000 0.0000 0.0000 0.0000 26.2353 0.0000
# 6 0.0000 0.0000 0.0000 0.0000 0.0000 3.5285
#
#
#
# Elastic Compliance Matrix: (Units=1/GPa)
#
#
# Indices 1 2 3 4 5 6 
#
# 1 0.007112 0.000115 -0.005179 0.000000 0.000000 0.000000
# 2 0.000115 0.048637 -0.001559 0.000000 0.000000 0.000000
# 3 -0.005179 -0.001559 0.012024 0.000000 0.000000 0.000000
# 4 0.000000 0.000000 0.000000 -0.084728 0.000000 0.000000
# 5 0.000000 0.000000 0.000000 0.000000 0.038117 0.000000
# 6 0.000000 0.000000 0.000000 0.000000 0.000000 0.283408
#
#
# Mechanical properties :
#
#
# Convention : Reuss Voigt Hill
#
# Bulk Modulus (GPa) = 18.33971 59.68058 39.01015
# Shear Modulus (GPa) = 14.88133 20.45482 17.66808
#
# Velocity S-wave (km/s) = 2.73459 3.20604 2.97965
# Velocity P-wave (km/s) = 4.38023 6.61020 5.60719
#
# Compressibility (1/GPa) = 0.05452648
#
# Stress axis : x y z
#
# Youngs Moduli (GPa) = 140.60778 20.56048 83.16631
#
# Poissons Ratio (x) = -0.00236 0.43076
# Poissons Ratio (y) = -0.01614 0.12962
# Poissons Ratio (z) = 0.72828 0.03205
#
# Static dielectric constant tensor:
#      x y z
#    x 1.777980 0.000000 0.000000 
#    y 0.000000 1.712790 0.000000 
#    z 0.000000 0.000000 1.650690 
# 
# From -- ./inp_files/11615.got.cif
#   From: 2010.05.17/outbox.cif.g08.bks.cpg/sg59_6_cif.got.tgz:11615.got - 2010.06.03 14:40:33.
