data_PCOD9448233
_publ_section_title
;
Structure prediction by ZEFSAII (Michael W. Deem and Ramdas Pophale) SiO2 
 PCOD9448233
Probable space group: P M M N
;
_chemical_formula_sum "Si O2"
_cell_formula_units_Z 64
_cell_length_a 14.699315
_cell_length_b 7.457563
_cell_length_c 26.296449
_cell_angle_alpha 90.000000
_cell_angle_beta 90.000000
_cell_angle_gamma 90.000000
_cell_volume 2882.644815
_symmetry_space_group_name_H-M "P M M N"
_symmetry_group_IT_number 59
_space_group.IT_coordinate_system_code '2'
_symmetry_cell_setting 'orthorhombic'
loop_
_space_group_symop_operation_xyz
x,y,z
1/2-x,1/2-y,z
1/2+x,-y,-z
-x,1/2+y,-z
-x,-y,-z
1/2+x,1/2+y,-z
1/2-x,y,z
x,1/2-y,z
loop_
_atom_site_type_symbol
_atom_site_label
_atom_site_fract_x
_atom_site_fract_y
_atom_site_fract_z
Si Si1 0.352507 0.536999 0.777574
Si Si2 0.144175 0.030761 0.573187
Si Si3 0.643883 0.966398 0.040148
Si Si4 0.854132 0.530669 0.925537
Si Si5 0.851780 0.455924 0.650302
Si Si6 0.957276 0.966855 0.325551
Si Si7 0.860342 0.956510 0.536469
Si Si8 0.479914 0.955653 0.865180
O O1 0.250000 0.463997 0.780791
O O2 0.345839 0.750000 0.787456
O O3 0.394913 0.513316 0.722048
O O4 0.421525 0.461420 0.819735
O O5 0.250000 0.978705 0.579236
O O6 0.142662 0.250000 0.571392
O O7 0.087617 0.970885 0.621726
O O8 0.107751 0.969829 0.517964
O O9 0.750000 0.013110 0.047906
O O10 0.637140 0.750000 0.042389
O O11 0.582421 0.043241 0.084481
O O12 0.618538 0.023813 0.982894
O O13 0.750000 0.477236 0.916971
O O14 0.856137 0.750000 0.925666
O O15 0.924800 0.464353 0.883703
O O16 0.750000 0.536526 0.654493
O O17 0.843941 0.250000 0.666766
O O18 0.878947 0.454092 0.590380
O O19 0.939026 0.535410 0.678555
O O20 0.961208 0.750000 0.328207
O O21 0.750000 0.959479 0.531692
O O22 0.888570 0.750000 0.541380
O O23 0.499505 0.750000 0.850310
#
# Coordination Sequence:
#
# PCOD9448233 Si02
#       8
#     8   8   8   8   8   8   8   8
#     4  10  22  38  52  71 101 127 151 197 254 293
#     4   8  14  26  45  69  94 118 152 199 240 277
#     4   9  17  29  47  74 106 135 164 201 241 281
#     4   8  15  29  49  74 104 135 165 198 237 281
#     4   9  18  32  48  69  99 128 155 195 243 285
#     4  10  20  34  53  72  90 124 171 205 235 285
#     4   8  14  26  45  68  94 124 155 189 233 285
#     4  10  19  32  52  74  98 132 168 200 240 290
#
# _framework density 22.201834000000002
#
# number of rings (size 3 to 8) (size 9 to 14) (size 15 to 20)
#    0.000    3.000    0.000    2.625    0.000    3.000 
#    0.000    1.250    0.000    4.125    0.000    0.000 
#    0.000    0.000    0.000    0.000    0.000    0.000 
#
# Total GULP energy -357203.757893 kJ/mol
# GULP energy per Si atom -5581.308717 kJ/mol
# Density = 2.215130 g / cm^3
# Si number density = 22.201834 Si / 1000 Ang^3
#
#
#
# Elastic Constant Matrix: (Units=GPa)
#
#
# Indices 1 2 3 4 5 6 
#
# 1 89.4770 -5.9981 36.2302 0.0000 0.0000 0.0000
# 2 -5.9981 64.5940 -9.5825 0.0000 0.0000 0.0000
# 3 36.2302 -9.5825 46.6670 0.0000 0.0000 0.0000
# 4 0.0000 0.0000 0.0000 24.1250 0.0000 0.0000
# 5 0.0000 0.0000 0.0000 0.0000 36.3227 0.0000
# 6 0.0000 0.0000 0.0000 0.0000 0.0000 5.0710
#
#
#
# Elastic Compliance Matrix: (Units=1/GPa)
#
#
# Indices 1 2 3 4 5 6 
#
# 1 0.016309 -0.000375 -0.012739 0.000000 0.000000 0.000000
# 2 -0.000375 0.015976 0.003572 0.000000 0.000000 0.000000
# 3 -0.012739 0.003572 0.032052 0.000000 0.000000 0.000000
# 4 0.000000 0.000000 0.000000 0.041451 0.000000 0.000000
# 5 0.000000 0.000000 0.000000 0.000000 0.027531 0.000000
# 6 0.000000 0.000000 0.000000 0.000000 0.000000 0.197198
#
#
# Mechanical properties :
#
#
# Convention : Reuss Voigt Hill
#
# Bulk Modulus (GPa) = 22.09804 26.89301 24.49553
# Shear Modulus (GPa) = 13.71045 25.10963 19.41004
#
# Velocity S-wave (km/s) = 2.48772 3.36664 2.95999
# Velocity P-wave (km/s) = 4.26926 5.22031 4.76855
#
# Compressibility (1/GPa) = 0.04525287
#
# Stress axis : x y z
#
# Youngs Moduli (GPa) = 61.31625 62.59247 31.19970
#
# Poissons Ratio (x) = 0.02349 0.39744
# Poissons Ratio (y) = 0.02301 -0.11144
# Poissons Ratio (z) = 0.78108 -0.22358
#
# Static dielectric constant tensor:
#      x y z
#    x 1.841140 0.000000 0.000000 
#    y 0.000000 1.838380 0.000000 
#    z 0.000000 0.000000 1.780720 
# 
# From -- ./inp_files/32235.got.cif
#   From: 2010.05.17/outbox.cif.g08.bks.cpg/sg59_17_cif.got.tgz:32235.got - 2010.06.03 14:40:33.
