data_PCOD9448676
_publ_section_title
;
Structure prediction by ZEFSAII (Michael W. Deem and Ramdas Pophale) SiO2 
 PCOD9448676
Probable space group: P M M N
;
_chemical_formula_sum "Si O2"
_cell_formula_units_Z 40
_cell_length_a 9.134674
_cell_length_b 20.365538
_cell_length_c 11.937370
_cell_angle_alpha 90.000000
_cell_angle_beta 90.000000
_cell_angle_gamma 90.000000
_cell_volume 2220.739387
_symmetry_space_group_name_H-M "P M M N"
_symmetry_group_IT_number 59
_space_group.IT_coordinate_system_code '2'
_symmetry_cell_setting 'orthorhombic'
loop_
_space_group_symop_operation_xyz
x,y,z
1/2-x,1/2-y,z
1/2+x,-y,-z
-x,1/2+y,-z
-x,-y,-z
1/2+x,1/2+y,-z
1/2-x,y,z
x,1/2-y,z
loop_
_atom_site_type_symbol
_atom_site_label
_atom_site_fract_x
_atom_site_fract_y
_atom_site_fract_z
Si Si1 0.074224 0.945431 0.578960
Si Si2 0.415328 0.671424 0.230861
Si Si3 0.918223 0.900384 0.041934
Si Si4 0.080855 0.957218 0.839617
Si Si5 0.923999 0.828084 0.458856
O O1 0.250000 0.947333 0.565118
O O2 0.040088 0.958592 0.709420
O O3 0.010411 0.874783 0.543446
O O4 0.000000 0.000000 0.500000
O O5 0.250000 0.646007 0.247621
O O6 0.409920 0.750000 0.230469
O O7 0.481703 0.647079 0.114929
O O8 0.518484 0.652777 0.334997
O O9 0.750000 0.878668 0.040308
O O10 0.925583 0.970060 0.107387
O O11 0.979416 0.912634 0.917910
O O12 0.250000 0.935022 0.848089
O O13 0.750000 0.838890 0.466325
O O14 0.951977 0.750000 0.475162
#
# Coordination Sequence:
#
# PCOD9448676 Si02
#       5
#     8   8   8   8   8
#     4  11  22  36  57  83 112 145 183 226 271 325
#     4  10  20  34  54  79 106 138 176 216 261 315
#     4  10  19  33  55  79 104 135 172 217 266 313
#     4   9  20  36  52  75 106 139 174 213 261 315
#     4  10  21  37  56  79 110 145 182 227 275 322
#
# _framework density 18.012018999999999
#
# number of rings (size 3 to 8) (size 9 to 14) (size 15 to 20)
#    0.000    2.000    0.000    3.600    0.000    6.400 
#    0.000    1.000    0.000    1.200    0.000    0.000 
#    0.000    0.000    0.000    0.000    0.000    0.000 
#
# Total GULP energy -223298.125107 kJ/mol
# GULP energy per Si atom -5582.453128 kJ/mol
# Density = 1.797102 g / cm^3
# Si number density = 18.012019 Si / 1000 Ang^3
#
#
#
# Elastic Constant Matrix: (Units=GPa)
#
#
# Indices 1 2 3 4 5 6 
#
# 1 94.0742 33.2784 64.3570 0.0000 0.0000 0.0000
# 2 33.2784 31.2889 34.4805 0.0000 0.0000 0.0000
# 3 64.3570 34.4805 141.0339 0.0000 0.0000 0.0000
# 4 0.0000 0.0000 0.0000 30.2237 0.0000 0.0000
# 5 0.0000 0.0000 0.0000 0.0000 34.5217 0.0000
# 6 0.0000 0.0000 0.0000 0.0000 0.0000 30.5410
#
#
#
# Elastic Compliance Matrix: (Units=1/GPa)
#
#
# Indices 1 2 3 4 5 6 
#
# 1 0.019515 -0.014978 -0.005243 0.000000 0.000000 0.000000
# 2 -0.014978 0.055242 -0.006671 0.000000 0.000000 0.000000
# 3 -0.005243 -0.006671 0.011114 0.000000 0.000000 0.000000
# 4 0.000000 0.000000 0.000000 0.033087 0.000000 0.000000
# 5 0.000000 0.000000 0.000000 0.000000 0.028967 0.000000
# 6 0.000000 0.000000 0.000000 0.000000 0.000000 0.032743
#
#
# Mechanical properties :
#
#
# Convention : Reuss Voigt Hill
#
# Bulk Modulus (GPa) = 31.16554 58.95874 45.06214
# Shear Modulus (GPa) = 20.39579 28.00934 24.20257
#
# Velocity S-wave (km/s) = 3.36868 3.94767 3.66961
# Velocity P-wave (km/s) = 5.69832 7.32003 6.55949
#
# Compressibility (1/GPa) = 0.03208672
#
# Stress axis : x y z
#
# Youngs Moduli (GPa) = 51.24164 18.10220 89.97536
#
# Poissons Ratio (x) = 0.27113 0.47178
# Poissons Ratio (y) = 0.76749 0.60023
# Poissons Ratio (z) = 0.26868 0.12076
#
# Static dielectric constant tensor:
#      x y z
#    x 1.625650 0.000000 0.000000 
#    y 0.000000 1.615880 0.000000 
#    z 0.000000 0.000000 1.594860 
# 
# From -- ./inp_files/13858.got.cif
#   From: 2010.05.17/outbox.cif.g08.bks.cpg/sg59_7_cif.got.tgz:13858.got - 2010.06.03 14:40:33.
