data_PCOD9448290
_publ_section_title
;
Structure prediction by ZEFSAII (Michael W. Deem and Ramdas Pophale) SiO2 
 PCOD9448290
Probable space group: P M M N
;
_chemical_formula_sum "Si O2"
_cell_formula_units_Z 64
_cell_length_a 7.615631
_cell_length_b 18.750124
_cell_length_c 21.385010
_cell_angle_alpha 90.000000
_cell_angle_beta 90.000000
_cell_angle_gamma 90.000000
_cell_volume 3053.651665
_symmetry_space_group_name_H-M "P M M N"
_symmetry_group_IT_number 59
_space_group.IT_coordinate_system_code '2'
_symmetry_cell_setting 'orthorhombic'
loop_
_space_group_symop_operation_xyz
x,y,z
1/2-x,1/2-y,z
1/2+x,-y,-z
-x,1/2+y,-z
-x,-y,-z
1/2+x,1/2+y,-z
1/2-x,y,z
x,1/2-y,z
loop_
_atom_site_type_symbol
_atom_site_label
_atom_site_fract_x
_atom_site_fract_y
_atom_site_fract_z
Si Si1 0.953039 0.429210 0.883685
Si Si2 0.464150 0.667114 0.614213
Si Si3 0.035879 0.666627 0.752249
Si Si4 0.037982 0.668077 0.372910
Si Si5 0.534498 0.167612 0.998090
Si Si6 0.957333 0.831496 0.230786
Si Si7 0.039122 0.917213 0.493420
Si Si8 0.045497 0.592045 0.876006
O O1 0.750000 0.442942 0.898328
O O2 0.964915 0.385780 0.819120
O O3 0.036689 0.506960 0.880015
O O4 0.024775 0.378872 0.938804
O O5 0.250000 0.664159 0.613977
O O6 0.511877 0.750000 0.607465
O O7 0.522704 0.642613 0.683153
O O8 0.528260 0.623054 0.555055
O O9 0.250000 0.663439 0.751010
O O10 0.989895 0.750000 0.760284
O O11 0.970324 0.620971 0.810684
O O12 0.250000 0.668397 0.374168
O O13 0.978892 0.750000 0.382764
O O14 0.973800 0.617917 0.428902
O O15 0.985282 0.646642 0.302825
O O16 0.750000 0.167627 0.997021
O O17 0.479774 0.250000 0.994424
O O18 0.473431 0.130109 0.062041
O O19 0.750000 0.829560 0.219050
O O20 0.026389 0.750000 0.223784
O O21 0.250000 0.908251 0.492729
O O22 0.000000 0.000000 0.500000
O O23 0.250000 0.613040 0.875037
#
# Coordination Sequence:
#
# PCOD9448290 Si02
#       8
#     8   8   8   8   8   8   8   8
#     4  11  22  35  52  75 107 144 176 208 254 314
#     4   8  14  27  48  72  96 124 163 207 245 287
#     4   8  14  26  48  77 102 126 163 211 258 301
#     4   9  18  34  55  76 100 135 178 219 260 310
#     4   9  18  33  54  77 100 133 179 225 263 301
#     4  10  21  37  57  80 103 129 168 219 269 315
#     4  10  20  32  48  73 104 137 171 209 254 302
#     4  10  19  32  52  78 107 136 170 215 261 304
#
# _framework density 20.958511999999999
#
# number of rings (size 3 to 8) (size 9 to 14) (size 15 to 20)
#    0.000    2.625    0.000    3.000    0.000    5.750 
#    0.000    1.875    0.000    4.125    0.000    1.750 
#    0.000    0.000    0.000    0.000    0.000    0.000 
#
# Total GULP energy -357292.579813 kJ/mol
# GULP energy per Si atom -5582.696560 kJ/mol
# Density = 2.091081 g / cm^3
# Si number density = 20.958512 Si / 1000 Ang^3
#
#
#
# Elastic Constant Matrix: (Units=GPa)
#
#
# Indices 1 2 3 4 5 6 
#
# 1 39.8130 -13.6618 -8.9081 0.0000 0.0000 0.0000
# 2 -13.6618 93.9619 85.2531 0.0000 0.0000 0.0000
# 3 -8.9081 85.2531 167.8639 0.0000 0.0000 0.0000
# 4 0.0000 0.0000 0.0000 -8.3782 0.0000 0.0000
# 5 0.0000 0.0000 0.0000 0.0000 -6.4528 0.0000
# 6 0.0000 0.0000 0.0000 0.0000 0.0000 15.1919
#
#
#
# Elastic Compliance Matrix: (Units=1/GPa)
#
#
# Indices 1 2 3 4 5 6 
#
# 1 0.026531 0.004785 -0.001022 0.000000 0.000000 0.000000
# 2 0.004785 0.020601 -0.010209 0.000000 0.000000 0.000000
# 3 -0.001022 -0.010209 0.011088 0.000000 0.000000 0.000000
# 4 0.000000 0.000000 0.000000 -0.119358 0.000000 0.000000
# 5 0.000000 0.000000 0.000000 0.000000 -0.154971 0.000000
# 6 0.000000 0.000000 0.000000 0.000000 0.000000 0.065825
#
#
# Mechanical properties :
#
#
# Convention : Reuss Voigt Hill
#
# Bulk Modulus (GPa) = 22.06175 47.44502 34.75339
# Shear Modulus (GPa) = -40.88819 16.00257 -12.44281
#
# Velocity S-wave (km/s) = -4.42170 2.76621 -2.43921
# Velocity P-wave (km/s) = 3.93946 5.73492 2.94703
#
# Compressibility (1/GPa) = 0.04532731
#
# Stress axis : x y z
#
# Youngs Moduli (GPa) = 37.69227 48.54200 90.19098
#
# Poissons Ratio (x) = -0.23227 0.09220
# Poissons Ratio (y) = -0.18036 0.92072
# Poissons Ratio (z) = 0.03853 0.49554
#
# Static dielectric constant tensor:
#      x y z
#    x 1.808500 0.000000 0.000000 
#    y 0.000000 1.736300 0.000000 
#    z 0.000000 0.000000 1.751880 
# 
# From -- ./inp_files/29531.got.cif
#   From: 2010.05.17/outbox.cif.g08.bks.cpg/sg59_15_cif.got.tgz:29531.got - 2010.06.03 14:40:33.
