data_PCOD9448879
_publ_section_title
;
Structure prediction by ZEFSAII (Michael W. Deem and Ramdas Pophale) SiO2 
 PCOD9448879
Probable space group: P M M N
;
_chemical_formula_sum "Si O2"
_cell_formula_units_Z 64
_cell_length_a 22.882462
_cell_length_b 15.004912
_cell_length_c 7.845546
_cell_angle_alpha 90.000000
_cell_angle_beta 90.000000
_cell_angle_gamma 90.000000
_cell_volume 2693.762952
_symmetry_space_group_name_H-M "P M M N"
_symmetry_group_IT_number 59
_space_group.IT_coordinate_system_code '2'
_symmetry_cell_setting 'orthorhombic'
loop_
_space_group_symop_operation_xyz
x,y,z
1/2-x,1/2-y,z
1/2+x,-y,-z
-x,1/2+y,-z
-x,-y,-z
1/2+x,1/2+y,-z
1/2-x,y,z
x,1/2-y,z
loop_
_atom_site_type_symbol
_atom_site_label
_atom_site_fract_x
_atom_site_fract_y
_atom_site_fract_z
Si Si1 0.317082 0.905493 0.762242
Si Si2 0.070532 0.006081 0.264241
Si Si3 0.876384 0.648847 0.943712
Si Si4 0.815238 0.352460 0.882902
Si Si5 0.609664 0.346214 0.540274
Si Si6 0.682907 0.887485 0.307295
Si Si7 0.499404 0.350286 0.871682
Si Si8 0.436852 0.348276 0.505345
O O1 0.250000 0.873250 0.767382
O O2 0.340324 0.903098 0.954681
O O3 0.355334 0.849923 0.633374
O O4 0.316455 0.005764 0.695275
O O5 0.124939 0.062950 0.182704
O O6 0.038404 0.086126 0.361934
O O7 0.079828 0.940260 0.425987
O O8 0.040680 0.937536 0.130610
O O9 0.865126 0.750000 0.877600
O O10 0.837800 0.639515 0.115669
O O11 0.944290 0.643753 0.003605
O O12 0.750000 0.386732 0.850312
O O13 0.812544 0.250000 0.940102
O O14 0.848574 0.350454 0.706163
O O15 0.578560 0.250000 0.547354
O O16 0.750000 0.857334 0.340441
O O17 0.631565 0.860526 0.438842
O O18 0.526160 0.250000 0.895809
O O19 0.470499 0.354198 0.683995
O O20 0.443282 0.250000 0.435739
#
# Coordination Sequence:
#
# PCOD9448879 Si02
#       8
#     8   8   8   8   8   8   8   8
#     4  10  19  34  55  81 112 154 206 256 308 368
#     4  12  21  37  58  88 122 159 196 248 309 364
#     4  10  22  39  62  91 121 159 204 253 312 375
#     4   9  18  32  50  73 105 151 201 247 300 359
#     4  11  22  34  53  83 120 158 200 253 309 365
#     4  10  20  38  61  85 115 156 207 255 307 368
#     4   9  20  39  63  89 117 155 201 243 302 376
#     4  10  21  38  60  86 117 155 200 250 304 369
#
# _framework density 23.758586000000001
#
# number of rings (size 3 to 8) (size 9 to 14) (size 15 to 20)
#    0.000    1.875    1.250    4.125    0.000    2.250 
#    0.000    1.250    0.000    1.500    0.000    0.000 
#    0.000    0.000    0.000    0.000    0.000    0.000 
#
# Total GULP energy -356869.724968 kJ/mol
# GULP energy per Si atom -5576.089453 kJ/mol
# Density = 2.370451 g / cm^3
# Si number density = 23.758586 Si / 1000 Ang^3
#
#
#
# Elastic Constant Matrix: (Units=GPa)
#
#
# Indices 1 2 3 4 5 6 
#
# 1 83.0328 27.9332 17.0495 0.0000 0.0000 0.0000
# 2 27.9332 154.9719 14.3097 0.0000 0.0000 0.0000
# 3 17.0495 14.3097 61.3250 0.0000 0.0000 0.0000
# 4 0.0000 0.0000 0.0000 31.7056 0.0000 0.0000
# 5 0.0000 0.0000 0.0000 0.0000 32.5811 0.0000
# 6 0.0000 0.0000 0.0000 0.0000 0.0000 28.3095
#
#
#
# Elastic Compliance Matrix: (Units=1/GPa)
#
#
# Indices 1 2 3 4 5 6 
#
# 1 0.013421 -0.002120 -0.003237 0.000000 0.000000 0.000000
# 2 -0.002120 0.006930 -0.001028 0.000000 0.000000 0.000000
# 3 -0.003237 -0.001028 0.017446 0.000000 0.000000 0.000000
# 4 0.000000 0.000000 0.000000 0.031540 0.000000 0.000000
# 5 0.000000 0.000000 0.000000 0.000000 0.030693 0.000000
# 6 0.000000 0.000000 0.000000 0.000000 0.000000 0.035324
#
#
# Mechanical properties :
#
#
# Convention : Reuss Voigt Hill
#
# Bulk Modulus (GPa) = 39.95455 46.43492 43.19474
# Shear Modulus (GPa) = 31.95587 34.52172 33.23880
#
# Velocity S-wave (km/s) = 3.67144 3.81599 3.74441
# Velocity P-wave (km/s) = 5.90135 6.24520 6.07571
#
# Compressibility (1/GPa) = 0.02502844
#
# Stress axis : x y z
#
# Youngs Moduli (GPa) = 74.50838 144.30351 57.31914
#
# Poissons Ratio (x) = 0.30597 0.18552
# Poissons Ratio (y) = 0.15798 0.05890
# Poissons Ratio (z) = 0.24116 0.14828
#
# Static dielectric constant tensor:
#      x y z
#    x 1.967440 0.000000 0.000000 
#    y 0.000000 1.979740 0.000000 
#    z 0.000000 0.000000 1.891330 
# 
# From -- ./inp_files/12202.got.cif
#   From: 2010.05.17/outbox.cif.g08.bks.cpg/sg59_7_cif.got.tgz:12202.got - 2010.06.03 14:40:33.
