data_PCOD9448126
_publ_section_title
;
Structure prediction by ZEFSAII (Michael W. Deem and Ramdas Pophale) SiO2 
 PCOD9448126
Probable space group: P M M N
;
_chemical_formula_sum "Si O2"
_cell_formula_units_Z 56
_cell_length_a 9.228251
_cell_length_b 18.003561
_cell_length_c 19.429891
_cell_angle_alpha 90.000000
_cell_angle_beta 90.000000
_cell_angle_gamma 90.000000
_cell_volume 3228.108900
_symmetry_space_group_name_H-M "P M M N"
_symmetry_group_IT_number 59
_space_group.IT_coordinate_system_code '2'
_symmetry_cell_setting 'orthorhombic'
loop_
_space_group_symop_operation_xyz
x,y,z
1/2-x,1/2-y,z
1/2+x,-y,-z
-x,1/2+y,-z
-x,-y,-z
1/2+x,1/2+y,-z
1/2-x,y,z
x,1/2-y,z
loop_
_atom_site_type_symbol
_atom_site_label
_atom_site_fract_x
_atom_site_fract_y
_atom_site_fract_z
Si Si1 0.921332 0.664867 0.859136
Si Si2 0.578500 0.336628 0.696803
Si Si3 0.078107 0.585090 0.572963
Si Si4 0.078720 0.407133 0.566673
Si Si5 0.082370 0.448968 0.789898
Si Si6 0.420622 0.887527 0.726388
Si Si7 0.922973 0.470604 0.068105
O O1 0.750000 0.647813 0.860018
O O2 0.941791 0.750000 0.881108
O O3 0.983646 0.655191 0.781906
O O4 0.007384 0.606644 0.906301
O O5 0.750000 0.347038 0.688428
O O6 0.549142 0.250000 0.708834
O O7 0.498550 0.363956 0.627986
O O8 0.520109 0.386942 0.758839
O O9 0.250000 0.596802 0.561982
O O10 0.055754 0.495826 0.577575
O O11 0.038559 0.620260 0.646553
O O12 0.989081 0.612284 0.507338
O O13 0.250000 0.393625 0.567693
O O14 0.250000 0.425435 0.783027
O O15 0.066684 0.525333 0.746560
O O16 0.054100 0.472265 0.868469
O O17 0.250000 0.868138 0.734586
O O18 0.750000 0.462540 0.059006
O O19 0.000000 0.500000 0.000000
#
# Coordination Sequence:
#
# PCOD9448126 Si02
#       7
#     8   8   8   8   8   8   8
#     4  10  21  36  55  83 117 149 183 223 267 319
#     4  11  23  36  51  74 105 142 184 229 276 324
#     4   9  17  31  50  75 104 133 173 225 276 327
#     4  10  19  32  50  73 101 135 179 226 275 327
#     4   9  18  35  56  80 106 135 175 219 262 317
#     4   9  17  32  54  79 107 138 177 223 270 324
#     4  10  21  38  62  89 116 145 181 222 267 321
#
# _framework density 17.347618000000001
#
# number of rings (size 3 to 8) (size 9 to 14) (size 15 to 20)
#    0.000    2.286    1.429    2.571    0.000    6.286 
#    0.000    1.429    0.000    1.714    0.000    0.000 
#    0.000    0.000    0.000    0.000    0.000    0.000 
#
# Total GULP energy -312506.171368 kJ/mol
# GULP energy per Si atom -5580.467346 kJ/mol
# Density = 1.730813 g / cm^3
# Si number density = 17.347618 Si / 1000 Ang^3
#
#
#
# Elastic Constant Matrix: (Units=GPa)
#
#
# Indices 1 2 3 4 5 6 
#
# 1 93.9324 66.8055 72.7039 0.0000 0.0000 0.0000
# 2 66.8055 68.8970 48.8028 0.0000 0.0000 0.0000
# 3 72.7039 48.8028 128.8561 0.0000 0.0000 0.0000
# 4 0.0000 0.0000 0.0000 12.4246 0.0000 0.0000
# 5 0.0000 0.0000 0.0000 0.0000 35.8850 0.0000
# 6 0.0000 0.0000 0.0000 0.0000 0.0000 25.3581
#
#
#
# Elastic Compliance Matrix: (Units=1/GPa)
#
#
# Indices 1 2 3 4 5 6 
#
# 1 0.044799 -0.034896 -0.012060 0.000000 0.000000 0.000000
# 2 -0.034896 0.047019 0.001882 0.000000 0.000000 0.000000
# 3 -0.012060 0.001882 0.013853 0.000000 0.000000 0.000000
# 4 0.000000 0.000000 0.000000 0.080485 0.000000 0.000000
# 5 0.000000 0.000000 0.000000 0.000000 0.027867 0.000000
# 6 0.000000 0.000000 0.000000 0.000000 0.000000 0.039435
#
#
# Mechanical properties :
#
#
# Convention : Reuss Voigt Hill
#
# Bulk Modulus (GPa) = 64.43098 74.25666 69.34382
# Shear Modulus (GPa) = 14.33565 21.62510 17.98037
#
# Velocity S-wave (km/s) = 2.87779 3.53452 3.22293
# Velocity P-wave (km/s) = 6.94723 7.71720 7.34231
#
# Compressibility (1/GPa) = 0.01552048
#
# Stress axis : x y z
#
# Youngs Moduli (GPa) = 22.32186 21.26818 72.18867
#
# Poissons Ratio (x) = 0.74218 0.87061
# Poissons Ratio (y) = 0.77895 -0.13583
# Poissons Ratio (z) = 0.26921 -0.04002
#
# Static dielectric constant tensor:
#      x y z
#    x 1.575330 0.000000 0.000000 
#    y 0.000000 1.577060 0.000000 
#    z 0.000000 0.000000 1.579830 
# 
# From -- ./inp_files/29634.got.cif
#   From: 2010.05.17/outbox.cif.g08.bks.cpg/sg59_15_cif.got.tgz:29634.got - 2010.06.03 14:40:33.
