data_PCOD9448060
_publ_section_title
;
Structure prediction by ZEFSAII (Michael W. Deem and Ramdas Pophale) SiO2 
 PCOD9448060
Probable space group: P M M N
;
_chemical_formula_sum "Si O2"
_cell_formula_units_Z 56
_cell_length_a 8.558348
_cell_length_b 19.594063
_cell_length_c 16.947356
_cell_angle_alpha 90.000000
_cell_angle_beta 90.000000
_cell_angle_gamma 90.000000
_cell_volume 2841.949748
_symmetry_space_group_name_H-M "P M M N"
_symmetry_group_IT_number 59
_space_group.IT_coordinate_system_code '2'
_symmetry_cell_setting 'orthorhombic'
loop_
_space_group_symop_operation_xyz
x,y,z
1/2-x,1/2-y,z
1/2+x,-y,-z
-x,1/2+y,-z
-x,-y,-z
1/2+x,1/2+y,-z
1/2-x,y,z
x,1/2-y,z
loop_
_atom_site_type_symbol
_atom_site_label
_atom_site_fract_x
_atom_site_fract_y
_atom_site_fract_z
Si Si1 0.567930 0.042817 0.426675
Si Si2 0.440149 0.327979 0.683720
Si Si3 0.441014 0.171335 0.146053
Si Si4 0.563264 0.830735 0.494570
Si Si5 0.564048 0.947251 0.744813
Si Si6 0.062031 0.422545 0.999576
Si Si7 0.438555 0.423678 0.825071
O O1 0.750000 0.028840 0.423862
O O2 0.528532 0.121291 0.446532
O O3 0.500508 0.030169 0.339854
O O4 0.500000 0.000000 0.500000
O O5 0.250000 0.327947 0.684379
O O6 0.490820 0.250000 0.695163
O O7 0.483824 0.349575 0.595229
O O8 0.494110 0.375574 0.754116
O O9 0.250000 0.172542 0.144721
O O10 0.493503 0.250000 0.146083
O O11 0.487640 0.126855 0.222760
O O12 0.492396 0.127715 0.069183
O O13 0.750000 0.842716 0.503157
O O14 0.537282 0.750000 0.504588
O O15 0.750000 0.946597 0.739784
O O16 0.510696 0.002444 0.809255
O O17 0.250000 0.426245 0.006303
O O18 0.022818 0.396058 0.911705
O O19 0.000000 0.500000 0.000000
O O20 0.250000 0.429427 0.820263
#
# Coordination Sequence:
#
# PCOD9448060 Si02
#       7
#     8   8   8   8   8   8   8
#     4  12  25  40  59  85 117 150 195 249 299 354
#     4   8  15  29  50  78 109 139 175 223 275 327
#     4   9  19  36  57  83 115 153 198 243 285 337
#     4   9  18  35  58  81 111 153 194 232 284 350
#     4  11  22  37  58  82 111 151 192 237 294 351
#     4  10  19  33  55  82 112 149 190 236 286 337
#     4  10  19  31  54  84 113 145 186 234 284 339
#
# _framework density 19.704782000000002
#
# number of rings (size 3 to 8) (size 9 to 14) (size 15 to 20)
#    0.000    2.143    1.429    3.429    0.000    2.571 
#    0.000    4.286    0.000    4.714    0.000    2.000 
#    0.000    0.000    0.000    0.000    0.000    0.000 
#
# Total GULP energy -312502.902721 kJ/mol
# GULP energy per Si atom -5580.408977 kJ/mol
# Density = 1.965993 g / cm^3
# Si number density = 19.704782 Si / 1000 Ang^3
#
#
#
# Elastic Constant Matrix: (Units=GPa)
#
#
# Indices 1 2 3 4 5 6 
#
# 1 24.2990 11.7613 30.4792 0.0000 0.0000 0.0000
# 2 11.7613 74.4850 36.4021 0.0000 0.0000 0.0000
# 3 30.4792 36.4021 104.2499 0.0000 0.0000 0.0000
# 4 0.0000 0.0000 0.0000 34.9546 0.0000 0.0000
# 5 0.0000 0.0000 0.0000 0.0000 18.6765 0.0000
# 6 0.0000 0.0000 0.0000 0.0000 0.0000 22.6700
#
#
#
# Elastic Compliance Matrix: (Units=1/GPa)
#
#
# Indices 1 2 3 4 5 6 
#
# 1 0.065072 -0.001178 -0.018613 0.000000 0.000000 0.000000
# 2 -0.001178 0.016209 -0.005316 0.000000 0.000000 0.000000
# 3 -0.018613 -0.005316 0.016890 0.000000 0.000000 0.000000
# 4 0.000000 0.000000 0.000000 0.028609 0.000000 0.000000
# 5 0.000000 0.000000 0.000000 0.000000 0.053543 0.000000
# 6 0.000000 0.000000 0.000000 0.000000 0.000000 0.044111
#
#
# Mechanical properties :
#
#
# Convention : Reuss Voigt Hill
#
# Bulk Modulus (GPa) = 20.85194 40.03545 30.44369
# Shear Modulus (GPa) = 17.20373 23.55296 20.37834
#
# Velocity S-wave (km/s) = 2.95799 3.46105 3.21936
# Velocity P-wave (km/s) = 4.71926 6.02773 5.41318
#
# Compressibility (1/GPa) = 0.04795717
#
# Stress axis : x y z
#
# Youngs Moduli (GPa) = 15.36764 61.69277 59.20547
#
# Poissons Ratio (x) = 0.07269 1.10201
# Poissons Ratio (y) = 0.01811 0.31471
# Poissons Ratio (z) = 0.28604 0.32793
#
# Static dielectric constant tensor:
#      x y z
#    x 1.681160 0.000000 0.000000 
#    y 0.000000 1.707560 0.000000 
#    z 0.000000 0.000000 1.711130 
# 
# From -- ./inp_files/20933.got.cif
#   From: 2010.05.17/outbox.cif.g08.bks.cpg/sg59_11_cif.got.tgz:20933.got - 2010.06.03 14:40:33.
