data_PCOD9448116
_publ_section_title
;
Structure prediction by ZEFSAII (Michael W. Deem and Ramdas Pophale) SiO2 
 PCOD9448116
Probable space group: P M M N
;
_chemical_formula_sum "Si O2"
_cell_formula_units_Z 40
_cell_length_a 8.807302
_cell_length_b 20.544497
_cell_length_c 13.190374
_cell_angle_alpha 90.000000
_cell_angle_beta 90.000000
_cell_angle_gamma 90.000000
_cell_volume 2386.687238
_symmetry_space_group_name_H-M "P M M N"
_symmetry_group_IT_number 59
_space_group.IT_coordinate_system_code '2'
_symmetry_cell_setting 'orthorhombic'
loop_
_space_group_symop_operation_xyz
x,y,z
1/2-x,1/2-y,z
1/2+x,-y,-z
-x,1/2+y,-z
-x,-y,-z
1/2+x,1/2+y,-z
1/2-x,y,z
x,1/2-y,z
loop_
_atom_site_type_symbol
_atom_site_label
_atom_site_fract_x
_atom_site_fract_y
_atom_site_fract_z
Si Si1 0.932178 0.898880 0.195007
Si Si2 0.068318 0.071169 0.023430
Si Si3 0.933699 0.067379 0.457971
Si Si4 0.932255 0.051230 0.229106
Si Si5 0.433151 0.676027 0.381697
O O1 0.750000 0.893598 0.204777
O O2 0.009850 0.851882 0.274896
O O3 0.972680 0.974171 0.221417
O O4 0.972569 0.887568 0.076777
O O5 0.250000 0.066664 0.026806
O O6 0.005531 0.088246 0.133972
O O7 0.000000 0.000000 0.000000
O O8 0.750000 0.063170 0.460947
O O9 0.977578 0.075442 0.340299
O O10 0.983195 0.126489 0.529982
O O11 0.000000 0.000000 0.500000
O O12 0.750000 0.055033 0.219207
O O13 0.250000 0.675762 0.381606
O O14 0.484985 0.750000 0.397739
#
# Coordination Sequence:
#
# PCOD9448116 Si02
#       5
#     8   8   8   8   8
#     4   9  17  30  47  69  97 126 161 201 243 293
#     4   9  17  28  44  69  99 126 156 194 240 290
#     4  10  19  32  50  72 100 131 166 209 249 293
#     4   9  17  29  46  71  99 126 161 202 246 291
#     4  10  21  34  49  72 100 131 166 204 251 303
#
# _framework density 16.759632
#
# number of rings (size 3 to 8) (size 9 to 14) (size 15 to 20)
#    0.000    2.600    2.000    1.800    0.000    5.200 
#    0.000    0.000    0.000    1.200    0.000    2.800 
#    0.000    0.000    0.000    0.000    0.000    0.000 
#
# Total GULP energy -222833.459535 kJ/mol
# GULP energy per Si atom -5570.836488 kJ/mol
# Density = 1.672149 g / cm^3
# Si number density = 16.759632 Si / 1000 Ang^3
#
#
#
# Elastic Constant Matrix: (Units=GPa)
#
#
# Indices 1 2 3 4 5 6 
#
# 1 12.1794 20.5352 36.8983 0.0000 0.0000 0.0000
# 2 20.5352 89.0509 71.8213 0.0000 0.0000 0.0000
# 3 36.8983 71.8213 193.7652 0.0000 0.0000 0.0000
# 4 0.0000 0.0000 0.0000 17.1132 0.0000 0.0000
# 5 0.0000 0.0000 0.0000 0.0000 29.4593 0.0000
# 6 0.0000 0.0000 0.0000 0.0000 0.0000 15.5106
#
#
#
# Elastic Compliance Matrix: (Units=1/GPa)
#
#
# Indices 1 2 3 4 5 6 
#
# 1 0.227300 -0.024971 -0.034029 0.000000 0.000000 0.000000
# 2 -0.024971 0.018761 -0.002199 0.000000 0.000000 0.000000
# 3 -0.034029 -0.002199 0.012456 0.000000 0.000000 0.000000
# 4 0.000000 0.000000 0.000000 0.058435 0.000000 0.000000
# 5 0.000000 0.000000 0.000000 0.000000 0.033945 0.000000
# 6 0.000000 0.000000 0.000000 0.000000 0.000000 0.064472
#
#
# Mechanical properties :
#
#
# Convention : Reuss Voigt Hill
#
# Bulk Modulus (GPa) = 7.34643 61.50058 34.42351
# Shear Modulus (GPa) = 8.57429 23.46599 16.02014
#
# Velocity S-wave (km/s) = 2.26432 3.74592 3.09508
# Velocity P-wave (km/s) = 3.35099 7.44879 5.77554
#
# Compressibility (1/GPa) = 0.13612055
#
# Stress axis : x y z
#
# Youngs Moduli (GPa) = 4.39947 53.30117 80.28284
#
# Poissons Ratio (x) = 1.33097 2.73191
# Poissons Ratio (y) = 0.10986 0.17654
# Poissons Ratio (z) = 0.14971 0.11721
#
# Static dielectric constant tensor:
#      x y z
#    x 1.592240 0.000000 0.000000 
#    y 0.000000 1.541080 0.000000 
#    z 0.000000 0.000000 1.605720 
# 
# From -- ./inp_files/14055.got.cif
#   From: 2010.05.17/outbox.cif.g08.bks.cpg/sg59_8_cif.got.tgz:14055.got - 2010.06.03 14:40:33.
