data_PCOD9448343
_publ_section_title
;
Structure prediction by ZEFSAII (Michael W. Deem and Ramdas Pophale) SiO2 
 PCOD9448343
Probable space group: P M M N
;
_chemical_formula_sum "Si O2"
_cell_formula_units_Z 64
_cell_length_a 19.091965
_cell_length_b 17.916151
_cell_length_c 11.283251
_cell_angle_alpha 90.000000
_cell_angle_beta 90.000000
_cell_angle_gamma 90.000000
_cell_volume 3859.487093
_symmetry_space_group_name_H-M "P M M N"
_symmetry_group_IT_number 59
_space_group.IT_coordinate_system_code '2'
_symmetry_cell_setting 'orthorhombic'
loop_
_space_group_symop_operation_xyz
x,y,z
1/2-x,1/2-y,z
1/2+x,-y,-z
-x,1/2+y,-z
-x,-y,-z
1/2+x,1/2+y,-z
1/2-x,y,z
x,1/2-y,z
loop_
_atom_site_type_symbol
_atom_site_label
_atom_site_fract_x
_atom_site_fract_y
_atom_site_fract_z
Si Si1 0.952269 0.161272 0.195831
Si Si2 0.430326 0.336839 0.808109
Si Si3 0.669032 0.061428 0.281626
Si Si4 0.079718 0.444262 0.596275
Si Si5 0.082019 0.663516 0.081238
Si Si6 0.169488 0.528568 0.177538
Si Si7 0.949574 0.951955 0.669699
Si Si8 0.671795 0.943504 0.068788
O O1 0.962580 0.250000 0.212232
O O2 0.883443 0.130514 0.264475
O O3 0.015959 0.111376 0.246827
O O4 0.938907 0.147573 0.055664
O O5 0.413418 0.250000 0.810393
O O6 0.411688 0.374429 0.682992
O O7 0.511937 0.345455 0.840547
O O8 0.386136 0.382503 0.904220
O O9 0.750000 0.082047 0.297406
O O10 0.640909 0.005219 0.382754
O O11 0.662543 0.011472 0.161866
O O12 0.071058 0.422447 0.460203
O O13 0.010498 0.487442 0.643374
O O14 0.104442 0.750000 0.086312
O O15 0.139781 0.607535 0.131262
O O16 0.250000 0.534274 0.218209
O O17 0.116067 0.492815 0.270847
O O18 0.167574 0.475642 0.062168
O O19 0.750000 0.913076 0.089635
#
# Coordination Sequence:
#
# PCOD9448343 Si02
#       8
#     8   8   8   8   8   8   8   8
#     4  10  20  32  52  80 109 141 172 213 269 320
#     4  10  19  32  53  78 105 139 173 218 270 311
#     4   9  17  31  51  75 105 137 174 218 261 310
#     4   9  19  34  53  75 100 140 179 222 265 299
#     4  10  20  33  51  80 112 139 173 214 263 324
#     4  11  21  34  55  77 104 145 178 213 265 315
#     4  10  20  35  53  76 104 136 183 225 258 308
#     4   9  18  31  49  77 105 135 175 214 259 315
#
# _framework density 16.582515000000001
#
# number of rings (size 3 to 8) (size 9 to 14) (size 15 to 20)
#    0.000    2.250    2.500    0.750    0.000    2.750 
#    0.000    1.250    0.000    1.125    0.000    3.500 
#    0.000    0.000    0.000    0.000    0.000    0.000 
#
# Total GULP energy -356779.517506 kJ/mol
# GULP energy per Si atom -5574.679961 kJ/mol
# Density = 1.654477 g / cm^3
# Si number density = 16.582515 Si / 1000 Ang^3
#
#
#
# Elastic Constant Matrix: (Units=GPa)
#
#
# Indices 1 2 3 4 5 6 
#
# 1 94.7810 54.0802 38.4824 0.0000 0.0000 0.0000
# 2 54.0802 88.1026 32.7032 0.0000 0.0000 0.0000
# 3 38.4824 32.7032 49.6870 0.0000 0.0000 0.0000
# 4 0.0000 0.0000 0.0000 14.8053 0.0000 0.0000
# 5 0.0000 0.0000 0.0000 0.0000 12.9172 0.0000
# 6 0.0000 0.0000 0.0000 0.0000 0.0000 15.3428
#
#
#
# Elastic Compliance Matrix: (Units=1/GPa)
#
#
# Indices 1 2 3 4 5 6 
#
# 1 0.019026 -0.008216 -0.009328 0.000000 0.000000 0.000000
# 2 -0.008216 0.018568 -0.005858 0.000000 0.000000 0.000000
# 3 -0.009328 -0.005858 0.031206 0.000000 0.000000 0.000000
# 4 0.000000 0.000000 0.000000 0.067544 0.000000 0.000000
# 5 0.000000 0.000000 0.000000 0.000000 0.077416 0.000000
# 6 0.000000 0.000000 0.000000 0.000000 0.000000 0.065177
#
#
# Mechanical properties :
#
#
# Convention : Reuss Voigt Hill
#
# Bulk Modulus (GPa) = 45.46214 53.67803 49.57009
# Shear Modulus (GPa) = 15.01174 15.76668 15.38921
#
# Velocity S-wave (km/s) = 3.01204 3.08685 3.04968
# Velocity P-wave (km/s) = 6.29061 6.71903 6.50835
#
# Compressibility (1/GPa) = 0.02199632
#
# Stress axis : x y z
#
# Youngs Moduli (GPa) = 52.56000 53.85544 32.04540
#
# Poissons Ratio (x) = 0.44249 0.29891
# Poissons Ratio (y) = 0.43185 0.18772
# Poissons Ratio (z) = 0.49026 0.31547
#
# Static dielectric constant tensor:
#      x y z
#    x 1.561910 0.000000 0.000000 
#    y 0.000000 1.535820 0.000000 
#    z 0.000000 0.000000 1.554710 
# 
# From -- ./inp_files/17966.got.cif
#   From: 2010.05.17/outbox.cif.g08.bks.cpg/sg59_9_cif.got.tgz:17966.got - 2010.06.03 14:40:33.
