data_PCOD9448258
_publ_section_title
;
Structure prediction by ZEFSAII (Michael W. Deem and Ramdas Pophale) SiO2 
 PCOD9448258
Probable space group: P M M N
;
_chemical_formula_sum "Si O2"
_cell_formula_units_Z 64
_cell_length_a 8.434252
_cell_length_b 28.783323
_cell_length_c 14.514775
_cell_angle_alpha 90.000000
_cell_angle_beta 90.000000
_cell_angle_gamma 90.000000
_cell_volume 3523.690959
_symmetry_space_group_name_H-M "P M M N"
_symmetry_group_IT_number 59
_space_group.IT_coordinate_system_code '2'
_symmetry_cell_setting 'orthorhombic'
loop_
_space_group_symop_operation_xyz
x,y,z
1/2-x,1/2-y,z
1/2+x,-y,-z
-x,1/2+y,-z
-x,-y,-z
1/2+x,1/2+y,-z
1/2-x,y,z
x,1/2-y,z
loop_
_atom_site_type_symbol
_atom_site_label
_atom_site_fract_x
_atom_site_fract_y
_atom_site_fract_z
Si Si1 0.431907 0.625997 0.371061
Si Si2 0.063113 0.850889 0.082066
Si Si3 0.437999 0.432986 0.786937
Si Si4 0.571461 0.696915 0.240546
Si Si5 0.941398 0.697362 0.728292
Si Si6 0.559754 0.982904 0.899408
Si Si7 0.441873 0.124267 0.117102
Si Si8 0.558913 0.302672 0.479546
O O1 0.250000 0.612895 0.388344
O O2 0.515579 0.583973 0.316076
O O3 0.444825 0.667371 0.296292
O O4 0.500311 0.653455 0.459839
O O5 0.250000 0.843568 0.088323
O O6 0.016043 0.897009 0.140178
O O7 0.967618 0.810568 0.133980
O O8 0.009898 0.856521 0.977993
O O9 0.250000 0.430467 0.797530
O O10 0.497341 0.482957 0.820006
O O11 0.750000 0.679230 0.259844
O O12 0.563882 0.750000 0.266394
O O13 0.750000 0.695427 0.720892
O O14 0.983010 0.750000 0.759696
O O15 0.992517 0.657238 0.798722
O O16 0.012483 0.691163 0.626648
O O17 0.750000 0.984893 0.901624
O O18 0.510562 0.929888 0.878849
O O19 0.500000 0.000000 0.000000
O O20 0.250000 0.125506 0.113129
O O21 0.750000 0.302642 0.489203
O O22 0.503813 0.250000 0.506908
#
# Coordination Sequence:
#
# PCOD9448258 Si02
#       8
#     8   8   8   8   8   8   8   8
#     4  10  19  32  52  76 104 137 173 214 264 321
#     4  11  21  32  49  71  99 135 175 216 261 316
#     4  11  21  34  51  75 108 139 173 219 266 316
#     4  10  20  32  46  67  99 137 174 213 258 311
#     4   9  19  36  57  80 106 138 176 216 261 316
#     4  11  21  34  55  79 106 141 182 225 268 314
#     4  10  21  36  54  77 106 139 176 220 266 313
#     4   9  18  33  54  80 108 138 173 218 269 317
#
# _framework density 18.162772
#
# number of rings (size 3 to 8) (size 9 to 14) (size 15 to 20)
#    0.000    1.875    1.250    5.250    0.000    4.000 
#    0.000    2.500    0.000    0.750    0.000    0.000 
#    0.000    0.000    0.000    0.000    0.000    0.000 
#
# Total GULP energy -356836.180676 kJ/mol
# GULP energy per Si atom -5575.565323 kJ/mol
# Density = 1.812143 g / cm^3
# Si number density = 18.162772 Si / 1000 Ang^3
#
#
#
# Elastic Constant Matrix: (Units=GPa)
#
#
# Indices 1 2 3 4 5 6 
#
# 1 24.8387 11.9723 7.5903 0.0000 0.0000 0.0000
# 2 11.9723 81.4223 48.5576 0.0000 0.0000 0.0000
# 3 7.5903 48.5576 90.8394 0.0000 0.0000 0.0000
# 4 0.0000 0.0000 0.0000 30.2849 0.0000 0.0000
# 5 0.0000 0.0000 0.0000 0.0000 26.2084 0.0000
# 6 0.0000 0.0000 0.0000 0.0000 0.0000 5.0626
#
#
#
# Elastic Compliance Matrix: (Units=1/GPa)
#
#
# Indices 1 2 3 4 5 6 
#
# 1 0.043337 -0.006184 -0.000315 0.000000 0.000000 0.000000
# 2 -0.006184 0.018911 -0.009592 0.000000 0.000000 0.000000
# 3 -0.000315 -0.009592 0.016162 0.000000 0.000000 0.000000
# 4 0.000000 0.000000 0.000000 0.033020 0.000000 0.000000
# 5 0.000000 0.000000 0.000000 0.000000 0.038156 0.000000
# 6 0.000000 0.000000 0.000000 0.000000 0.000000 0.197526
#
#
# Mechanical properties :
#
#
# Convention : Reuss Voigt Hill
#
# Bulk Modulus (GPa) = 21.63238 37.03786 29.33512
# Shear Modulus (GPa) = 12.66770 20.90987 16.78879
#
# Velocity S-wave (km/s) = 2.64380 3.39669 3.04361
# Velocity P-wave (km/s) = 4.61039 5.98496 5.34207
#
# Compressibility (1/GPa) = 0.04622701
#
# Stress axis : x y z
#
# Youngs Moduli (GPa) = 23.07503 52.87795 61.87243
#
# Poissons Ratio (x) = 0.32700 0.01951
# Poissons Ratio (y) = 0.14270 0.59350
# Poissons Ratio (z) = 0.00728 0.50722
#
# Static dielectric constant tensor:
#      x y z
#    x 1.624730 0.000000 0.000000 
#    y 0.000000 1.651560 0.000000 
#    z 0.000000 0.000000 1.626570 
# 
# From -- ./inp_files/21922.got.cif
#   From: 2010.05.17/outbox.cif.g08.bks.cpg/sg59_11_cif.got.tgz:21922.got - 2010.06.03 14:40:33.
