data_PCOD9448203
_publ_section_title
;
Structure prediction by ZEFSAII (Michael W. Deem and Ramdas Pophale) SiO2 
 PCOD9448203
Probable space group: P M M N
;
_chemical_formula_sum "Si O2"
_cell_formula_units_Z 56
_cell_length_a 21.880661
_cell_length_b 8.728736
_cell_length_c 17.121383
_cell_angle_alpha 90.000000
_cell_angle_beta 90.000000
_cell_angle_gamma 90.000000
_cell_volume 3270.021729
_symmetry_space_group_name_H-M "P M M N"
_symmetry_group_IT_number 59
_space_group.IT_coordinate_system_code '2'
_symmetry_cell_setting 'orthorhombic'
loop_
_space_group_symop_operation_xyz
x,y,z
1/2-x,1/2-y,z
1/2+x,-y,-z
-x,1/2+y,-z
-x,-y,-z
1/2+x,1/2+y,-z
1/2-x,y,z
x,1/2-y,z
loop_
_atom_site_type_symbol
_atom_site_label
_atom_site_fract_x
_atom_site_fract_y
_atom_site_fract_z
Si Si1 0.679560 0.566135 0.139416
Si Si2 0.116795 0.433469 0.699339
Si Si3 0.027249 0.434381 0.121163
Si Si4 0.016021 0.066845 0.300484
Si Si5 0.819437 0.933816 0.460641
Si Si6 0.560410 0.432443 0.543308
Si Si7 0.908601 0.432520 0.020926
O O1 0.750000 0.527214 0.150219
O O2 0.674189 0.750000 0.132707
O O3 0.642605 0.519290 0.216709
O O4 0.651850 0.489697 0.062988
O O5 0.104524 0.250000 0.700306
O O6 0.165358 0.461218 0.630719
O O7 0.054186 0.521321 0.683296
O O8 0.028551 0.250000 0.120194
O O9 0.029835 0.482921 0.211299
O O10 0.964030 0.483718 0.078883
O O11 0.079085 0.498085 0.064034
O O12 0.023113 0.250000 0.305866
O O13 0.055552 0.985989 0.366924
O O14 0.750000 0.984991 0.479273
O O15 0.821930 0.750000 0.472929
O O16 0.876043 0.007931 0.506798
O O17 0.500000 0.500000 0.500000
O O18 0.557406 0.250000 0.537094
O O19 0.910382 0.250000 0.016161
#
# Coordination Sequence:
#
# PCOD9448203 Si02
#       7
#     8   8   8   8   8   8   8
#     4  10  20  33  50  75 110 150 185 217 262 322
#     4  10  19  32  53  80 112 148 184 222 268 327
#     4   9  19  34  52  76 105 136 171 216 270 322
#     4  11  21  35  56  82 113 144 180 228 280 330
#     4  10  21  38  59  83 113 150 190 231 280 338
#     4  12  24  38  57  83 114 149 191 234 282 333
#     4  10  19  32  51  76 104 137 178 219 263 311
#
# _framework density 17.125268999999999
#
# number of rings (size 3 to 8) (size 9 to 14) (size 15 to 20)
#    0.000    1.714    2.857    2.571    0.000    4.000 
#    0.000    0.000    0.000    3.429    0.000    6.000 
#    0.000    0.000    0.000    0.000    0.000    0.000 
#
# Total GULP energy -312553.833848 kJ/mol
# GULP energy per Si atom -5581.318462 kJ/mol
# Density = 1.708629 g / cm^3
# Si number density = 17.125269 Si / 1000 Ang^3
#
#
#
# Elastic Constant Matrix: (Units=GPa)
#
#
# Indices 1 2 3 4 5 6 
#
# 1 87.5524 32.7300 48.3632 0.0000 0.0000 0.0000
# 2 32.7300 35.8983 32.6308 0.0000 0.0000 0.0000
# 3 48.3632 32.6308 105.8607 0.0000 0.0000 0.0000
# 4 0.0000 0.0000 0.0000 23.5696 0.0000 0.0000
# 5 0.0000 0.0000 0.0000 0.0000 25.1118 0.0000
# 6 0.0000 0.0000 0.0000 0.0000 0.0000 23.5702
#
#
#
# Elastic Compliance Matrix: (Units=1/GPa)
#
#
# Indices 1 2 3 4 5 6 
#
# 1 0.018809 -0.012973 -0.004594 0.000000 0.000000 0.000000
# 2 -0.012973 0.047647 -0.008760 0.000000 0.000000 0.000000
# 3 -0.004594 -0.008760 0.014246 0.000000 0.000000 0.000000
# 4 0.000000 0.000000 0.000000 0.042428 0.000000 0.000000
# 5 0.000000 0.000000 0.000000 0.000000 0.039822 0.000000
# 6 0.000000 0.000000 0.000000 0.000000 0.000000 0.042427
#
#
# Mechanical properties :
#
#
# Convention : Reuss Voigt Hill
#
# Bulk Modulus (GPa) = 35.65421 50.75106 43.20263
# Shear Modulus (GPa) = 18.69981 22.15615 20.42798
#
# Velocity S-wave (km/s) = 3.30804 3.60080 3.45752
# Velocity P-wave (km/s) = 5.95447 6.85472 6.42039
#
# Compressibility (1/GPa) = 0.02804718
#
# Stress axis : x y z
#
# Youngs Moduli (GPa) = 53.16487 20.98752 70.19744
#
# Poissons Ratio (x) = 0.27228 0.32251
# Poissons Ratio (y) = 0.68972 0.61493
# Poissons Ratio (z) = 0.24426 0.18385
#
# Static dielectric constant tensor:
#      x y z
#    x 1.568040 0.000000 0.000000 
#    y 0.000000 1.575130 0.000000 
#    z 0.000000 0.000000 1.587910 
# 
# From -- ./inp_files/24204.got.cif
#   From: 2010.05.17/outbox.cif.g08.bks.cpg/sg59_13_cif.got.tgz:24204.got - 2010.06.03 14:40:33.
