data_PCOD9448061
_publ_section_title
;
Structure prediction by ZEFSAII (Michael W. Deem and Ramdas Pophale) SiO2 
 PCOD9448061
Probable space group: P M M N
;
_chemical_formula_sum "Si O2"
_cell_formula_units_Z 64
_cell_length_a 19.541429
_cell_length_b 14.958441
_cell_length_c 10.814372
_cell_angle_alpha 90.000000
_cell_angle_beta 90.000000
_cell_angle_gamma 90.000000
_cell_volume 3161.141647
_symmetry_space_group_name_H-M "P M M N"
_symmetry_group_IT_number 59
_space_group.IT_coordinate_system_code '2'
_symmetry_cell_setting 'orthorhombic'
loop_
_space_group_symop_operation_xyz
x,y,z
1/2-x,1/2-y,z
1/2+x,-y,-z
-x,1/2+y,-z
-x,-y,-z
1/2+x,1/2+y,-z
1/2-x,y,z
x,1/2-y,z
loop_
_atom_site_type_symbol
_atom_site_label
_atom_site_fract_x
_atom_site_fract_y
_atom_site_fract_z
Si Si1 0.672550 0.000568 0.932773
Si Si2 0.670777 0.885798 0.581269
Si Si3 0.916123 0.850191 0.825942
Si Si4 0.390080 0.146789 0.689227
Si Si5 0.551155 0.142267 0.315910
Si Si6 0.472561 0.853899 0.412916
Si Si7 0.673806 0.088158 0.668187
Si Si8 0.828347 0.470996 0.210400
O O1 0.750000 0.962025 0.929263
O O2 0.618002 0.922583 0.913664
O O3 0.668201 0.064441 0.813690
O O4 0.664371 0.047178 0.064248
O O5 0.750000 0.857602 0.588810
O O6 0.627609 0.851578 0.698094
O O7 0.638642 0.857495 0.451360
O O8 0.670334 0.993375 0.596257
O O9 0.914703 0.750000 0.876943
O O10 0.992975 0.874055 0.785896
O O11 0.385877 0.250000 0.732668
O O12 0.468783 0.111857 0.678834
O O13 0.347818 0.074523 0.766328
O O14 0.561330 0.250000 0.323359
O O15 0.523763 0.108537 0.448607
O O16 0.620393 0.091714 0.284578
O O17 0.491385 0.750000 0.424085
O O18 0.394572 0.861002 0.369480
O O19 0.750000 0.126965 0.645615
O O20 0.750000 0.456810 0.248057
#
# Coordination Sequence:
#
# PCOD9448061 Si02
#       8
#     8   8   8   8   8   8   8   8
#     4   9  21  40  58  81 114 151 195 242 285 338
#     4  10  19  31  54  85 114 148 189 236 291 347
#     4  10  19  34  57  86 116 149 192 240 290 343
#     4  11  23  37  55  86 123 156 192 235 287 355
#     4  10  22  40  62  89 119 151 193 243 293 352
#     4  10  21  37  57  85 121 154 185 233 298 354
#     4   9  19  36  58  84 111 145 195 242 286 346
#     4  11  25  42  61  84 115 161 203 238 293 348
#
# _framework density 20.245849
#
# number of rings (size 3 to 8) (size 9 to 14) (size 15 to 20)
#    0.000    2.000    1.250    2.625    3.500    6.500 
#    0.000    3.125    0.000    2.250    0.000    0.000 
#    0.000    0.000    0.000    0.000    0.000    0.000 
#
# Total GULP energy -357343.038830 kJ/mol
# GULP energy per Si atom -5583.484982 kJ/mol
# Density = 2.019977 g / cm^3
# Si number density = 20.245849 Si / 1000 Ang^3
#
#
#
# Elastic Constant Matrix: (Units=GPa)
#
#
# Indices 1 2 3 4 5 6 
#
# 1 107.5040 13.5519 -1.4569 0.0000 0.0000 0.0000
# 2 13.5519 33.2496 -0.3934 0.0000 0.0000 0.0000
# 3 -1.4569 -0.3934 19.6686 0.0000 0.0000 0.0000
# 4 0.0000 0.0000 0.0000 5.0989 0.0000 0.0000
# 5 0.0000 0.0000 0.0000 0.0000 25.4165 0.0000
# 6 0.0000 0.0000 0.0000 0.0000 0.0000**********
#
#
#
# Elastic Compliance Matrix: (Units=1/GPa)
#
#
# Indices 1 2 3 4 5 6 
#
# 1 0.009814 -0.003992 0.000647 0.000000 0.000000 0.000000
# 2 -0.003992 0.031707 0.000339 0.000000 0.000000 0.000000
# 3 0.000647 0.000339 0.050897 0.000000 0.000000 0.000000
# 4 0.000000 0.000000 0.000000 0.196122 0.000000 0.000000
# 5 0.000000 0.000000 0.000000 0.000000 0.039345 0.000000
# 6 0.000000 0.000000 0.000000 0.000000 0.000000 -0.000067
#
#
# Mechanical properties :
#
#
# Convention : Reuss Voigt Hill
#
# Bulk Modulus (GPa) = 11.57346 20.42503 15.99924
# Shear Modulus (GPa) = 13.78805 -2974.20311 -1480.20753
#
# Velocity S-wave (km/s) = 2.61249 -38.36968 -27.06850
# Velocity P-wave (km/s) = 3.85084 44.19125 31.12906
#
# Compressibility (1/GPa) = 0.08640459
#
# Stress axis : x y z
#
# Youngs Moduli (GPa) = 101.89496 31.53901 19.64741
#
# Poissons Ratio (x) = 0.12591 -0.01271
# Poissons Ratio (y) = 0.40680 -0.00665
# Poissons Ratio (z) = -0.06594 -0.01068
#
# Static dielectric constant tensor:
#      x y z
#    x 1.730240 0.000000 0.000000 
#    y 0.000000 1.723940 0.000000 
#    z 0.000000 0.000000 1.707070 
# 
# From -- ./inp_files/17218.got.cif
#   From: 2010.05.17/outbox.cif.g08.bks.cpg/sg59_9_cif.got.tgz:17218.got - 2010.06.03 14:40:33.
