data_PCOD9448613
_publ_section_title
;
Structure prediction by ZEFSAII (Michael W. Deem and Ramdas Pophale) SiO2 
 PCOD9448613
Probable space group: P M M N
;
_chemical_formula_sum "Si O2"
_cell_formula_units_Z 64
_cell_length_a 8.518894
_cell_length_b 18.530927
_cell_length_c 22.263414
_cell_angle_alpha 90.000000
_cell_angle_beta 90.000000
_cell_angle_gamma 90.000000
_cell_volume 3514.569387
_symmetry_space_group_name_H-M "P M M N"
_symmetry_group_IT_number 59
_space_group.IT_coordinate_system_code '2'
_symmetry_cell_setting 'orthorhombic'
loop_
_space_group_symop_operation_xyz
x,y,z
1/2-x,1/2-y,z
1/2+x,-y,-z
-x,1/2+y,-z
-x,-y,-z
1/2+x,1/2+y,-z
1/2-x,y,z
x,1/2-y,z
loop_
_atom_site_type_symbol
_atom_site_label
_atom_site_fract_x
_atom_site_fract_y
_atom_site_fract_z
Si Si1 0.562173 0.915961 0.376670
Si Si2 0.438552 0.977323 0.064718
Si Si3 0.439777 0.166613 0.267051
Si Si4 0.436778 0.953532 0.815946
Si Si5 0.941016 0.170096 0.874527
Si Si6 0.062020 0.904112 0.247668
Si Si7 0.560017 0.921092 0.613782
Si Si8 0.441647 0.332946 0.503991
O O1 0.750000 0.915813 0.376347
O O2 0.502823 0.886354 0.312981
O O3 0.507397 0.869485 0.433764
O O4 0.504014 0.998106 0.382971
O O5 0.250000 0.978533 0.065254
O O6 0.491241 0.896259 0.083472
O O7 0.499445 0.029070 0.117773
O O8 0.500000 0.000000 0.000000
O O9 0.250000 0.164591 0.264653
O O10 0.488771 0.250000 0.267941
O O11 0.506335 0.121770 0.211330
O O12 0.488082 0.125335 0.328049
O O13 0.250000 0.957315 0.816002
O O14 0.503314 0.016988 0.773033
O O15 0.750000 0.170770 0.876035
O O16 0.996709 0.250000 0.890893
O O17 0.985673 0.149355 0.806244
O O18 0.250000 0.906096 0.250063
O O19 0.750000 0.924684 0.613931
O O20 0.509140 0.880434 0.553140
O O21 0.250000 0.332613 0.503700
O O22 0.492898 0.250000 0.498972
#
# Coordination Sequence:
#
# PCOD9448613 Si02
#       8
#     8   8   8   8   8   8   8   8
#     4  11  21  32  51  78 107 139 176 225 277 329
#     4  10  20  36  60  86 115 152 191 229 270 323
#     4  10  20  34  55  82 109 140 181 229 281 334
#     4  11  21  35  56  81 112 145 180 223 271 326
#     4   8  16  32  55  82 109 139 179 228 275 316
#     4  10  19  33  54  78 106 141 180 222 271 329
#     4  10  19  34  57  77 100 139 184 226 273 334
#     4   9  19  35  52  73 103 140 182 226 276 335
#
# _framework density 18.209911000000002
#
# number of rings (size 3 to 8) (size 9 to 14) (size 15 to 20)
#    0.000    2.125    1.250    3.750    0.000    2.250 
#    0.000    1.250    0.000   19.125    0.000    0.000 
#    0.000    0.000    0.000    0.000    0.000    0.000 
#
# Total GULP energy -357276.752977 kJ/mol
# GULP energy per Si atom -5582.449265 kJ/mol
# Density = 1.816846 g / cm^3
# Si number density = 18.209911 Si / 1000 Ang^3
#
#
#
# Elastic Constant Matrix: (Units=GPa)
#
#
# Indices 1 2 3 4 5 6 
#
# 1 30.2477 18.2260 24.8153 0.0000 0.0000 0.0000
# 2 18.2260 91.0586 58.7719 0.0000 0.0000 0.0000
# 3 24.8153 58.7719 152.7573 0.0000 0.0000 0.0000
# 4 0.0000 0.0000 0.0000 17.6228 0.0000 0.0000
# 5 0.0000 0.0000 0.0000 0.0000 26.3558 0.0000
# 6 0.0000 0.0000 0.0000 0.0000 0.0000 11.8644
#
#
#
# Elastic Compliance Matrix: (Units=1/GPa)
#
#
# Indices 1 2 3 4 5 6 
#
# 1 0.039815 -0.005048 -0.004526 0.000000 0.000000 0.000000
# 2 -0.005048 0.015250 -0.005047 0.000000 0.000000 0.000000
# 3 -0.004526 -0.005047 0.009223 0.000000 0.000000 0.000000
# 4 0.000000 0.000000 0.000000 0.056745 0.000000 0.000000
# 5 0.000000 0.000000 0.000000 0.000000 0.037942 0.000000
# 6 0.000000 0.000000 0.000000 0.000000 0.000000 0.084286
#
#
# Mechanical properties :
#
#
# Convention : Reuss Voigt Hill
#
# Bulk Modulus (GPa) = 28.53373 53.07665 40.80519
# Shear Modulus (GPa) = 17.59415 22.65197 20.12306
#
# Velocity S-wave (km/s) = 3.11172 3.53077 3.32785
# Velocity P-wave (km/s) = 5.34919 6.76995 6.10107
#
# Compressibility (1/GPa) = 0.03504624
#
# Stress axis : x y z
#
# Youngs Moduli (GPa) = 25.11610 65.57379 108.42011
#
# Poissons Ratio (x) = 0.33103 0.49067
# Poissons Ratio (y) = 0.12679 0.54722
# Poissons Ratio (z) = 0.11367 0.33096
#
# Static dielectric constant tensor:
#      x y z
#    x 1.620440 0.000000 0.000000 
#    y 0.000000 1.616630 0.000000 
#    z 0.000000 0.000000 1.611400 
# 
# From -- ./inp_files/29488.got.cif
#   From: 2010.05.17/outbox.cif.g08.bks.cpg/sg59_15_cif.got.tgz:29488.got - 2010.06.03 14:40:33.
