data_PCOD9448443
_publ_section_title
;
Structure prediction by ZEFSAII (Michael W. Deem and Ramdas Pophale) SiO2 
 PCOD9448443
Probable space group: P M M N
;
_chemical_formula_sum "Si O2"
_cell_formula_units_Z 48
_cell_length_a 17.306727
_cell_length_b 13.777788
_cell_length_c 10.342088
_cell_angle_alpha 90.000000
_cell_angle_beta 90.000000
_cell_angle_gamma 90.000000
_cell_volume 2466.054497
_symmetry_space_group_name_H-M "P M M N"
_symmetry_group_IT_number 59
_space_group.IT_coordinate_system_code '2'
_symmetry_cell_setting 'orthorhombic'
loop_
_space_group_symop_operation_xyz
x,y,z
1/2-x,1/2-y,z
1/2+x,-y,-z
-x,1/2+y,-z
-x,-y,-z
1/2+x,1/2+y,-z
1/2-x,y,z
x,1/2-y,z
loop_
_atom_site_type_symbol
_atom_site_label
_atom_site_fract_x
_atom_site_fract_y
_atom_site_fract_z
Si Si1 0.081136 0.862981 0.207404
Si Si2 0.081502 0.447166 0.866310
Si Si3 0.159983 0.638061 0.937898
Si Si4 0.659778 0.864389 0.880823
Si Si5 0.658190 0.508374 0.624178
Si Si6 0.343172 0.139597 0.613222
O O1 0.060482 0.750000 0.222472
O O2 0.007278 0.923405 0.159936
O O3 0.114401 0.910708 0.336654
O O4 0.143902 0.869834 0.091867
O O5 0.105485 0.559882 0.869462
O O6 0.127910 0.393869 0.752428
O O7 0.107621 0.403519 0.003483
O O8 0.250000 0.616451 0.912048
O O9 0.144101 0.750000 0.902009
O O10 0.750000 0.879680 0.917442
O O11 0.647730 0.750000 0.862591
O O12 0.646972 0.920718 0.747312
O O13 0.750000 0.490067 0.612002
O O14 0.630649 0.564128 0.496546
O O15 0.250000 0.139508 0.611237
O O16 0.368671 0.250000 0.585910
#
# Coordination Sequence:
#
# PCOD9448443 Si02
#       6
#     8   8   8   8   8   8
#     4  11  23  38  59  87 121 157 197 245 299 352
#     4  12  22  37  58  89 120 153 191 241 299 357
#     4  10  21  38  60  86 117 155 198 244 295 349
#     4  10  19  32  55  85 114 147 193 245 289 341
#     4  10  21  38  58  82 113 156 206 247 288 344
#     4  10  21  38  60  86 119 157 193 239 300 356
#
# _framework density 19.464289999999998
#
# number of rings (size 3 to 8) (size 9 to 14) (size 15 to 20)
#    0.000    1.500    1.667    4.500    0.000    5.000 
#    0.000    1.667    0.000    1.000    0.000    0.000 
#    0.000    0.000    0.000    0.000    0.000    0.000 
#
# Total GULP energy -268270.698749 kJ/mol
# GULP energy per Si atom -5588.972891 kJ/mol
# Density = 1.941999 g / cm^3
# Si number density = 19.464290 Si / 1000 Ang^3
#
#
#
# Elastic Constant Matrix: (Units=GPa)
#
#
# Indices 1 2 3 4 5 6 
#
# 1 37.3704 39.8451 4.7486 0.0000 0.0000 0.0000
# 2 39.8451 116.9165 12.0234 0.0000 0.0000 0.0000
# 3 4.7486 12.0234 42.3042 0.0000 0.0000 0.0000
# 4 0.0000 0.0000 0.0000 29.0153 0.0000 0.0000
# 5 0.0000 0.0000 0.0000 0.0000 -42.8796 0.0000
# 6 0.0000 0.0000 0.0000 0.0000 0.0000 24.4739
#
#
#
# Elastic Compliance Matrix: (Units=1/GPa)
#
#
# Indices 1 2 3 4 5 6 
#
# 1 0.042051 -0.014262 -0.000667 0.000000 0.000000 0.000000
# 2 -0.014262 0.013648 -0.002278 0.000000 0.000000 0.000000
# 3 -0.000667 -0.002278 0.024361 0.000000 0.000000 0.000000
# 4 0.000000 0.000000 0.000000 0.034465 0.000000 0.000000
# 5 0.000000 0.000000 0.000000 0.000000 -0.023321 0.000000
# 6 0.000000 0.000000 0.000000 0.000000 0.000000 0.040860
#
#
# Mechanical properties :
#
#
# Convention : Reuss Voigt Hill
#
# Bulk Modulus (GPa) = 21.90803 34.42502 28.16653
# Shear Modulus (GPa) = 27.51919 11.45351 19.48635
#
# Velocity S-wave (km/s) = 3.76417 2.42840 3.16750
# Velocity P-wave (km/s) = 5.49290 5.05841 5.28012
#
# Compressibility (1/GPa) = 0.04564536
#
# Stress axis : x y z
#
# Youngs Moduli (GPa) = 23.78085 73.27104 41.04994
#
# Poissons Ratio (x) = 1.04501 0.02737
# Poissons Ratio (y) = 0.33917 0.09351
# Poissons Ratio (z) = 0.01585 0.16691
#
# Static dielectric constant tensor:
#      x y z
#    x 1.688950 0.000000 0.000000 
#    y 0.000000 1.700680 0.000000 
#    z 0.000000 0.000000 1.645930 
# 
# From -- ./inp_files/10241.got.cif
#   From: 2010.05.17/outbox.cif.g08.bks.cpg/sg59_6_cif.got.tgz:10241.got - 2010.06.03 14:40:33.
