data_PCOD9448867
_publ_section_title
;
Structure prediction by ZEFSAII (Michael W. Deem and Ramdas Pophale) SiO2 
 PCOD9448867
Probable space group: P M M N
;
_chemical_formula_sum "Si O2"
_cell_formula_units_Z 64
_cell_length_a 28.970465
_cell_length_b 9.235755
_cell_length_c 12.964808
_cell_angle_alpha 90.000000
_cell_angle_beta 90.000000
_cell_angle_gamma 90.000000
_cell_volume 3468.917404
_symmetry_space_group_name_H-M "P M M N"
_symmetry_group_IT_number 59
_space_group.IT_coordinate_system_code '2'
_symmetry_cell_setting 'orthorhombic'
loop_
_space_group_symop_operation_xyz
x,y,z
1/2-x,1/2-y,z
1/2+x,-y,-z
-x,1/2+y,-z
-x,-y,-z
1/2+x,1/2+y,-z
1/2-x,y,z
x,1/2-y,z
loop_
_atom_site_type_symbol
_atom_site_label
_atom_site_fract_x
_atom_site_fract_y
_atom_site_fract_z
Si Si1 0.067457 0.587250 0.250082
Si Si2 0.647570 0.575859 0.012606
Si Si3 0.956912 0.922373 0.946982
Si Si4 0.825245 0.413620 0.813829
Si Si5 0.303539 0.073952 0.773753
Si Si6 0.548875 0.422739 0.510690
Si Si7 0.801226 0.916920 0.613816
Si Si8 0.365325 0.074879 0.577015
O O1 0.048213 0.750000 0.233812
O O2 0.044775 0.475058 0.171612
O O3 0.120986 0.590766 0.219062
O O4 0.063669 0.552253 0.370273
O O5 0.650542 0.750000 0.003762
O O6 0.669919 0.531667 0.121372
O O7 0.593068 0.538253 0.998064
O O8 0.675623 0.503520 0.919104
O O9 0.961652 0.750000 0.953485
O O10 0.000000 0.000000 0.000000
O O11 0.808859 0.250000 0.828670
O O12 0.802065 0.490419 0.716984
O O13 0.250000 0.024602 0.770200
O O14 0.302106 0.250000 0.772711
O O15 0.334259 0.031586 0.674962
O O16 0.500000 0.500000 0.500000
O O17 0.546166 0.250000 0.494223
O O18 0.586028 0.495058 0.434454
O O19 0.750000 0.921578 0.567221
O O20 0.811401 0.750000 0.641916
O O21 0.837098 0.962320 0.526821
O O22 0.371498 0.250000 0.580004
#
# Coordination Sequence:
#
# PCOD9448867 Si02
#       8
#     8   8   8   8   8   8   8   8
#     4   9  19  36  55  74 105 145 184 231 285 341
#     4   9  19  35  55  81 112 148 190 237 288 347
#     4  10  20  33  53  81 113 150 194 240 292 349
#     4  10  19  34  55  79 108 144 183 229 286 340
#     4   9  18  35  60  86 114 152 196 242 294 352
#     4  11  23  39  58  84 115 151 194 238 292 350
#     4  10  20  33  53  82 113 145 185 231 278 335
#     4  10  20  36  59  85 114 149 192 239 287 342
#
# _framework density 18.449560999999999
#
# number of rings (size 3 to 8) (size 9 to 14) (size 15 to 20)
#    0.000    2.250    1.250    1.500    0.000    5.250 
#    0.000    4.375    0.000    1.875    0.000    0.000 
#    0.000    0.000    0.000    0.000    0.000    0.000 
#
# Total GULP energy -356954.259651 kJ/mol
# GULP energy per Si atom -5577.410307 kJ/mol
# Density = 1.840757 g / cm^3
# Si number density = 18.449561 Si / 1000 Ang^3
#
#
#
# Elastic Constant Matrix: (Units=GPa)
#
#
# Indices 1 2 3 4 5 6 
#
# 1 98.3321 42.4680 63.6981 0.0000 0.0000 0.0000
# 2 42.4680 42.0673 47.9802 0.0000 0.0000 0.0000
# 3 63.6981 47.9802 124.7161 0.0000 0.0000 0.0000
# 4 0.0000 0.0000 0.0000 20.4802 0.0000 0.0000
# 5 0.0000 0.0000 0.0000 0.0000 26.1716 0.0000
# 6 0.0000 0.0000 0.0000 0.0000 0.0000 22.2535
#
#
#
# Elastic Compliance Matrix: (Units=1/GPa)
#
#
# Indices 1 2 3 4 5 6 
#
# 1 0.019182 -0.014594 -0.004182 0.000000 0.000000 0.000000
# 2 -0.014594 0.053462 -0.013113 0.000000 0.000000 0.000000
# 3 -0.004182 -0.013113 0.015199 0.000000 0.000000 0.000000
# 4 0.000000 0.000000 0.000000 0.048828 0.000000 0.000000
# 5 0.000000 0.000000 0.000000 0.000000 0.038209 0.000000
# 6 0.000000 0.000000 0.000000 0.000000 0.000000 0.044937
#
#
# Mechanical properties :
#
#
# Convention : Reuss Voigt Hill
#
# Bulk Modulus (GPa) = 41.55882 63.71201 52.63541
# Shear Modulus (GPa) = 17.14571 21.17901 19.16236
#
# Velocity S-wave (km/s) = 3.05180 3.39180 3.22628
# Velocity P-wave (km/s) = 5.91545 7.06733 6.51689
#
# Compressibility (1/GPa) = 0.02406228
#
# Stress axis : x y z
#
# Youngs Moduli (GPa) = 52.13217 18.70500 65.79244
#
# Poissons Ratio (x) = 0.27299 0.27517
# Poissons Ratio (y) = 0.76084 0.86277
# Poissons Ratio (z) = 0.21804 0.24529
#
# Static dielectric constant tensor:
#      x y z
#    x 1.652100 0.000000 0.000000 
#    y 0.000000 1.630140 0.000000 
#    z 0.000000 0.000000 1.617010 
# 
# From -- ./inp_files/19379.got.cif
#   From: 2010.05.17/outbox.cif.g08.bks.cpg/sg59_10_cif.got.tgz:19379.got - 2010.06.03 14:40:33.
