data_PCOD9448005
_publ_section_title
;
Structure prediction by ZEFSAII (Michael W. Deem and Ramdas Pophale) SiO2 
 PCOD9448005
Probable space group: P M M N
;
_chemical_formula_sum "Si O2"
_cell_formula_units_Z 40
_cell_length_a 8.815241
_cell_length_b 19.056804
_cell_length_c 13.754419
_cell_angle_alpha 90.000000
_cell_angle_beta 90.000000
_cell_angle_gamma 90.000000
_cell_volume 2310.609249
_symmetry_space_group_name_H-M "P M M N"
_symmetry_group_IT_number 59
_space_group.IT_coordinate_system_code '2'
_symmetry_cell_setting 'orthorhombic'
loop_
_space_group_symop_operation_xyz
x,y,z
1/2-x,1/2-y,z
1/2+x,-y,-z
-x,1/2+y,-z
-x,-y,-z
1/2+x,1/2+y,-z
1/2-x,y,z
x,1/2-y,z
loop_
_atom_site_type_symbol
_atom_site_label
_atom_site_fract_x
_atom_site_fract_y
_atom_site_fract_z
Si Si1 0.066946 0.602444 0.555165
Si Si2 0.067731 0.750000 0.870688
Si Si3 0.430944 0.469535 0.852425
Si Si4 0.565643 0.250000 0.355619
Si Si5 0.569025 0.036072 0.648538
Si Si6 0.931379 0.606132 0.946928
O O1 0.250000 0.597210 0.566180
O O2 0.016674 0.678646 0.591510
O O3 0.031199 0.586533 0.442412
O O4 0.992043 0.540555 0.617664
O O5 0.250000 0.750000 0.874706
O O6 0.020613 0.750000 0.757182
O O7 0.004203 0.680096 0.920433
O O8 0.250000 0.477559 0.847523
O O9 0.494282 0.443333 0.750102
O O10 0.504049 0.544840 0.877807
O O11 0.467373 0.418792 0.943103
O O12 0.750000 0.250000 0.358009
O O13 0.750000 0.033867 0.658833
O O14 0.750000 0.609442 0.936829
#
# Coordination Sequence:
#
# PCOD9448005 Si02
#       6
#     8   4   8   4   8   8
#     4   9  18  33  52  74 102 134 170 210 253 305
#     4  11  21  33  54  81 108 138 169 207 262 319
#     4  10  20  35  55  76 102 137 174 216 264 310
#     4   9  18  33  52  73  98 130 165 203 250 301
#     4  10  19  31  51  77 103 133 170 212 256 305
#     4  10  21  36  54  77 105 136 174 217 259 310
#
# _framework density 17.311451999999999
#
# number of rings (size 3 to 8) (size 9 to 14) (size 15 to 20)
#    0.000    2.200    0.000    3.300    0.000    4.800 
#    0.000    2.500    0.000    1.200    0.000    0.000 
#    0.000    0.000    0.000    0.000    0.000    0.000 
#
# Total GULP energy -223299.951502 kJ/mol
# GULP energy per Si atom -5582.498788 kJ/mol
# Density = 1.727205 g / cm^3
# Si number density = 17.311452 Si / 1000 Ang^3
#
#
#
# Elastic Constant Matrix: (Units=GPa)
#
#
# Indices 1 2 3 4 5 6 
#
# 1 45.1237 42.5931 48.1491 0.0000 0.0000 0.0000
# 2 42.5931 140.9483 64.9429 0.0000 0.0000 0.0000
# 3 48.1491 64.9429 123.4725 0.0000 0.0000 0.0000
# 4 0.0000 0.0000 0.0000 12.0159 0.0000 0.0000
# 5 0.0000 0.0000 0.0000 0.0000 31.6619 0.0000
# 6 0.0000 0.0000 0.0000 0.0000 0.0000 27.5902
#
#
#
# Elastic Compliance Matrix: (Units=1/GPa)
#
#
# Indices 1 2 3 4 5 6 
#
# 1 0.042453 -0.006865 -0.012944 0.000000 0.000000 0.000000
# 2 -0.006865 0.010474 -0.002832 0.000000 0.000000 0.000000
# 3 -0.012944 -0.002832 0.014636 0.000000 0.000000 0.000000
# 4 0.000000 0.000000 0.000000 0.083223 0.000000 0.000000
# 5 0.000000 0.000000 0.000000 0.000000 0.031584 0.000000
# 6 0.000000 0.000000 0.000000 0.000000 0.000000 0.036245
#
#
# Mechanical properties :
#
#
# Convention : Reuss Voigt Hill
#
# Bulk Modulus (GPa) = 44.88064 68.99053 56.93559
# Shear Modulus (GPa) = 18.42808 24.51089 21.46948
#
# Velocity S-wave (km/s) = 3.26621 3.76690 3.52545
# Velocity P-wave (km/s) = 6.34081 7.67192 7.03791
#
# Compressibility (1/GPa) = 0.02228132
#
# Stress axis : x y z
#
# Youngs Moduli (GPa) = 23.55533 95.47285 68.32306
#
# Poissons Ratio (x) = 0.65540 0.88440
# Poissons Ratio (y) = 0.16170 0.19350
# Poissons Ratio (z) = 0.30491 0.27039
#
# Static dielectric constant tensor:
#      x y z
#    x 1.578420 0.000000 0.000000 
#    y 0.000000 1.554020 0.000000 
#    z 0.000000 0.000000 1.589320 
# 
# From -- ./inp_files/14110.got.cif
#   From: 2010.05.17/outbox.cif.g08.bks.cpg/sg59_8_cif.got.tgz:14110.got - 2010.06.03 14:40:33.
