data_PCOD9448600
_publ_section_title
;
Structure prediction by ZEFSAII (Michael W. Deem and Ramdas Pophale) SiO2 
 PCOD9448600
Probable space group: P M M N
;
_chemical_formula_sum "Si O2"
_cell_formula_units_Z 56
_cell_length_a 9.128351
_cell_length_b 16.228962
_cell_length_c 21.355369
_cell_angle_alpha 90.000000
_cell_angle_beta 90.000000
_cell_angle_gamma 90.000000
_cell_volume 3163.662556
_symmetry_space_group_name_H-M "P M M N"
_symmetry_group_IT_number 59
_space_group.IT_coordinate_system_code '2'
_symmetry_cell_setting 'orthorhombic'
loop_
_space_group_symop_operation_xyz
x,y,z
1/2-x,1/2-y,z
1/2+x,-y,-z
-x,1/2+y,-z
-x,-y,-z
1/2+x,1/2+y,-z
1/2-x,y,z
x,1/2-y,z
loop_
_atom_site_type_symbol
_atom_site_label
_atom_site_fract_x
_atom_site_fract_y
_atom_site_fract_z
Si Si1 0.913346 0.521256 0.600368
Si Si2 0.087602 0.885028 0.508597
Si Si3 0.580597 0.750000 0.437254
Si Si4 0.074645 0.568202 0.268470
Si Si5 0.426326 0.155356 0.082095
Si Si6 0.073525 0.499480 0.852904
Si Si7 0.573661 0.250000 0.696729
Si Si8 0.427393 0.158216 0.934946
O O1 0.750000 0.557818 0.608842
O O2 0.902952 0.458414 0.542086
O O3 0.950123 0.471126 0.662970
O O4 0.034527 0.584546 0.576272
O O5 0.250000 0.847836 0.511190
O O6 0.966128 0.826759 0.479182
O O7 0.750000 0.750000 0.421598
O O8 0.488767 0.750000 0.373370
O O9 0.250000 0.564415 0.256570
O O10 0.029914 0.664581 0.270427
O O11 0.987296 0.519282 0.215982
O O12 0.250000 0.145812 0.087840
O O13 0.461983 0.250000 0.100809
O O14 0.506985 0.083756 0.119838
O O15 0.464040 0.147483 0.008237
O O16 0.250000 0.503277 0.853678
O O17 0.024368 0.420332 0.894821
O O18 0.750000 0.250000 0.692157
O O19 0.250000 0.159841 0.931329
O O20 0.479172 0.250000 0.914716
#
# Coordination Sequence:
#
# PCOD9448600 Si02
#       8
#     8   8   4   8   8   8   4   8
#     4   9  18  34  54  76 101 134 174 219 263 312
#     4  10  19  33  54  77 105 136 171 217 268 316
#     4  12  22  32  52  82 110 138 177 220 267 326
#     4  10  21  37  56  76 109 150 185 219 264 328
#     4   9  18  36  61  81 102 142 191 235 283 335
#     4  11  22  33  53  84 117 149 184 230 278 329
#     4  10  20  38  56  76 108 148 187 224 267 316
#     4   8  16  32  53  80 115 150 183 224 276 331
#
# _framework density 17.701001999999999
#
# number of rings (size 3 to 8) (size 9 to 14) (size 15 to 20)
#    0.000    2.286    1.429    2.786    1.000    2.000 
#    0.000    0.714    1.571    1.714    0.000    0.000 
#    0.000    0.000    0.000    0.000    0.000    0.000 
#
# Total GULP energy -312097.237954 kJ/mol
# GULP energy per Si atom -5573.164963 kJ/mol
# Density = 1.766071 g / cm^3
# Si number density = 17.701002 Si / 1000 Ang^3
#
#
#
# Elastic Constant Matrix: (Units=GPa)
#
#
# Indices 1 2 3 4 5 6 
#
# 1 31.3494 34.9972 33.6677 0.0000 0.0000 0.0000
# 2 34.9972 93.5605 55.8806 0.0000 0.0000 0.0000
# 3 33.6677 55.8806 83.8802 0.0000 0.0000 0.0000
# 4 0.0000 0.0000 0.0000 17.7245 0.0000 0.0000
# 5 0.0000 0.0000 0.0000 0.0000 17.1665 0.0000
# 6 0.0000 0.0000 0.0000 0.0000 0.0000 23.3973
#
#
#
# Elastic Compliance Matrix: (Units=1/GPa)
#
#
# Indices 1 2 3 4 5 6 
#
# 1 0.066525 -0.014842 -0.016814 0.000000 0.000000 0.000000
# 2 -0.014842 0.021063 -0.008075 0.000000 0.000000 0.000000
# 3 -0.016814 -0.008075 0.024050 0.000000 0.000000 0.000000
# 4 0.000000 0.000000 0.000000 0.056419 0.000000 0.000000
# 5 0.000000 0.000000 0.000000 0.000000 0.058253 0.000000
# 6 0.000000 0.000000 0.000000 0.000000 0.000000 0.042740
#
#
# Mechanical properties :
#
#
# Convention : Reuss Voigt Hill
#
# Bulk Modulus (GPa) = 31.07880 50.87569 40.97725
# Shear Modulus (GPa) = 13.91843 17.27398 15.59620
#
# Velocity S-wave (km/s) = 2.80716 3.12729 2.97154
# Velocity P-wave (km/s) = 5.30119 6.46870 5.91382
#
# Compressibility (1/GPa) = 0.03217627
#
# Stress axis : x y z
#
# Youngs Moduli (GPa) = 15.03199 47.47722 41.58011
#
# Poissons Ratio (x) = 0.70464 0.69913
# Poissons Ratio (y) = 0.22310 0.33575
# Poissons Ratio (z) = 0.25275 0.38337
#
# Static dielectric constant tensor:
#      x y z
#    x 1.600670 0.000000 0.000000 
#    y 0.000000 1.670750 0.000000 
#    z 0.000000 0.000000 1.570640 
# 
# From -- ./inp_files/29264.got.cif
#   From: 2010.05.17/outbox.cif.g08.bks.cpg/sg59_15_cif.got.tgz:29264.got - 2010.06.03 14:40:33.
