data_PCOD9448123
_publ_section_title
;
Structure prediction by ZEFSAII (Michael W. Deem and Ramdas Pophale) SiO2 
 PCOD9448123
Probable space group: P M M N
;
_chemical_formula_sum "Si O2"
_cell_formula_units_Z 48
_cell_length_a 8.901788
_cell_length_b 33.621727
_cell_length_c 9.420270
_cell_angle_alpha 90.000000
_cell_angle_beta 90.000000
_cell_angle_gamma 90.000000
_cell_volume 2819.425447
_symmetry_space_group_name_H-M "P M M N"
_symmetry_group_IT_number 59
_space_group.IT_coordinate_system_code '2'
_symmetry_cell_setting 'orthorhombic'
loop_
_space_group_symop_operation_xyz
x,y,z
1/2-x,1/2-y,z
1/2+x,-y,-z
-x,1/2+y,-z
-x,-y,-z
1/2+x,1/2+y,-z
1/2-x,y,z
x,1/2-y,z
loop_
_atom_site_type_symbol
_atom_site_label
_atom_site_fract_x
_atom_site_fract_y
_atom_site_fract_z
Si Si1 0.923275 0.836191 0.645856
Si Si2 0.930288 0.128305 0.922369
Si Si3 0.068118 0.459356 0.442235
Si Si4 0.930860 0.382764 0.596799
Si Si5 0.077540 0.417338 0.166453
Si Si6 0.931112 0.205465 0.097662
O O1 0.750000 0.826403 0.616893
O O2 0.925592 0.877085 0.738260
O O3 0.011670 0.846988 0.503148
O O4 0.000519 0.804359 0.748404
O O5 0.750000 0.128182 0.924824
O O6 0.977344 0.123291 0.759901
O O7 0.980575 0.170456 0.990469
O O8 0.986682 0.093358 0.025954
O O9 0.250000 0.459174 0.448169
O O10 0.024295 0.450744 0.277516
O O11 0.000000 0.500000 0.500000
O O12 0.003793 0.422922 0.534739
O O13 0.750000 0.385468 0.588283
O O14 0.250000 0.425483 0.128007
O O15 0.750000 0.203412 0.107503
O O16 0.972897 0.250000 0.052223
#
# Coordination Sequence:
#
# PCOD9448123 Si02
#       6
#     8   8   8   8   8   8
#     4   9  17  30  48  70  95 125 162 200 237 283
#     4   9  18  31  49  73  99 129 165 201 241 292
#     4  10  20  34  52  75  99 127 164 205 249 293
#     4  10  19  32  50  73 100 129 163 202 243 291
#     4   8  16  30  48  69  93 123 160 198 237 285
#     4   9  17  31  51  73  97 127 163 203 246 289
#
# _framework density 17.024746
#
# number of rings (size 3 to 8) (size 9 to 14) (size 15 to 20)
#    0.000    2.833    0.000    2.500    0.000    6.333 
#    0.000    1.667    0.000    3.000    0.000    0.000 
#    0.000    0.000    0.000    0.000    0.000    0.000 
#
# Total GULP energy -267361.901790 kJ/mol
# GULP energy per Si atom -5570.039621 kJ/mol
# Density = 1.698600 g / cm^3
# Si number density = 17.024746 Si / 1000 Ang^3
#
#
#
# Elastic Constant Matrix: (Units=GPa)
#
#
# Indices 1 2 3 4 5 6 
#
# 1 40.0146 19.1928 38.9449 0.0000 0.0000 0.0000
# 2 19.1928 57.9277 33.4162 0.0000 0.0000 0.0000
# 3 38.9449 33.4162 135.5140 0.0000 0.0000 0.0000
# 4 0.0000 0.0000 0.0000 15.2327 0.0000 0.0000
# 5 0.0000 0.0000 0.0000 0.0000 22.7741 0.0000
# 6 0.0000 0.0000 0.0000 0.0000 0.0000 20.0051
#
#
#
# Elastic Compliance Matrix: (Units=1/GPa)
#
#
# Indices 1 2 3 4 5 6 
#
# 1 0.037076 -0.007155 -0.008891 0.000000 0.000000 0.000000
# 2 -0.007155 0.021507 -0.003247 0.000000 0.000000 0.000000
# 3 -0.008891 -0.003247 0.010735 0.000000 0.000000 0.000000
# 4 0.000000 0.000000 0.000000 0.065648 0.000000 0.000000
# 5 0.000000 0.000000 0.000000 0.000000 0.043910 0.000000
# 6 0.000000 0.000000 0.000000 0.000000 0.000000 0.049987
#
#
# Mechanical properties :
#
#
# Convention : Reuss Voigt Hill
#
# Bulk Modulus (GPa) = 32.53980 46.28490 39.41235
# Shear Modulus (GPa) = 18.00551 21.06253 19.53402
#
# Velocity S-wave (km/s) = 3.25562 3.52116 3.39099
# Velocity P-wave (km/s) = 5.76947 6.61644 6.20742
#
# Compressibility (1/GPa) = 0.03073159
#
# Stress axis : x y z
#
# Youngs Moduli (GPa) = 26.97159 46.49715 93.15286
#
# Poissons Ratio (x) = 0.33271 0.82820
# Poissons Ratio (y) = 0.19299 0.30246
# Poissons Ratio (z) = 0.23980 0.15097
#
# Static dielectric constant tensor:
#      x y z
#    x 1.576020 0.000000 0.000000 
#    y 0.000000 1.582110 0.000000 
#    z 0.000000 0.000000 1.574670 
# 
# From -- ./inp_files/6323.got.cif
#   From: 2010.05.17/outbox.cif.g08.bks.cpg/sg59_4_cif.got.tgz:6323.got - 2010.06.03 14:40:33.
