data_PCOD9448528
_publ_section_title
;
Structure prediction by ZEFSAII (Michael W. Deem and Ramdas Pophale) SiO2 
 PCOD9448528
Probable space group: P M M N
;
_chemical_formula_sum "Si O2"
_cell_formula_units_Z 64
_cell_length_a 19.069499
_cell_length_b 7.487191
_cell_length_c 20.401858
_cell_angle_alpha 90.000000
_cell_angle_beta 90.000000
_cell_angle_gamma 90.000000
_cell_volume 2912.915698
_symmetry_space_group_name_H-M "P M M N"
_symmetry_group_IT_number 59
_space_group.IT_coordinate_system_code '2'
_symmetry_cell_setting 'orthorhombic'
loop_
_space_group_symop_operation_xyz
x,y,z
1/2-x,1/2-y,z
1/2+x,-y,-z
-x,1/2+y,-z
-x,-y,-z
1/2+x,1/2+y,-z
1/2-x,y,z
x,1/2-y,z
loop_
_atom_site_type_symbol
_atom_site_label
_atom_site_fract_x
_atom_site_fract_y
_atom_site_fract_z
Si Si1 0.434621 0.466348 0.096634
Si Si2 0.903620 0.458856 0.672581
Si Si3 0.830052 0.965073 0.539917
Si Si4 0.557219 0.530774 0.284856
Si Si5 0.087308 0.043750 0.861096
Si Si6 0.673516 0.543422 0.797312
Si Si7 0.830304 0.532320 0.392214
Si Si8 0.329312 0.468452 0.981738
O O1 0.440832 0.250000 0.096324
O O2 0.513112 0.537316 0.100985
O O3 0.391097 0.528974 0.160625
O O4 0.387064 0.521824 0.035271
O O5 0.903330 0.250000 0.687718
O O6 0.882098 0.481278 0.597443
O O7 0.846063 0.539842 0.721143
O O8 0.980419 0.528799 0.691418
O O9 0.750000 0.025862 0.553611
O O10 0.828581 0.750000 0.539111
O O11 0.849243 0.024152 0.466334
O O12 0.556198 0.750000 0.284351
O O13 0.574565 0.467694 0.211324
O O14 0.615635 0.473848 0.337034
O O15 0.107013 0.250000 0.850419
O O16 0.145275 0.968363 0.910324
O O17 0.750000 0.462179 0.809106
O O18 0.678076 0.750000 0.818195
O O19 0.750000 0.477760 0.379447
O O20 0.830949 0.750000 0.392061
O O21 0.250000 0.523845 0.997630
O O22 0.329711 0.250000 0.981738
#
# Coordination Sequence:
#
# PCOD9448528 Si02
#       8
#     8   8   8   8   8   8   8   8
#     4  10  19  33  53  75 101 134 170 210 252 298
#     4  11  21  32  47  71 106 137 160 198 253 307
#     4   9  18  33  52  73  97 127 168 213 248 288
#     4   9  18  31  47  72 104 132 162 204 249 296
#     4  10  19  33  53  76 106 138 166 206 255 303
#     4  10  20  33  50  71  96 131 174 212 243 284
#     4   8  15  30  52  74  96 127 167 209 251 293
#     4   9  18  32  52  79 105 131 170 216 256 293
#
# _framework density 21.971112999999999
#
# number of rings (size 3 to 8) (size 9 to 14) (size 15 to 20)
#    0.000    2.500    1.250    2.250    0.000    4.500 
#    0.000    2.500    0.000    3.750    0.000    0.000 
#    0.000    0.000    0.000    0.000    0.000    0.000 
#
# Total GULP energy -357399.601001 kJ/mol
# GULP energy per Si atom -5584.368766 kJ/mol
# Density = 2.192111 g / cm^3
# Si number density = 21.971113 Si / 1000 Ang^3
#
#
#
# Elastic Constant Matrix: (Units=GPa)
#
#
# Indices 1 2 3 4 5 6 
#
# 1 39.9720 -11.3880 34.2970 0.0000 0.0000 0.0000
# 2 -11.3880 60.3045 -8.0640 0.0000 0.0000 0.0000
# 3 34.2970 -8.0640 122.2288 0.0000 0.0000 0.0000
# 4 0.0000 0.0000 0.0000 4.3216 0.0000 0.0000
# 5 0.0000 0.0000 0.0000 0.0000 -522.2779 0.0000
# 6 0.0000 0.0000 0.0000 0.0000 0.0000 10.5140
#
#
#
# Elastic Compliance Matrix: (Units=1/GPa)
#
#
# Indices 1 2 3 4 5 6 
#
# 1 0.034536 0.005273 -0.009343 0.000000 0.000000 0.000000
# 2 0.005273 0.017535 -0.000323 0.000000 0.000000 0.000000
# 3 -0.009343 -0.000323 0.010782 0.000000 0.000000 0.000000
# 4 0.000000 0.000000 0.000000 0.231397 0.000000 0.000000
# 5 0.000000 0.000000 0.000000 0.000000 -0.001915 0.000000
# 6 0.000000 0.000000 0.000000 0.000000 0.000000 0.095111
#
#
# Mechanical properties :
#
#
# Convention : Reuss Voigt Hill
#
# Bulk Modulus (GPa) = 18.49558 28.02171 23.25865
# Shear Modulus (GPa) = 12.06987 -87.64444 -37.78729
#
# Velocity S-wave (km/s) = 2.34637 -6.32277 -4.15162
# Velocity P-wave (km/s) = 3.97203 6.36566 3.51743
#
# Compressibility (1/GPa) = 0.05406697
#
# Stress axis : x y z
#
# Youngs Moduli (GPa) = 28.95519 57.02866 92.74994
#
# Poissons Ratio (x) = -0.30069 0.86655
# Poissons Ratio (y) = -0.15267 0.02992
# Poissons Ratio (z) = 0.27052 0.01840
#
# Static dielectric constant tensor:
#      x y z
#    x 1.771570 0.000000 0.000000 
#    y 0.000000 1.873130 0.000000 
#    z 0.000000 0.000000 1.787990 
# 
# From -- ./inp_files/28304.got.cif
#   From: 2010.05.17/outbox.cif.g08.bks.cpg/sg59_15_cif.got.tgz:28304.got - 2010.06.03 14:40:33.
