data_PCOD9448389
_publ_section_title
;
Structure prediction by ZEFSAII (Michael W. Deem and Ramdas Pophale) SiO2 
 PCOD9448389
Probable space group: P M M N
;
_chemical_formula_sum "Si O2"
_cell_formula_units_Z 48
_cell_length_a 31.500742
_cell_length_b 8.767459
_cell_length_c 9.922949
_cell_angle_alpha 90.000000
_cell_angle_beta 90.000000
_cell_angle_gamma 90.000000
_cell_volume 2740.534582
_symmetry_space_group_name_H-M "P M M N"
_symmetry_group_IT_number 59
_space_group.IT_coordinate_system_code '2'
_symmetry_cell_setting 'orthorhombic'
loop_
_space_group_symop_operation_xyz
x,y,z
1/2-x,1/2-y,z
1/2+x,-y,-z
-x,1/2+y,-z
-x,-y,-z
1/2+x,1/2+y,-z
1/2-x,y,z
x,1/2-y,z
loop_
_atom_site_type_symbol
_atom_site_label
_atom_site_fract_x
_atom_site_fract_y
_atom_site_fract_z
Si Si1 0.635728 0.932422 0.077625
Si Si2 0.111370 0.565932 0.197083
Si Si3 0.934264 0.067398 0.274986
Si Si4 0.298544 0.433658 0.694273
Si Si5 0.367999 0.933804 0.498908
Si Si6 0.486529 0.932515 0.144406
O O1 0.630301 0.750000 0.080297
O O2 0.676865 0.972703 0.167193
O O3 0.595882 0.009451 0.153656
O O4 0.636692 0.991873 0.925928
O O5 0.114403 0.750000 0.187933
O O6 0.126969 0.517918 0.344653
O O7 0.061767 0.524903 0.178648
O O8 0.937607 0.250000 0.268279
O O9 0.909228 0.023810 0.411187
O O10 0.980044 0.994028 0.253482
O O11 0.250000 0.487057 0.692109
O O12 0.298630 0.250000 0.684148
O O13 0.327157 0.499455 0.574203
O O14 0.365427 0.750000 0.502338
O O15 0.489137 0.750000 0.137767
O O16 0.500000 0.000000 0.000000
#
# Coordination Sequence:
#
# PCOD9448389 Si02
#       6
#     8   8   8   8   8   8
#     4  10  19  32  54  79 103 135 175 214 257 313
#     4  10  21  36  52  74 108 143 174 218 267 306
#     4  10  19  33  52  74 103 140 180 223 261 301
#     4   9  19  37  59  82 106 132 167 214 265 317
#     4   9  20  37  55  77 107 142 177 214 264 317
#     4  11  21  32  50  75 105 142 185 225 263 306
#
# _framework density 17.514831000000001
#
# number of rings (size 3 to 8) (size 9 to 14) (size 15 to 20)
#    0.000    2.167    1.667    1.500    0.000    3.667 
#    0.000    0.833    0.000    3.000    0.000    0.000 
#    0.000    0.000    0.000    0.000    0.000    0.000 
#
# Total GULP energy -267898.836353 kJ/mol
# GULP energy per Si atom -5581.225757 kJ/mol
# Density = 1.747497 g / cm^3
# Si number density = 17.514831 Si / 1000 Ang^3
#
#
#
# Elastic Constant Matrix: (Units=GPa)
#
#
# Indices 1 2 3 4 5 6 
#
# 1 124.6881 33.7513 72.3567 0.0000 0.0000 0.0000
# 2 33.7513 27.3190 35.3087 0.0000 0.0000 0.0000
# 3 72.3567 35.3087 161.9897 0.0000 0.0000 0.0000
# 4 0.0000 0.0000 0.0000 24.7945 0.0000 0.0000
# 5 0.0000 0.0000 0.0000 0.0000 14.8821 0.0000
# 6 0.0000 0.0000 0.0000 0.0000 0.0000 25.1429
#
#
#
# Elastic Compliance Matrix: (Units=1/GPa)
#
#
# Indices 1 2 3 4 5 6 
#
# 1 0.013176 -0.012073 -0.003254 0.000000 0.000000 0.000000
# 2 -0.012073 0.062023 -0.008126 0.000000 0.000000 0.000000
# 3 -0.003254 -0.008126 0.009398 0.000000 0.000000 0.000000
# 4 0.000000 0.000000 0.000000 0.040332 0.000000 0.000000
# 5 0.000000 0.000000 0.000000 0.000000 0.067195 0.000000
# 6 0.000000 0.000000 0.000000 0.000000 0.000000 0.039773
#
#
# Mechanical properties :
#
#
# Convention : Reuss Voigt Hill
#
# Bulk Modulus (GPa) = 26.53177 66.31448 46.42312
# Shear Modulus (GPa) = 17.16050 24.46924 20.81487
#
# Velocity S-wave (km/s) = 3.13352 3.74178 3.45108
# Velocity P-wave (km/s) = 5.31724 7.52409 6.51479
#
# Compressibility (1/GPa) = 0.03769066
#
# Stress axis : x y z
#
# Youngs Moduli (GPa) = 75.89392 16.12300 106.40555
#
# Poissons Ratio (x) = 0.19465 0.34624
# Poissons Ratio (y) = 0.91627 0.86470
# Poissons Ratio (z) = 0.24696 0.13102
#
# Static dielectric constant tensor:
#      x y z
#    x 1.581960 0.000000 0.000000 
#    y 0.000000 1.589750 0.000000 
#    z 0.000000 0.000000 1.593800 
# 
# From -- ./inp_files/6208.got.cif
#   From: 2010.05.17/outbox.cif.g08.bks.cpg/sg59_4_cif.got.tgz:6208.got - 2010.06.03 14:40:33.
