data_PCOD9448674
_publ_section_title
;
Structure prediction by ZEFSAII (Michael W. Deem and Ramdas Pophale) SiO2 
 PCOD9448674
Probable space group: P M M N
;
_chemical_formula_sum "Si O2"
_cell_formula_units_Z 64
_cell_length_a 18.471768
_cell_length_b 7.572808
_cell_length_c 21.320417
_cell_angle_alpha 90.000000
_cell_angle_beta 90.000000
_cell_angle_gamma 90.000000
_cell_volume 2982.367142
_symmetry_space_group_name_H-M "P M M N"
_symmetry_group_IT_number 59
_space_group.IT_coordinate_system_code '2'
_symmetry_cell_setting 'orthorhombic'
loop_
_space_group_symop_operation_xyz
x,y,z
1/2-x,1/2-y,z
1/2+x,-y,-z
-x,1/2+y,-z
-x,-y,-z
1/2+x,1/2+y,-z
1/2-x,y,z
x,1/2-y,z
loop_
_atom_site_type_symbol
_atom_site_label
_atom_site_fract_x
_atom_site_fract_y
_atom_site_fract_z
Si Si1 0.915051 0.040650 0.998194
Si Si2 0.168324 0.459358 0.129076
Si Si3 0.166410 0.034078 0.377050
Si Si4 0.333675 0.966504 0.877213
Si Si5 0.082501 0.538781 0.753534
Si Si6 0.082901 0.466682 0.251532
Si Si7 0.415004 0.038106 0.502187
Si Si8 0.167351 0.037509 0.625939
O O1 0.907337 0.250000 0.999791
O O2 0.874452 0.971759 0.060133
O O3 0.877009 0.981191 0.934343
O O4 0.000000 0.000000 0.000000
O O5 0.250000 0.531367 0.123226
O O6 0.174796 0.250000 0.139429
O O7 0.125198 0.528016 0.189537
O O8 0.250000 0.978716 0.376376
O O9 0.166109 0.250000 0.377361
O O10 0.124223 0.978691 0.314547
O O11 0.125484 0.973648 0.439731
O O12 0.250000 0.020570 0.876941
O O13 0.334448 0.750000 0.877049
O O14 0.375225 0.027043 0.814841
O O15 0.077683 0.750000 0.760544
O O16 0.126557 0.503610 0.690317
O O17 0.000233 0.472929 0.749175
O O18 0.082255 0.250000 0.251306
O O19 0.407110 0.250000 0.502364
O O20 0.377289 0.971070 0.565716
O O21 0.500000 0.000000 0.500000
O O22 0.250000 0.971803 0.626326
O O23 0.170469 0.250000 0.621053
#
# Coordination Sequence:
#
# PCOD9448674 Si02
#       8
#     8   8   8   8   8   8   8   8
#     4  11  22  37  57  79 106 140 179 222 268 318
#     4  10  20  35  56  82 111 141 174 215 265 320
#     4   9  16  28  49  75 100 131 174 215 247 290
#     4   9  18  33  53  76 102 134 172 214 259 306
#     4  10  19  33  55  79 102 132 174 218 255 299
#     4   9  17  30  50  78 109 137 169 214 262 303
#     4  10  20  34  53  76 102 133 170 212 257 305
#     4  10  21  36  52  74 107 141 170 208 263 318
#
# _framework density 21.459465000000002
#
# number of rings (size 3 to 8) (size 9 to 14) (size 15 to 20)
#    0.000    2.250    0.000    3.375    0.000    8.000 
#    0.000    3.125    0.000    4.875    0.000    0.000 
#    0.000    0.000    0.000    0.000    0.000    0.000 
#
# Total GULP energy -357736.830198 kJ/mol
# GULP energy per Si atom -5589.637972 kJ/mol
# Density = 2.141062 g / cm^3
# Si number density = 21.459465 Si / 1000 Ang^3
#
#
#
# Elastic Constant Matrix: (Units=GPa)
#
#
# Indices 1 2 3 4 5 6 
#
# 1 245.0960 0.5481 147.3374 0.0000 0.0000 0.0000
# 2 0.5481 47.1378 0.0690 0.0000 0.0000 0.0000
# 3 147.3374 0.0690 245.5194 0.0000 0.0000 0.0000
# 4 0.0000 0.0000 0.0000 -84.0786 0.0000 0.0000
# 5 0.0000 0.0000 0.0000 0.0000 48.0809 0.0000
# 6 0.0000 0.0000 0.0000 0.0000 0.0000 9.0610
#
#
#
# Elastic Compliance Matrix: (Units=1/GPa)
#
#
# Indices 1 2 3 4 5 6 
#
# 1 0.006383 -0.000069 -0.003830 0.000000 0.000000 0.000000
# 2 -0.000069 0.021215 0.000035 0.000000 0.000000 0.000000
# 3 -0.003830 0.000035 0.006372 0.000000 0.000000 0.000000
# 4 0.000000 0.000000 0.000000 -0.011894 0.000000 0.000000
# 5 0.000000 0.000000 0.000000 0.000000 0.020798 0.000000
# 6 0.000000 0.000000 0.000000 0.000000 0.000000 0.110363
#
#
# Mechanical properties :
#
#
# Convention : Reuss Voigt Hill
#
# Bulk Modulus (GPa) = 38.10676 92.62912 65.36794
# Shear Modulus (GPa) = 29.46164 20.59923 25.03044
#
# Velocity S-wave (km/s) = 3.70928 3.10161 3.41897
# Velocity P-wave (km/s) = 6.01175 7.48899 6.79066
#
# Compressibility (1/GPa) = 0.02624206
#
# Stress axis : x y z
#
# Youngs Moduli (GPa) = 156.67267 47.13616 156.94732
#
# Poissons Ratio (x) = 0.00323 0.60115
# Poissons Ratio (y) = 0.01075 -0.00553
# Poissons Ratio (z) = 0.60010 -0.00166
#
# Static dielectric constant tensor:
#      x y z
#    x 1.728780 0.000000 0.000000 
#    y 0.000000 1.834690 0.000000 
#    z 0.000000 0.000000 1.731800 
# 
# From -- ./inp_files/30700.got.cif
#   From: 2010.05.17/outbox.cif.g08.bks.cpg/sg59_16_cif.got.tgz:30700.got - 2010.06.03 14:40:33.
