data_PCOD9448928
_publ_section_title
;
Structure prediction by ZEFSAII (Michael W. Deem and Ramdas Pophale) SiO2 
 PCOD9448928
Probable space group: P M M N
;
_chemical_formula_sum "Si O2"
_cell_formula_units_Z 56
_cell_length_a 17.007734
_cell_length_b 9.343806
_cell_length_c 19.044071
_cell_angle_alpha 90.000000
_cell_angle_beta 90.000000
_cell_angle_gamma 90.000000
_cell_volume 3026.426003
_symmetry_space_group_name_H-M "P M M N"
_symmetry_group_IT_number 59
_space_group.IT_coordinate_system_code '2'
_symmetry_cell_setting 'orthorhombic'
loop_
_space_group_symop_operation_xyz
x,y,z
1/2-x,1/2-y,z
1/2+x,-y,-z
-x,1/2+y,-z
-x,-y,-z
1/2+x,1/2+y,-z
1/2-x,y,z
x,1/2-y,z
loop_
_atom_site_type_symbol
_atom_site_label
_atom_site_fract_x
_atom_site_fract_y
_atom_site_fract_z
Si Si1 0.750000 0.923359 0.034193
Si Si2 0.541296 0.919203 0.807221
Si Si3 0.839069 0.914216 0.682330
Si Si4 0.395639 0.078948 0.747582
Si Si5 0.608876 0.086024 0.549189
Si Si6 0.750000 0.078224 0.184038
Si Si7 0.077451 0.080529 0.030891
Si Si8 0.422500 0.085955 0.583878
O O1 0.750000 0.750000 0.044652
O O2 0.750000 0.009333 0.106741
O O3 0.665610 0.958418 0.996766
O O4 0.518423 0.750000 0.801065
O O5 0.603714 0.950679 0.746046
O O6 0.574952 0.939144 0.885014
O O7 0.469507 0.024358 0.792248
O O8 0.750000 0.922991 0.707831
O O9 0.856006 0.750000 0.661763
O O10 0.849611 0.008480 0.613537
O O11 0.383538 0.250000 0.755611
O O12 0.409443 0.048237 0.665009
O O13 0.324085 0.986052 0.775302
O O14 0.632691 0.250000 0.545147
O O15 0.515788 0.079001 0.568143
O O16 0.619101 0.011020 0.474144
O O17 0.750000 0.250000 0.181449
O O18 0.067461 0.250000 0.015842
O O19 0.000000 0.000000 0.000000
O O20 0.397159 0.250000 0.573888
#
# Coordination Sequence:
#
# PCOD9448928 Si02
#       8
#     4   8   8   8   8   4   8   8
#     4  10  22  42  66  90 121 164 203 244 299 362
#     4  10  21  37  61  90 120 155 198 247 293 347
#     4  10  21  36  56  83 117 158 199 240 292 350
#     4  11  22  40  63  88 119 156 198 243 297 356
#     4  10  19  34  56  83 112 148 193 242 292 345
#     4  12  26  42  62  90 121 152 195 246 297 352
#     4  10  22  39  61  90 122 157 200 246 298 358
#     4   9  19  35  57  83 112 148 191 238 290 350
#
# _framework density 18.503672999999999
#
# number of rings (size 3 to 8) (size 9 to 14) (size 15 to 20)
#    0.000    1.857    1.429    2.357    1.000    5.429 
#    1.286    0.000    0.000    0.000    0.000    0.000 
#    0.000    0.000    0.000    0.000    0.000    0.000 
#
# Total GULP energy -312471.871918 kJ/mol
# GULP energy per Si atom -5579.854856 kJ/mol
# Density = 1.846156 g / cm^3
# Si number density = 18.503673 Si / 1000 Ang^3
#
#
#
# Elastic Constant Matrix: (Units=GPa)
#
#
# Indices 1 2 3 4 5 6 
#
# 1 81.8817 54.7718 42.8005 0.0000 0.0000 0.0000
# 2 54.7718 74.1007 57.9423 0.0000 0.0000 0.0000
# 3 42.8005 57.9423 101.0783 0.0000 0.0000 0.0000
# 4 0.0000 0.0000 0.0000 29.0824 0.0000 0.0000
# 5 0.0000 0.0000 0.0000 0.0000 128.5352 0.0000
# 6 0.0000 0.0000 0.0000 0.0000 0.0000 -10.0427
#
#
#
# Elastic Compliance Matrix: (Units=1/GPa)
#
#
# Indices 1 2 3 4 5 6 
#
# 1 0.024156 -0.017865 0.000012 0.000000 0.000000 0.000000
# 2 -0.017865 0.037670 -0.014029 0.000000 0.000000 0.000000
# 3 0.000012 -0.014029 0.017931 0.000000 0.000000 0.000000
# 4 0.000000 0.000000 0.000000 0.034385 0.000000 0.000000
# 5 0.000000 0.000000 0.000000 0.000000 0.007780 0.000000
# 6 0.000000 0.000000 0.000000 0.000000 0.000000 -0.099575
#
#
# Mechanical properties :
#
#
# Convention : Reuss Voigt Hill
#
# Bulk Modulus (GPa) = 62.52838 63.12109 62.82474
# Shear Modulus (GPa) = 54.67897 36.28472 45.48184
#
# Velocity S-wave (km/s) = 5.44192 4.43306 4.96319
# Velocity P-wave (km/s) = 8.56456 7.77107 8.17745
#
# Compressibility (1/GPa) = 0.01599274
#
# Stress axis : x y z
#
# Youngs Moduli (GPa) = 41.39682 26.54622 55.77086
#
# Poissons Ratio (x) = 0.47424 -0.00067
# Poissons Ratio (y) = 0.73954 0.78244
# Poissons Ratio (z) = -0.00050 0.37243
#
# Static dielectric constant tensor:
#      x y z
#    x 2.250890 0.000000 0.000000 
#    y 0.000000 1.625960 0.000000 
#    z 0.000000 0.000000 1.625790 
# 
# From -- ./inp_files/30513.got.cif
#   From: 2010.05.17/outbox.cif.g08.bks.cpg/sg59_16_cif.got.tgz:30513.got - 2010.06.03 14:40:33.
