data_PCOD9448272
_publ_section_title
;
Structure prediction by ZEFSAII (Michael W. Deem and Ramdas Pophale) SiO2 
 PCOD9448272
Probable space group: P M M N
;
_chemical_formula_sum "Si O2"
_cell_formula_units_Z 64
_cell_length_a 18.792358
_cell_length_b 7.492439
_cell_length_c 20.604546
_cell_angle_alpha 90.000000
_cell_angle_beta 90.000000
_cell_angle_gamma 90.000000
_cell_volume 2901.132357
_symmetry_space_group_name_H-M "P M M N"
_symmetry_group_IT_number 59
_space_group.IT_coordinate_system_code '2'
_symmetry_cell_setting 'orthorhombic'
loop_
_space_group_symop_operation_xyz
x,y,z
1/2-x,1/2-y,z
1/2+x,-y,-z
-x,1/2+y,-z
-x,-y,-z
1/2+x,1/2+y,-z
1/2-x,y,z
x,1/2-y,z
loop_
_atom_site_type_symbol
_atom_site_label
_atom_site_fract_x
_atom_site_fract_y
_atom_site_fract_z
Si Si1 0.668962 0.967912 0.907116
Si Si2 0.909266 0.957815 0.173493
Si Si3 0.421495 0.035802 0.972068
Si Si4 0.931646 0.966317 0.787796
Si Si5 0.828718 0.536434 0.675812
Si Si6 0.437656 0.044236 0.592430
Si Si7 0.909274 0.037947 0.549623
Si Si8 0.669402 0.969379 0.298480
O O1 0.750000 0.026189 0.897469
O O2 0.669395 0.750000 0.906942
O O3 0.616554 0.021287 0.849105
O O4 0.635795 0.027940 0.975357
O O5 0.890208 0.750000 0.166070
O O6 0.911764 0.035482 0.100875
O O7 0.855861 0.030943 0.227450
O O8 0.988493 0.968192 0.203102
O O9 0.415027 0.250000 0.969069
O O10 0.500000 0.000000 0.000000
O O11 0.935095 0.750000 0.787097
O O12 0.890879 0.029378 0.723351
O O13 0.750000 0.468151 0.692421
O O14 0.826823 0.750000 0.684350
O O15 0.848700 0.498556 0.601738
O O16 0.449991 0.250000 0.610751
O O17 0.516108 0.965557 0.579478
O O18 0.387476 0.967498 0.647996
O O19 0.399886 0.037839 0.522236
O O20 0.916721 0.250000 0.541334
O O21 0.750000 0.023231 0.312925
O O22 0.668212 0.750000 0.299138
#
# Coordination Sequence:
#
# PCOD9448272 Si02
#       8
#     8   8   8   8   8   8   8   8
#     4   9  17  30  50  76 103 133 173 217 257 299
#     4  10  20  33  53  80 107 135 170 217 264 309
#     4  10  19  32  52  77 105 137 172 213 259 309
#     4  10  19  33  54  76 101 137 176 214 256 309
#     4  10  21  35  51  74 104 137 174 215 259 311
#     4   9  18  34  55  77 103 138 177 217 258 309
#     4  10  20  34  54  79 107 137 172 217 265 314
#     4   9  18  33  53  77 105 137 175 218 264 311
#
# _framework density 22.060352000000002
#
# number of rings (size 3 to 8) (size 9 to 14) (size 15 to 20)
#    0.000    2.375    1.250    1.500    0.000    4.750 
#    0.000    4.375    0.000    3.375    0.000    1.750 
#    0.000    0.000    0.000    0.000    0.000    0.000 
#
# Total GULP energy -357507.590547 kJ/mol
# GULP energy per Si atom -5586.056102 kJ/mol
# Density = 2.201014 g / cm^3
# Si number density = 22.060352 Si / 1000 Ang^3
#
#
#
# Elastic Constant Matrix: (Units=GPa)
#
#
# Indices 1 2 3 4 5 6 
#
# 1 41.0216 -5.8148 10.6805 0.0000 0.0000 0.0000
# 2 -5.8148 62.9138 -4.9659 0.0000 0.0000 0.0000
# 3 10.6805 -4.9659 101.9456 0.0000 0.0000 0.0000
# 4 0.0000 0.0000 0.0000 6.3028 0.0000 0.0000
# 5 0.0000 0.0000 0.0000 0.0000 15.0027 0.0000
# 6 0.0000 0.0000 0.0000 0.0000 0.0000 11.0226
#
#
#
# Elastic Compliance Matrix: (Units=1/GPa)
#
#
# Indices 1 2 3 4 5 6 
#
# 1 0.025345 0.002141 -0.002551 0.000000 0.000000 0.000000
# 2 0.002141 0.016137 0.000562 0.000000 0.000000 0.000000
# 3 -0.002551 0.000562 0.010104 0.000000 0.000000 0.000000
# 4 0.000000 0.000000 0.000000 0.158659 0.000000 0.000000
# 5 0.000000 0.000000 0.000000 0.000000 0.066654 0.000000
# 6 0.000000 0.000000 0.000000 0.000000 0.000000 0.090723
#
#
# Mechanical properties :
#
#
# Convention : Reuss Voigt Hill
#
# Bulk Modulus (GPa) = 19.27165 22.85337 21.06251
# Shear Modulus (GPa) = 12.99999 20.19771 16.59885
#
# Velocity S-wave (km/s) = 2.43017 3.02911 2.74602
# Velocity P-wave (km/s) = 4.07788 4.75563 4.42974
#
# Compressibility (1/GPa) = 0.05188970
#
# Stress axis : x y z
#
# Youngs Moduli (GPa) = 39.45534 61.96937 98.97288
#
# Poissons Ratio (x) = -0.13269 0.25248
# Poissons Ratio (y) = -0.08448 -0.05560
# Poissons Ratio (z) = 0.10065 -0.03481
#
# Static dielectric constant tensor:
#      x y z
#    x 1.772830 0.000000 0.000000 
#    y 0.000000 1.880440 0.000000 
#    z 0.000000 0.000000 1.802380 
# 
# From -- ./inp_files/30764.got.cif
#   From: 2010.05.17/outbox.cif.g08.bks.cpg/sg59_16_cif.got.tgz:30764.got - 2010.06.03 14:40:33.
