data_PCOD9448342
_publ_section_title
;
Structure prediction by ZEFSAII (Michael W. Deem and Ramdas Pophale) SiO2 
 PCOD9448342
Probable space group: P M M N
;
_chemical_formula_sum "Si O2"
_cell_formula_units_Z 56
_cell_length_a 19.528730
_cell_length_b 8.861958
_cell_length_c 18.326122
_cell_angle_alpha 90.000000
_cell_angle_beta 90.000000
_cell_angle_gamma 90.000000
_cell_volume 3171.569713
_symmetry_space_group_name_H-M "P M M N"
_symmetry_group_IT_number 59
_space_group.IT_coordinate_system_code '2'
_symmetry_cell_setting 'orthorhombic'
loop_
_space_group_symop_operation_xyz
x,y,z
1/2-x,1/2-y,z
1/2+x,-y,-z
-x,1/2+y,-z
-x,-y,-z
1/2+x,1/2+y,-z
1/2-x,y,z
x,1/2-y,z
loop_
_atom_site_type_symbol
_atom_site_label
_atom_site_fract_x
_atom_site_fract_y
_atom_site_fract_z
Si Si1 0.071034 0.567621 0.870121
Si Si2 0.669928 0.929582 0.422585
Si Si3 0.669061 0.070235 0.577214
Si Si4 0.578644 0.431329 0.863939
Si Si5 0.581484 0.929873 0.706830
Si Si6 0.328364 0.933746 0.999928
Si Si7 0.079474 0.570307 0.703252
O O1 0.062852 0.750000 0.873044
O O2 0.125927 0.520382 0.930565
O O3 0.094095 0.529954 0.787667
O O4 0.996835 0.494293 0.882597
O O5 0.750000 0.968616 0.410718
O O6 0.664719 0.750000 0.430891
O O7 0.647704 0.007448 0.498140
O O8 0.625315 0.984825 0.354921
O O9 0.750000 0.036353 0.585617
O O10 0.660172 0.250000 0.579112
O O11 0.627031 0.994697 0.642068
O O12 0.576086 0.250000 0.861207
O O13 0.598072 0.495278 0.784672
O O14 0.632324 0.477903 0.926239
O O15 0.589526 0.750000 0.712635
O O16 0.501138 0.960910 0.691858
O O17 0.250000 0.986764 0.996980
O O18 0.326755 0.750000 0.999008
O O19 0.090203 0.750000 0.694999
#
# Coordination Sequence:
#
# PCOD9448342 Si02
#       7
#     8   8   8   8   8   8   8
#     4   9  18  34  55  76 101 136 176 216 259 310
#     4  10  21  36  54  77 106 140 175 212 259 313
#     4  10  21  37  57  80 106 138 176 215 258 311
#     4  10  19  32  53  78 105 138 174 215 263 314
#     4  10  21  37  56  79 107 138 176 219 262 311
#     4   9  18  32  51  77 106 136 174 218 261 307
#     4   9  19  34  53  78 104 134 175 219 261 308
#
# _framework density 17.656870999999999
#
# number of rings (size 3 to 8) (size 9 to 14) (size 15 to 20)
#    0.000    2.429    0.000    3.000    0.000    6.286 
#    0.000    3.571    0.000    3.429    0.000    0.000 
#    0.000    0.000    0.000    0.000    0.000    0.000 
#
# Total GULP energy -312539.190532 kJ/mol
# GULP energy per Si atom -5581.056974 kJ/mol
# Density = 1.761668 g / cm^3
# Si number density = 17.656871 Si / 1000 Ang^3
#
#
#
# Elastic Constant Matrix: (Units=GPa)
#
#
# Indices 1 2 3 4 5 6 
#
# 1 92.8383 45.5615 103.8143 0.0000 0.0000 0.0000
# 2 45.5615 40.5332 56.6987 0.0000 0.0000 0.0000
# 3 103.8143 56.6987 160.5034 0.0000 0.0000 0.0000
# 4 0.0000 0.0000 0.0000 27.5034 0.0000 0.0000
# 5 0.0000 0.0000 0.0000 0.0000 128.0861 0.0000
# 6 0.0000 0.0000 0.0000 0.0000 0.0000 26.1298
#
#
#
# Elastic Compliance Matrix: (Units=1/GPa)
#
#
# Indices 1 2 3 4 5 6 
#
# 1 0.045793 -0.019851 -0.022606 0.000000 0.000000 0.000000
# 2 -0.019851 0.057376 -0.007429 0.000000 0.000000 0.000000
# 3 -0.022606 -0.007429 0.023476 0.000000 0.000000 0.000000
# 4 0.000000 0.000000 0.000000 0.036359 0.000000 0.000000
# 5 0.000000 0.000000 0.000000 0.000000 0.007807 0.000000
# 6 0.000000 0.000000 0.000000 0.000000 0.000000 0.038271
#
#
# Mechanical properties :
#
#
# Convention : Reuss Voigt Hill
#
# Bulk Modulus (GPa) = 37.21190 78.44710 57.82950
# Shear Modulus (GPa) = 15.73256 42.19723 28.96489
#
# Velocity S-wave (km/s) = 2.98823 4.89391 4.05462
# Velocity P-wave (km/s) = 5.74689 8.74408 7.39884
#
# Compressibility (1/GPa) = 0.02687312
#
# Stress axis : x y z
#
# Youngs Moduli (GPa) = 21.83764 17.42875 42.59589
#
# Poissons Ratio (x) = 0.34598 0.96293
# Poissons Ratio (y) = 0.43350 0.31643
# Poissons Ratio (z) = 0.49367 0.12947
#
# Static dielectric constant tensor:
#      x y z
#    x 1.582160 0.000000 0.000000 
#    y 0.000000 1.590980 0.000000 
#    z 0.000000 0.000000 1.581350 
# 
# From -- ./inp_files/24239.got.cif
#   From: 2010.05.17/outbox.cif.g08.bks.cpg/sg59_13_cif.got.tgz:24239.got - 2010.06.03 14:40:33.
