data_PCOD9448825
_publ_section_title
;
Structure prediction by ZEFSAII (Michael W. Deem and Ramdas Pophale) SiO2 
 PCOD9448825
Probable space group: P M M N
;
_chemical_formula_sum "Si O2"
_cell_formula_units_Z 48
_cell_length_a 21.373542
_cell_length_b 8.578517
_cell_length_c 15.345726
_cell_angle_alpha 90.000000
_cell_angle_beta 90.000000
_cell_angle_gamma 90.000000
_cell_volume 2813.689402
_symmetry_space_group_name_H-M "P M M N"
_symmetry_group_IT_number 59
_space_group.IT_coordinate_system_code '2'
_symmetry_cell_setting 'orthorhombic'
loop_
_space_group_symop_operation_xyz
x,y,z
1/2-x,1/2-y,z
1/2+x,-y,-z
-x,1/2+y,-z
-x,-y,-z
1/2+x,1/2+y,-z
1/2-x,y,z
x,1/2-y,z
loop_
_atom_site_type_symbol
_atom_site_label
_atom_site_fract_x
_atom_site_fract_y
_atom_site_fract_z
Si Si1 0.343392 0.067907 0.804085
Si Si2 0.682401 0.940633 0.004224
Si Si3 0.487954 0.431316 0.761834
Si Si4 0.454270 0.935317 0.574137
Si Si5 0.550034 0.563136 0.929685
Si Si6 0.180855 0.060825 0.609912
O O1 0.319799 0.250000 0.993417
O O2 0.320777 0.002332 0.895551
O O3 0.418376 0.061643 0.802956
O O4 0.321664 0.004262 0.710991
O O5 0.750000 0.985025 0.966611
O O6 0.675365 0.750000 0.196685
O O7 0.619732 0.991045 0.955609
O O8 0.503899 0.250000 0.749501
O O9 0.481189 0.511024 0.667985
O O10 0.532455 0.508722 0.832835
O O11 0.452565 0.750000 0.570296
O O12 0.500000 0.000000 0.500000
O O13 0.382764 0.998326 0.566888
O O14 0.547957 0.750000 0.933981
O O15 0.500000 0.500000 0.000000
O O16 0.250000 0.019916 0.574324
O O17 0.176224 0.250000 0.610545
#
# Coordination Sequence:
#
# PCOD9448825 Si02
#       6
#     8   8   8   8   8   8
#     4   8  13  24  44  71 100 132 169 206 247 303
#     4   9  16  26  43  69 100 136 178 218 255 302
#     4  10  19  34  54  77 102 135 176 220 266 319
#     4  11  22  37  57  82 110 140 176 224 274 326
#     4  11  20  31  49  75 104 138 179 221 261 309
#     4   9  17  30  51  79 111 145 177 211 259 323
#
# _framework density 17.059452
#
# number of rings (size 3 to 8) (size 9 to 14) (size 15 to 20)
#    0.000    2.333    1.667    4.000    0.000    2.333 
#    0.000    0.000    0.000    3.000    0.000    2.333 
#    0.000    0.000    0.000    0.000    0.000    0.000 
#
# Total GULP energy -267479.310162 kJ/mol
# GULP energy per Si atom -5572.485628 kJ/mol
# Density = 1.702062 g / cm^3
# Si number density = 17.059452 Si / 1000 Ang^3
#
#
#
# Elastic Constant Matrix: (Units=GPa)
#
#
# Indices 1 2 3 4 5 6 
#
# 1 168.0642 45.2958 74.8536 0.0000 0.0000 0.0000
# 2 45.2958 63.1810 31.5616 0.0000 0.0000 0.0000
# 3 74.8536 31.5616 80.9633 0.0000 0.0000 0.0000
# 4 0.0000 0.0000 0.0000 23.4931 0.0000 0.0000
# 5 0.0000 0.0000 0.0000 0.0000 17.2391 0.0000
# 6 0.0000 0.0000 0.0000 0.0000 0.0000 19.3931
#
#
#
# Elastic Compliance Matrix: (Units=1/GPa)
#
#
# Indices 1 2 3 4 5 6 
#
# 1 0.010666 -0.003379 -0.008544 0.000000 0.000000 0.000000
# 2 -0.003379 0.020725 -0.004956 0.000000 0.000000 0.000000
# 3 -0.008544 -0.004956 0.022183 0.000000 0.000000 0.000000
# 4 0.000000 0.000000 0.000000 0.042566 0.000000 0.000000
# 5 0.000000 0.000000 0.000000 0.000000 0.058008 0.000000
# 6 0.000000 0.000000 0.000000 0.000000 0.000000 0.051565
#
#
# Mechanical properties :
#
#
# Convention : Reuss Voigt Hill
#
# Bulk Modulus (GPa) = 50.46137 68.40339 59.43238
# Shear Modulus (GPa) = 20.31904 22.72489 21.52197
#
# Velocity S-wave (km/s) = 3.45494 3.65375 3.55573
# Velocity P-wave (km/s) = 6.74977 7.61472 7.19525
#
# Compressibility (1/GPa) = 0.01981714
#
# Stress axis : x y z
#
# Youngs Moduli (GPa) = 93.75444 48.25029 45.08052
#
# Poissons Ratio (x) = 0.16302 0.38518
# Poissons Ratio (y) = 0.31676 0.22340
# Poissons Ratio (z) = 0.80106 0.23911
#
# Static dielectric constant tensor:
#      x y z
#    x 1.609390 0.000000 0.000000 
#    y 0.000000 1.588480 0.000000 
#    z 0.000000 0.000000 1.567420 
# 
# From -- ./inp_files/24502.got.cif
#   From: 2010.05.17/outbox.cif.g08.bks.cpg/sg59_13_cif.got.tgz:24502.got - 2010.06.03 14:40:33.
