data_PCOD9448850
_publ_section_title
;
Structure prediction by ZEFSAII (Michael W. Deem and Ramdas Pophale) SiO2 
 PCOD9448850
Probable space group: P M M N
;
_chemical_formula_sum "Si O2"
_cell_formula_units_Z 56
_cell_length_a 9.169536
_cell_length_b 15.902383
_cell_length_c 20.272571
_cell_angle_alpha 90.000000
_cell_angle_beta 90.000000
_cell_angle_gamma 90.000000
_cell_volume 2956.095083
_symmetry_space_group_name_H-M "P M M N"
_symmetry_group_IT_number 59
_space_group.IT_coordinate_system_code '2'
_symmetry_cell_setting 'orthorhombic'
loop_
_space_group_symop_operation_xyz
x,y,z
1/2-x,1/2-y,z
1/2+x,-y,-z
-x,1/2+y,-z
-x,-y,-z
1/2+x,1/2+y,-z
1/2-x,y,z
x,1/2-y,z
loop_
_atom_site_type_symbol
_atom_site_label
_atom_site_fract_x
_atom_site_fract_y
_atom_site_fract_z
Si Si1 0.574331 0.153425 0.326860
Si Si2 0.573060 0.934442 0.948461
Si Si3 0.578715 0.930294 0.794368
Si Si4 0.916927 0.156761 0.618363
Si Si5 0.423925 0.505277 0.570936
Si Si6 0.927174 0.750000 0.997634
Si Si7 0.411753 0.878042 0.230068
Si Si8 0.078061 0.250000 0.854278
O O1 0.750000 0.148596 0.322271
O O2 0.535306 0.250000 0.344483
O O3 0.507501 0.130037 0.255338
O O4 0.529135 0.083823 0.382027
O O5 0.750000 0.943537 0.953719
O O6 0.533321 0.942301 0.870893
O O7 0.530444 0.838552 0.965955
O O8 0.500000 0.000000 0.000000
O O9 0.750000 0.905720 0.795031
O O10 0.564737 0.023138 0.763991
O O11 0.750000 0.136558 0.596519
O O12 0.954101 0.250000 0.592700
O O13 0.913609 0.159743 0.697383
O O14 0.027766 0.083178 0.602126
O O15 0.500000 0.500000 0.500000
O O16 0.250000 0.510946 0.563860
O O17 0.750000 0.750000 0.996870
O O18 0.982006 0.750000 0.072240
O O19 0.250000 0.865134 0.201112
O O20 0.525014 0.831529 0.184417
O O21 0.250000 0.250000 0.858101
#
# Coordination Sequence:
#
# PCOD9448850 Si02
#       8
#     8   8   8   8   8   4   8   4
#     4  10  23  42  63  90 124 160 198 245 303 359
#     4  10  21  38  58  83 116 157 201 249 303 359
#     4  10  21  36  61  89 114 152 204 253 301 355
#     4  10  20  37  60  86 120 158 191 235 296 352
#     4  11  24  42  65  92 124 161 200 241 289 351
#     4   9  20  37  53  75 115 156 193 238 299 359
#     4  10  19  34  54  82 117 149 187 241 301 350
#     4  11  21  31  51  81 111 154 201 240 291 359
#
# _framework density 18.943909999999999
#
# number of rings (size 3 to 8) (size 9 to 14) (size 15 to 20)
#    0.000    1.857    2.143    1.500    1.000    3.429 
#    0.000    2.500    0.000    0.000    0.000    0.000 
#    0.000    0.000    0.000    0.000    0.000    0.000 
#
# Total GULP energy -312211.994909 kJ/mol
# GULP energy per Si atom -5575.214195 kJ/mol
# Density = 1.890079 g / cm^3
# Si number density = 18.943910 Si / 1000 Ang^3
#
#
#
# Elastic Constant Matrix: (Units=GPa)
#
#
# Indices 1 2 3 4 5 6 
#
# 1 39.5947 40.1050 33.2306 0.0000 0.0000 0.0000
# 2 40.1050 129.5085 53.4954 0.0000 0.0000 0.0000
# 3 33.2306 53.4954 101.8371 0.0000 0.0000 0.0000
# 4 0.0000 0.0000 0.0000 28.8641 0.0000 0.0000
# 5 0.0000 0.0000 0.0000 0.0000 28.1568 0.0000
# 6 0.0000 0.0000 0.0000 0.0000 0.0000 28.7234
#
#
#
# Elastic Compliance Matrix: (Units=1/GPa)
#
#
# Indices 1 2 3 4 5 6 
#
# 1 0.042207 -0.009427 -0.008821 0.000000 0.000000 0.000000
# 2 -0.009427 0.011967 -0.003210 0.000000 0.000000 0.000000
# 3 -0.008821 -0.003210 0.014384 0.000000 0.000000 0.000000
# 4 0.000000 0.000000 0.000000 0.034645 0.000000 0.000000
# 5 0.000000 0.000000 0.000000 0.000000 0.035515 0.000000
# 6 0.000000 0.000000 0.000000 0.000000 0.000000 0.034815
#
#
# Mechanical properties :
#
#
# Convention : Reuss Voigt Hill
#
# Bulk Modulus (GPa) = 38.99730 58.28915 48.64323
# Shear Modulus (GPa) = 22.22261 26.75616 24.48939
#
# Velocity S-wave (km/s) = 3.42873 3.76225 3.59936
# Velocity P-wave (km/s) = 6.02539 7.05045 6.55798
#
# Compressibility (1/GPa) = 0.02564280
#
# Stress axis : x y z
#
# Youngs Moduli (GPa) = 23.69267 83.56542 69.52088
#
# Poissons Ratio (x) = 0.78775 0.61322
# Poissons Ratio (y) = 0.22335 0.22317
# Poissons Ratio (z) = 0.20899 0.26825
#
# Static dielectric constant tensor:
#      x y z
#    x 1.685490 0.000000 0.000000 
#    y 0.000000 1.704880 0.000000 
#    z 0.000000 0.000000 1.684050 
# 
# From -- ./inp_files/29254.got.cif
#   From: 2010.05.17/outbox.cif.g08.bks.cpg/sg59_15_cif.got.tgz:29254.got - 2010.06.03 14:40:33.
