data_PCOD9448254
_publ_section_title
;
Structure prediction by ZEFSAII (Michael W. Deem and Ramdas Pophale) SiO2 
 PCOD9448254
Probable space group: P M M N
;
_chemical_formula_sum "Si O2"
_cell_formula_units_Z 48
_cell_length_a 8.422055
_cell_length_b 16.090520
_cell_length_c 19.854608
_cell_angle_alpha 90.000000
_cell_angle_beta 90.000000
_cell_angle_gamma 90.000000
_cell_volume 2690.602056
_symmetry_space_group_name_H-M "P M M N"
_symmetry_group_IT_number 59
_space_group.IT_coordinate_system_code '2'
_symmetry_cell_setting 'orthorhombic'
loop_
_space_group_symop_operation_xyz
x,y,z
1/2-x,1/2-y,z
1/2+x,-y,-z
-x,1/2+y,-z
-x,-y,-z
1/2+x,1/2+y,-z
1/2-x,y,z
x,1/2-y,z
loop_
_atom_site_type_symbol
_atom_site_label
_atom_site_fract_x
_atom_site_fract_y
_atom_site_fract_z
Si Si1 0.555672 0.502511 0.836172
Si Si2 0.440365 0.571776 0.297953
Si Si3 0.439277 0.571557 0.451269
Si Si4 0.568005 0.750000 0.455347
Si Si5 0.567470 0.750000 0.291863
Si Si6 0.441980 0.156141 0.073511
Si Si7 0.558522 0.156968 0.921314
O O1 0.750000 0.502960 0.836501
O O2 0.503888 0.492485 0.758762
O O3 0.503529 0.584782 0.875408
O O4 0.503150 0.419821 0.876114
O O5 0.250000 0.567073 0.301416
O O6 0.501598 0.560527 0.374194
O O7 0.483317 0.664445 0.272624
O O8 0.500000 0.500000 0.500000
O O9 0.250000 0.568068 0.448735
O O10 0.488374 0.663490 0.475704
O O11 0.750000 0.750000 0.477170
O O12 0.562896 0.750000 0.373686
O O13 0.750000 0.750000 0.270235
O O14 0.250000 0.152654 0.069849
O O15 0.486711 0.250000 0.094252
O O16 0.507782 0.142495 0.998486
O O17 0.750000 0.157829 0.918082
O O18 0.502218 0.250000 0.901449
#
# Coordination Sequence:
#
# PCOD9448254 Si02
#       7
#     8   8   8   4   4   8   8
#     4   9  17  29  47  68  91 120 159 198 232 276
#     4   9  18  31  49  70  95 127 166 200 233 285
#     4  10  19  32  52  76 102 134 169 207 251 298
#     4   9  17  31  51  75 101 129 162 201 244 297
#     4   9  17  29  45  69 101 127 150 185 240 297
#     4   9  17  30  47  65  88 120 155 196 241 277
#     4   9  17  28  44  67  91 118 153 191 234 283
#
# _framework density 17.839873000000001
#
# number of rings (size 3 to 8) (size 9 to 14) (size 15 to 20)
#    0.000    2.833    0.000    1.500    1.167    2.667 
#    0.000    1.667    1.833    0.000    0.000    0.000 
#    0.000    0.000    0.000    0.000    0.000    0.000 
#
# Total GULP energy -267515.626782 kJ/mol
# GULP energy per Si atom -5573.242225 kJ/mol
# Density = 1.779927 g / cm^3
# Si number density = 17.839873 Si / 1000 Ang^3
#
#
#
# Elastic Constant Matrix: (Units=GPa)
#
#
# Indices 1 2 3 4 5 6 
#
# 1 13.0881 20.1204 10.4368 0.0000 0.0000 0.0000
# 2 20.1204 137.1212 82.7514 0.0000 0.0000 0.0000
# 3 10.4368 82.7514 86.3462 0.0000 0.0000 0.0000
# 4 0.0000 0.0000 0.0000 27.3881 0.0000 0.0000
# 5 0.0000 0.0000 0.0000 0.0000 16.2376 0.0000
# 6 0.0000 0.0000 0.0000 0.0000 0.0000 19.9809
#
#
#
# Elastic Compliance Matrix: (Units=1/GPa)
#
#
# Indices 1 2 3 4 5 6 
#
# 1 0.099445 -0.017404 0.004659 0.000000 0.000000 0.000000
# 2 -0.017404 0.020342 -0.017392 0.000000 0.000000 0.000000
# 3 0.004659 -0.017392 0.027686 0.000000 0.000000 0.000000
# 4 0.000000 0.000000 0.000000 0.036512 0.000000 0.000000
# 5 0.000000 0.000000 0.000000 0.000000 0.061585 0.000000
# 6 0.000000 0.000000 0.000000 0.000000 0.000000 0.050048
#
#
# Mechanical properties :
#
#
# Convention : Reuss Voigt Hill
#
# Bulk Modulus (GPa) = 11.46786 51.46363 31.46574
# Shear Modulus (GPa) = 12.98841 20.93777 16.96309
#
# Velocity S-wave (km/s) = 2.70118 3.42957 3.08694
# Velocity P-wave (km/s) = 4.02127 6.67778 5.51196
#
# Compressibility (1/GPa) = 0.08720025
#
# Stress axis : x y z
#
# Youngs Moduli (GPa) = 10.05581 49.15855 36.11947
#
# Poissons Ratio (x) = 0.85554 -0.16828
# Poissons Ratio (y) = 0.17501 0.62818
# Poissons Ratio (z) = -0.04685 0.85496
#
# Static dielectric constant tensor:
#      x y z
#    x 1.616240 0.000000 0.000000 
#    y 0.000000 1.603540 0.000000 
#    z 0.000000 0.000000 1.622150 
# 
# From -- ./inp_files/25583.got.cif
#   From: 2010.05.17/outbox.cif.g08.bks.cpg/sg59_13_cif.got.tgz:25583.got - 2010.06.03 14:40:33.
