data_PCOD9448925
_publ_section_title
;
Structure prediction by ZEFSAII (Michael W. Deem and Ramdas Pophale) SiO2 
 PCOD9448925
Probable space group: P M M N
;
_chemical_formula_sum "Si O2"
_cell_formula_units_Z 48
_cell_length_a 16.737678
_cell_length_b 14.501771
_cell_length_c 10.403621
_cell_angle_alpha 90.000000
_cell_angle_beta 90.000000
_cell_angle_gamma 90.000000
_cell_volume 2525.229034
_symmetry_space_group_name_H-M "P M M N"
_symmetry_group_IT_number 59
_space_group.IT_coordinate_system_code '2'
_symmetry_cell_setting 'orthorhombic'
loop_
_space_group_symop_operation_xyz
x,y,z
1/2-x,1/2-y,z
1/2+x,-y,-z
-x,1/2+y,-z
-x,-y,-z
1/2+x,1/2+y,-z
1/2-x,y,z
x,1/2-y,z
loop_
_atom_site_type_symbol
_atom_site_label
_atom_site_fract_x
_atom_site_fract_y
_atom_site_fract_z
Si Si1 0.157362 0.975305 0.030984
Si Si2 0.847169 0.355007 0.726495
Si Si3 0.080959 0.354427 0.135854
Si Si4 0.394686 0.857206 0.794568
Si Si5 0.153620 0.353955 0.417321
Si Si6 0.846903 0.042164 0.463697
O O1 0.250000 0.998807 0.054320
O O2 0.127234 0.913103 0.149930
O O3 0.107608 0.069264 0.034280
O O4 0.150664 0.915272 0.903011
O O5 0.750000 0.353291 0.729952
O O6 0.875537 0.250000 0.732658
O O7 0.869334 0.403362 0.593432
O O8 0.102250 0.250000 0.097238
O O9 0.124325 0.373738 0.272465
O O10 0.987149 0.358206 0.164202
O O11 0.368430 0.750000 0.787613
O O12 0.383162 0.907593 0.658950
O O13 0.250000 0.354676 0.415230
O O14 0.126633 0.250000 0.451073
O O15 0.128312 0.436001 0.512168
O O16 0.750000 0.045001 0.451465
#
# Coordination Sequence:
#
# PCOD9448925 Si02
#       6
#     8   8   8   8   8   8
#     4  11  21  37  59  83 109 146 194 237 280 330
#     4   9  17  30  51  78 107 139 184 235 273 317
#     4  10  21  38  59  83 113 148 190 234 284 339
#     4  11  24  38  55  82 120 156 181 223 291 352
#     4   9  17  33  58  84 109 142 189 240 282 325
#     4  10  19  34  56  83 111 146 189 232 280 333
#
# _framework density 19.008178000000001
#
# number of rings (size 3 to 8) (size 9 to 14) (size 15 to 20)
#    0.000    2.000    1.667    2.500    0.000    4.333 
#    0.000    0.833    0.000    3.000    0.000    0.000 
#    0.000    0.000    0.000    0.000    0.000    0.000 
#
# Total GULP energy -267969.211583 kJ/mol
# GULP energy per Si atom -5582.691908 kJ/mol
# Density = 1.896491 g / cm^3
# Si number density = 19.008178 Si / 1000 Ang^3
#
#
#
# Elastic Constant Matrix: (Units=GPa)
#
#
# Indices 1 2 3 4 5 6 
#
# 1 11.2970 12.6227 -2.6910 0.0000 0.0000 0.0000
# 2 12.6227 126.9931 25.5639 0.0000 0.0000 0.0000
# 3 -2.6910 25.5639 64.3383 0.0000 0.0000 0.0000
# 4 0.0000 0.0000 0.0000 29.0294 0.0000 0.0000
# 5 0.0000 0.0000 0.0000 0.0000 11.4743 0.0000
# 6 0.0000 0.0000 0.0000 0.0000 0.0000 11.8429
#
#
#
# Elastic Compliance Matrix: (Units=1/GPa)
#
#
# Indices 1 2 3 4 5 6 
#
# 1 0.104386 -0.012233 0.009227 0.000000 0.000000 0.000000
# 2 -0.012233 0.009993 -0.004482 0.000000 0.000000 0.000000
# 3 0.009227 -0.004482 0.017710 0.000000 0.000000 0.000000
# 4 0.000000 0.000000 0.000000 0.034448 0.000000 0.000000
# 5 0.000000 0.000000 0.000000 0.000000 0.087152 0.000000
# 6 0.000000 0.000000 0.000000 0.000000 0.000000 0.084439
#
#
# Mechanical properties :
#
#
# Convention : Reuss Voigt Hill
#
# Bulk Modulus (GPa) = 8.53889 30.40215 19.47052
# Shear Modulus (GPa) = 12.75056 21.61151 17.18103
#
# Velocity S-wave (km/s) = 2.59278 3.37554 3.00971
# Velocity P-wave (km/s) = 3.66951 5.58760 4.72687
#
# Compressibility (1/GPa) = 0.11711127
#
# Stress axis : x y z
#
# Youngs Moduli (GPa) = 9.57985 100.07409 56.46647
#
# Poissons Ratio (x) = 1.22420 -0.52099
# Poissons Ratio (y) = 0.11719 0.25309
# Poissons Ratio (z) = -0.08839 0.44854
#
# Static dielectric constant tensor:
#      x y z
#    x 1.664420 0.000000 0.000000 
#    y 0.000000 1.683760 0.000000 
#    z 0.000000 0.000000 1.625940 
# 
# From -- ./inp_files/8989.got.cif
#   From: 2010.05.17/outbox.cif.g08.bks.cpg/sg59_5_cif.got.tgz:8989.got - 2010.06.03 14:40:33.
