data_PCOD9448480
_publ_section_title
;
Structure prediction by ZEFSAII (Michael W. Deem and Ramdas Pophale) SiO2 
 PCOD9448480
Probable space group: P M M N
;
_chemical_formula_sum "Si O2"
_cell_formula_units_Z 64
_cell_length_a 15.677696
_cell_length_b 13.315833
_cell_length_c 17.143748
_cell_angle_alpha 90.000000
_cell_angle_beta 90.000000
_cell_angle_gamma 90.000000
_cell_volume 3578.955950
_symmetry_space_group_name_H-M "P M M N"
_symmetry_group_IT_number 59
_space_group.IT_coordinate_system_code '2'
_symmetry_cell_setting 'orthorhombic'
loop_
_space_group_symop_operation_xyz
x,y,z
1/2-x,1/2-y,z
1/2+x,-y,-z
-x,1/2+y,-z
-x,-y,-z
1/2+x,1/2+y,-z
1/2-x,y,z
x,1/2-y,z
loop_
_atom_site_type_symbol
_atom_site_label
_atom_site_fract_x
_atom_site_fract_y
_atom_site_fract_z
Si Si1 0.562412 0.489535 0.143192
Si Si2 0.105060 0.367216 0.144136
Si Si3 0.849732 0.986044 0.699557
Si Si4 0.653408 0.636630 0.030274
Si Si5 0.146844 0.043373 0.615705
Si Si6 0.148414 0.637222 0.722234
Si Si7 0.502674 0.867001 0.277412
Si Si8 0.646950 0.863284 0.547490
O O1 0.486855 0.413442 0.123484
O O2 0.604900 0.544991 0.070656
O O3 0.622259 0.425364 0.201238
O O4 0.525795 0.579289 0.196364
O O5 0.100570 0.250000 0.165887
O O6 0.140316 0.429786 0.217364
O O7 0.155078 0.375068 0.063062
O O8 0.750000 0.013978 0.689249
O O9 0.876164 0.910176 0.630427
O O10 0.916733 0.076892 0.694982
O O11 0.750000 0.635097 0.060728
O O12 0.618283 0.750000 0.045772
O O13 0.250000 0.060605 0.627499
O O14 0.126072 0.066138 0.525905
O O15 0.084442 0.113017 0.666910
O O16 0.126241 0.931777 0.647595
O O17 0.250000 0.645361 0.722190
O O18 0.111632 0.750000 0.721190
O O19 0.488377 0.750000 0.269071
O O20 0.750000 0.856980 0.547768
O O21 0.613688 0.750000 0.536775
#
# Coordination Sequence:
#
# PCOD9448480 Si02
#       8
#     8   8   8   8   8   8   8   8
#     4  10  19  33  51  74 103 134 170 210 259 315
#     4  10  20  34  54  78 103 133 171 218 269 315
#     4  10  21  36  54  76 104 140 181 222 264 310
#     4  10  20  33  51  76 104 134 170 213 261 312
#     4   9  18  33  53  78 107 137 171 214 265 317
#     4   9  17  30  49  73 104 140 173 208 253 309
#     4  10  21  35  52  75 103 136 175 216 261 316
#     4   9  17  31  53  79 106 137 175 220 267 313
#
# _framework density 17.88231
#
# number of rings (size 3 to 8) (size 9 to 14) (size 15 to 20)
#    0.000    2.375    0.000    2.625    0.000    3.250 
#    0.000    1.250    0.000    3.000    0.000    0.000 
#    0.000    0.000    0.000    0.000    0.000    0.000 
#
# Total GULP energy -356565.118112 kJ/mol
# GULP energy per Si atom -5571.329971 kJ/mol
# Density = 1.784161 g / cm^3
# Si number density = 17.882310 Si / 1000 Ang^3
#
#
#
# Elastic Constant Matrix: (Units=GPa)
#
#
# Indices 1 2 3 4 5 6 
#
# 1 48.2339 24.6113 13.3193 0.0000 0.0000 0.0000
# 2 24.6113 125.4766 39.6487 0.0000 0.0000 0.0000
# 3 13.3193 39.6487 68.5130 0.0000 0.0000 0.0000
# 4 0.0000 0.0000 0.0000 17.0863 0.0000 0.0000
# 5 0.0000 0.0000 0.0000 0.0000 15.8189 0.0000
# 6 0.0000 0.0000 0.0000 0.0000 0.0000 17.9790
#
#
#
# Elastic Compliance Matrix: (Units=1/GPa)
#
#
# Indices 1 2 3 4 5 6 
#
# 1 0.023333 -0.003847 -0.002310 0.000000 0.000000 0.000000
# 2 -0.003847 0.010387 -0.005263 0.000000 0.000000 0.000000
# 3 -0.002310 -0.005263 0.018091 0.000000 0.000000 0.000000
# 4 0.000000 0.000000 0.000000 0.058526 0.000000 0.000000
# 5 0.000000 0.000000 0.000000 0.000000 0.063216 0.000000
# 6 0.000000 0.000000 0.000000 0.000000 0.000000 0.055620
#
#
# Mechanical properties :
#
#
# Convention : Reuss Voigt Hill
#
# Bulk Modulus (GPa) = 34.51725 44.15354 39.33539
# Shear Modulus (GPa) = 19.10802 21.15313 20.13057
#
# Velocity S-wave (km/s) = 3.27240 3.44307 3.35882
# Velocity P-wave (km/s) = 5.79849 6.36798 6.08990
#
# Compressibility (1/GPa) = 0.02897102
#
# Stress axis : x y z
#
# Youngs Moduli (GPa) = 42.85788 96.27204 55.27696
#
# Poissons Ratio (x) = 0.37033 0.12769
# Poissons Ratio (y) = 0.16486 0.29094
# Poissons Ratio (z) = 0.09900 0.50671
#
# Static dielectric constant tensor:
#      x y z
#    x 1.645230 0.000000 0.000000 
#    y 0.000000 1.605350 0.000000 
#    z 0.000000 0.000000 1.609970 
# 
# From -- ./inp_files/27676.got.cif
#   From: 2010.05.17/outbox.cif.g08.bks.cpg/sg59_14_cif.got.tgz:27676.got - 2010.06.03 14:40:33.
