data_PCOD9448069
_publ_section_title
;
Structure prediction by ZEFSAII (Michael W. Deem and Ramdas Pophale) SiO2 
 PCOD9448069
Probable space group: P M M N
;
_chemical_formula_sum "Si O2"
_cell_formula_units_Z 64
_cell_length_a 7.827035
_cell_length_b 28.477434
_cell_length_c 14.886903
_cell_angle_alpha 90.000000
_cell_angle_beta 90.000000
_cell_angle_gamma 90.000000
_cell_volume 3318.199461
_symmetry_space_group_name_H-M "P M M N"
_symmetry_group_IT_number 59
_space_group.IT_coordinate_system_code '2'
_symmetry_cell_setting 'orthorhombic'
loop_
_space_group_symop_operation_xyz
x,y,z
1/2-x,1/2-y,z
1/2+x,-y,-z
-x,1/2+y,-z
-x,-y,-z
1/2+x,1/2+y,-z
1/2-x,y,z
x,1/2-y,z
loop_
_atom_site_type_symbol
_atom_site_label
_atom_site_fract_x
_atom_site_fract_y
_atom_site_fract_z
Si Si1 0.451173 0.802448 0.458563
Si Si2 0.046356 0.303986 0.738939
Si Si3 0.453317 0.946655 0.481291
Si Si4 0.540769 0.934516 0.766556
Si Si5 0.550619 0.886198 0.134637
Si Si6 0.543513 0.946565 0.971536
Si Si7 0.557589 0.630495 0.614852
Si Si8 0.043755 0.960515 0.280879
O O1 0.250000 0.800006 0.444601
O O2 0.523914 0.750000 0.467885
O O3 0.519636 0.821698 0.363506
O O4 0.478244 0.830495 0.550366
O O5 0.250000 0.301634 0.751872
O O6 0.979804 0.250000 0.744964
O O7 0.976959 0.340825 0.812807
O O8 0.250000 0.938564 0.493456
O O9 0.554816 0.914338 0.549014
O O10 0.496514 0.938883 0.377435
O O11 0.500000 0.000000 0.500000
O O12 0.750000 0.933011 0.763475
O O13 0.479121 0.890761 0.706264
O O14 0.490321 0.984989 0.725056
O O15 0.486809 0.935620 0.870159
O O16 0.750000 0.875720 0.117253
O O17 0.476960 0.908004 0.042754
O O18 0.537582 0.929450 0.203761
O O19 0.750000 0.944342 0.972085
O O20 0.500000 0.000000 0.000000
O O21 0.750000 0.645792 0.634835
O O22 0.250000 0.959532 0.269745
#
# Coordination Sequence:
#
# PCOD9448069 Si02
#       8
#     8   8   8   8   8   8   8   8
#     4  10  21  37  56  80 107 134 169 212 257 307
#     4   9  18  34  54  76 104 135 165 203 255 310
#     4  11  21  32  46  68 100 136 172 207 251 303
#     4   9  18  33  49  67  97 136 170 206 249 298
#     4  10  20  31  49  77 100 125 166 214 256 298
#     4  10  19  33  51  71  99 133 170 210 253 298
#     4  11  21  35  53  73 100 137 178 212 253 305
#     4  10  19  32  47  66  97 136 169 197 246 303
#
# _framework density 19.287569000000001
#
# number of rings (size 3 to 8) (size 9 to 14) (size 15 to 20)
#    0.000    2.000    2.500    1.875    0.000    4.250 
#    0.000    1.250    0.000    0.750    0.000    3.500 
#    0.000    2.000    0.000    0.000    0.000    0.000 
#
# Total GULP energy -356916.838312 kJ/mol
# GULP energy per Si atom -5576.825599 kJ/mol
# Density = 1.924367 g / cm^3
# Si number density = 19.287569 Si / 1000 Ang^3
#
#
#
# Elastic Constant Matrix: (Units=GPa)
#
#
# Indices 1 2 3 4 5 6 
#
# 1 24.3315 0.7733 9.9580 0.0000 0.0000 0.0000
# 2 0.7733 94.2922 55.1459 0.0000 0.0000 0.0000
# 3 9.9580 55.1459 142.6065 0.0000 0.0000 0.0000
# 4 0.0000 0.0000 0.0000 31.1093 0.0000 0.0000
# 5 0.0000 0.0000 0.0000 0.0000 8.2370 0.0000
# 6 0.0000 0.0000 0.0000 0.0000 0.0000 17.4745
#
#
#
# Elastic Compliance Matrix: (Units=1/GPa)
#
#
# Indices 1 2 3 4 5 6 
#
# 1 0.042542 0.001794 -0.003664 0.000000 0.000000 0.000000
# 2 0.001794 0.013780 -0.005454 0.000000 0.000000 0.000000
# 3 -0.003664 -0.005454 0.009377 0.000000 0.000000 0.000000
# 4 0.000000 0.000000 0.000000 0.032145 0.000000 0.000000
# 5 0.000000 0.000000 0.000000 0.000000 0.121404 0.000000
# 6 0.000000 0.000000 0.000000 0.000000 0.000000 0.057226
#
#
# Mechanical properties :
#
#
# Convention : Reuss Voigt Hill
#
# Bulk Modulus (GPa) = 19.58841 43.66496 31.62669
# Shear Modulus (GPa) = 16.22639 24.38767 20.30703
#
# Velocity S-wave (km/s) = 2.90364 3.55973 3.24829
# Velocity P-wave (km/s) = 4.62813 6.29155 5.52283
#
# Compressibility (1/GPa) = 0.05105061
#
# Stress axis : x y z
#
# Youngs Moduli (GPa) = 23.50638 72.56659 106.64029
#
# Poissons Ratio (x) = -0.13020 0.39078
# Poissons Ratio (y) = -0.04218 0.58164
# Poissons Ratio (z) = 0.08614 0.39579
#
# Static dielectric constant tensor:
#      x y z
#    x 1.730050 0.000000 0.000000 
#    y 0.000000 1.705320 0.000000 
#    z 0.000000 0.000000 1.696170 
# 
# From -- ./inp_files/21965.got.cif
#   From: 2010.05.17/outbox.cif.g08.bks.cpg/sg59_11_cif.got.tgz:21965.got - 2010.06.03 14:40:33.
