data_PCOD9448753
_publ_section_title
;
Structure prediction by ZEFSAII (Michael W. Deem and Ramdas Pophale) SiO2 
 PCOD9448753
Probable space group: P M M N
;
_chemical_formula_sum "Si O2"
_cell_formula_units_Z 64
_cell_length_a 32.357083
_cell_length_b 8.545781
_cell_length_c 12.365777
_cell_angle_alpha 90.000000
_cell_angle_beta 90.000000
_cell_angle_gamma 90.000000
_cell_volume 3419.341934
_symmetry_space_group_name_H-M "P M M N"
_symmetry_group_IT_number 59
_space_group.IT_coordinate_system_code '2'
_symmetry_cell_setting 'orthorhombic'
loop_
_space_group_symop_operation_xyz
x,y,z
1/2-x,1/2-y,z
1/2+x,-y,-z
-x,1/2+y,-z
-x,-y,-z
1/2+x,1/2+y,-z
1/2-x,y,z
x,1/2-y,z
loop_
_atom_site_type_symbol
_atom_site_label
_atom_site_fract_x
_atom_site_fract_y
_atom_site_fract_z
Si Si1 0.871716 0.439769 0.397422
Si Si2 0.942083 0.562799 0.239651
Si Si3 0.624226 0.564716 0.871714
Si Si4 0.047157 0.564679 0.993798
Si Si5 0.610885 0.438995 0.640152
Si Si6 0.297334 0.560766 0.996651
Si Si7 0.204228 0.559701 0.747157
Si Si8 0.516399 0.438054 0.613974
O O1 0.875807 0.250000 0.392183
O O2 0.909627 0.512366 0.331142
O O3 0.870723 0.482504 0.523479
O O4 0.830846 0.491010 0.334541
O O5 0.940866 0.750000 0.224477
O O6 0.935670 0.480841 0.124940
O O7 0.986508 0.515725 0.288345
O O8 0.621950 0.750000 0.881044
O O9 0.629158 0.513503 0.747352
O O10 0.664587 0.504438 0.935468
O O11 0.581178 0.497130 0.920709
O O12 0.044662 0.750000 0.006710
O O13 0.000000 0.500000 0.000000
O O14 0.612896 0.250000 0.650236
O O15 0.562975 0.488151 0.633985
O O16 0.250000 0.514599 0.027788
O O17 0.298691 0.750000 0.001545
O O18 0.303452 0.513372 0.871190
O O19 0.250000 0.507237 0.715837
O O20 0.204150 0.750000 0.746648
O O21 0.500000 0.500000 0.500000
O O22 0.515835 0.250000 0.608114
#
# Coordination Sequence:
#
# PCOD9448753 Si02
#       8
#     8   8   8   8   8   8   8   8
#     4  10  19  33  56  83 111 148 190 234 283 334
#     4  11  22  35  55  84 115 149 188 235 286 340
#     4  12  25  40  60  86 118 159 202 250 309 363
#     4  12  25  42  62  85 117 155 197 245 298 360
#     4  10  21  37  55  79 114 156 200 243 287 345
#     4   9  18  36  63  91 119 154 196 244 301 364
#     4   8  15  30  55  86 113 137 174 227 285 342
#     4  10  20  34  53  77 110 148 188 233 277 331
#
# _framework density 18.717051999999999
#
# number of rings (size 3 to 8) (size 9 to 14) (size 15 to 20)
#    0.000    1.750    1.250    4.875    0.000    3.750 
#    0.000    0.625    0.000    3.375    0.000    0.000 
#    0.000    0.000    0.000    0.000    0.000    0.000 
#
# Total GULP energy -357385.752914 kJ/mol
# GULP energy per Si atom -5584.152389 kJ/mol
# Density = 1.867445 g / cm^3
# Si number density = 18.717052 Si / 1000 Ang^3
#
#
#
# Elastic Constant Matrix: (Units=GPa)
#
#
# Indices 1 2 3 4 5 6 
#
# 1 136.4389 39.2424 71.5870 0.0000 0.0000 0.0000
# 2 39.2424 56.1907 34.6315 0.0000 0.0000 0.0000
# 3 71.5870 34.6315 114.5795 0.0000 0.0000 0.0000
# 4 0.0000 0.0000 0.0000 23.5866 0.0000 0.0000
# 5 0.0000 0.0000 0.0000 0.0000 36.8502 0.0000
# 6 0.0000 0.0000 0.0000 0.0000 0.0000 24.5085
#
#
#
# Elastic Compliance Matrix: (Units=1/GPa)
#
#
# Indices 1 2 3 4 5 6 
#
# 1 0.011774 -0.004533 -0.005986 0.000000 0.000000 0.000000
# 2 -0.004533 0.023616 -0.004306 0.000000 0.000000 0.000000
# 3 -0.005986 -0.004306 0.013769 0.000000 0.000000 0.000000
# 4 0.000000 0.000000 0.000000 0.042397 0.000000 0.000000
# 5 0.000000 0.000000 0.000000 0.000000 0.027137 0.000000
# 6 0.000000 0.000000 0.000000 0.000000 0.000000 0.040802
#
#
# Mechanical properties :
#
#
# Convention : Reuss Voigt Hill
#
# Bulk Modulus (GPa) = 51.25808 66.45901 58.85855
# Shear Modulus (GPa) = 25.55615 27.77226 26.66421
#
# Velocity S-wave (km/s) = 3.69913 3.85618 3.77847
# Velocity P-wave (km/s) = 6.75944 7.44387 7.10989
#
# Compressibility (1/GPa) = 0.01950912
#
# Stress axis : x y z
#
# Youngs Moduli (GPa) = 84.93398 42.34383 72.62814
#
# Poissons Ratio (x) = 0.19196 0.43474
# Poissons Ratio (y) = 0.38504 0.31271
# Poissons Ratio (z) = 0.50840 0.18232
#
# Static dielectric constant tensor:
#      x y z
#    x 1.667660 0.000000 0.000000 
#    y 0.000000 1.639550 0.000000 
#    z 0.000000 0.000000 1.646020 
# 
# From -- ./inp_files/19238.got.cif
#   From: 2010.05.17/outbox.cif.g08.bks.cpg/sg59_10_cif.got.tgz:19238.got - 2010.06.03 14:40:33.
