data_PCOD9448820
_publ_section_title
;
Structure prediction by ZEFSAII (Michael W. Deem and Ramdas Pophale) SiO2 
 PCOD9448820
Probable space group: P M M N
;
_chemical_formula_sum "Si O2"
_cell_formula_units_Z 56
_cell_length_a 14.074505
_cell_length_b 14.447592
_cell_length_c 14.118932
_cell_angle_alpha 90.000000
_cell_angle_beta 90.000000
_cell_angle_gamma 90.000000
_cell_volume 2870.981836
_symmetry_space_group_name_H-M "P M M N"
_symmetry_group_IT_number 59
_space_group.IT_coordinate_system_code '2'
_symmetry_cell_setting 'orthorhombic'
loop_
_space_group_symop_operation_xyz
x,y,z
1/2-x,1/2-y,z
1/2+x,-y,-z
-x,1/2+y,-z
-x,-y,-z
1/2+x,1/2+y,-z
1/2-x,y,z
x,1/2-y,z
loop_
_atom_site_type_symbol
_atom_site_label
_atom_site_fract_x
_atom_site_fract_y
_atom_site_fract_z
Si Si1 0.360000 0.913790 0.374455
Si Si2 0.638089 0.647769 0.962573
Si Si3 0.447375 0.460798 0.869042
Si Si4 0.356240 0.482431 0.194377
Si Si5 0.863290 0.466753 0.410558
Si Si6 0.941861 0.853092 0.317977
Si Si7 0.134854 0.642545 0.777425
O O1 0.250000 0.880373 0.368720
O O2 0.365236 0.005039 0.306907
O O3 0.382899 0.933302 0.483461
O O4 0.443581 0.852252 0.330673
O O5 0.750000 0.646131 0.987022
O O6 0.599895 0.750000 0.977488
O O7 0.585916 0.576521 0.030909
O O8 0.632235 0.617542 0.852951
O O9 0.560442 0.460193 0.854434
O O10 0.412245 0.392102 0.785310
O O11 0.409802 0.564266 0.845815
O O12 0.250000 0.514727 0.169152
O O13 0.750000 0.476416 0.402914
O O14 0.907560 0.566356 0.388255
O O15 0.891867 0.394093 0.328289
O O16 0.904903 0.750000 0.334074
O O17 0.250000 0.638324 0.785456
O O18 0.106977 0.750000 0.792207
#
# Coordination Sequence:
#
# PCOD9448820 Si02
#       7
#     8   8   8   8   8   8   8
#     4   9  18  34  53  71  98 138 177 214 259 304
#     4  10  20  34  54  79 104 133 171 213 260 317
#     4  10  19  34  54  76 105 140 171 210 265 318
#     4   9  19  35  53  73  99 133 175 219 255 296
#     4   9  18  33  52  74 104 140 173 211 261 312
#     4  10  20  32  49  76 106 134 169 212 255 308
#     4   9  18  32  51  78 107 134 173 221 264 311
#
# _framework density 19.505523
#
# number of rings (size 3 to 8) (size 9 to 14) (size 15 to 20)
#    0.000    2.571    0.000    1.714    0.000    2.286 
#    0.000    2.143    0.000    4.714    0.000    8.000 
#    0.000    0.000    0.000    0.000    0.000    0.000 
#
# Total GULP energy -311892.671230 kJ/mol
# GULP energy per Si atom -5569.511986 kJ/mol
# Density = 1.946113 g / cm^3
# Si number density = 19.505523 Si / 1000 Ang^3
#
#
#
# Elastic Constant Matrix: (Units=GPa)
#
#
# Indices 1 2 3 4 5 6 
#
# 1 26.8166 20.9960 2.7422 0.0000 0.0000 0.0000
# 2 20.9960 127.1650 37.6417 0.0000 0.0000 0.0000
# 3 2.7422 37.6417 73.1871 0.0000 0.0000 0.0000
# 4 0.0000 0.0000 0.0000 5.7997 0.0000 0.0000
# 5 0.0000 0.0000 0.0000 0.0000 15.1735 0.0000
# 6 0.0000 0.0000 0.0000 0.0000 0.0000 10.9620
#
#
#
# Elastic Compliance Matrix: (Units=1/GPa)
#
#
# Indices 1 2 3 4 5 6 
#
# 1 0.043186 -0.007846 0.002417 0.000000 0.000000 0.000000
# 2 -0.007846 0.010701 -0.005210 0.000000 0.000000 0.000000
# 3 0.002417 -0.005210 0.016253 0.000000 0.000000 0.000000
# 4 0.000000 0.000000 0.000000 0.172424 0.000000 0.000000
# 5 0.000000 0.000000 0.000000 0.000000 0.065904 0.000000
# 6 0.000000 0.000000 0.000000 0.000000 0.000000 0.091224
#
#
# Mechanical properties :
#
#
# Convention : Reuss Voigt Hill
#
# Bulk Modulus (GPa) = 20.46547 38.88094 29.67321
# Shear Modulus (GPa) = 11.43492 17.43963 14.43727
#
# Velocity S-wave (km/s) = 2.42387 2.99337 2.72355
# Velocity P-wave (km/s) = 4.28351 5.65010 5.01358
#
# Compressibility (1/GPa) = 0.04886278
#
# Stress axis : x y z
#
# Youngs Moduli (GPa) = 23.15560 93.44570 61.52847
#
# Poissons Ratio (x) = 0.73316 -0.14872
# Poissons Ratio (y) = 0.18168 0.32056
# Poissons Ratio (z) = -0.05597 0.48685
#
# Static dielectric constant tensor:
#      x y z
#    x 1.729430 0.000000 0.000000 
#    y 0.000000 1.676990 0.000000 
#    z 0.000000 0.000000 1.695900 
# 
# From -- ./inp_files/23243.got.cif
#   From: 2010.05.17/outbox.cif.g08.bks.cpg/sg59_12_cif.got.tgz:23243.got - 2010.06.03 14:40:33.
