data_PCOD9448426
_publ_section_title
;
Structure prediction by ZEFSAII (Michael W. Deem and Ramdas Pophale) SiO2 
 PCOD9448426
Probable space group: P M M N
;
_chemical_formula_sum "Si O2"
_cell_formula_units_Z 40
_cell_length_a 7.930029
_cell_length_b 16.632668
_cell_length_c 14.135247
_cell_angle_alpha 90.000000
_cell_angle_beta 90.000000
_cell_angle_gamma 90.000000
_cell_volume 1864.404301
_symmetry_space_group_name_H-M "P M M N"
_symmetry_group_IT_number 59
_space_group.IT_coordinate_system_code '2'
_symmetry_cell_setting 'orthorhombic'
loop_
_space_group_symop_operation_xyz
x,y,z
1/2-x,1/2-y,z
1/2+x,-y,-z
-x,1/2+y,-z
-x,-y,-z
1/2+x,1/2+y,-z
1/2-x,y,z
x,1/2-y,z
loop_
_atom_site_type_symbol
_atom_site_label
_atom_site_fract_x
_atom_site_fract_y
_atom_site_fract_z
Si Si1 0.050066 0.083475 0.298346
Si Si2 0.544636 0.750000 0.383399
Si Si3 0.048758 0.088415 0.721365
Si Si4 0.552275 0.250000 0.397714
Si Si5 0.047090 0.076166 0.935363
Si Si6 0.455754 0.162077 0.113316
O O1 0.250000 0.074377 0.293853
O O2 0.982070 0.099578 0.191602
O O3 0.015958 0.165771 0.354949
O O4 0.982417 0.996906 0.330280
O O5 0.750000 0.750000 0.383378
O O6 0.486155 0.831684 0.331241
O O7 0.486012 0.750000 0.491149
O O8 0.250000 0.097853 0.728335
O O9 0.979448 0.081443 0.829028
O O10 0.750000 0.250000 0.379913
O O11 0.250000 0.077408 0.928601
O O12 0.992055 0.147200 0.005924
O O13 0.000000 0.000000 0.000000
O O14 0.250000 0.158896 0.114806
O O15 0.507545 0.250000 0.145788
#
# Coordination Sequence:
#
# PCOD9448426 Si02
#       6
#     8   4   8   4   8   8
#     4  11  21  38  65  94 124 162 202 248 308 371
#     4  10  24  46  65  86 120 163 210 255 308 370
#     4  10  22  39  61  91 126 164 208 257 302 354
#     4  12  26  44  67  94 120 149 196 261 320 370
#     4  10  19  32  54  85 121 160 202 245 292 350
#     4   9  17  30  52  84 119 157 200 238 285 352
#
# _framework density 21.454573
#
# number of rings (size 3 to 8) (size 9 to 14) (size 15 to 20)
#    0.000    1.800    3.000    1.500    1.400    1.600 
#    0.000    0.000    0.000    0.000    0.000    0.000 
#    0.000    0.000    0.000    0.000    0.000    0.000 
#
# Total GULP energy -223103.907798 kJ/mol
# GULP energy per Si atom -5577.597695 kJ/mol
# Density = 2.140574 g / cm^3
# Si number density = 21.454573 Si / 1000 Ang^3
#
#
#
# Elastic Constant Matrix: (Units=GPa)
#
#
# Indices 1 2 3 4 5 6 
#
# 1 26.0363 -3.4023 -2.2712 0.0000 0.0000 0.0000
# 2 -3.4023 163.5993 62.0822 0.0000 0.0000 0.0000
# 3 -2.2712 62.0822 115.8475 0.0000 0.0000 0.0000
# 4 0.0000 0.0000 0.0000 22.6666 0.0000 0.0000
# 5 0.0000 0.0000 0.0000 0.0000 13.2268 0.0000
# 6 0.0000 0.0000 0.0000 0.0000 0.0000 19.7303
#
#
#
# Elastic Compliance Matrix: (Units=1/GPa)
#
#
# Indices 1 2 3 4 5 6 
#
# 1 0.038528 0.000646 0.000409 0.000000 0.000000 0.000000
# 2 0.000646 0.007684 -0.004105 0.000000 0.000000 0.000000
# 3 0.000409 -0.004105 0.010840 0.000000 0.000000 0.000000
# 4 0.000000 0.000000 0.000000 0.044118 0.000000 0.000000
# 5 0.000000 0.000000 0.000000 0.000000 0.075604 0.000000
# 6 0.000000 0.000000 0.000000 0.000000 0.000000 0.050683
#
#
# Mechanical properties :
#
#
# Convention : Reuss Voigt Hill
#
# Bulk Modulus (GPa) = 19.62633 46.47782 33.05207
# Shear Modulus (GPa) = 19.95684 27.72969 23.84326
#
# Velocity S-wave (km/s) = 3.05321 3.59901 3.33729
# Velocity P-wave (km/s) = 4.64728 6.24347 5.50355
#
# Compressibility (1/GPa) = 0.05095197
#
# Stress axis : x y z
#
# Youngs Moduli (GPa) = 25.95511 130.14590 92.25167
#
# Poissons Ratio (x) = -0.08407 -0.03775
# Poissons Ratio (y) = -0.01677 0.37869
# Poissons Ratio (z) = -0.01062 0.53425
#
# Static dielectric constant tensor:
#      x y z
#    x 1.766240 0.000000 0.000000 
#    y 0.000000 1.853950 0.000000 
#    z 0.000000 0.000000 1.788650 
# 
# From -- ./inp_files/20005.got.cif
#   From: 2010.05.17/outbox.cif.g08.bks.cpg/sg59_11_cif.got.tgz:20005.got - 2010.06.03 14:40:33.
