data_PCOD9448673
_publ_section_title
;
Structure prediction by ZEFSAII (Michael W. Deem and Ramdas Pophale) SiO2 
 PCOD9448673
Probable space group: P M M N
;
_chemical_formula_sum "Si O2"
_cell_formula_units_Z 64
_cell_length_a 18.069143
_cell_length_b 9.009696
_cell_length_c 22.820827
_cell_angle_alpha 90.000000
_cell_angle_beta 90.000000
_cell_angle_gamma 90.000000
_cell_volume 3715.173251
_symmetry_space_group_name_H-M "P M M N"
_symmetry_group_IT_number 59
_space_group.IT_coordinate_system_code '2'
_symmetry_cell_setting 'orthorhombic'
loop_
_space_group_symop_operation_xyz
x,y,z
1/2-x,1/2-y,z
1/2+x,-y,-z
-x,1/2+y,-z
-x,-y,-z
1/2+x,1/2+y,-z
1/2-x,y,z
x,1/2-y,z
loop_
_atom_site_type_symbol
_atom_site_label
_atom_site_fract_x
_atom_site_fract_y
_atom_site_fract_z
Si Si1 0.667092 0.427617 0.294727
Si Si2 0.565871 0.427412 0.037704
Si Si3 0.468493 0.573236 0.389439
Si Si4 0.465199 0.427542 0.141883
Si Si5 0.618156 0.073130 0.427455
Si Si6 0.482332 0.425937 0.742535
Si Si7 0.665514 0.925060 0.545920
Si Si8 0.835087 0.571616 0.948245
O O1 0.750000 0.474291 0.277738
O O2 0.661017 0.250000 0.286699
O O3 0.655395 0.456246 0.364268
O O4 0.599946 0.505444 0.261393
O O5 0.566106 0.250000 0.030462
O O6 0.539553 0.459571 0.103814
O O7 0.500000 0.500000 0.000000
O O8 0.638806 0.496458 0.008937
O O9 0.474841 0.750000 0.399014
O O10 0.534947 0.488944 0.422377
O O11 0.479980 0.543097 0.320401
O O12 0.391773 0.511929 0.413486
O O13 0.460933 0.250000 0.149444
O O14 0.472505 0.505264 0.203940
O O15 0.393773 0.472340 0.102620
O O16 0.618315 0.250000 0.437265
O O17 0.657257 0.990371 0.480632
O O18 0.477070 0.250000 0.749419
O O19 0.750000 0.944011 0.565545
O O20 0.647983 0.750000 0.545432
O O21 0.750000 0.535480 0.934302
O O22 0.841509 0.750000 0.954544
#
# Coordination Sequence:
#
# PCOD9448673 Si02
#       8
#     8   8   8   8   8   8   8   8
#     4   9  18  33  53  76 101 130 164 203 251 307
#     4   9  17  30  50  76 103 132 165 200 244 294
#     4  10  21  37  54  73 100 133 169 210 256 304
#     4   9  18  33  53  75 102 138 174 207 246 297
#     4  10  19  33  55  79 102 129 163 203 252 312
#     4  10  21  35  53  76 100 132 174 215 253 295
#     4  11  23  36  51  74 102 131 166 209 257 308
#     4   9  18  33  53  79 109 138 170 210 255 299
#
# _framework density 17.226652000000001
#
# number of rings (size 3 to 8) (size 9 to 14) (size 15 to 20)
#    0.000    2.375    0.000    3.375    0.000    6.500 
#    0.000    1.250    0.000    3.000    0.000    0.000 
#    0.000    0.000    0.000    0.000    0.000    0.000 
#
# Total GULP energy -356939.087562 kJ/mol
# GULP energy per Si atom -5577.173243 kJ/mol
# Density = 1.718744 g / cm^3
# Si number density = 17.226652 Si / 1000 Ang^3
#
#
#
# Elastic Constant Matrix: (Units=GPa)
#
#
# Indices 1 2 3 4 5 6 
#
# 1 93.7672 24.1900 29.7754 0.0000 0.0000 0.0000
# 2 24.1900 26.0297 17.0047 0.0000 0.0000 0.0000
# 3 29.7754 17.0047 42.1064 0.0000 0.0000 0.0000
# 4 0.0000 0.0000 0.0000 30.4890 0.0000 0.0000
# 5 0.0000 0.0000 0.0000 0.0000 18.5909 0.0000
# 6 0.0000 0.0000 0.0000 0.0000 0.0000 25.6105
#
#
#
# Elastic Compliance Matrix: (Units=1/GPa)
#
#
# Indices 1 2 3 4 5 6 
#
# 1 0.015387 -0.009769 -0.006936 0.000000 0.000000 0.000000
# 2 -0.009769 0.058387 -0.016672 0.000000 0.000000 0.000000
# 3 -0.006936 -0.016672 0.035387 0.000000 0.000000 0.000000
# 4 0.000000 0.000000 0.000000 0.032799 0.000000 0.000000
# 5 0.000000 0.000000 0.000000 0.000000 0.053790 0.000000
# 6 0.000000 0.000000 0.000000 0.000000 0.000000 0.039046
#
#
# Mechanical properties :
#
#
# Convention : Reuss Voigt Hill
#
# Bulk Modulus (GPa) = 23.58009 33.76038 28.67024
# Shear Modulus (GPa) = 15.83853 21.00030 18.41941
#
# Velocity S-wave (km/s) = 3.03548 3.49529 3.27347
# Velocity P-wave (km/s) = 5.09935 5.99414 5.56476
#
# Compressibility (1/GPa) = 0.04240865
#
# Stress axis : x y z
#
# Youngs Moduli (GPa) = 64.98860 17.12702 28.25892
#
# Poissons Ratio (x) = 0.16731 0.19600
# Poissons Ratio (y) = 0.63485 0.47113
# Poissons Ratio (z) = 0.45076 0.28554
#
# Static dielectric constant tensor:
#      x y z
#    x 1.598620 0.000000 0.000000 
#    y 0.000000 1.571170 0.000000 
#    z 0.000000 0.000000 1.579060 
# 
# From -- ./inp_files/29480.got.cif
#   From: 2010.05.17/outbox.cif.g08.bks.cpg/sg59_15_cif.got.tgz:29480.got - 2010.06.03 14:40:33.
