data_PCOD9448862
_publ_section_title
;
Structure prediction by ZEFSAII (Michael W. Deem and Ramdas Pophale) SiO2 
 PCOD9448862
Probable space group: P M M N
;
_chemical_formula_sum "Si O2"
_cell_formula_units_Z 64
_cell_length_a 14.876099
_cell_length_b 24.988243
_cell_length_c 9.462625
_cell_angle_alpha 90.000000
_cell_angle_beta 90.000000
_cell_angle_gamma 90.000000
_cell_volume 3517.518661
_symmetry_space_group_name_H-M "P M M N"
_symmetry_group_IT_number 59
_space_group.IT_coordinate_system_code '2'
_symmetry_cell_setting 'orthorhombic'
loop_
_space_group_symop_operation_xyz
x,y,z
1/2-x,1/2-y,z
1/2+x,-y,-z
-x,1/2+y,-z
-x,-y,-z
1/2+x,1/2+y,-z
1/2-x,y,z
x,1/2-y,z
loop_
_atom_site_type_symbol
_atom_site_label
_atom_site_fract_x
_atom_site_fract_y
_atom_site_fract_z
Si Si1 0.999377 0.312389 0.619421
Si Si2 0.647235 0.140409 0.810919
Si Si3 0.145516 0.929480 0.646292
Si Si4 0.574656 0.310113 0.328755
Si Si5 0.505419 0.654643 0.955420
Si Si6 0.649263 0.686372 0.178440
Si Si7 0.352690 0.973203 0.331871
Si Si8 0.006679 0.035479 0.143327
O O1 0.999507 0.250000 0.655976
O O2 0.905309 0.333693 0.679443
O O3 0.998391 0.317404 0.452634
O O4 0.085381 0.337104 0.697643
O O5 0.750000 0.159084 0.829463
O O6 0.649405 0.078063 0.772000
O O7 0.581698 0.151267 0.942035
O O8 0.250000 0.941279 0.667796
O O9 0.132848 0.864683 0.658293
O O10 0.120995 0.951504 0.488828
O O11 0.085294 0.957139 0.766993
O O12 0.615479 0.250000 0.348461
O O13 0.525917 0.312425 0.179243
O O14 0.530136 0.595057 0.907005
O O15 0.589418 0.678084 0.039633
O O16 0.750000 0.663834 0.172436
O O17 0.658226 0.750000 0.201021
O O18 0.250000 0.993898 0.342062
O O19 0.421473 0.012913 0.255964
O O20 0.000000 0.000000 0.000000
#
# Coordination Sequence:
#
# PCOD9448862 Si02
#       8
#     8   8   8   8   8   8   8   8
#     4   9  18  33  55  81 110 145 189 233 273 330
#     4  10  19  34  55  78 109 148 188 228 275 334
#     4  10  22  39  60  85 114 151 191 231 279 339
#     4  10  20  35  56  85 119 151 181 223 280 338
#     4  10  21  35  55  81 115 145 187 226 283 338
#     4   9  18  35  57  79 107 145 186 229 279 333
#     4  10  20  37  58  81 108 145 192 236 282 330
#     4  11  22  37  57  81 110 149 187 236 284 331
#
# _framework density 18.194645999999999
#
# number of rings (size 3 to 8) (size 9 to 14) (size 15 to 20)
#    0.000    2.125    2.500    0.750    0.000    4.000 
#    0.000    1.875    0.000    3.000    0.000    0.000 
#    0.000    0.000    0.000    0.000    0.000    0.000 
#
# Total GULP energy -356393.114707 kJ/mol
# GULP energy per Si atom -5568.642417 kJ/mol
# Density = 1.815323 g / cm^3
# Si number density = 18.194646 Si / 1000 Ang^3
#
#
#
# Elastic Constant Matrix: (Units=GPa)
#
#
# Indices 1 2 3 4 5 6 
#
# 1 124.9541 29.1604 47.1563 0.0000 0.0000 0.0000
# 2 29.1604 44.6496 36.6212 0.0000 0.0000 0.0000
# 3 47.1563 36.6212 97.7193 0.0000 0.0000 0.0000
# 4 0.0000 0.0000 0.0000 10.2907 0.0000 0.0000
# 5 0.0000 0.0000 0.0000 0.0000 10.5553 0.0000
# 6 0.0000 0.0000 0.0000 0.0000 0.0000 18.9555
#
#
#
# Elastic Compliance Matrix: (Units=1/GPa)
#
#
# Indices 1 2 3 4 5 6 
#
# 1 0.010211 -0.003793 -0.003506 0.000000 0.000000 0.000000
# 2 -0.003793 0.033745 -0.010816 0.000000 0.000000 0.000000
# 3 -0.003506 -0.010816 0.015979 0.000000 0.000000 0.000000
# 4 0.000000 0.000000 0.000000 0.097175 0.000000 0.000000
# 5 0.000000 0.000000 0.000000 0.000000 0.094739 0.000000
# 6 0.000000 0.000000 0.000000 0.000000 0.000000 0.052755
#
#
# Mechanical properties :
#
#
# Convention : Reuss Voigt Hill
#
# Bulk Modulus (GPa) = 42.18573 54.79985 48.49279
# Shear Modulus (GPa) = 14.33750 18.25264 16.29507
#
# Velocity S-wave (km/s) = 2.81019 3.17075 2.99590
# Velocity P-wave (km/s) = 5.81083 6.60219 6.21911
#
# Compressibility (1/GPa) = 0.02370470
#
# Stress axis : x y z
#
# Youngs Moduli (GPa) = 97.93030 29.63410 62.58375
#
# Poissons Ratio (x) = 0.11241 0.21942
# Poissons Ratio (y) = 0.37148 0.67688
# Poissons Ratio (z) = 0.34335 0.32051
#
# Static dielectric constant tensor:
#      x y z
#    x 1.625100 0.000000 0.000000 
#    y 0.000000 1.645320 0.000000 
#    z 0.000000 0.000000 1.651460 
# 
# From -- ./inp_files/9603.got.cif
#   From: 2010.05.17/outbox.cif.g08.bks.cpg/sg59_5_cif.got.tgz:9603.got - 2010.06.03 14:40:33.
