data_PCOD9448420
_publ_section_title
;
Structure prediction by ZEFSAII (Michael W. Deem and Ramdas Pophale) SiO2 
 PCOD9448420
Probable space group: P M M N
;
_chemical_formula_sum "Si O2"
_cell_formula_units_Z 48
_cell_length_a 19.797518
_cell_length_b 8.307793
_cell_length_c 15.562754
_cell_angle_alpha 90.000000
_cell_angle_beta 90.000000
_cell_angle_gamma 90.000000
_cell_volume 2559.663444
_symmetry_space_group_name_H-M "P M M N"
_symmetry_group_IT_number 59
_space_group.IT_coordinate_system_code '2'
_symmetry_cell_setting 'orthorhombic'
loop_
_space_group_symop_operation_xyz
x,y,z
1/2-x,1/2-y,z
1/2+x,-y,-z
-x,1/2+y,-z
-x,-y,-z
1/2+x,1/2+y,-z
1/2-x,y,z
x,1/2-y,z
loop_
_atom_site_type_symbol
_atom_site_label
_atom_site_fract_x
_atom_site_fract_y
_atom_site_fract_z
Si Si1 0.327230 0.444272 0.605875
Si Si2 0.928496 0.058923 0.537989
Si Si3 0.063888 0.442862 0.267949
Si Si4 0.172581 0.446402 0.128737
Si Si5 0.086728 0.445132 0.771599
Si Si6 0.827656 0.553838 0.065980
O O1 0.250000 0.502390 0.605728
O O2 0.325593 0.250000 0.608860
O O3 0.368790 0.494297 0.522107
O O4 0.368251 0.498760 0.690259
O O5 0.928392 0.250000 0.535044
O O6 0.922235 0.003229 0.636050
O O7 0.000000 0.000000 0.500000
O O8 0.066075 0.250000 0.269099
O O9 0.119614 0.502167 0.199736
O O10 0.989330 0.496496 0.239920
O O11 0.250000 0.495190 0.146563
O O12 0.171837 0.250000 0.129030
O O13 0.155163 0.496999 0.031203
O O14 0.086284 0.250000 0.771340
O O15 0.121814 0.500556 0.859834
O O16 0.750000 0.506223 0.084261
O O17 0.828410 0.750000 0.066656
#
# Coordination Sequence:
#
# PCOD9448420 Si02
#       6
#     8   8   8   8   8   8
#     4  10  21  37  58  85 115 148 186 227 274 335
#     4  12  24  40  60  81 109 147 188 233 285 337
#     4  11  22  35  55  82 111 147 186 230 283 338
#     4   8  16  32  53  78 109 145 188 233 273 320
#     4  10  19  32  54  83 114 147 184 227 274 329
#     4   8  14  28  52  80 109 144 187 231 271 319
#
# _framework density 18.752465000000001
#
# number of rings (size 3 to 8) (size 9 to 14) (size 15 to 20)
#    0.000    2.167    1.667    3.500    0.000    3.667 
#    0.000    1.667    0.000    4.000    0.000    4.667 
#    0.000    0.000    0.000    0.000    0.000    0.000 
#
# Total GULP energy -267971.577776 kJ/mol
# GULP energy per Si atom -5582.741204 kJ/mol
# Density = 1.870978 g / cm^3
# Si number density = 18.752465 Si / 1000 Ang^3
#
#
#
# Elastic Constant Matrix: (Units=GPa)
#
#
# Indices 1 2 3 4 5 6 
#
# 1 171.1992 15.8204 126.0385 0.0000 0.0000 0.0000
# 2 15.8204 15.4906 11.8120 0.0000 0.0000 0.0000
# 3 126.0385 11.8120 187.5996 0.0000 0.0000 0.0000
# 4 0.0000 0.0000 0.0000 13.9875 0.0000 0.0000
# 5 0.0000 0.0000 0.0000 0.0000 39.4189 0.0000
# 6 0.0000 0.0000 0.0000 0.0000 0.0000 25.7932
#
#
#
# Elastic Compliance Matrix: (Units=1/GPa)
#
#
# Indices 1 2 3 4 5 6 
#
# 1 0.012150 -0.006496 -0.007754 0.000000 0.000000 0.000000
# 2 -0.006496 0.071284 -0.000124 0.000000 0.000000 0.000000
# 3 -0.007754 -0.000124 0.010548 0.000000 0.000000 0.000000
# 4 0.000000 0.000000 0.000000 0.071492 0.000000 0.000000
# 5 0.000000 0.000000 0.000000 0.000000 0.025369 0.000000
# 6 0.000000 0.000000 0.000000 0.000000 0.000000 0.038770
#
#
# Mechanical properties :
#
#
# Convention : Reuss Voigt Hill
#
# Bulk Modulus (GPa) = 15.32944 75.73681 45.53313
# Shear Modulus (GPa) = 17.85044 30.54784 24.19914
#
# Velocity S-wave (km/s) = 3.08863 4.04047 3.59618
# Velocity P-wave (km/s) = 4.57295 7.88939 6.44804
#
# Compressibility (1/GPa) = 0.06523396
#
# Stress axis : x y z
#
# Youngs Moduli (GPa) = 82.30488 14.02837 94.80696
#
# Poissons Ratio (x) = 0.09113 0.73512
# Poissons Ratio (y) = 0.53466 0.01175
# Poissons Ratio (z) = 0.63818 0.00174
#
# Static dielectric constant tensor:
#      x y z
#    x 1.612580 0.000000 0.000000 
#    y 0.000000 1.662580 0.000000 
#    z 0.000000 0.000000 1.642830 
# 
# From -- ./inp_files/20306.got.cif
#   From: 2010.05.17/outbox.cif.g08.bks.cpg/sg59_11_cif.got.tgz:20306.got - 2010.06.03 14:40:33.
