data_PCOD9448021
_publ_section_title
;
Structure prediction by ZEFSAII (Michael W. Deem and Ramdas Pophale) SiO2 
 PCOD9448021
Probable space group: P M M N
;
_chemical_formula_sum "Si O2"
_cell_formula_units_Z 48
_cell_length_a 7.428803
_cell_length_b 19.262679
_cell_length_c 14.401011
_cell_angle_alpha 90.000000
_cell_angle_beta 90.000000
_cell_angle_gamma 90.000000
_cell_volume 2060.765197
_symmetry_space_group_name_H-M "P M M N"
_symmetry_group_IT_number 59
_space_group.IT_coordinate_system_code '2'
_symmetry_cell_setting 'orthorhombic'
loop_
_space_group_symop_operation_xyz
x,y,z
1/2-x,1/2-y,z
1/2+x,-y,-z
-x,1/2+y,-z
-x,-y,-z
1/2+x,1/2+y,-z
1/2-x,y,z
x,1/2-y,z
loop_
_atom_site_type_symbol
_atom_site_label
_atom_site_fract_x
_atom_site_fract_y
_atom_site_fract_z
Si Si1 0.044741 0.101421 0.768016
Si Si2 0.968821 0.750000 0.496330
Si Si3 0.458560 0.824056 0.856791
Si Si4 0.534719 0.477130 0.104581
Si Si5 0.037014 0.509392 0.391855
Si Si6 0.531778 0.857524 0.650680
Si Si7 0.971793 0.750000 0.281770
O O1 0.250000 0.108705 0.801162
O O2 0.966971 0.178692 0.766516
O O3 0.046274 0.074004 0.661760
O O4 0.963393 0.038102 0.827619
O O5 0.750000 0.750000 0.494427
O O6 0.024724 0.683547 0.558231
O O7 0.028654 0.750000 0.390087
O O8 0.250000 0.824682 0.886969
O O9 0.537207 0.750000 0.889362
O O10 0.538723 0.898980 0.882703
O O11 0.466043 0.823777 0.745050
O O12 0.750000 0.472634 0.122178
O O13 0.500000 0.500000 0.000000
O O14 0.250000 0.515262 0.378999
O O15 0.971624 0.437123 0.348184
O O16 0.000000 0.500000 0.500000
O O17 0.750000 0.856398 0.651540
O O18 0.750000 0.750000 0.282006
#
# Coordination Sequence:
#
# PCOD9448021 Si02
#       7
#     8   4   8   8   8   8   4
#     4  10  20  38  61  83 112 151 195 244 296 350
#     4   9  16  28  47  76 111 146 184 229 275 323
#     4  10  20  36  58  84 115 148 182 227 289 347
#     4  10  22  40  62  87 115 148 189 240 297 356
#     4  11  22  34  53  82 115 154 198 242 287 343
#     4  10  19  31  51  78 110 148 191 231 276 334
#     4   9  18  34  57  80 111 152 194 241 291 345
#
# _framework density 23.29232
#
# number of rings (size 3 to 8) (size 9 to 14) (size 15 to 20)
#    0.000    2.000    2.500    1.500    0.000    4.667 
#    1.500    0.417    0.000    0.000    0.000    0.000 
#    0.000    0.000    0.000    0.000    0.000    0.000 
#
# Total GULP energy -268096.725475 kJ/mol
# GULP energy per Si atom -5585.348447 kJ/mol
# Density = 2.323931 g / cm^3
# Si number density = 23.292320 Si / 1000 Ang^3
#
#
#
# Elastic Constant Matrix: (Units=GPa)
#
#
# Indices 1 2 3 4 5 6 
#
# 1 82.3723 10.6298 -8.7191 0.0000 0.0000 0.0000
# 2 10.6298 249.9543 60.2878 0.0000 0.0000 0.0000
# 3 -8.7191 60.2878 83.3834 0.0000 0.0000 0.0000
# 4 0.0000 0.0000 0.0000 18.3434 0.0000 0.0000
# 5 0.0000 0.0000 0.0000 0.0000 18.8669 0.0000
# 6 0.0000 0.0000 0.0000 0.0000 0.0000 -5.7020
#
#
#
# Elastic Compliance Matrix: (Units=1/GPa)
#
#
# Indices 1 2 3 4 5 6 
#
# 1 0.012489 -0.001025 0.002047 0.000000 0.000000 0.000000
# 2 -0.001025 0.004930 -0.003672 0.000000 0.000000 0.000000
# 3 0.002047 -0.003672 0.014861 0.000000 0.000000 0.000000
# 4 0.000000 0.000000 0.000000 0.054515 0.000000 0.000000
# 5 0.000000 0.000000 0.000000 0.000000 0.053003 0.000000
# 6 0.000000 0.000000 0.000000 0.000000 0.000000 -0.175378
#
#
# Mechanical properties :
#
#
# Convention : Reuss Voigt Hill
#
# Bulk Modulus (GPa) = 37.06279 60.01188 48.53734
# Shear Modulus (GPa) = -234.88818 29.86910 -102.50954
#
# Velocity S-wave (km/s) = -10.05299 3.58489 -6.64120
# Velocity P-wave (km/s) = 10.89970 6.55407 6.15823
#
# Compressibility (1/GPa) = 0.02698124
#
# Stress axis : x y z
#
# Youngs Moduli (GPa) = 80.07099 202.84485 67.28829
#
# Poissons Ratio (x) = 0.20788 -0.13773
# Poissons Ratio (y) = 0.08206 0.24705
# Poissons Ratio (z) = -0.16390 0.74476
#
# Static dielectric constant tensor:
#      x y z
#    x 1.869570 0.000000 0.000000 
#    y 0.000000 1.928170 0.000000 
#    z 0.000000 0.000000 1.834740 
# 
# From -- ./inp_files/20608.got.cif
#   From: 2010.05.17/outbox.cif.g08.bks.cpg/sg59_11_cif.got.tgz:20608.got - 2010.06.03 14:40:33.
