data_PCOD9448197
_publ_section_title
;
Structure prediction by ZEFSAII (Michael W. Deem and Ramdas Pophale) SiO2 
 PCOD9448197
Probable space group: P M M N
;
_chemical_formula_sum "Si O2"
_cell_formula_units_Z 64
_cell_length_a 23.779527
_cell_length_b 8.048083
_cell_length_c 16.064315
_cell_angle_alpha 90.000000
_cell_angle_beta 90.000000
_cell_angle_gamma 90.000000
_cell_volume 3074.382291
_symmetry_space_group_name_H-M "P M M N"
_symmetry_group_IT_number 59
_space_group.IT_coordinate_system_code '2'
_symmetry_cell_setting 'orthorhombic'
loop_
_space_group_symop_operation_xyz
x,y,z
1/2-x,1/2-y,z
1/2+x,-y,-z
-x,1/2+y,-z
-x,-y,-z
1/2+x,1/2+y,-z
1/2-x,y,z
x,1/2-y,z
loop_
_atom_site_type_symbol
_atom_site_label
_atom_site_fract_x
_atom_site_fract_y
_atom_site_fract_z
Si Si1 0.509255 0.051795 0.125213
Si Si2 0.882530 0.947828 0.887933
Si Si3 0.814555 0.451435 0.234710
Si Si4 0.389994 0.052719 0.607892
Si Si5 0.500090 0.548418 0.311346
Si Si6 0.126960 0.950063 0.935762
Si Si7 0.688157 0.050645 0.541416
Si Si8 0.628059 0.049876 0.703942
O O1 0.507036 0.250000 0.111745
O O2 0.446935 0.982060 0.108767
O O3 0.562774 0.984626 0.075339
O O4 0.520674 0.016865 0.222018
O O5 0.885688 0.750000 0.887548
O O6 0.858673 0.000557 0.798568
O O7 0.852460 0.002179 0.972584
O O8 0.750000 0.504824 0.246793
O O9 0.815508 0.250000 0.235533
O O10 0.853997 0.510022 0.309739
O O11 0.837625 0.506728 0.144331
O O12 0.392243 0.250000 0.600272
O O13 0.453968 0.991661 0.621667
O O14 0.358121 0.986157 0.527695
O O15 0.500043 0.750000 0.309305
O O16 0.435503 0.492767 0.318706
O O17 0.125349 0.750000 0.931693
O O18 0.750000 0.986920 0.517470
O O19 0.691562 0.250000 0.546834
O O20 0.669409 0.988203 0.632170
O O21 0.627684 0.250000 0.701686
#
# Coordination Sequence:
#
# PCOD9448197 Si02
#       8
#     8   8   8   8   8   8   8   8
#     4   9  17  30  49  76 107 141 178 216 259 311
#     4  10  20  32  51  80 110 138 175 220 269 321
#     4  10  21  37  56  77 105 144 188 228 263 310
#     4  11  22  35  55  84 114 141 172 215 271 331
#     4   9  18  32  52  80 112 143 174 211 266 328
#     4  10  19  32  51  75 105 142 182 219 261 310
#     4  10  22  40  61  82 103 136 184 228 266 315
#     4   9  19  38  59  78 106 142 180 225 271 316
#
# _framework density 20.817191000000001
#
# number of rings (size 3 to 8) (size 9 to 14) (size 15 to 20)
#    0.000    2.250    1.250    1.500    0.000    5.000 
#    0.000    0.625    0.000    3.750    0.000    0.000 
#    0.000    0.000    0.000    0.000    0.000    0.000 
#
# Total GULP energy -357159.461695 kJ/mol
# GULP energy per Si atom -5580.616589 kJ/mol
# Density = 2.076981 g / cm^3
# Si number density = 20.817191 Si / 1000 Ang^3
#
#
#
# Elastic Constant Matrix: (Units=GPa)
#
#
# Indices 1 2 3 4 5 6 
#
# 1 -5.3807 6.5453 -3.4324 0.0000 0.0000 0.0000
# 2 6.5453 11.4790 8.4330 0.0000 0.0000 0.0000
# 3 -3.4324 8.4330 59.5561 0.0000 0.0000 0.0000
# 4 0.0000 0.0000 0.0000 23.2035 0.0000 0.0000
# 5 0.0000 0.0000 0.0000 0.0000 12.0171 0.0000
# 6 0.0000 0.0000 0.0000 0.0000 0.0000 13.2808
#
#
#
# Elastic Compliance Matrix: (Units=1/GPa)
#
#
# Indices 1 2 3 4 5 6 
#
# 1 -0.096288 0.065828 -0.014870 0.000000 0.000000 0.000000
# 2 0.065828 0.052226 -0.003601 0.000000 0.000000 0.000000
# 3 -0.014870 -0.003601 0.016444 0.000000 0.000000 0.000000
# 4 0.000000 0.000000 0.000000 0.043097 0.000000 0.000000
# 5 0.000000 0.000000 0.000000 0.000000 0.083215 0.000000
# 6 0.000000 0.000000 0.000000 0.000000 0.000000 0.075297
#
#
# Mechanical properties :
#
#
# Convention : Reuss Voigt Hill
#
# Bulk Modulus (GPa) = 14.90431 9.86068 12.38250
# Shear Modulus (GPa) = 49.19136 13.30751 31.24943
#
# Velocity S-wave (km/s) = 4.86636 2.53109 3.87865
# Velocity P-wave (km/s) = 6.22499 3.64541 5.10095
#
# Compressibility (1/GPa) = 0.06709467
#
# Stress axis : x y z
#
# Youngs Moduli (GPa) = -10.38555 19.14737 60.81319
#
# Poissons Ratio (x) = -1.26043 0.90432
# Poissons Ratio (y) = 0.68366 0.21901
# Poissons Ratio (z) = -0.15444 0.06895
#
# Static dielectric constant tensor:
#      x y z
#    x 1.774790 0.000000 0.000000 
#    y 0.000000 1.738260 0.000000 
#    z 0.000000 0.000000 1.755190 
# 
# From -- ./inp_files/24792.got.cif
#   From: 2010.05.17/outbox.cif.g08.bks.cpg/sg59_13_cif.got.tgz:24792.got - 2010.06.03 14:40:33.
