data_PCOD9448896
_publ_section_title
;
Structure prediction by ZEFSAII (Michael W. Deem and Ramdas Pophale) SiO2 
 PCOD9448896
Probable space group: P M M N
;
_chemical_formula_sum "Si O2"
_cell_formula_units_Z 40
_cell_length_a 26.038796
_cell_length_b 9.407573
_cell_length_c 7.420092
_cell_angle_alpha 90.000000
_cell_angle_beta 90.000000
_cell_angle_gamma 90.000000
_cell_volume 1817.639643
_symmetry_space_group_name_H-M "P M M N"
_symmetry_group_IT_number 59
_space_group.IT_coordinate_system_code '2'
_symmetry_cell_setting 'orthorhombic'
loop_
_space_group_symop_operation_xyz
x,y,z
1/2-x,1/2-y,z
1/2+x,-y,-z
-x,1/2+y,-z
-x,-y,-z
1/2+x,1/2+y,-z
1/2-x,y,z
x,1/2-y,z
loop_
_atom_site_type_symbol
_atom_site_label
_atom_site_fract_x
_atom_site_fract_y
_atom_site_fract_z
Si Si1 0.056690 0.087627 0.192370
Si Si2 0.250000 0.917800 0.557501
Si Si3 0.349763 0.909022 0.118204
Si Si4 0.750000 0.918227 0.808136
Si Si5 0.635477 0.407390 0.302725
Si Si6 0.041949 0.411896 0.753538
O O1 0.064252 0.250000 0.250191
O O2 0.105719 0.988019 0.226951
O O3 0.049906 0.091445 0.972726
O O4 0.005968 0.016461 0.273318
O O5 0.250000 0.750000 0.503768
O O6 0.304788 0.938992 0.655594
O O7 0.250000 0.029593 0.397154
O O8 0.338090 0.750000 0.186402
O O9 0.300287 0.008207 0.112603
O O10 0.367816 0.894851 0.913323
O O11 0.750000 0.750000 0.829530
O O12 0.623293 0.250000 0.378514
O O13 0.592724 0.525571 0.341929
O O14 0.031273 0.250000 0.698870
#
# Coordination Sequence:
#
# PCOD9448896 Si02
#       6
#     8   4   8   4   8   8
#     4   9  16  27  45  73 107 138 169 208 252 299
#     4  10  21  38  56  74 100 136 175 214 260 310
#     4  10  19  34  56  80 105 135 172 214 259 306
#     4  12  25  38  52  74 104 138 175 214 258 308
#     4   9  18  33  55  80 104 133 172 216 259 305
#     4   9  16  26  44  73 107 139 169 205 252 303
#
# _framework density 22.006561999999999
#
# number of rings (size 3 to 8) (size 9 to 14) (size 15 to 20)
#    0.000    2.400    0.000    3.300    0.000    8.000 
#    0.000    1.000    0.000    1.200    0.000    0.000 
#    0.000    0.000    0.000    0.000    0.000    0.000 
#
# Total GULP energy -223346.864570 kJ/mol
# GULP energy per Si atom -5583.671614 kJ/mol
# Density = 2.195647 g / cm^3
# Si number density = 22.006562 Si / 1000 Ang^3
#
#
#
# Elastic Constant Matrix: (Units=GPa)
#
#
# Indices 1 2 3 4 5 6 
#
# 1 87.3228 59.9839 -32.6019 0.0000 0.0000 0.0000
# 2 59.9839 185.2529 -4.5856 0.0000 0.0000 0.0000
# 3 -32.6019 -4.5856 26.1723 0.0000 0.0000 0.0000
# 4 0.0000 0.0000 0.0000 13.5660 0.0000 0.0000
# 5 0.0000 0.0000 0.0000 0.0000 -30.4891 0.0000
# 6 0.0000 0.0000 0.0000 0.0000 0.0000 53.0427
#
#
#
# Elastic Compliance Matrix: (Units=1/GPa)
#
#
# Indices 1 2 3 4 5 6 
#
# 1 0.032528 -0.009571 0.038842 0.000000 0.000000 0.000000
# 2 -0.009571 0.008238 -0.010479 0.000000 0.000000 0.000000
# 3 0.038842 -0.010479 0.084756 0.000000 0.000000 0.000000
# 4 0.000000 0.000000 0.000000 0.073714 0.000000 0.000000
# 5 0.000000 0.000000 0.000000 0.000000 -0.032799 0.000000
# 6 0.000000 0.000000 0.000000 0.000000 0.000000 0.018853
#
#
# Mechanical properties :
#
#
# Convention : Reuss Voigt Hill
#
# Bulk Modulus (GPa) = 6.13099 38.26009 22.19554
# Shear Modulus (GPa) = 24.74347 25.62069 25.18208
#
# Velocity S-wave (km/s) = 3.35680 3.41578 3.38642
# Velocity P-wave (km/s) = 4.22092 5.74284 5.03966
#
# Compressibility (1/GPa) = 0.16310574
#
# Stress axis : x y z
#
# Youngs Moduli (GPa) = 30.74300 121.39417 11.79856
#
# Poissons Ratio (x) = 1.16184 -0.45828
# Poissons Ratio (y) = 0.29424 0.12363
# Poissons Ratio (z) = -1.19411 1.27206
#
# Static dielectric constant tensor:
#      x y z
#    x 1.866480 0.000000 0.000000 
#    y 0.000000 1.785220 0.000000 
#    z 0.000000 0.000000 1.873780 
# 
# From -- ./inp_files/5709.got.cif
#   From: 2010.05.17/outbox.cif.g08.bks.cpg/sg59_3_cif.got.tgz:5709.got - 2010.06.03 14:40:33.
