data_PCOD9448810
_publ_section_title
;
Structure prediction by ZEFSAII (Michael W. Deem and Ramdas Pophale) SiO2 
 PCOD9448810
Probable space group: P M M N
;
_chemical_formula_sum "Si O2"
_cell_formula_units_Z 40
_cell_length_a 23.142384
_cell_length_b 11.402353
_cell_length_c 7.166321
_cell_angle_alpha 90.000000
_cell_angle_beta 90.000000
_cell_angle_gamma 90.000000
_cell_volume 1891.031813
_symmetry_space_group_name_H-M "P M M N"
_symmetry_group_IT_number 59
_space_group.IT_coordinate_system_code '2'
_symmetry_cell_setting 'orthorhombic'
loop_
_space_group_symop_operation_xyz
x,y,z
1/2-x,1/2-y,z
1/2+x,-y,-z
-x,1/2+y,-z
-x,-y,-z
1/2+x,1/2+y,-z
1/2-x,y,z
x,1/2-y,z
loop_
_atom_site_type_symbol
_atom_site_label
_atom_site_fract_x
_atom_site_fract_y
_atom_site_fract_z
Si Si1 0.510616 0.623155 0.763576
Si Si2 0.315117 0.616675 0.939585
Si Si3 0.913546 0.552662 0.103280
Si Si4 0.116881 0.381132 0.496274
Si Si5 0.182947 0.880215 0.487427
O O1 0.481979 0.750000 0.746101
O O2 0.461530 0.529458 0.799542
O O3 0.552607 0.605520 0.588566
O O4 0.552728 0.621200 0.943500
O O5 0.250000 0.581113 0.991802
O O6 0.324799 0.750000 0.004038
O O7 0.365064 0.527770 0.994208
O O8 0.317316 0.619640 0.713651
O O9 0.885558 0.618711 0.278204
O O10 0.137528 0.250000 0.435874
O O11 0.151316 0.498402 0.435937
O O12 0.250000 0.884925 0.428887
O O13 0.159670 0.750000 0.432212
#
# Coordination Sequence:
#
# PCOD9448810 Si02
#       5
#     8   8   8   8   8
#     4  10  21  35  51  75 105 136 174 217 260 308
#     4   8  14  27  50  77 101 129 169 215 261 307
#     4  10  19  34  54  74 101 139 173 210 258 311
#     4  10  20  34  53  78 107 138 174 217 263 312
#     4   8  15  30  52  77 105 138 177 219 261 309
#
# _framework density 21.152474000000002
#
# number of rings (size 3 to 8) (size 9 to 14) (size 15 to 20)
#    0.000    2.800    0.000    3.000    0.000    1.200 
#    0.000    7.000    0.000    5.400    0.000    0.000 
#    0.000    0.000    0.000    0.000    0.000    0.000 
#
# Total GULP energy -223007.245330 kJ/mol
# GULP energy per Si atom -5575.181133 kJ/mol
# Density = 2.110433 g / cm^3
# Si number density = 21.152474 Si / 1000 Ang^3
#
#
#
# Elastic Constant Matrix: (Units=GPa)
#
#
# Indices 1 2 3 4 5 6 
#
# 1 57.9053 60.4318 -2.6927 0.0000 0.0000 0.0000
# 2 60.4318 162.4968 5.5767 0.0000 0.0000 0.0000
# 3 -2.6927 5.5767 75.5519 0.0000 0.0000 0.0000
# 4 0.0000 0.0000 0.0000 13.2889 0.0000 0.0000
# 5 0.0000 0.0000 0.0000 0.0000 -46.5996 0.0000
# 6 0.0000 0.0000 0.0000 0.0000 0.0000 -314.5748
#
#
#
# Elastic Compliance Matrix: (Units=1/GPa)
#
#
# Indices 1 2 3 4 5 6 
#
# 1 0.028466 -0.010648 0.001801 0.000000 0.000000 0.000000
# 2 -0.010648 0.010153 -0.001129 0.000000 0.000000 0.000000
# 3 0.001801 -0.001129 0.013383 0.000000 0.000000 0.000000
# 4 0.000000 0.000000 0.000000 0.075251 0.000000 0.000000
# 5 0.000000 0.000000 0.000000 0.000000 -0.021459 0.000000
# 6 0.000000 0.000000 0.000000 0.000000 0.000000 -0.003179
#
#
# Mechanical properties :
#
#
# Convention : Reuss Voigt Hill
#
# Bulk Modulus (GPa) = 31.20215 46.95396 39.07806
# Shear Modulus (GPa) = 37.52316 -54.06790 -8.27237
#
# Velocity S-wave (km/s) = 4.21638 -5.06128 -1.97973
# Velocity P-wave (km/s) = 6.20378 3.45099 3.64538
#
# Compressibility (1/GPa) = 0.03204907
#
# Stress axis : x y z
#
# Youngs Moduli (GPa) = 35.12951 98.49574 74.71924
#
# Poissons Ratio (x) = 1.04880 -0.13453
# Poissons Ratio (y) = 0.37407 0.08435
# Poissons Ratio (z) = -0.06325 0.11119
#
# Static dielectric constant tensor:
#      x y z
#    x 1.724240 0.000000 0.000000 
#    y 0.000000 1.820740 0.000000 
#    z 0.000000 0.000000 1.784290 
# 
# From -- ./inp_files/7367.got.cif
#   From: 2010.05.17/outbox.cif.g08.bks.cpg/sg59_4_cif.got.tgz:7367.got - 2010.06.03 14:40:33.
