data_PCOD9448120
_publ_section_title
;
Structure prediction by ZEFSAII (Michael W. Deem and Ramdas Pophale) SiO2 
 PCOD9448120
Probable space group: P M M N
;
_chemical_formula_sum "Si O2"
_cell_formula_units_Z 64
_cell_length_a 15.026176
_cell_length_b 9.172648
_cell_length_c 22.095653
_cell_angle_alpha 90.000000
_cell_angle_beta 90.000000
_cell_angle_gamma 90.000000
_cell_volume 3045.439947
_symmetry_space_group_name_H-M "P M M N"
_symmetry_group_IT_number 59
_space_group.IT_coordinate_system_code '2'
_symmetry_cell_setting 'orthorhombic'
loop_
_space_group_symop_operation_xyz
x,y,z
1/2-x,1/2-y,z
1/2+x,-y,-z
-x,1/2+y,-z
-x,-y,-z
1/2+x,1/2+y,-z
1/2-x,y,z
x,1/2-y,z
loop_
_atom_site_type_symbol
_atom_site_label
_atom_site_fract_x
_atom_site_fract_y
_atom_site_fract_z
Si Si1 0.395246 0.924161 0.871146
Si Si2 0.903290 0.075392 0.998374
Si Si3 0.859149 0.084741 0.366056
Si Si4 0.913418 0.075723 0.867471
Si Si5 0.146245 0.088860 0.750102
Si Si6 0.356260 0.415400 0.251160
Si Si7 0.146531 0.072247 0.381977
Si Si8 0.859054 0.918999 0.486951
O O1 0.390799 0.750000 0.864012
O O2 0.495451 0.985117 0.871851
O O3 0.356375 0.000897 0.812394
O O4 0.357228 0.963617 0.937884
O O5 0.915979 0.250000 0.001117
O O6 0.863972 0.044760 0.931731
O O7 0.000000 0.000000 0.000000
O O8 0.750000 0.087345 0.365411
O O9 0.890984 0.250000 0.363247
O O10 0.891166 0.998350 0.306959
O O11 0.886157 0.010688 0.428802
O O12 0.928169 0.250000 0.864823
O O13 0.871459 0.018985 0.805654
O O14 0.250000 0.106156 0.735507
O O15 0.106034 0.250000 0.757424
O O16 0.250000 0.403386 0.258785
O O17 0.390313 0.250000 0.239090
O O18 0.391875 0.469230 0.316459
O O19 0.250000 0.024665 0.382525
O O20 0.146338 0.250000 0.382483
O O21 0.108611 0.026643 0.447147
O O22 0.750000 0.921477 0.488833
O O23 0.884469 0.750000 0.479185
#
# Coordination Sequence:
#
# PCOD9448120 Si02
#       8
#     8   8   8   8   8   8   8   8
#     4  10  19  33  53  73  92 118 155 195 234 277
#     4   8  16  30  48  69  91 117 150 190 233 275
#     4   9  16  25  38  59  88 120 152 187 227 270
#     4  10  19  32  50  72  97 123 154 192 234 280
#     4  10  20  33  48  68  96 127 156 189 232 279
#     4   9  17  30  47  68  96 129 163 197 233 274
#     4   7  11  21  38  59  84 116 153 191 229 268
#     4   8  12  20  36  57  81 112 150 189 228 268
#
# _framework density 21.015025999999999
#
# number of rings (size 3 to 8) (size 9 to 14) (size 15 to 20)
#    0.000    3.125    0.000    3.000    0.000    3.500 
#    0.000    1.250    0.000    6.000    0.000    0.875 
#    0.000    0.000    0.000    0.000    0.000    0.000 
#
# Total GULP energy -356401.194661 kJ/mol
# GULP energy per Si atom -5568.768667 kJ/mol
# Density = 2.096720 g / cm^3
# Si number density = 21.015026 Si / 1000 Ang^3
#
#
#
# Elastic Constant Matrix: (Units=GPa)
#
#
# Indices 1 2 3 4 5 6 
#
# 1 31.2072 3.7932 9.7089 0.0000 0.0000 0.0000
# 2 3.7932 90.1234 92.4449 0.0000 0.0000 0.0000
# 3 9.7089 92.4449 250.9270 0.0000 0.0000 0.0000
# 4 0.0000 0.0000 0.0000 332.2892 0.0000 0.0000
# 5 0.0000 0.0000 0.0000 0.0000 13.6271 0.0000
# 6 0.0000 0.0000 0.0000 0.0000 0.0000 10.4852
#
#
#
# Elastic Compliance Matrix: (Units=1/GPa)
#
#
# Indices 1 2 3 4 5 6 
#
# 1 0.032435 -0.000125 -0.001209 0.000000 0.000000 0.000000
# 2 -0.000125 0.017837 -0.006566 0.000000 0.000000 0.000000
# 3 -0.001209 -0.006566 0.006451 0.000000 0.000000 0.000000
# 4 0.000000 0.000000 0.000000 0.003009 0.000000 0.000000
# 5 0.000000 0.000000 0.000000 0.000000 0.073383 0.000000
# 6 0.000000 0.000000 0.000000 0.000000 0.000000 0.095372
#
#
# Mechanical properties :
#
#
# Convention : Reuss Voigt Hill
#
# Bulk Modulus (GPa) = 24.43663 64.90572 44.67117
# Shear Modulus (GPa) = 19.38512 89.03434 54.20973
#
# Velocity S-wave (km/s) = 3.04047 6.51605 5.08446
# Velocity P-wave (km/s) = 4.89687 9.35758 7.46806
#
# Compressibility (1/GPa) = 0.04092217
#
# Stress axis : x y z
#
# Youngs Moduli (GPa) = 30.83067 56.06398 155.01068
#
# Poissons Ratio (x) = 0.00702 0.18739
# Poissons Ratio (y) = 0.00386 1.01787
# Poissons Ratio (z) = 0.03727 0.36814
#
# Static dielectric constant tensor:
#      x y z
#    x 1.844500 0.000000 0.000000 
#    y 0.000000 1.722550 0.000000 
#    z 0.000000 0.000000 1.822390 
# 
# From -- ./inp_files/30945.got.cif
#   From: 2010.05.17/outbox.cif.g08.bks.cpg/sg59_16_cif.got.tgz:30945.got - 2010.06.03 14:40:33.
