data_PCOD9448325
_publ_section_title
;
Structure prediction by ZEFSAII (Michael W. Deem and Ramdas Pophale) SiO2 
 PCOD9448325
Probable space group: P M M N
;
_chemical_formula_sum "Si O2"
_cell_formula_units_Z 56
_cell_length_a 19.209828
_cell_length_b 14.279700
_cell_length_c 10.570851
_cell_angle_alpha 90.000000
_cell_angle_beta 90.000000
_cell_angle_gamma 90.000000
_cell_volume 2899.696278
_symmetry_space_group_name_H-M "P M M N"
_symmetry_group_IT_number 59
_space_group.IT_coordinate_system_code '2'
_symmetry_cell_setting 'orthorhombic'
loop_
_space_group_symop_operation_xyz
x,y,z
1/2-x,1/2-y,z
1/2+x,-y,-z
-x,1/2+y,-z
-x,-y,-z
1/2+x,1/2+y,-z
1/2-x,y,z
x,1/2-y,z
loop_
_atom_site_type_symbol
_atom_site_label
_atom_site_fract_x
_atom_site_fract_y
_atom_site_fract_z
Si Si1 0.076711 0.448064 0.131955
Si Si2 0.544731 0.466676 0.620065
Si Si3 0.667433 0.028328 0.447319
Si Si4 0.672900 0.391824 0.178275
Si Si5 0.088507 0.354810 0.681443
Si Si6 0.053566 0.645415 0.009115
Si Si7 0.172332 0.395653 0.925144
O O1 0.061062 0.450662 0.280273
O O2 0.143939 0.400866 0.068062
O O3 0.014338 0.396432 0.059212
O O4 0.077841 0.559490 0.098210
O O5 0.500000 0.500000 0.500000
O O6 0.619267 0.437409 0.562705
O O7 0.490547 0.393324 0.681810
O O8 0.750000 0.020556 0.473500
O O9 0.658542 0.097278 0.327154
O O10 0.636089 0.928538 0.397621
O O11 0.750000 0.352388 0.160012
O O12 0.612023 0.346802 0.099181
O O13 0.675286 0.497609 0.124389
O O14 0.091380 0.250000 0.628975
O O15 0.118924 0.352877 0.824062
O O16 0.042685 0.750000 0.063093
O O17 0.250000 0.356704 0.916240
#
# Coordination Sequence:
#
# PCOD9448325 Si02
#       7
#     8   8   8   8   8   8   8
#     4  10  20  34  50  74 108 137 171 219 266 320
#     4  10  20  35  53  75 107 148 188 222 265 325
#     4   9  18  34  55  77 105 146 191 229 272 330
#     4   8  15  31  52  74 101 130 167 216 260 306
#     4  10  19  32  55  84 109 136 179 238 292 338
#     4  10  19  32  53  77 101 133 170 214 272 327
#     4   9  18  32  52  77 103 133 167 211 276 338
#
# _framework density 19.312366000000001
#
# number of rings (size 3 to 8) (size 9 to 14) (size 15 to 20)
#    0.000    2.571    0.000    5.571    0.000    4.286 
#    0.000    6.429    0.000    1.286    0.000    6.000 
#    0.000    0.000    0.000    0.000    0.000    0.000 
#
# Total GULP energy -311743.387692 kJ/mol
# GULP energy per Si atom -5566.846209 kJ/mol
# Density = 1.926841 g / cm^3
# Si number density = 19.312366 Si / 1000 Ang^3
#
#
#
# Elastic Constant Matrix: (Units=GPa)
#
#
# Indices 1 2 3 4 5 6 
#
# 1 127.4926 26.7935 40.1717 0.0000 0.0000 0.0000
# 2 26.7935 83.1105 -2.7192 0.0000 0.0000 0.0000
# 3 40.1717 -2.7192 60.5197 0.0000 0.0000 0.0000
# 4 0.0000 0.0000 0.0000 6.3191 0.0000 0.0000
# 5 0.0000 0.0000 0.0000 0.0000 34.5013 0.0000
# 6 0.0000 0.0000 0.0000 0.0000 0.0000 46.0594
#
#
#
# Elastic Compliance Matrix: (Units=1/GPa)
#
#
# Indices 1 2 3 4 5 6 
#
# 1 0.010992 -0.003788 -0.007467 0.000000 0.000000 0.000000
# 2 -0.003788 0.013355 0.003115 0.000000 0.000000 0.000000
# 3 -0.007467 0.003115 0.021620 0.000000 0.000000 0.000000
# 4 0.000000 0.000000 0.000000 0.158250 0.000000 0.000000
# 5 0.000000 0.000000 0.000000 0.000000 0.028984 0.000000
# 6 0.000000 0.000000 0.000000 0.000000 0.000000 0.021711
#
#
# Mechanical properties :
#
#
# Convention : Reuss Voigt Hill
#
# Bulk Modulus (GPa) = 33.68492 44.40164 39.04328
# Shear Modulus (GPa) = 17.78796 31.16773 24.47785
#
# Velocity S-wave (km/s) = 3.03820 4.02166 3.56402
# Velocity P-wave (km/s) = 5.45780 6.67879 6.09893
#
# Compressibility (1/GPa) = 0.02968688
#
# Stress axis : x y z
#
# Youngs Moduli (GPa) = 90.97221 74.87668 46.25403
#
# Poissons Ratio (x) = 0.28364 0.34537
# Poissons Ratio (y) = 0.34461 -0.14406
# Poissons Ratio (z) = 0.67926 -0.23320
#
# Static dielectric constant tensor:
#      x y z
#    x 1.698490 0.000000 0.000000 
#    y 0.000000 1.697220 0.000000 
#    z 0.000000 0.000000 1.713350 
# 
# From -- ./inp_files/11418.got.cif
#   From: 2010.05.17/outbox.cif.g08.bks.cpg/sg59_6_cif.got.tgz:11418.got - 2010.06.03 14:40:33.
