data_PCOD9448386
_publ_section_title
;
Structure prediction by ZEFSAII (Michael W. Deem and Ramdas Pophale) SiO2 
 PCOD9448386
Probable space group: P M M N
;
_chemical_formula_sum "Si O2"
_cell_formula_units_Z 64
_cell_length_a 8.834331
_cell_length_b 19.525801
_cell_length_c 20.563964
_cell_angle_alpha 90.000000
_cell_angle_beta 90.000000
_cell_angle_gamma 90.000000
_cell_volume 3547.230099
_symmetry_space_group_name_H-M "P M M N"
_symmetry_group_IT_number 59
_space_group.IT_coordinate_system_code '2'
_symmetry_cell_setting 'orthorhombic'
loop_
_space_group_symop_operation_xyz
x,y,z
1/2-x,1/2-y,z
1/2+x,-y,-z
-x,1/2+y,-z
-x,-y,-z
1/2+x,1/2+y,-z
1/2-x,y,z
x,1/2-y,z
loop_
_atom_site_type_symbol
_atom_site_label
_atom_site_fract_x
_atom_site_fract_y
_atom_site_fract_z
Si Si1 0.431737 0.670064 0.105302
Si Si2 0.425936 0.829774 0.743464
Si Si3 0.568445 0.425839 0.016779
Si Si4 0.929475 0.929627 0.845934
Si Si5 0.069593 0.429849 0.792449
Si Si6 0.929222 0.889040 0.620539
Si Si7 0.931486 0.573638 0.480629
Si Si8 0.070089 0.550777 0.348147
O O1 0.250000 0.663949 0.114475
O O2 0.468944 0.750000 0.098721
O O3 0.514111 0.634633 0.165743
O O4 0.470301 0.627466 0.040262
O O5 0.250000 0.848655 0.752763
O O6 0.444764 0.750000 0.758925
O O7 0.527769 0.876917 0.789289
O O8 0.474328 0.844012 0.669467
O O9 0.750000 0.430881 0.020795
O O10 0.501169 0.405391 0.086326
O O11 0.500000 0.500000 0.000000
O O12 0.750000 0.937119 0.852153
O O13 0.000012 0.002812 0.826746
O O14 0.250000 0.434753 0.792404
O O15 0.007668 0.428617 0.719009
O O16 0.750000 0.875931 0.629490
O O17 0.965350 0.880599 0.544105
O O18 0.955261 0.969077 0.639820
O O19 0.750000 0.568240 0.475407
O O20 0.000000 0.500000 0.500000
O O21 0.002413 0.589699 0.410795
O O22 0.250000 0.560917 0.344439
#
# Coordination Sequence:
#
# PCOD9448386 Si02
#       8
#     8   8   8   8   8   8   8   8
#     4  10  23  43  65  89 120 157 194 236 291 353
#     4  11  24  39  56  81 114 154 201 249 299 357
#     4  11  22  38  63  92 122 156 194 240 290 344
#     4  12  24  39  60  86 118 155 198 246 294 350
#     4  12  23  36  60  89 119 155 195 244 296 349
#     4   9  18  32  52  77 110 150 191 236 290 348
#     4   9  17  29  47  76 112 145 184 235 290 345
#     4  10  19  32  53  83 115 148 190 239 291 349
#
# _framework density 18.042245999999999
#
# number of rings (size 3 to 8) (size 9 to 14) (size 15 to 20)
#    0.000    1.500    2.500    4.500    0.000    4.750 
#    0.000    1.250    0.000    0.750    0.000    3.500 
#    0.000    0.000    0.000    0.000    0.000    0.000 
#
# Total GULP energy -357468.148934 kJ/mol
# GULP energy per Si atom -5585.439827 kJ/mol
# Density = 1.800118 g / cm^3
# Si number density = 18.042246 Si / 1000 Ang^3
#
#
#
# Elastic Constant Matrix: (Units=GPa)
#
#
# Indices 1 2 3 4 5 6 
#
# 1 89.1975 45.9933 62.6602 0.0000 0.0000 0.0000
# 2 45.9933 67.0232 41.2059 0.0000 0.0000 0.0000
# 3 62.6602 41.2059 145.0412 0.0000 0.0000 0.0000
# 4 0.0000 0.0000 0.0000 19.2256 0.0000 0.0000
# 5 0.0000 0.0000 0.0000 0.0000 37.4001 0.0000
# 6 0.0000 0.0000 0.0000 0.0000 0.0000 21.4958
#
#
#
# Elastic Compliance Matrix: (Units=1/GPa)
#
#
# Indices 1 2 3 4 5 6 
#
# 1 0.020938 -0.010671 -0.006014 0.000000 0.000000 0.000000
# 2 -0.010671 0.023516 -0.002071 0.000000 0.000000 0.000000
# 3 -0.006014 -0.002071 0.010081 0.000000 0.000000 0.000000
# 4 0.000000 0.000000 0.000000 0.052014 0.000000 0.000000
# 5 0.000000 0.000000 0.000000 0.000000 0.026738 0.000000
# 6 0.000000 0.000000 0.000000 0.000000 0.000000 0.046521
#
#
# Mechanical properties :
#
#
# Convention : Reuss Voigt Hill
#
# Bulk Modulus (GPa) = 58.74178 66.77564 62.75871
# Shear Modulus (GPa) = 22.42209 25.71779 24.06994
#
# Velocity S-wave (km/s) = 3.52910 3.77957 3.65648
# Velocity P-wave (km/s) = 7.01674 7.49252 7.25853
#
# Compressibility (1/GPa) = 0.01702366
#
# Stress axis : x y z
#
# Youngs Moduli (GPa) = 47.75952 42.52406 99.19564
#
# Poissons Ratio (x) = 0.45377 0.59657
# Poissons Ratio (y) = 0.50964 0.20542
# Poissons Ratio (z) = 0.28723 0.08806
#
# Static dielectric constant tensor:
#      x y z
#    x 1.606050 0.000000 0.000000 
#    y 0.000000 1.587300 0.000000 
#    z 0.000000 0.000000 1.491190 
# 
# From -- ./inp_files/29371.got.cif
#   From: 2010.05.17/outbox.cif.g08.bks.cpg/sg59_15_cif.got.tgz:29371.got - 2010.06.03 14:40:33.
