data_PCOD9448131
_publ_section_title
;
Structure prediction by ZEFSAII (Michael W. Deem and Ramdas Pophale) SiO2 
 PCOD9448131
Probable space group: P M M N
;
_chemical_formula_sum "Si O2"
_cell_formula_units_Z 64
_cell_length_a 25.096610
_cell_length_b 8.279392
_cell_length_c 16.759238
_cell_angle_alpha 90.000000
_cell_angle_beta 90.000000
_cell_angle_gamma 90.000000
_cell_volume 3482.312772
_symmetry_space_group_name_H-M "P M M N"
_symmetry_group_IT_number 59
_space_group.IT_coordinate_system_code '2'
_symmetry_cell_setting 'orthorhombic'
loop_
_space_group_symop_operation_xyz
x,y,z
1/2-x,1/2-y,z
1/2+x,-y,-z
-x,1/2+y,-z
-x,-y,-z
1/2+x,1/2+y,-z
1/2-x,y,z
x,1/2-y,z
loop_
_atom_site_type_symbol
_atom_site_label
_atom_site_fract_x
_atom_site_fract_y
_atom_site_fract_z
Si Si1 0.611585 0.555018 0.109449
Si Si2 0.810154 0.553087 0.973560
Si Si3 0.394730 0.555498 0.635500
Si Si4 0.083544 0.557245 0.294222
Si Si5 0.190466 0.444991 0.211425
Si Si6 0.024868 0.557378 0.775639
Si Si7 0.309592 0.055527 0.749636
Si Si8 0.441888 0.945228 0.472488
O O1 0.609357 0.750000 0.107503
O O2 0.554828 0.497064 0.143475
O O3 0.653421 0.501504 0.177528
O O4 0.640131 0.499477 0.027902
O O5 0.750000 0.504269 0.000917
O O6 0.810029 0.750000 0.976483
O O7 0.816060 0.505105 0.881338
O O8 0.397013 0.750000 0.636556
O O9 0.439985 0.497265 0.698993
O O10 0.338837 0.498669 0.669925
O O11 0.404717 0.500095 0.545561
O O12 0.081374 0.750000 0.296465
O O13 0.141138 0.505738 0.262628
O O14 0.072613 0.494695 0.384294
O O15 0.035364 0.498975 0.237722
O O16 0.250000 0.497156 0.237489
O O17 0.189766 0.250000 0.212571
O O18 0.025755 0.750000 0.773879
O O19 0.250000 0.993773 0.756597
O O20 0.308398 0.250000 0.752594
O O21 0.440775 0.750000 0.470012
O O22 0.500000 0.000000 0.500000
#
# Coordination Sequence:
#
# PCOD9448131 Si02
#       8
#     8   8   8   8   8   8   8   8
#     4   9  16  28  49  76 105 133 168 213 256 299
#     4   8  14  28  53  80 102 131 174 219 259 302
#     4   9  18  32  48  69  97 129 164 203 247 294
#     4  11  22  35  55  80 104 132 170 214 261 310
#     4   9  19  37  59  80 103 134 173 214 258 307
#     4  10  19  32  50  73 105 139 169 205 252 308
#     4   9  17  28  44  69 101 135 167 200 242 293
#     4  10  20  34  53  77 101 127 166 210 253 303
#
# _framework density 18.378589000000002
#
# number of rings (size 3 to 8) (size 9 to 14) (size 15 to 20)
#    0.000    2.625    1.250    1.875    0.000    3.500 
#    0.000    1.875    0.000    5.625    0.000    0.000 
#    0.000    0.000    0.000    0.000    0.000    0.000 
#
# Total GULP energy -356659.345981 kJ/mol
# GULP energy per Si atom -5572.802281 kJ/mol
# Density = 1.833676 g / cm^3
# Si number density = 18.378589 Si / 1000 Ang^3
#
#
#
# Elastic Constant Matrix: (Units=GPa)
#
#
# Indices 1 2 3 4 5 6 
#
# 1 123.3515 13.8960 58.9440 0.0000 0.0000 0.0000
# 2 13.8960 8.8696 12.9303 0.0000 0.0000 0.0000
# 3 58.9440 12.9303 87.0081 0.0000 0.0000 0.0000
# 4 0.0000 0.0000 0.0000 16.2053 0.0000 0.0000
# 5 0.0000 0.0000 0.0000 0.0000 28.6170 0.0000
# 6 0.0000 0.0000 0.0000 0.0000 0.0000 26.0509
#
#
#
# Elastic Compliance Matrix: (Units=1/GPa)
#
#
# Indices 1 2 3 4 5 6 
#
# 1 0.012559 -0.009284 -0.007129 0.000000 0.000000 0.000000
# 2 -0.009284 0.150789 -0.016119 0.000000 0.000000 0.000000
# 3 -0.007129 -0.016119 0.018718 0.000000 0.000000 0.000000
# 4 0.000000 0.000000 0.000000 0.061708 0.000000 0.000000
# 5 0.000000 0.000000 0.000000 0.000000 0.034944 0.000000
# 6 0.000000 0.000000 0.000000 0.000000 0.000000 0.038386
#
#
# Mechanical properties :
#
#
# Convention : Reuss Voigt Hill
#
# Bulk Modulus (GPa) = 8.54682 43.41884 25.98283
# Shear Modulus (GPa) = 11.87168 23.07189 17.47178
#
# Velocity S-wave (km/s) = 2.54431 3.54696 3.08662
# Velocity P-wave (km/s) = 3.64581 6.36007 5.18375
#
# Compressibility (1/GPa) = 0.11700258
#
# Stress axis : x y z
#
# Youngs Moduli (GPa) = 79.62266 6.63176 53.42482
#
# Poissons Ratio (x) = 0.06157 0.38084
# Poissons Ratio (y) = 0.73925 0.86116
# Poissons Ratio (z) = 0.56759 0.10690
#
# Static dielectric constant tensor:
#      x y z
#    x 1.635640 0.000000 0.000000 
#    y 0.000000 1.651910 0.000000 
#    z 0.000000 0.000000 1.650750 
# 
# From -- ./inp_files/24777.got.cif
#   From: 2010.05.17/outbox.cif.g08.bks.cpg/sg59_13_cif.got.tgz:24777.got - 2010.06.03 14:40:33.
