data_PCOD9448398
_publ_section_title
;
Structure prediction by ZEFSAII (Michael W. Deem and Ramdas Pophale) SiO2 
 PCOD9448398
Probable space group: P M M N
;
_chemical_formula_sum "Si O2"
_cell_formula_units_Z 64
_cell_length_a 10.106002
_cell_length_b 14.556768
_cell_length_c 20.586933
_cell_angle_alpha 90.000000
_cell_angle_beta 90.000000
_cell_angle_gamma 90.000000
_cell_volume 3028.558670
_symmetry_space_group_name_H-M "P M M N"
_symmetry_group_IT_number 59
_space_group.IT_coordinate_system_code '2'
_symmetry_cell_setting 'orthorhombic'
loop_
_space_group_symop_operation_xyz
x,y,z
1/2-x,1/2-y,z
1/2+x,-y,-z
-x,1/2+y,-z
-x,-y,-z
1/2+x,1/2+y,-z
1/2-x,y,z
x,1/2-y,z
loop_
_atom_site_type_symbol
_atom_site_label
_atom_site_fract_x
_atom_site_fract_y
_atom_site_fract_z
Si Si1 0.399943 0.915722 0.502279
Si Si2 0.472942 0.148993 0.370208
Si Si3 0.896968 0.891098 0.869707
Si Si4 0.604493 0.066209 0.643081
Si Si5 0.104699 0.881309 0.765861
Si Si6 0.401718 0.607121 0.135304
Si Si7 0.097820 0.398327 0.753301
Si Si8 0.099988 0.359257 0.980908
O O1 0.250000 0.945539 0.516935
O O2 0.449113 0.854071 0.561510
O O3 0.400068 0.885092 0.427304
O O4 0.500000 0.000000 0.500000
O O5 0.403512 0.250000 0.368069
O O6 0.565286 0.146618 0.306753
O O7 0.404949 0.046525 0.365644
O O8 0.750000 0.851807 0.863715
O O9 0.998244 0.851016 0.818473
O O10 0.887984 0.998546 0.853207
O O11 0.935701 0.883339 0.945039
O O12 0.750000 0.083260 0.672927
O O13 0.484870 0.103267 0.686457
O O14 0.250000 0.849390 0.782700
O O15 0.108004 0.992407 0.766875
O O16 0.250000 0.643420 0.133449
O O17 0.501632 0.642575 0.191235
O O18 0.484569 0.614790 0.068705
O O19 0.250000 0.363587 0.751573
O O20 0.250000 0.397008 0.966705
O O21 0.110506 0.250000 0.977162
#
# Coordination Sequence:
#
# PCOD9448398 Si02
#       8
#     8   8   8   8   8   8   8   8
#     4   9  18  32  50  71  97 132 172 214 258 306
#     4  10  20  32  49  75 106 139 174 213 260 313
#     4   9  19  35  53  73 100 137 177 213 253 305
#     4   9  18  33  52  75 103 135 175 220 262 307
#     4   9  18  30  46  71 100 129 164 206 248 296
#     4  10  19  32  54  81 106 133 171 220 263 305
#     4   9  17  31  53  78 102 130 165 206 256 312
#     4  10  21  36  52  72 102 138 173 212 262 318
#
# _framework density 21.132162999999998
#
# number of rings (size 3 to 8) (size 9 to 14) (size 15 to 20)
#    0.000    2.625    0.000    1.500    0.000    9.000 
#    0.000    0.000    0.000    0.750    0.000    1.750 
#    0.000    0.000    0.000    0.000    0.000    0.000 
#
# Total GULP energy -356396.544297 kJ/mol
# GULP energy per Si atom -5568.696005 kJ/mol
# Density = 2.108407 g / cm^3
# Si number density = 21.132163 Si / 1000 Ang^3
#
#
#
# Elastic Constant Matrix: (Units=GPa)
#
#
# Indices 1 2 3 4 5 6 
#
# 1 169.7261 16.5439 107.6636 0.0000 0.0000 0.0000
# 2 16.5439 61.0787 15.6760 0.0000 0.0000 0.0000
# 3 107.6636 15.6760 138.8737 0.0000 0.0000 0.0000
# 4 0.0000 0.0000 0.0000 -420.3729 0.0000 0.0000
# 5 0.0000 0.0000 0.0000 0.0000 -104.0517 0.0000
# 6 0.0000 0.0000 0.0000 0.0000 0.0000 -11.8935
#
#
#
# Elastic Compliance Matrix: (Units=1/GPa)
#
#
# Indices 1 2 3 4 5 6 
#
# 1 0.011637 -0.000862 -0.008924 0.000000 0.000000 0.000000
# 2 -0.000862 0.016925 -0.001243 0.000000 0.000000 0.000000
# 3 -0.008924 -0.001243 0.014260 0.000000 0.000000 0.000000
# 4 0.000000 0.000000 0.000000 -0.002379 0.000000 0.000000
# 5 0.000000 0.000000 0.000000 0.000000 -0.009611 0.000000
# 6 0.000000 0.000000 0.000000 0.000000 0.000000 -0.084079
#
#
# Mechanical properties :
#
#
# Convention : Reuss Voigt Hill
#
# Bulk Modulus (GPa) = 48.15948 72.16062 60.16005
# Shear Modulus (GPa) = -206.02450 -91.94397 -148.98424
#
# Velocity S-wave (km/s) = -9.88458 -6.60329 -8.40561
# Velocity P-wave (km/s) = 10.36505 4.89045 8.10403
#
# Compressibility (1/GPa) = 0.02076435
#
# Stress axis : x y z
#
# Youngs Moduli (GPa) = 85.93346 59.08571 70.12712
#
# Poissons Ratio (x) = 0.05090 0.62584
# Poissons Ratio (y) = 0.07403 0.08714
# Poissons Ratio (z) = 0.76691 0.07342
#
# Static dielectric constant tensor:
#      x y z
#    x 1.777870 0.000000 0.000000 
#    y 0.000000 1.778660 0.000000 
#    z 0.000000 0.000000 1.759690 
# 
# From -- ./inp_files/29501.got.cif
#   From: 2010.05.17/outbox.cif.g08.bks.cpg/sg59_15_cif.got.tgz:29501.got - 2010.06.03 14:40:33.
