data_PCOD9448228
_publ_section_title
;
Structure prediction by ZEFSAII (Michael W. Deem and Ramdas Pophale) SiO2 
 PCOD9448228
Probable space group: P M M N
;
_chemical_formula_sum "Si O2"
_cell_formula_units_Z 64
_cell_length_a 7.673291
_cell_length_b 24.552903
_cell_length_c 17.520381
_cell_angle_alpha 90.000000
_cell_angle_beta 90.000000
_cell_angle_gamma 90.000000
_cell_volume 3300.867281
_symmetry_space_group_name_H-M "P M M N"
_symmetry_group_IT_number 59
_space_group.IT_coordinate_system_code '2'
_symmetry_cell_setting 'orthorhombic'
loop_
_space_group_symop_operation_xyz
x,y,z
1/2-x,1/2-y,z
1/2+x,-y,-z
-x,1/2+y,-z
-x,-y,-z
1/2+x,1/2+y,-z
1/2-x,y,z
x,1/2-y,z
loop_
_atom_site_type_symbol
_atom_site_label
_atom_site_fract_x
_atom_site_fract_y
_atom_site_fract_z
Si Si1 0.542632 0.022840 0.820178
Si Si2 0.455012 0.908022 0.861164
Si Si3 0.958100 0.687454 0.419975
Si Si4 0.959276 0.312855 0.413989
Si Si5 0.959380 0.628065 0.269840
Si Si6 0.461501 0.311850 0.883708
Si Si7 0.463403 0.686749 0.754202
Si Si8 0.546561 0.417431 0.971018
O O1 0.750000 0.019271 0.826305
O O2 0.503857 0.066723 0.754668
O O3 0.470599 0.047812 0.900493
O O4 0.472265 0.962264 0.810848
O O5 0.250000 0.897141 0.873513
O O6 0.526588 0.855101 0.818238
O O7 0.531808 0.921706 0.944655
O O8 0.750000 0.691303 0.410959
O O9 0.027010 0.750000 0.416316
O O10 0.025811 0.650973 0.350241
O O11 0.989433 0.663333 0.504321
O O12 0.750000 0.312572 0.412489
O O13 0.020658 0.250000 0.416845
O O14 0.017229 0.333058 0.330827
O O15 0.750000 0.631219 0.271419
O O16 0.017898 0.666394 0.199571
O O17 0.250000 0.313665 0.886020
O O18 0.516747 0.250000 0.896348
O O19 0.531293 0.354917 0.944476
O O20 0.250000 0.686509 0.755314
O O21 0.515455 0.750000 0.764621
O O22 0.750000 0.432911 0.975583
#
# Coordination Sequence:
#
# PCOD9448228 Si02
#       8
#     8   8   8   8   8   8   8   8
#     4  10  20  33  47  66  94 122 151 192 237 273
#     4  10  19  32  52  72  88 115 156 193 226 270
#     4   9  16  26  44  71  98 122 151 187 224 264
#     4   8  14  26  44  66  93 122 148 177 219 269
#     4   9  17  30  47  66  91 124 159 190 220 263
#     4   9  17  29  45  65  92 126 157 185 224 272
#     4   8  15  29  49  72  95 118 147 184 224 269
#     4   9  19  32  46  67  92 120 155 194 233 271
#
# _framework density 19.388843000000001
#
# number of rings (size 3 to 8) (size 9 to 14) (size 15 to 20)
#    0.000    3.000    0.000    1.875    0.000    3.750 
#    0.000    1.875    0.000    4.125    0.000    0.000 
#    0.000    0.000    0.000    0.000    0.000    0.000 
#
# Total GULP energy -356614.261106 kJ/mol
# GULP energy per Si atom -5572.097830 kJ/mol
# Density = 1.934471 g / cm^3
# Si number density = 19.388843 Si / 1000 Ang^3
#
#
#
# Elastic Constant Matrix: (Units=GPa)
#
#
# Indices 1 2 3 4 5 6 
#
# 1 32.7384 -5.8893 7.5971 0.0000 0.0000 0.0000
# 2 -5.8893 90.0929 34.7899 0.0000 0.0000 0.0000
# 3 7.5971 34.7899 77.2888 0.0000 0.0000 0.0000
# 4 0.0000 0.0000 0.0000 15.2642 0.0000 0.0000
# 5 0.0000 0.0000 0.0000 0.0000 -10.7751 0.0000
# 6 0.0000 0.0000 0.0000 0.0000 0.0000 11.2573
#
#
#
# Elastic Compliance Matrix: (Units=1/GPa)
#
#
# Indices 1 2 3 4 5 6 
#
# 1 0.032439 0.004057 -0.005015 0.000000 0.000000 0.000000
# 2 0.004057 0.013942 -0.006675 0.000000 0.000000 0.000000
# 3 -0.005015 -0.006675 0.016436 0.000000 0.000000 0.000000
# 4 0.000000 0.000000 0.000000 0.065513 0.000000 0.000000
# 5 0.000000 0.000000 0.000000 0.000000 -0.092807 0.000000
# 6 0.000000 0.000000 0.000000 0.000000 0.000000 0.088831
#
#
# Mechanical properties :
#
#
# Convention : Reuss Voigt Hill
#
# Bulk Modulus (GPa) = 21.02958 30.34616 25.68787
# Shear Modulus (GPa) = 32.16060 14.05743 23.10901
#
# Velocity S-wave (km/s) = 4.07715 2.69555 3.45609
# Velocity P-wave (km/s) = 5.74752 5.03720 5.40404
#
# Compressibility (1/GPa) = 0.04755206
#
# Stress axis : x y z
#
# Youngs Moduli (GPa) = 30.82742 71.72426 60.84269
#
# Poissons Ratio (x) = -0.29098 0.30511
# Poissons Ratio (y) = -0.12506 0.40610
# Poissons Ratio (z) = 0.15459 0.47873
#
# Static dielectric constant tensor:
#      x y z
#    x 1.829460 0.000000 0.000000 
#    y 0.000000 1.657710 0.000000 
#    z 0.000000 0.000000 1.713840 
# 
# From -- ./inp_files/26471.got.cif
#   From: 2010.05.17/outbox.cif.g08.bks.cpg/sg59_14_cif.got.tgz:26471.got - 2010.06.03 14:40:33.
