data_PCOD9448171
_publ_section_title
;
Structure prediction by ZEFSAII (Michael W. Deem and Ramdas Pophale) SiO2 
 PCOD9448171
Probable space group: P M M N
;
_chemical_formula_sum "Si O2"
_cell_formula_units_Z 64
_cell_length_a 7.459408
_cell_length_b 24.850023
_cell_length_c 15.097767
_cell_angle_alpha 90.000000
_cell_angle_beta 90.000000
_cell_angle_gamma 90.000000
_cell_volume 2798.619628
_symmetry_space_group_name_H-M "P M M N"
_symmetry_group_IT_number 59
_space_group.IT_coordinate_system_code '2'
_symmetry_cell_setting 'orthorhombic'
loop_
_space_group_symop_operation_xyz
x,y,z
1/2-x,1/2-y,z
1/2+x,-y,-z
-x,1/2+y,-z
-x,-y,-z
1/2+x,1/2+y,-z
1/2-x,y,z
x,1/2-y,z
loop_
_atom_site_type_symbol
_atom_site_label
_atom_site_fract_x
_atom_site_fract_y
_atom_site_fract_z
Si Si1 0.035393 0.536948 0.415408
Si Si2 0.546708 0.605185 0.134733
Si Si3 0.031464 0.843664 0.462107
Si Si4 0.467188 0.689738 0.656997
Si Si5 0.533194 0.192567 0.726625
Si Si6 0.469777 0.311972 0.013937
Si Si7 0.542440 0.881606 0.822267
Si Si8 0.040992 0.496618 0.225660
O O1 0.250000 0.542240 0.404293
O O2 0.969208 0.596159 0.440382
O O3 0.964912 0.513758 0.321993
O O4 0.000000 0.500000 0.500000
O O5 0.750000 0.593820 0.107687
O O6 0.541408 0.641511 0.222799
O O7 0.466642 0.547639 0.160250
O O8 0.469038 0.645764 0.061327
O O9 0.250000 0.843488 0.465788
O O10 0.971641 0.822988 0.557282
O O11 0.982553 0.809588 0.376165
O O12 0.250000 0.688406 0.657648
O O13 0.523814 0.750000 0.682688
O O14 0.531602 0.645848 0.726476
O O15 0.750000 0.189091 0.731738
O O16 0.476950 0.250000 0.766197
O O17 0.250000 0.309814 0.010166
O O18 0.529879 0.250000 0.003808
O O19 0.529544 0.339095 0.106215
O O20 0.750000 0.888156 0.848813
O O21 0.462874 0.941571 0.814567
O O22 0.250000 0.484465 0.242332
#
# Coordination Sequence:
#
# PCOD9448171 Si02
#       8
#     8   8   8   8   8   8   8   8
#     4  10  19  32  51  74 107 146 185 229 272 322
#     4  11  22  36  57  83 113 148 187 232 279 332
#     4   9  17  32  52  75 107 148 184 217 272 338
#     4  10  20  34  54  82 114 146 185 234 281 331
#     4  10  19  34  57  81 109 147 187 225 273 335
#     4   9  19  37  59  83 112 147 186 227 283 349
#     4  10  21  38  61  83 108 148 191 233 282 338
#     4  10  21  38  57  82 115 147 187 236 283 334
#
# _framework density 22.868417999999998
#
# number of rings (size 3 to 8) (size 9 to 14) (size 15 to 20)
#    0.000    2.125    1.250    2.250    0.000    4.500 
#    0.000    1.875    0.000    4.500    0.000    0.000 
#    0.000    0.000    0.000    0.000    0.000    0.000 
#
# Total GULP energy -357471.116573 kJ/mol
# GULP energy per Si atom -5585.486196 kJ/mol
# Density = 2.281637 g / cm^3
# Si number density = 22.868418 Si / 1000 Ang^3
#
#
#
# Elastic Constant Matrix: (Units=GPa)
#
#
# Indices 1 2 3 4 5 6 
#
# 1 61.8147 0.4529 -6.4553 0.0000 0.0000 0.0000
# 2 0.4529 181.6464 47.5144 0.0000 0.0000 0.0000
# 3 -6.4553 47.5144 100.0474 0.0000 0.0000 0.0000
# 4 0.0000 0.0000 0.0000 37.4022 0.0000 0.0000
# 5 0.0000 0.0000 0.0000 0.0000 -13.3854 0.0000
# 6 0.0000 0.0000 0.0000 0.0000 0.0000 10.3099
#
#
#
# Elastic Compliance Matrix: (Units=1/GPa)
#
#
# Indices 1 2 3 4 5 6 
#
# 1 0.016308 -0.000361 0.001224 0.000000 0.000000 0.000000
# 2 -0.000361 0.006294 -0.003012 0.000000 0.000000 0.000000
# 3 0.001224 -0.003012 0.011505 0.000000 0.000000 0.000000
# 4 0.000000 0.000000 0.000000 0.026736 0.000000 0.000000
# 5 0.000000 0.000000 0.000000 0.000000 -0.074708 0.000000
# 6 0.000000 0.000000 0.000000 0.000000 0.000000 0.096994
#
#
# Mechanical properties :
#
#
# Convention : Reuss Voigt Hill
#
# Bulk Modulus (GPa) = 33.54860 47.39250 40.47055
# Shear Modulus (GPa) = 51.35352 26.99844 39.17598
#
# Velocity S-wave (km/s) = 4.74393 3.43971 4.14346
# Velocity P-wave (km/s) = 6.68645 6.04520 6.37389
#
# Compressibility (1/GPa) = 0.02980750
#
# Stress axis : x y z
#
# Youngs Moduli (GPa) = 61.32033 158.87929 86.91969
#
# Poissons Ratio (x) = 0.05731 -0.10635
# Poissons Ratio (y) = 0.02212 0.26184
# Poissons Ratio (z) = -0.07503 0.47862
#
# Static dielectric constant tensor:
#      x y z
#    x 1.899220 0.000000 0.000000 
#    y 0.000000 1.839250 0.000000 
#    z 0.000000 0.000000 1.832540 
# 
# From -- ./inp_files/21544.got.cif
#   From: 2010.05.17/outbox.cif.g08.bks.cpg/sg59_11_cif.got.tgz:21544.got - 2010.06.03 14:40:33.
