data_PCOD9448712
_publ_section_title
;
Structure prediction by ZEFSAII (Michael W. Deem and Ramdas Pophale) SiO2 
 PCOD9448712
Probable space group: P M M N
;
_chemical_formula_sum "Si O2"
_cell_formula_units_Z 64
_cell_length_a 24.204498
_cell_length_b 7.892214
_cell_length_c 15.851468
_cell_angle_alpha 90.000000
_cell_angle_beta 90.000000
_cell_angle_gamma 90.000000
_cell_volume 3028.059614
_symmetry_space_group_name_H-M "P M M N"
_symmetry_group_IT_number 59
_space_group.IT_coordinate_system_code '2'
_symmetry_cell_setting 'orthorhombic'
loop_
_space_group_symop_operation_xyz
x,y,z
1/2-x,1/2-y,z
1/2+x,-y,-z
-x,1/2+y,-z
-x,-y,-z
1/2+x,1/2+y,-z
1/2-x,y,z
x,1/2-y,z
loop_
_atom_site_type_symbol
_atom_site_label
_atom_site_fract_x
_atom_site_fract_y
_atom_site_fract_z
Si Si1 0.374784 0.942405 0.581775
Si Si2 0.511084 0.553937 0.346826
Si Si3 0.871835 0.550802 0.910889
Si Si4 0.991229 0.454964 0.846944
Si Si5 0.312564 0.453853 0.750071
Si Si6 0.187014 0.042154 0.256710
Si Si7 0.396030 0.445572 0.402155
Si Si8 0.611478 0.957777 0.095083
O O1 0.360771 0.750000 0.562126
O O2 0.438115 0.955977 0.612985
O O3 0.337684 0.003052 0.659338
O O4 0.370242 0.043111 0.494746
O O5 0.529076 0.750000 0.342308
O O6 0.497702 0.497621 0.251461
O O7 0.454596 0.539376 0.398634
O O8 0.858437 0.750000 0.915697
O O9 0.935900 0.531094 0.885346
O O10 0.835781 0.481317 0.833701
O O11 0.865392 0.481628 0.005309
O O12 0.986576 0.250000 0.850849
O O13 0.047539 0.507412 0.893314
O O14 0.250000 0.517274 0.758935
O O15 0.311287 0.250000 0.756721
O O16 0.352626 0.514916 0.825009
O O17 0.250000 0.989634 0.270716
O O18 0.186157 0.250000 0.256793
O O19 0.145505 0.987805 0.330702
O O20 0.408387 0.250000 0.382310
O O21 0.611815 0.750000 0.095043
#
# Coordination Sequence:
#
# PCOD9448712 Si02
#       8
#     8   8   8   8   8   8   8   8
#     4  12  25  40  60  87 118 150 190 240 294 350
#     4  11  21  37  61  86 117 153 191 236 289 349
#     4  10  19  33  57  86 117 148 191 238 282 337
#     4  10  19  33  55  81 118 153 185 230 287 345
#     4  10  21  40  63  85 114 155 200 242 289 343
#     4   9  19  35  55  82 114 148 189 236 281 330
#     4  11  22  38  60  86 117 152 193 238 290 351
#     4   9  18  34  56  86 117 149 188 236 285 338
#
# _framework density 21.135646999999999
#
# number of rings (size 3 to 8) (size 9 to 14) (size 15 to 20)
#    0.000    1.750    2.500    2.625    0.000    1.750 
#    0.000    4.375    0.000    3.000    0.000    0.000 
#    0.000    0.000    0.000    0.000    0.000    0.000 
#
# Total GULP energy -357679.681837 kJ/mol
# GULP energy per Si atom -5588.745029 kJ/mol
# Density = 2.108754 g / cm^3
# Si number density = 21.135647 Si / 1000 Ang^3
#
#
#
# Elastic Constant Matrix: (Units=GPa)
#
#
# Indices 1 2 3 4 5 6 
#
# 1 71.9520 -11.1686 -4.1293 0.0000 0.0000 0.0000
# 2 -11.1686 23.9471 -8.1079 0.0000 0.0000 0.0000
# 3 -4.1293 -8.1079 89.9130 0.0000 0.0000 0.0000
# 4 0.0000 0.0000 0.0000 3.7708 0.0000 0.0000
# 5 0.0000 0.0000 0.0000 0.0000 6.4711 0.0000
# 6 0.0000 0.0000 0.0000 0.0000 0.0000 17.7865
#
#
#
# Elastic Compliance Matrix: (Units=1/GPa)
#
#
# Indices 1 2 3 4 5 6 
#
# 1 0.015146 0.007529 0.001375 0.000000 0.000000 0.000000
# 2 0.007529 0.046817 0.004567 0.000000 0.000000 0.000000
# 3 0.001375 0.004567 0.011597 0.000000 0.000000 0.000000
# 4 0.000000 0.000000 0.000000 0.265197 0.000000 0.000000
# 5 0.000000 0.000000 0.000000 0.000000 0.154534 0.000000
# 6 0.000000 0.000000 0.000000 0.000000 0.000000 0.056222
#
#
# Mechanical properties :
#
#
# Convention : Reuss Voigt Hill
#
# Bulk Modulus (GPa) = 9.95010 15.44450 12.69730
# Shear Modulus (GPa) = 8.99166 19.55352 14.27259
#
# Velocity S-wave (km/s) = 2.06482 3.04492 2.60144
# Velocity P-wave (km/s) = 3.22531 4.43680 3.87865
#
# Compressibility (1/GPa) = 0.10050148
#
# Stress axis : x y z
#
# Youngs Moduli (GPa) = 66.02523 21.35992 86.23018
#
# Poissons Ratio (x) = -0.16082 -0.11852
# Poissons Ratio (y) = -0.49711 -0.39386
# Poissons Ratio (z) = -0.09075 -0.09756
#
# Static dielectric constant tensor:
#      x y z
#    x 1.721690 0.000000 0.000000 
#    y 0.000000 1.787190 0.000000 
#    z 0.000000 0.000000 1.762250 
# 
# From -- ./inp_files/21548.got.cif
#   From: 2010.05.17/outbox.cif.g08.bks.cpg/sg59_11_cif.got.tgz:21548.got - 2010.06.03 14:40:33.
