data_PCOD9448503
_publ_section_title
;
Structure prediction by ZEFSAII (Michael W. Deem and Ramdas Pophale) SiO2 
 PCOD9448503
Probable space group: P M M N
;
_chemical_formula_sum "Si O2"
_cell_formula_units_Z 48
_cell_length_a 20.003047
_cell_length_b 7.645515
_cell_length_c 15.477687
_cell_angle_alpha 90.000000
_cell_angle_beta 90.000000
_cell_angle_gamma 90.000000
_cell_volume 2367.058329
_symmetry_space_group_name_H-M "P M M N"
_symmetry_group_IT_number 59
_space_group.IT_coordinate_system_code '2'
_symmetry_cell_setting 'orthorhombic'
loop_
_space_group_symop_operation_xyz
x,y,z
1/2-x,1/2-y,z
1/2+x,-y,-z
-x,1/2+y,-z
-x,-y,-z
1/2+x,1/2+y,-z
1/2-x,y,z
x,1/2-y,z
loop_
_atom_site_type_symbol
_atom_site_label
_atom_site_fract_x
_atom_site_fract_y
_atom_site_fract_z
Si Si1 0.174145 0.960967 0.430319
Si Si2 0.914233 0.542480 0.732575
Si Si3 0.326212 0.963469 0.626692
Si Si4 0.572794 0.457941 0.039147
Si Si5 0.825277 0.957588 0.889835
Si Si6 0.935817 0.464825 0.235584
O O1 0.250000 0.020060 0.409002
O O2 0.175074 0.750000 0.430756
O O3 0.158349 0.018336 0.528192
O O4 0.121756 0.017215 0.358573
O O5 0.919772 0.750000 0.748294
O O6 0.867474 0.468827 0.809019
O O7 0.989919 0.475840 0.737604
O O8 0.250000 0.016641 0.646611
O O9 0.326901 0.750000 0.626854
O O10 0.379895 0.023044 0.696566
O O11 0.578074 0.250000 0.042629
O O12 0.577551 0.523117 0.137447
O O13 0.500000 0.500000 0.000000
O O14 0.630811 0.520930 0.975640
O O15 0.750000 0.029246 0.896154
O O16 0.819142 0.750000 0.874987
O O17 0.934876 0.250000 0.236107
#
# Coordination Sequence:
#
# PCOD9448503 Si02
#       6
#     8   8   8   8   8   8
#     4   9  18  32  50  74 104 135 169 212 261 307
#     4  10  19  33  52  75 104 139 175 210 258 317
#     4   8  15  30  51  74 102 135 169 211 261 307
#     4  11  21  36  57  79 107 141 179 222 268 320
#     4  10  21  37  55  77 108 144 180 219 267 320
#     4   9  18  32  52  76 102 135 174 214 257 314
#
# _framework density 20.278335999999999
#
# number of rings (size 3 to 8) (size 9 to 14) (size 15 to 20)
#    0.000    2.500    1.667    2.000    0.000    3.333 
#    0.000    1.667    0.000    2.000    0.000    0.000 
#    0.000    0.000    0.000    0.000    0.000    0.000 
#
# Total GULP energy -267944.008289 kJ/mol
# GULP energy per Si atom -5582.166839 kJ/mol
# Density = 2.023218 g / cm^3
# Si number density = 20.278336 Si / 1000 Ang^3
#
#
#
# Elastic Constant Matrix: (Units=GPa)
#
#
# Indices 1 2 3 4 5 6 
#
# 1 206.1125 2.5684 142.5508 0.0000 0.0000 0.0000
# 2 2.5684 34.2096 -6.0102 0.0000 0.0000 0.0000
# 3 142.5508 -6.0102 183.0120 0.0000 0.0000 0.0000
# 4 0.0000 0.0000 0.0000 18.3470 0.0000 0.0000
# 5 0.0000 0.0000 0.0000 0.0000 23.7908 0.0000
# 6 0.0000 0.0000 0.0000 0.0000 0.0000 7.3455
#
#
#
# Elastic Compliance Matrix: (Units=1/GPa)
#
#
# Indices 1 2 3 4 5 6 
#
# 1 0.010692 -0.002279 -0.008403 0.000000 0.000000 0.000000
# 2 -0.002279 0.029887 0.002757 0.000000 0.000000 0.000000
# 3 -0.008403 0.002757 0.012100 0.000000 0.000000 0.000000
# 4 0.000000 0.000000 0.000000 0.054505 0.000000 0.000000
# 5 0.000000 0.000000 0.000000 0.000000 0.042033 0.000000
# 6 0.000000 0.000000 0.000000 0.000000 0.000000 0.136138
#
#
# Mechanical properties :
#
#
# Convention : Reuss Voigt Hill
#
# Bulk Modulus (GPa) = 27.15316 77.95024 52.55170
# Shear Modulus (GPa) = 15.94998 28.84499 22.39749
#
# Velocity S-wave (km/s) = 2.80760 3.77563 3.32701
# Velocity P-wave (km/s) = 4.89177 7.58491 6.38202
#
# Compressibility (1/GPa) = 0.03682813
#
# Stress axis : x y z
#
# Youngs Moduli (GPa) = 93.53213 33.45942 82.64743
#
# Poissons Ratio (x) = 0.07625 0.69446
# Poissons Ratio (y) = 0.21315 -0.22783
# Poissons Ratio (z) = 0.78592 -0.09223
#
# Static dielectric constant tensor:
#      x y z
#    x 1.692290 0.000000 0.000000 
#    y 0.000000 1.766190 0.000000 
#    z 0.000000 0.000000 1.690570 
# 
# From -- ./inp_files/20338.got.cif
#   From: 2010.05.17/outbox.cif.g08.bks.cpg/sg59_11_cif.got.tgz:20338.got - 2010.06.03 14:40:33.
