data_PCOD9448626
_publ_section_title
;
Structure prediction by ZEFSAII (Michael W. Deem and Ramdas Pophale) SiO2 
 PCOD9448626
Probable space group: P M M N
;
_chemical_formula_sum "Si O2"
_cell_formula_units_Z 56
_cell_length_a 20.299441
_cell_length_b 7.907645
_cell_length_c 16.461690
_cell_angle_alpha 90.000000
_cell_angle_beta 90.000000
_cell_angle_gamma 90.000000
_cell_volume 2642.443206
_symmetry_space_group_name_H-M "P M M N"
_symmetry_group_IT_number 59
_space_group.IT_coordinate_system_code '2'
_symmetry_cell_setting 'orthorhombic'
loop_
_space_group_symop_operation_xyz
x,y,z
1/2-x,1/2-y,z
1/2+x,-y,-z
-x,1/2+y,-z
-x,-y,-z
1/2+x,1/2+y,-z
1/2-x,y,z
x,1/2-y,z
loop_
_atom_site_type_symbol
_atom_site_label
_atom_site_fract_x
_atom_site_fract_y
_atom_site_fract_z
Si Si1 0.676100 0.456724 0.018878
Si Si2 0.323618 0.545638 0.169356
Si Si3 0.673703 0.551044 0.292224
Si Si4 0.175420 0.548405 0.525989
Si Si5 0.457830 0.048377 0.249891
Si Si6 0.578111 0.445886 0.153126
Si Si7 0.949693 0.548928 0.570551
O O1 0.750000 0.509710 0.044884
O O2 0.676004 0.250000 0.021828
O O3 0.619147 0.521384 0.078229
O O4 0.666877 0.504859 0.924997
O O5 0.250000 0.491201 0.194470
O O6 0.324895 0.750000 0.171956
O O7 0.383206 0.479536 0.222697
O O8 0.750000 0.495072 0.284118
O O9 0.670188 0.750000 0.273426
O O10 0.655050 0.524696 0.386335
O O11 0.626445 0.455011 0.230781
O O12 0.250000 0.489342 0.508426
O O13 0.176568 0.750000 0.534962
O O14 0.122940 0.503809 0.457758
O O15 0.470396 0.250000 0.252893
O O16 0.509464 0.976946 0.184052
O O17 0.467906 0.978670 0.340699
O O18 0.565859 0.250000 0.131148
O O19 0.950702 0.750000 0.576742
O O20 0.000000 0.500000 0.500000
#
# Coordination Sequence:
#
# PCOD9448626 Si02
#       7
#     8   8   8   8   8   8   8
#     4   8  15  30  54  82 109 141 182 225 267 311
#     4   9  19  37  59  81 106 140 185 230 270 321
#     4  10  20  33  51  79 114 147 180 222 273 326
#     4  10  21  37  57  80 105 137 182 232 280 333
#     4  10  23  38  53  80 112 141 176 221 274 326
#     4  10  19  33  54  79 110 147 186 223 263 321
#     4  11  23  39  58  80 111 147 183 227 278 332
#
# _framework density 21.192508
#
# number of rings (size 3 to 8) (size 9 to 14) (size 15 to 20)
#    0.000    2.286    0.000    3.429    0.000    6.571 
#    0.000    3.571    0.000    0.857    0.000    0.000 
#    0.000    0.000    0.000    0.000    0.000    0.000 
#
# Total GULP energy -312731.170108 kJ/mol
# GULP energy per Si atom -5584.485181 kJ/mol
# Density = 2.114427 g / cm^3
# Si number density = 21.192508 Si / 1000 Ang^3
#
#
#
# Elastic Constant Matrix: (Units=GPa)
#
#
# Indices 1 2 3 4 5 6 
#
# 1 96.4089 -5.1686 50.6509 0.0000 0.0000 0.0000
# 2 -5.1686 22.5507 -4.8217 0.0000 0.0000 0.0000
# 3 50.6509 -4.8217 72.2914 0.0000 0.0000 0.0000
# 4 0.0000 0.0000 0.0000 13.9267 0.0000 0.0000
# 5 0.0000 0.0000 0.0000 0.0000 36.2971 0.0000
# 6 0.0000 0.0000 0.0000 0.0000 0.0000 22.4153
#
#
#
# Elastic Compliance Matrix: (Units=1/GPa)
#
#
# Indices 1 2 3 4 5 6 
#
# 1 0.016454 0.001325 -0.011440 0.000000 0.000000 0.000000
# 2 0.001325 0.045093 0.002079 0.000000 0.000000 0.000000
# 3 -0.011440 0.002079 0.021987 0.000000 0.000000 0.000000
# 4 0.000000 0.000000 0.000000 0.071804 0.000000 0.000000
# 5 0.000000 0.000000 0.000000 0.000000 0.027550 0.000000
# 6 0.000000 0.000000 0.000000 0.000000 0.000000 0.044612
#
#
# Mechanical properties :
#
#
# Convention : Reuss Voigt Hill
#
# Bulk Modulus (GPa) = 14.82313 30.28581 22.55447
# Shear Modulus (GPa) = 18.79279 24.56718 21.67998
#
# Velocity S-wave (km/s) = 2.98109 3.40845 3.20191
# Velocity P-wave (km/s) = 4.34268 5.46003 4.93309
#
# Compressibility (1/GPa) = 0.06746213
#
# Stress axis : x y z
#
# Youngs Moduli (GPa) = 60.77612 22.17652 45.48140
#
# Poissons Ratio (x) = -0.02939 0.52031
# Poissons Ratio (y) = -0.08054 -0.09456
# Poissons Ratio (z) = 0.69528 -0.04611
#
# Static dielectric constant tensor:
#      x y z
#    x 1.766790 0.000000 0.000000 
#    y 0.000000 1.800800 0.000000 
#    z 0.000000 0.000000 1.753480 
# 
# From -- ./inp_files/24281.got.cif
#   From: 2010.05.17/outbox.cif.g08.bks.cpg/sg59_13_cif.got.tgz:24281.got - 2010.06.03 14:40:33.
