data_PCOD9448459
_publ_section_title
;
Structure prediction by ZEFSAII (Michael W. Deem and Ramdas Pophale) SiO2 
 PCOD9448459
Probable space group: P M M N
;
_chemical_formula_sum "Si O2"
_cell_formula_units_Z 64
_cell_length_a 16.102841
_cell_length_b 22.278731
_cell_length_c 9.528751
_cell_angle_alpha 90.000000
_cell_angle_beta 90.000000
_cell_angle_gamma 90.000000
_cell_volume 3418.447644
_symmetry_space_group_name_H-M "P M M N"
_symmetry_group_IT_number 59
_space_group.IT_coordinate_system_code '2'
_symmetry_cell_setting 'orthorhombic'
loop_
_space_group_symop_operation_xyz
x,y,z
1/2-x,1/2-y,z
1/2+x,-y,-z
-x,1/2+y,-z
-x,-y,-z
1/2+x,1/2+y,-z
1/2-x,y,z
x,1/2-y,z
loop_
_atom_site_type_symbol
_atom_site_label
_atom_site_fract_x
_atom_site_fract_y
_atom_site_fract_z
Si Si1 0.981178 0.181434 0.012838
Si Si2 0.081812 0.502638 0.098978
Si Si3 0.991765 0.181769 0.676631
Si Si4 0.155349 0.375917 0.039212
Si Si5 0.346564 0.589186 0.885046
Si Si6 0.843546 0.874659 0.297630
Si Si7 0.947013 0.450264 0.592108
Si Si8 0.153761 0.994610 0.631544
O O1 0.962931 0.250000 0.041497
O O2 0.974258 0.172065 0.843543
O O3 0.076168 0.167483 0.058515
O O4 0.913379 0.140814 0.088923
O O5 0.055252 0.527618 0.248741
O O6 0.125777 0.438240 0.106870
O O7 0.145248 0.546725 0.020647
O O8 0.000000 0.500000 0.000000
O O9 0.964666 0.250000 0.638840
O O10 0.091722 0.176862 0.666611
O O11 0.960953 0.122075 0.594346
O O12 0.250000 0.358878 0.081766
O O13 0.158310 0.384210 0.870137
O O14 0.250000 0.607353 0.865329
O O15 0.377014 0.549317 0.753356
O O16 0.750000 0.862676 0.345946
O O17 0.878405 0.937219 0.359015
O O18 0.859475 0.463133 0.516073
O O19 0.000000 0.500000 0.500000
O O20 0.250000 0.003019 0.665066
#
# Coordination Sequence:
#
# PCOD9448459 Si02
#       8
#     8   8   8   8   8   8   8   8
#     4  10  21  37  58  85 118 157 202 253 302 359
#     4  12  20  35  60  88 121 153 196 249 304 362
#     4  10  20  36  55  81 115 155 199 244 295 359
#     4  10  19  32  57  89 118 151 191 240 298 358
#     4  11  21  37  62  87 115 154 197 250 308 358
#     4   9  16  31  54  84 117 147 183 234 289 347
#     4  12  23  36  59  88 119 158 201 247 307 361
#     4  10  21  36  57  86 120 148 190 247 301 358
#
# _framework density 18.721948999999999
#
# number of rings (size 3 to 8) (size 9 to 14) (size 15 to 20)
#    0.000    1.500    5.000    1.875    0.000    1.750 
#    0.000    3.125    0.000    1.125    0.000    0.000 
#    0.000    0.000    0.000    0.000    0.000    0.000 
#
# Total GULP energy -356446.832418 kJ/mol
# GULP energy per Si atom -5569.481757 kJ/mol
# Density = 1.867934 g / cm^3
# Si number density = 18.721949 Si / 1000 Ang^3
#
#
#
# Elastic Constant Matrix: (Units=GPa)
#
#
# Indices 1 2 3 4 5 6 
#
# 1 58.3906 17.8895 6.9517 0.0000 0.0000 0.0000
# 2 17.8895 105.7992 20.8644 0.0000 0.0000 0.0000
# 3 6.9517 20.8644 60.2421 0.0000 0.0000 0.0000
# 4 0.0000 0.0000 0.0000 16.0959 0.0000 0.0000
# 5 0.0000 0.0000 0.0000 0.0000 20.0760 0.0000
# 6 0.0000 0.0000 0.0000 0.0000 0.0000 11.6327
#
#
#
# Elastic Compliance Matrix: (Units=1/GPa)
#
#
# Indices 1 2 3 4 5 6 
#
# 1 0.018130 -0.002848 -0.001106 0.000000 0.000000 0.000000
# 2 -0.002848 0.010592 -0.003340 0.000000 0.000000 0.000000
# 3 -0.001106 -0.003340 0.017884 0.000000 0.000000 0.000000
# 4 0.000000 0.000000 0.000000 0.062128 0.000000 0.000000
# 5 0.000000 0.000000 0.000000 0.000000 0.049811 0.000000
# 6 0.000000 0.000000 0.000000 0.000000 0.000000 0.085965
#
#
# Mechanical properties :
#
#
# Convention : Reuss Voigt Hill
#
# Bulk Modulus (GPa) = 31.23094 35.09369 33.16231
# Shear Modulus (GPa) = 18.53437 21.47600 20.00519
#
# Velocity S-wave (km/s) = 3.14981 3.39056 3.27240
# Velocity P-wave (km/s) = 5.47230 5.84066 5.65948
#
# Compressibility (1/GPa) = 0.03201953
#
# Stress axis : x y z
#
# Youngs Moduli (GPa) = 55.15688 94.41092 55.91572
#
# Poissons Ratio (x) = 0.26884 0.06184
# Poissons Ratio (y) = 0.15706 0.18675
# Poissons Ratio (z) = 0.06100 0.31532
#
# Static dielectric constant tensor:
#      x y z
#    x 1.750080 0.000000 0.000000 
#    y 0.000000 1.659250 0.000000 
#    z 0.000000 0.000000 1.646750 
# 
# From -- ./inp_files/10691.got.cif
#   From: 2010.05.17/outbox.cif.g08.bks.cpg/sg59_6_cif.got.tgz:10691.got - 2010.06.03 14:40:33.
