data_PCOD9448605
_publ_section_title
;
Structure prediction by ZEFSAII (Michael W. Deem and Ramdas Pophale) SiO2 
 PCOD9448605
Probable space group: P M M N
;
_chemical_formula_sum "Si O2"
_cell_formula_units_Z 64
_cell_length_a 8.645531
_cell_length_b 28.258967
_cell_length_c 14.453669
_cell_angle_alpha 90.000000
_cell_angle_beta 90.000000
_cell_angle_gamma 90.000000
_cell_volume 3531.230439
_symmetry_space_group_name_H-M "P M M N"
_symmetry_group_IT_number 59
_space_group.IT_coordinate_system_code '2'
_symmetry_cell_setting 'orthorhombic'
loop_
_space_group_symop_operation_xyz
x,y,z
1/2-x,1/2-y,z
1/2+x,-y,-z
-x,1/2+y,-z
-x,-y,-z
1/2+x,1/2+y,-z
1/2-x,y,z
x,1/2-y,z
loop_
_atom_site_type_symbol
_atom_site_label
_atom_site_fract_x
_atom_site_fract_y
_atom_site_fract_z
Si Si1 0.063937 0.610482 0.186665
Si Si2 0.066655 0.304696 0.341108
Si Si3 0.938736 0.304217 0.942405
Si Si4 0.073291 0.807401 0.853964
Si Si5 0.937436 0.471633 0.289269
Si Si6 0.434906 0.606409 0.567572
Si Si7 0.064601 0.073073 0.627795
Si Si8 0.563845 0.514285 0.099461
O O1 0.250000 0.607800 0.186032
O O2 0.015599 0.658793 0.135846
O O3 0.003181 0.605802 0.290965
O O4 0.996664 0.565692 0.130819
O O5 0.250000 0.306826 0.353417
O O6 0.016309 0.250000 0.352339
O O7 0.023559 0.319562 0.236221
O O8 0.985079 0.340367 0.410550
O O9 0.750000 0.303162 0.945762
O O10 0.990279 0.250000 0.927393
O O11 0.986951 0.321686 0.044951
O O12 0.250000 0.824574 0.841442
O O13 0.078766 0.750000 0.858667
O O14 0.750000 0.469948 0.287852
O O15 0.991242 0.426567 0.347206
O O16 0.981513 0.519446 0.344332
O O17 0.986197 0.478813 0.182838
O O18 0.250000 0.603292 0.562941
O O19 0.503838 0.587457 0.472121
O O20 0.250000 0.075405 0.629918
O O21 0.750000 0.514949 0.097222
O O22 0.500000 0.500000 0.000000
#
# Coordination Sequence:
#
# PCOD9448605 Si02
#       8
#     8   8   8   8   8   8   8   8
#     4  10  19  33  54  78 104 138 178 218 261 309
#     4  10  21  36  51  72 106 141 169 204 255 310
#     4   8  15  29  51  78 105 135 175 219 256 295
#     4   8  14  28  50  72  95 128 168 207 248 293
#     4   8  18  35  55  78 104 134 169 213 258 303
#     4  11  21  35  57  81 100 127 174 221 260 306
#     4  10  20  37  56  76 106 138 168 210 267 319
#     4  10  20  36  54  76 109 144 175 209 256 313
#
# _framework density 18.123995000000001
#
# number of rings (size 3 to 8) (size 9 to 14) (size 15 to 20)
#    0.000    2.625    0.000    3.750    0.000    1.750 
#    0.000   13.750    0.000    5.250    0.000    0.000 
#    0.000    0.000    0.000    0.000    0.000    0.000 
#
# Total GULP energy -356916.349555 kJ/mol
# GULP energy per Si atom -5576.817962 kJ/mol
# Density = 1.808274 g / cm^3
# Si number density = 18.123995 Si / 1000 Ang^3
#
#
#
# Elastic Constant Matrix: (Units=GPa)
#
#
# Indices 1 2 3 4 5 6 
#
# 1 46.6533 22.8397 33.8741 0.0000 0.0000 0.0000
# 2 22.8397 65.2487 67.8211 0.0000 0.0000 0.0000
# 3 33.8741 67.8211 140.0194 0.0000 0.0000 0.0000
# 4 0.0000 0.0000 0.0000 24.0608 0.0000 0.0000
# 5 0.0000 0.0000 0.0000 0.0000 27.1490 0.0000
# 6 0.0000 0.0000 0.0000 0.0000 0.0000 20.1055
#
#
#
# Elastic Compliance Matrix: (Units=1/GPa)
#
#
# Indices 1 2 3 4 5 6 
#
# 1 0.026895 -0.005340 -0.003920 0.000000 0.000000 0.000000
# 2 -0.005340 0.031926 -0.014172 0.000000 0.000000 0.000000
# 3 -0.003920 -0.014172 0.014955 0.000000 0.000000 0.000000
# 4 0.000000 0.000000 0.000000 0.041561 0.000000 0.000000
# 5 0.000000 0.000000 0.000000 0.000000 0.036834 0.000000
# 6 0.000000 0.000000 0.000000 0.000000 0.000000 0.049738
#
#
# Mechanical properties :
#
#
# Convention : Reuss Voigt Hill
#
# Bulk Modulus (GPa) = 37.15826 55.66568 46.41197
# Shear Modulus (GPa) = 19.39915 22.75551 21.07733
#
# Velocity S-wave (km/s) = 3.27518 3.54721 3.41391
# Velocity P-wave (km/s) = 5.90332 6.89619 6.41898
#
# Compressibility (1/GPa) = 0.02691191
#
# Stress axis : x y z
#
# Youngs Moduli (GPa) = 37.18136 31.32250 66.86803
#
# Poissons Ratio (x) = 0.16725 0.26214
# Poissons Ratio (y) = 0.19853 0.94766
# Poissons Ratio (z) = 0.14576 0.44391
#
# Static dielectric constant tensor:
#      x y z
#    x 1.622400 0.000000 0.000000 
#    y 0.000000 1.624190 0.000000 
#    z 0.000000 0.000000 1.616310 
# 
# From -- ./inp_files/15018.got.cif
#   From: 2010.05.17/outbox.cif.g08.bks.cpg/sg59_8_cif.got.tgz:15018.got - 2010.06.03 14:40:33.
