data_PCOD9448779
_publ_section_title
;
Structure prediction by ZEFSAII (Michael W. Deem and Ramdas Pophale) SiO2 
 PCOD9448779
Probable space group: P M M N
;
_chemical_formula_sum "Si O2"
_cell_formula_units_Z 56
_cell_length_a 17.115207
_cell_length_b 14.653236
_cell_length_c 12.330103
_cell_angle_alpha 90.000000
_cell_angle_beta 90.000000
_cell_angle_gamma 90.000000
_cell_volume 3092.305585
_symmetry_space_group_name_H-M "P M M N"
_symmetry_group_IT_number 59
_space_group.IT_coordinate_system_code '2'
_symmetry_cell_setting 'orthorhombic'
loop_
_space_group_symop_operation_xyz
x,y,z
1/2-x,1/2-y,z
1/2+x,-y,-z
-x,1/2+y,-z
-x,-y,-z
1/2+x,1/2+y,-z
1/2-x,y,z
x,1/2-y,z
loop_
_atom_site_type_symbol
_atom_site_label
_atom_site_fract_x
_atom_site_fract_y
_atom_site_fract_z
Si Si1 0.658124 0.849624 0.609506
Si Si2 0.090838 0.854865 0.705370
Si Si3 0.157587 0.359677 0.740072
Si Si4 0.416498 0.481253 0.556825
Si Si5 0.655823 0.950206 0.022274
Si Si6 0.566976 0.855808 0.827745
Si Si7 0.840005 0.348387 0.070274
O O1 0.750000 0.844740 0.604610
O O2 0.626128 0.750000 0.570883
O O3 0.631500 0.933680 0.538092
O O4 0.630097 0.860738 0.732012
O O5 0.077470 0.750000 0.670729
O O6 0.155213 0.855257 0.799350
O O7 0.013033 0.888349 0.770068
O O8 0.108763 0.922219 0.607800
O O9 0.250000 0.375854 0.709340
O O10 0.146352 0.250000 0.741122
O O11 0.099100 0.410581 0.656909
O O12 0.146943 0.402515 0.860079
O O13 0.500000 0.500000 0.500000
O O14 0.750000 0.945233 0.997816
O O15 0.602393 0.903646 0.932073
O O16 0.629570 0.056050 0.026771
O O17 0.553090 0.750000 0.854981
O O18 0.750000 0.345057 0.037224
O O19 0.876943 0.250000 0.040870
#
# Coordination Sequence:
#
# PCOD9448779 Si02
#       7
#     8   8   8   8   8   8   8
#     4  10  21  37  59  85 113 149 191 233 281 342
#     4  10  21  37  55  78 109 147 188 233 279 329
#     4  10  21  37  58  87 119 148 183 235 295 345
#     4  12  22  35  55  79 111 150 189 231 281 333
#     4  10  19  33  58  87 113 143 182 230 284 338
#     4  10  20  35  55  83 117 148 181 226 284 346
#     4   9  18  34  55  79 108 143 187 232 274 326
#
# _framework density 18.109465
#
# number of rings (size 3 to 8) (size 9 to 14) (size 15 to 20)
#    0.000    1.857    2.857    1.714    0.000    4.286 
#    0.000    0.000    0.000    1.714    0.000    0.000 
#    0.000    0.000    0.000    0.000    0.000    0.000 
#
# Total GULP energy -311905.031273 kJ/mol
# GULP energy per Si atom -5569.732701 kJ/mol
# Density = 1.806825 g / cm^3
# Si number density = 18.109465 Si / 1000 Ang^3
#
#
#
# Elastic Constant Matrix: (Units=GPa)
#
#
# Indices 1 2 3 4 5 6 
#
# 1 53.4360 36.2274 30.6178 0.0000 0.0000 0.0000
# 2 36.2274 117.0990 50.6748 0.0000 0.0000 0.0000
# 3 30.6178 50.6748 71.8790 0.0000 0.0000 0.0000
# 4 0.0000 0.0000 0.0000 47.9280 0.0000 0.0000
# 5 0.0000 0.0000 0.0000 0.0000 10.2490 0.0000
# 6 0.0000 0.0000 0.0000 0.0000 0.0000 20.0242
#
#
#
# Elastic Compliance Matrix: (Units=1/GPa)
#
#
# Indices 1 2 3 4 5 6 
#
# 1 0.026483 -0.004765 -0.007921 0.000000 0.000000 0.000000
# 2 -0.004765 0.013146 -0.007238 0.000000 0.000000 0.000000
# 3 -0.007921 -0.007238 0.022390 0.000000 0.000000 0.000000
# 4 0.000000 0.000000 0.000000 0.020865 0.000000 0.000000
# 5 0.000000 0.000000 0.000000 0.000000 0.097571 0.000000
# 6 0.000000 0.000000 0.000000 0.000000 0.000000 0.049940
#
#
# Mechanical properties :
#
#
# Convention : Reuss Voigt Hill
#
# Bulk Modulus (GPa) = 45.10755 53.05041 49.07898
# Shear Modulus (GPa) = 18.00926 23.96649 20.98788
#
# Velocity S-wave (km/s) = 3.15694 3.64184 3.40802
# Velocity P-wave (km/s) = 6.18471 6.85871 6.53041
#
# Compressibility (1/GPa) = 0.02216924
#
# Stress axis : x y z
#
# Youngs Moduli (GPa) = 37.75938 76.06592 44.66350
#
# Poissons Ratio (x) = 0.36248 0.35380
# Poissons Ratio (y) = 0.17993 0.32330
# Poissons Ratio (z) = 0.29911 0.55060
#
# Static dielectric constant tensor:
#      x y z
#    x 1.674790 0.000000 0.000000 
#    y 0.000000 1.655350 0.000000 
#    z 0.000000 0.000000 1.508740 
# 
# From -- ./inp_files/16950.got.cif
#   From: 2010.05.17/outbox.cif.g08.bks.cpg/sg59_9_cif.got.tgz:16950.got - 2010.06.03 14:40:33.
