data_PCOD9448349
_publ_section_title
;
Structure prediction by ZEFSAII (Michael W. Deem and Ramdas Pophale) SiO2 
 PCOD9448349
Probable space group: P M M N
;
_chemical_formula_sum "Si O2"
_cell_formula_units_Z 56
_cell_length_a 10.276592
_cell_length_b 18.861978
_cell_length_c 15.405174
_cell_angle_alpha 90.000000
_cell_angle_beta 90.000000
_cell_angle_gamma 90.000000
_cell_volume 2986.090436
_symmetry_space_group_name_H-M "P M M N"
_symmetry_group_IT_number 59
_space_group.IT_coordinate_system_code '2'
_symmetry_cell_setting 'orthorhombic'
loop_
_space_group_symop_operation_xyz
x,y,z
1/2-x,1/2-y,z
1/2+x,-y,-z
-x,1/2+y,-z
-x,-y,-z
1/2+x,1/2+y,-z
1/2-x,y,z
x,1/2-y,z
loop_
_atom_site_type_symbol
_atom_site_label
_atom_site_fract_x
_atom_site_fract_y
_atom_site_fract_z
Si Si1 0.101895 0.597404 0.488475
Si Si2 0.100384 0.335124 0.207902
Si Si3 0.600096 0.410482 0.083239
Si Si4 0.400634 0.054633 0.829107
Si Si5 0.598859 0.165267 0.895799
Si Si6 0.891965 0.833427 0.596697
Si Si7 0.103646 0.029148 0.630513
O O1 0.250000 0.617450 0.469316
O O2 0.105651 0.537516 0.564663
O O3 0.008083 0.654513 0.531493
O O4 0.020757 0.571387 0.405407
O O5 0.250000 0.351468 0.184629
O O6 0.085739 0.250000 0.205217
O O7 0.079685 0.361021 0.306668
O O8 0.999521 0.370176 0.144408
O O9 0.750000 0.400445 0.112154
O O10 0.573832 0.494209 0.098107
O O11 0.590084 0.374617 0.988929
O O12 0.250000 0.077585 0.839039
O O13 0.498085 0.120712 0.837621
O O14 0.412585 0.018747 0.733653
O O15 0.750000 0.158812 0.866998
O O16 0.570282 0.250000 0.902568
O O17 0.750000 0.863009 0.568982
O O18 0.877677 0.750000 0.607134
O O19 0.250000 0.061878 0.621470
#
# Coordination Sequence:
#
# PCOD9448349 Si02
#       7
#     8   8   8   8   8   8   8
#     4  10  19  32  53  79 104 134 174 217 260 311
#     4   9  18  31  48  75 110 146 184 222 263 319
#     4  10  20  35  56  82 111 140 173 218 273 325
#     4  10  21  37  58  83 108 138 179 223 264 313
#     4  10  22  39  57  79 110 146 180 217 266 319
#     4   9  18  32  48  69 103 143 176 211 260 313
#     4   9  19  35  53  76 107 137 168 212 265 315
#
# _framework density 18.753616999999998
#
# number of rings (size 3 to 8) (size 9 to 14) (size 15 to 20)
#    0.000    2.429    0.000    3.000    0.000    5.429 
#    0.000    2.143    0.000    0.857    0.000    0.000 
#    0.000    0.000    0.000    0.000    0.000    0.000 
#
# Total GULP energy -311804.677322 kJ/mol
# GULP energy per Si atom -5567.940666 kJ/mol
# Density = 1.871093 g / cm^3
# Si number density = 18.753617 Si / 1000 Ang^3
#
#
#
# Elastic Constant Matrix: (Units=GPa)
#
#
# Indices 1 2 3 4 5 6 
#
# 1 101.1360 42.1675 29.0510 0.0000 0.0000 0.0000
# 2 42.1675 55.2319 15.3109 0.0000 0.0000 0.0000
# 3 29.0510 15.3109 48.7346 0.0000 0.0000 0.0000
# 4 0.0000 0.0000 0.0000 27.1078 0.0000 0.0000
# 5 0.0000 0.0000 0.0000 0.0000 28.7762 0.0000
# 6 0.0000 0.0000 0.0000 0.0000 0.0000 32.6931
#
#
#
# Elastic Compliance Matrix: (Units=1/GPa)
#
#
# Indices 1 2 3 4 5 6 
#
# 1 0.016086 -0.010541 -0.006277 0.000000 0.000000 0.000000
# 2 -0.010541 0.026740 -0.002118 0.000000 0.000000 0.000000
# 3 -0.006277 -0.002118 0.024926 0.000000 0.000000 0.000000
# 4 0.000000 0.000000 0.000000 0.036890 0.000000 0.000000
# 5 0.000000 0.000000 0.000000 0.000000 0.034751 0.000000
# 6 0.000000 0.000000 0.000000 0.000000 0.000000 0.030587
#
#
# Mechanical properties :
#
#
# Convention : Reuss Voigt Hill
#
# Bulk Modulus (GPa) = 33.46580 42.01791 37.74186
# Shear Modulus (GPa) = 22.95568 25.62030 24.28799
#
# Velocity S-wave (km/s) = 3.50246 3.70016 3.60267
# Velocity P-wave (km/s) = 5.85150 6.38034 6.12163
#
# Compressibility (1/GPa) = 0.02988125
#
# Stress axis : x y z
#
# Youngs Moduli (GPa) = 62.16761 37.39736 40.11804
#
# Poissons Ratio (x) = 0.39419 0.25183
# Poissons Ratio (y) = 0.65528 0.08495
# Poissons Ratio (z) = 0.39024 0.07919
#
# Static dielectric constant tensor:
#      x y z
#    x 1.642010 0.000000 0.000000 
#    y 0.000000 1.661630 0.000000 
#    z 0.000000 0.000000 1.658970 
# 
# From -- ./inp_files/20998.got.cif
#   From: 2010.05.17/outbox.cif.g08.bks.cpg/sg59_11_cif.got.tgz:20998.got - 2010.06.03 14:40:33.
