data_PCOD9448304
_publ_section_title
;
Structure prediction by ZEFSAII (Michael W. Deem and Ramdas Pophale) SiO2 
 PCOD9448304
Probable space group: P M M N
;
_chemical_formula_sum "Si O2"
_cell_formula_units_Z 40
_cell_length_a 8.850478
_cell_length_b 10.381354
_cell_length_c 25.051787
_cell_angle_alpha 90.000000
_cell_angle_beta 90.000000
_cell_angle_gamma 90.000000
_cell_volume 2301.756816
_symmetry_space_group_name_H-M "P M M N"
_symmetry_group_IT_number 59
_space_group.IT_coordinate_system_code '2'
_symmetry_cell_setting 'orthorhombic'
loop_
_space_group_symop_operation_xyz
x,y,z
1/2-x,1/2-y,z
1/2+x,-y,-z
-x,1/2+y,-z
-x,-y,-z
1/2+x,1/2+y,-z
1/2-x,y,z
x,1/2-y,z
loop_
_atom_site_type_symbol
_atom_site_label
_atom_site_fract_x
_atom_site_fract_y
_atom_site_fract_z
Si Si1 0.570653 0.404666 0.732807
Si Si2 0.568866 0.098892 0.957511
Si Si3 0.576750 0.593906 0.155701
Si Si4 0.566848 0.250000 0.434491
Si Si5 0.932218 0.250000 0.558108
Si Si6 0.068180 0.487766 0.623126
O O1 0.750000 0.425423 0.730838
O O2 0.544658 0.250000 0.727465
O O3 0.504919 0.447304 0.789907
O O4 0.489524 0.472303 0.683399
O O5 0.750000 0.092764 0.958947
O O6 0.525323 0.250000 0.967082
O O7 0.509880 0.061209 0.898623
O O8 0.500000 0.000000 0.000000
O O9 0.750000 0.549013 0.153979
O O10 0.578613 0.750000 0.157465
O O11 0.750000 0.250000 0.435245
O O12 0.519021 0.250000 0.496206
O O13 0.519986 0.377811 0.403311
O O14 0.750000 0.250000 0.560937
O O15 0.996611 0.373828 0.588319
O O16 0.250000 0.478059 0.622025
#
# Coordination Sequence:
#
# PCOD9448304 Si02
#       6
#     8   8   8   4   4   8
#     4  10  19  32  52  79 110 138 174 224 271 315
#     4  10  20  34  54  81 113 148 185 226 273 322
#     4   9  17  30  51  79 108 140 181 225 269 317
#     4   9  22  39  55  77 109 143 176 219 268 321
#     4  11  21  37  57  81 109 137 176 223 268 317
#     4  11  21  36  57  80 106 140 180 220 267 321
#
# _framework density 17.378031
#
# number of rings (size 3 to 8) (size 9 to 14) (size 15 to 20)
#    0.000    2.000    1.000    3.300    0.000    4.400 
#    0.000    5.000    2.200    0.000    0.000    0.000 
#    0.000    0.000    0.000    0.000    0.000    0.000 
#
# Total GULP energy -223257.326111 kJ/mol
# GULP energy per Si atom -5581.433153 kJ/mol
# Density = 1.733848 g / cm^3
# Si number density = 17.378031 Si / 1000 Ang^3
#
#
#
# Elastic Constant Matrix: (Units=GPa)
#
#
# Indices 1 2 3 4 5 6 
#
# 1 82.1109 46.0310 70.3398 0.0000 0.0000 0.0000
# 2 46.0310 103.5289 83.8335 0.0000 0.0000 0.0000
# 3 70.3398 83.8335 199.6009 0.0000 0.0000 0.0000
# 4 0.0000 0.0000 0.0000 20.8594 0.0000 0.0000
# 5 0.0000 0.0000 0.0000 0.0000 35.4420 0.0000
# 6 0.0000 0.0000 0.0000 0.0000 0.0000 -0.3875
#
#
#
# Elastic Compliance Matrix: (Units=1/GPa)
#
#
# Indices 1 2 3 4 5 6 
#
# 1 0.018746 -0.004524 -0.004706 0.000000 0.000000 0.000000
# 2 -0.004524 0.015729 -0.005012 0.000000 0.000000 0.000000
# 3 -0.004706 -0.005012 0.008773 0.000000 0.000000 0.000000
# 4 0.000000 0.000000 0.000000 0.047940 0.000000 0.000000
# 5 0.000000 0.000000 0.000000 0.000000 0.028215 0.000000
# 6 0.000000 0.000000 0.000000 0.000000 0.000000 -2.580448
#
#
# Mechanical properties :
#
#
# Convention : Reuss Voigt Hill
#
# Bulk Modulus (GPa) = 67.73018 87.29436 77.51227
# Shear Modulus (GPa) = -2.05962 23.51855 10.72947
#
# Velocity S-wave (km/s) = -1.08984 3.68278 2.48748
# Velocity P-wave (km/s) = 6.12173 8.27197 7.27671
#
# Compressibility (1/GPa) = 0.01476447
#
# Stress axis : x y z
#
# Youngs Moduli (GPa) = 53.34384 63.57593 113.97978
#
# Poissons Ratio (x) = 0.28763 0.53639
# Poissons Ratio (y) = 0.24134 0.57127
# Poissons Ratio (z) = 0.25104 0.31864
#
# Static dielectric constant tensor:
#      x y z
#    x 1.584300 0.000000 0.000000 
#    y 0.000000 1.572840 0.000000 
#    z 0.000000 0.000000 1.574420 
# 
# From -- ./inp_files/32417.got.cif
#   From: 2010.05.17/outbox.cif.g08.bks.cpg/sg59_17_cif.got.tgz:32417.got - 2010.06.03 14:40:33.
