data_PCOD9448397
_publ_section_title
;
Structure prediction by ZEFSAII (Michael W. Deem and Ramdas Pophale) SiO2 
 PCOD9448397
Probable space group: P M M N
;
_chemical_formula_sum "Si O2"
_cell_formula_units_Z 64
_cell_length_a 8.981479
_cell_length_b 20.415021
_cell_length_c 20.351792
_cell_angle_alpha 90.000000
_cell_angle_beta 90.000000
_cell_angle_gamma 90.000000
_cell_volume 3731.645203
_symmetry_space_group_name_H-M "P M M N"
_symmetry_group_IT_number 59
_space_group.IT_coordinate_system_code '2'
_symmetry_cell_setting 'orthorhombic'
loop_
_space_group_symop_operation_xyz
x,y,z
1/2-x,1/2-y,z
1/2+x,-y,-z
-x,1/2+y,-z
-x,-y,-z
1/2+x,1/2+y,-z
1/2-x,y,z
x,1/2-y,z
loop_
_atom_site_type_symbol
_atom_site_label
_atom_site_fract_x
_atom_site_fract_y
_atom_site_fract_z
Si Si1 0.426505 0.966664 0.332923
Si Si2 0.427228 0.931848 0.477111
Si Si3 0.426441 0.325709 0.428924
Si Si4 0.428814 0.825716 0.952977
Si Si5 0.073103 0.894593 0.688638
Si Si6 0.927498 0.064853 0.814754
Si Si7 0.070924 0.575453 0.836914
Si Si8 0.428032 0.173935 0.905575
O O1 0.250000 0.983889 0.332717
O O2 0.455162 0.926146 0.398915
O O3 0.458907 0.932126 0.263579
O O4 0.519936 0.033534 0.334626
O O5 0.250000 0.934759 0.487686
O O6 0.495886 0.873516 0.519197
O O7 0.500000 0.000000 0.500000
O O8 0.250000 0.337777 0.429450
O O9 0.454609 0.250000 0.444388
O O10 0.490187 0.343185 0.357206
O O11 0.250000 0.830239 0.961975
O O12 0.462569 0.750000 0.934909
O O13 0.471583 0.876441 0.896059
O O14 0.508277 0.840203 0.021795
O O15 0.250000 0.888112 0.680674
O O16 0.036772 0.892212 0.766069
O O17 0.750000 0.065983 0.823953
O O18 0.001646 0.123792 0.854192
O O19 0.991847 0.994941 0.838714
O O20 0.250000 0.565401 0.839086
O O21 0.250000 0.167562 0.905894
O O22 0.465649 0.250000 0.890631
#
# Coordination Sequence:
#
# PCOD9448397 Si02
#       8
#     8   8   8   8   8   8   8   8
#     4   9  19  35  55  80 109 137 173 219 266 320
#     4  11  21  35  59  85 108 140 181 225 273 327
#     4  11  24  39  53  75 111 150 187 229 273 320
#     4   9  18  34  55  77 104 141 182 222 266 322
#     4  10  19  32  54  80 106 140 179 220 268 322
#     4  10  20  35  56  81 108 141 178 219 267 321
#     4   9  19  34  53  81 113 142 176 221 271 318
#     4  10  21  37  56  78 105 138 178 225 274 324
#
# _framework density 17.150611000000001
#
# number of rings (size 3 to 8) (size 9 to 14) (size 15 to 20)
#    0.000    2.125    1.250    1.875    0.000    4.750 
#    0.000    1.875    0.000    5.250    0.000    0.000 
#    0.000    0.000    0.000    0.000    0.000    0.000 
#
# Total GULP energy -357184.970326 kJ/mol
# GULP energy per Si atom -5581.015161 kJ/mol
# Density = 1.711158 g / cm^3
# Si number density = 17.150611 Si / 1000 Ang^3
#
#
#
# Elastic Constant Matrix: (Units=GPa)
#
#
# Indices 1 2 3 4 5 6 
#
# 1 64.0952 68.7079 65.3792 0.0000 0.0000 0.0000
# 2 68.7079 111.3482 96.6253 0.0000 0.0000 0.0000
# 3 65.3792 96.6253 130.7777 0.0000 0.0000 0.0000
# 4 0.0000 0.0000 0.0000 30.6164 0.0000 0.0000
# 5 0.0000 0.0000 0.0000 0.0000 25.6233 0.0000
# 6 0.0000 0.0000 0.0000 0.0000 0.0000 27.1466
#
#
#
# Elastic Compliance Matrix: (Units=1/GPa)
#
#
# Indices 1 2 3 4 5 6 
#
# 1 0.047636 -0.024324 -0.005843 0.000000 0.000000 0.000000
# 2 -0.024324 0.037447 -0.015508 0.000000 0.000000 0.000000
# 3 -0.005843 -0.015508 0.022026 0.000000 0.000000 0.000000
# 4 0.000000 0.000000 0.000000 0.032662 0.000000 0.000000
# 5 0.000000 0.000000 0.000000 0.000000 0.039027 0.000000
# 6 0.000000 0.000000 0.000000 0.000000 0.000000 0.036837
#
#
# Mechanical properties :
#
#
# Convention : Reuss Voigt Hill
#
# Bulk Modulus (GPa) = 63.45230 85.29398 74.37314
# Shear Modulus (GPa) = 16.01347 21.71116 18.86232
#
# Velocity S-wave (km/s) = 3.05896 3.56183 3.31993
# Velocity P-wave (km/s) = 7.03944 8.17042 7.62593
#
# Compressibility (1/GPa) = 0.01575987
#
# Stress axis : x y z
#
# Youngs Moduli (GPa) = 20.99265 26.70422 45.40153
#
# Poissons Ratio (x) = 0.64954 0.26528
# Poissons Ratio (y) = 0.51062 0.70409
# Poissons Ratio (z) = 0.12266 0.41413
#
# Static dielectric constant tensor:
#      x y z
#    x 1.571430 0.000000 0.000000 
#    y 0.000000 1.548660 0.000000 
#    z 0.000000 0.000000 1.583980 
# 
# From -- ./inp_files/29575.got.cif
#   From: 2010.05.17/outbox.cif.g08.bks.cpg/sg59_15_cif.got.tgz:29575.got - 2010.06.03 14:40:33.
