data_PCOD9448173
_publ_section_title
;
Structure prediction by ZEFSAII (Michael W. Deem and Ramdas Pophale) SiO2 
 PCOD9448173
Probable space group: P M M N
;
_chemical_formula_sum "Si O2"
_cell_formula_units_Z 48
_cell_length_a 7.774688
_cell_length_b 16.931738
_cell_length_c 16.430643
_cell_angle_alpha 90.000000
_cell_angle_beta 90.000000
_cell_angle_gamma 90.000000
_cell_volume 2162.913089
_symmetry_space_group_name_H-M "P M M N"
_symmetry_group_IT_number 59
_space_group.IT_coordinate_system_code '2'
_symmetry_cell_setting 'orthorhombic'
loop_
_space_group_symop_operation_xyz
x,y,z
1/2-x,1/2-y,z
1/2+x,-y,-z
-x,1/2+y,-z
-x,-y,-z
1/2+x,1/2+y,-z
1/2-x,y,z
x,1/2-y,z
loop_
_atom_site_type_symbol
_atom_site_label
_atom_site_fract_x
_atom_site_fract_y
_atom_site_fract_z
Si Si1 0.049292 0.951696 0.149356
Si Si2 0.548589 0.085524 0.681650
Si Si3 0.448786 0.334721 0.981855
Si Si4 0.554023 0.128780 0.158252
Si Si5 0.042643 0.593353 0.492270
Si Si6 0.539914 0.399897 0.332238
O O1 0.250000 0.971225 0.163898
O O2 0.985285 0.899464 0.226570
O O3 0.949770 0.033741 0.148857
O O4 0.036851 0.905645 0.065285
O O5 0.750000 0.106523 0.681281
O O6 0.474418 0.118942 0.596651
O O7 0.526678 0.990164 0.674348
O O8 0.250000 0.338014 0.958090
O O9 0.523350 0.250000 0.957251
O O10 0.458861 0.340695 0.079085
O O11 0.750000 0.156783 0.153810
O O12 0.485810 0.143999 0.249542
O O13 0.250000 0.600725 0.489953
O O14 0.986072 0.630433 0.578424
O O15 0.000000 0.500000 0.500000
O O16 0.750000 0.402851 0.330165
#
# Coordination Sequence:
#
# PCOD9448173 Si02
#       6
#     8   8   8   8   8   8
#     4  10  19  32  51  74  99 126 157 192 231 276
#     4   8  14  23  38  62  91 122 151 181 218 261
#     4  11  24  39  52  67  89 119 156 199 246 289
#     4  10  19  32  51  74  99 126 157 192 231 276
#     4   8  12  20  34  56  89 122 149 177 213 257
#     4   8  14  23  38  62  91 122 151 181 218 261
#
# _framework density 22.192291999999998
#
# number of rings (size 3 to 8) (size 9 to 14) (size 15 to 20)
#    0.000    2.833    0.000    2.000    0.000    2.667 
#    0.000    0.000    0.000    0.000    0.000    1.167 
#    0.000    9.333    0.000    0.000    0.000    0.667 
#
# Total GULP energy -267288.585636 kJ/mol
# GULP energy per Si atom -5568.512201 kJ/mol
# Density = 2.214178 g / cm^3
# Si number density = 22.192292 Si / 1000 Ang^3
#
#
#
# Elastic Constant Matrix: (Units=GPa)
#
#
# Indices 1 2 3 4 5 6 
#
# 1 45.0435 2.9389 5.0156 0.0000 0.0000 0.0000
# 2 2.9389 31.6465 24.3164 0.0000 0.0000 0.0000
# 3 5.0156 24.3164 148.7222 0.0000 0.0000 0.0000
# 4 0.0000 0.0000 0.0000 -10.1493 0.0000 0.0000
# 5 0.0000 0.0000 0.0000 0.0000 12.6635 0.0000
# 6 0.0000 0.0000 0.0000 0.0000 0.0000 -3.9809
#
#
#
# Elastic Compliance Matrix: (Units=1/GPa)
#
#
# Indices 1 2 3 4 5 6 
#
# 1 0.022365 -0.001713 -0.000474 0.000000 0.000000 0.000000
# 2 -0.001713 0.036270 -0.005873 0.000000 0.000000 0.000000
# 3 -0.000474 -0.005873 0.007700 0.000000 0.000000 0.000000
# 4 0.000000 0.000000 0.000000 -0.098529 0.000000 0.000000
# 5 0.000000 0.000000 0.000000 0.000000 0.078967 0.000000
# 6 0.000000 0.000000 0.000000 0.000000 0.000000 -0.251200
#
#
# Mechanical properties :
#
#
# Convention : Reuss Voigt Hill
#
# Bulk Modulus (GPa) = 19.91352 32.21712 26.06532
# Shear Modulus (GPa) = -29.14295 12.58274 -8.28011
#
# Velocity S-wave (km/s) = -3.62774 2.38373 -1.93369
# Velocity P-wave (km/s) = 2.92484 4.70372 2.60483
#
# Compressibility (1/GPa) = 0.05021714
#
# Stress axis : x y z
#
# Youngs Moduli (GPa) = 44.71216 27.57065 129.86814
#
# Poissons Ratio (x) = 0.04722 0.06159
# Poissons Ratio (y) = 0.07657 0.76266
# Poissons Ratio (z) = 0.02121 0.16191
#
# Static dielectric constant tensor:
#      x y z
#    x 1.846340 0.000000 0.000000 
#    y 0.000000 1.762750 0.000000 
#    z 0.000000 0.000000 1.928620 
# 
# From -- ./inp_files/25971.got.cif
#   From: 2010.05.17/outbox.cif.g08.bks.cpg/sg59_13_cif.got.tgz:25971.got - 2010.06.03 14:40:33.
