data_PCOD9448193
_publ_section_title
;
Structure prediction by ZEFSAII (Michael W. Deem and Ramdas Pophale) SiO2 
 PCOD9448193
Probable space group: P M M N
;
_chemical_formula_sum "Si O2"
_cell_formula_units_Z 48
_cell_length_a 18.501351
_cell_length_b 8.646936
_cell_length_c 17.004354
_cell_angle_alpha 90.000000
_cell_angle_beta 90.000000
_cell_angle_gamma 90.000000
_cell_volume 2720.356519
_symmetry_space_group_name_H-M "P M M N"
_symmetry_group_IT_number 59
_space_group.IT_coordinate_system_code '2'
_symmetry_cell_setting 'orthorhombic'
loop_
_space_group_symop_operation_xyz
x,y,z
1/2-x,1/2-y,z
1/2+x,-y,-z
-x,1/2+y,-z
-x,-y,-z
1/2+x,1/2+y,-z
1/2-x,y,z
x,1/2-y,z
loop_
_atom_site_type_symbol
_atom_site_label
_atom_site_fract_x
_atom_site_fract_y
_atom_site_fract_z
Si Si1 0.918851 0.437117 0.507308
Si Si2 0.603740 0.064682 0.681995
Si Si3 0.048762 0.434346 0.762816
Si Si4 0.166698 0.936971 0.648753
Si Si5 0.477782 0.435523 0.084205
Si Si6 0.829647 0.563916 0.836294
O O1 0.922218 0.250000 0.507515
O O2 0.886805 0.484911 0.591915
O O3 0.871005 0.486396 0.433039
O O4 0.000000 0.500000 0.500000
O O5 0.613302 0.250000 0.686705
O O6 0.521190 0.029484 0.708219
O O7 0.653989 0.987340 0.747123
O O8 0.053250 0.250000 0.770365
O O9 0.119067 0.499055 0.720020
O O10 0.031396 0.507389 0.847254
O O11 0.250000 0.986082 0.652060
O O12 0.164693 0.750000 0.650933
O O13 0.477876 0.250000 0.082240
O O14 0.397406 0.489842 0.111075
O O15 0.500000 0.500000 0.000000
O O16 0.750000 0.508967 0.860776
O O17 0.829960 0.750000 0.839085
#
# Coordination Sequence:
#
# PCOD9448193 Si02
#       6
#     8   8   8   8   8   8
#     4  10  19  32  51  75 104 141 183 226 267 312
#     4   9  18  31  50  77 104 136 177 217 259 313
#     4  10  19  34  55  78 104 136 176 219 264 318
#     4  10  21  35  51  74 106 144 184 226 273 320
#     4  10  20  36  59  84 109 139 175 217 262 320
#     4   9  19  35  54  78 108 139 171 212 264 316
#
# _framework density 17.644745
#
# number of rings (size 3 to 8) (size 9 to 14) (size 15 to 20)
#    0.000    2.333    1.667    1.000    0.000    3.333 
#    0.000    2.500    0.000    3.000    0.000    0.000 
#    0.000    0.000    0.000    0.000    0.000    0.000 
#
# Total GULP energy -267788.805693 kJ/mol
# GULP energy per Si atom -5578.933452 kJ/mol
# Density = 1.760458 g / cm^3
# Si number density = 17.644745 Si / 1000 Ang^3
#
#
#
# Elastic Constant Matrix: (Units=GPa)
#
#
# Indices 1 2 3 4 5 6 
#
# 1 136.9037 30.8333 83.9974 0.0000 0.0000 0.0000
# 2 30.8333 15.6620 32.1691 0.0000 0.0000 0.0000
# 3 83.9974 32.1691 165.2633 0.0000 0.0000 0.0000
# 4 0.0000 0.0000 0.0000 27.5224 0.0000 0.0000
# 5 0.0000 0.0000 0.0000 0.0000 17.1749 0.0000
# 6 0.0000 0.0000 0.0000 0.0000 0.0000 20.5971
#
#
#
# Elastic Compliance Matrix: (Units=1/GPa)
#
#
# Indices 1 2 3 4 5 6 
#
# 1 0.013909 -0.021429 -0.002898 0.000000 0.000000 0.000000
# 2 -0.021429 0.139398 -0.016242 0.000000 0.000000 0.000000
# 3 -0.002898 -0.016242 0.010686 0.000000 0.000000 0.000000
# 4 0.000000 0.000000 0.000000 0.036334 0.000000 0.000000
# 5 0.000000 0.000000 0.000000 0.000000 0.058224 0.000000
# 6 0.000000 0.000000 0.000000 0.000000 0.000000 0.048551
#
#
# Mechanical properties :
#
#
# Convention : Reuss Voigt Hill
#
# Bulk Modulus (GPa) = 12.06969 67.98096 40.02532
# Shear Modulus (GPa) = 12.02333 24.44748 18.23540
#
# Velocity S-wave (km/s) = 2.61322 3.72632 3.21826
# Velocity P-wave (km/s) = 3.99505 7.55812 6.04507
#
# Compressibility (1/GPa) = 0.08285218
#
# Stress axis : x y z
#
# Youngs Moduli (GPa) = 71.89688 7.17373 93.58417
#
# Poissons Ratio (x) = 0.15373 0.27121
# Poissons Ratio (y) = 1.54071 1.52003
# Poissons Ratio (z) = 0.20836 0.11652
#
# Static dielectric constant tensor:
#      x y z
#    x 1.600400 0.000000 0.000000 
#    y 0.000000 1.596710 0.000000 
#    z 0.000000 0.000000 1.581860 
# 
# From -- ./inp_files/20363.got.cif
#   From: 2010.05.17/outbox.cif.g08.bks.cpg/sg59_11_cif.got.tgz:20363.got - 2010.06.03 14:40:33.
