data_PCOD9448591
_publ_section_title
;
Structure prediction by ZEFSAII (Michael W. Deem and Ramdas Pophale) SiO2 
 PCOD9448591
Probable space group: P M M N
;
_chemical_formula_sum "Si O2"
_cell_formula_units_Z 64
_cell_length_a 17.703179
_cell_length_b 9.040049
_cell_length_c 23.565200
_cell_angle_alpha 90.000000
_cell_angle_beta 90.000000
_cell_angle_gamma 90.000000
_cell_volume 3771.318184
_symmetry_space_group_name_H-M "P M M N"
_symmetry_group_IT_number 59
_space_group.IT_coordinate_system_code '2'
_symmetry_cell_setting 'orthorhombic'
loop_
_space_group_symop_operation_xyz
x,y,z
1/2-x,1/2-y,z
1/2+x,-y,-z
-x,1/2+y,-z
-x,-y,-z
1/2+x,1/2+y,-z
1/2-x,y,z
x,1/2-y,z
loop_
_atom_site_type_symbol
_atom_site_label
_atom_site_fract_x
_atom_site_fract_y
_atom_site_fract_z
Si Si1 0.072136 0.927002 0.030490
Si Si2 0.914491 0.575769 0.434986
Si Si3 0.022936 0.926063 0.740922
Si Si4 0.335888 0.424028 0.683875
Si Si5 0.517854 0.573146 0.138331
Si Si6 0.839462 0.424101 0.543365
Si Si7 0.663694 0.571921 0.062734
Si Si8 0.056406 0.427238 0.374314
O O1 0.072171 0.750000 0.022893
O O2 0.052546 0.957778 0.096146
O O3 0.142547 0.997509 0.997526
O O4 0.000000 0.000000 0.000000
O O5 0.930013 0.750000 0.443564
O O6 0.855716 0.561573 0.382733
O O7 0.881023 0.503691 0.491148
O O8 0.988936 0.492078 0.413268
O O9 0.023503 0.750000 0.745413
O O10 0.964695 0.967011 0.690439
O O11 0.103822 0.983307 0.718832
O O12 0.007718 0.996916 0.801571
O O13 0.250000 0.468237 0.694664
O O14 0.344636 0.250000 0.698139
O O15 0.522382 0.750000 0.145654
O O16 0.597202 0.528096 0.107230
O O17 0.750000 0.441433 0.536886
O O18 0.857722 0.250000 0.543330
O O19 0.868869 0.498996 0.600942
O O20 0.750000 0.535539 0.079722
O O21 0.658522 0.750000 0.056840
O O22 0.058610 0.250000 0.379235
#
# Coordination Sequence:
#
# PCOD9448591 Si02
#       8
#     8   8   8   8   8   8   8   8
#     4   9  17  30  49  73  99 129 165 201 239 282
#     4  10  19  33  54  77 101 130 165 202 244 299
#     4  10  21  34  50  73  97 126 167 210 248 286
#     4   9  18  32  49  69  96 132 168 199 238 292
#     4   9  18  32  50  72  99 133 169 203 240 287
#     4  11  23  36  52  76 102 127 159 203 255 306
#     4   9  18  32  50  75 107 138 165 197 241 289
#     4  10  21  37  54  73 100 132 166 206 251 297
#
# _framework density 16.970193999999999
#
# number of rings (size 3 to 8) (size 9 to 14) (size 15 to 20)
#    0.000    2.375    0.000    3.375    0.000    7.000 
#    0.000    1.250    0.000    0.750    0.000    0.000 
#    0.000    0.000    0.000    0.000    0.000    0.000 
#
# Total GULP energy -356880.079305 kJ/mol
# GULP energy per Si atom -5576.251239 kJ/mol
# Density = 1.693157 g / cm^3
# Si number density = 16.970194 Si / 1000 Ang^3
#
#
#
# Elastic Constant Matrix: (Units=GPa)
#
#
# Indices 1 2 3 4 5 6 
#
# 1 27.5578 19.4500 31.3623 0.0000 0.0000 0.0000
# 2 19.4500 50.5534 52.3924 0.0000 0.0000 0.0000
# 3 31.3623 52.3924 123.4651 0.0000 0.0000 0.0000
# 4 0.0000 0.0000 0.0000 32.1364 0.0000 0.0000
# 5 0.0000 0.0000 0.0000 0.0000 6.7611 0.0000
# 6 0.0000 0.0000 0.0000 0.0000 0.0000 24.5306
#
#
#
# Elastic Compliance Matrix: (Units=1/GPa)
#
#
# Indices 1 2 3 4 5 6 
#
# 1 0.054766 -0.011876 -0.008872 0.000000 0.000000 0.000000
# 2 -0.011876 0.037885 -0.013060 0.000000 0.000000 0.000000
# 3 -0.008872 -0.013060 0.015895 0.000000 0.000000 0.000000
# 4 0.000000 0.000000 0.000000 0.031117 0.000000 0.000000
# 5 0.000000 0.000000 0.000000 0.000000 0.147905 0.000000
# 6 0.000000 0.000000 0.000000 0.000000 0.000000 0.040765
#
#
# Mechanical properties :
#
#
# Convention : Reuss Voigt Hill
#
# Bulk Modulus (GPa) = 24.43160 45.33176 34.88168
# Shear Modulus (GPa) = 12.20722 19.24372 15.72547
#
# Velocity S-wave (km/s) = 2.68495 3.37110 3.04740
# Velocity P-wave (km/s) = 4.90306 6.47480 5.74295
#
# Compressibility (1/GPa) = 0.04093060
#
# Stress axis : x y z
#
# Youngs Moduli (GPa) = 18.25947 26.39549 62.91271
#
# Poissons Ratio (x) = 0.31348 0.55816
# Poissons Ratio (y) = 0.21685 0.82163
# Poissons Ratio (z) = 0.16200 0.34472
#
# Static dielectric constant tensor:
#      x y z
#    x 1.580060 0.000000 0.000000 
#    y 0.000000 1.564250 0.000000 
#    z 0.000000 0.000000 1.581630 
# 
# From -- ./inp_files/32300.got.cif
#   From: 2010.05.17/outbox.cif.g08.bks.cpg/sg59_17_cif.got.tgz:32300.got - 2010.06.03 14:40:33.
