data_PCOD9448795
_publ_section_title
;
Structure prediction by ZEFSAII (Michael W. Deem and Ramdas Pophale) SiO2 
 PCOD9448795
Probable space group: P M M N
;
_chemical_formula_sum "Si O2"
_cell_formula_units_Z 48
_cell_length_a 7.521125
_cell_length_b 16.808957
_cell_length_c 17.510194
_cell_angle_alpha 90.000000
_cell_angle_beta 90.000000
_cell_angle_gamma 90.000000
_cell_volume 2213.678416
_symmetry_space_group_name_H-M "P M M N"
_symmetry_group_IT_number 59
_space_group.IT_coordinate_system_code '2'
_symmetry_cell_setting 'orthorhombic'
loop_
_space_group_symop_operation_xyz
x,y,z
1/2-x,1/2-y,z
1/2+x,-y,-z
-x,1/2+y,-z
-x,-y,-z
1/2+x,1/2+y,-z
1/2-x,y,z
x,1/2-y,z
loop_
_atom_site_type_symbol
_atom_site_label
_atom_site_fract_x
_atom_site_fract_y
_atom_site_fract_z
Si Si1 0.536196 0.839048 0.013147
Si Si2 0.967946 0.889719 0.844115
Si Si3 0.963080 0.089227 0.528891
Si Si4 0.540884 0.250000 0.446175
Si Si5 0.532673 0.340847 0.686790
Si Si6 0.465027 0.250000 0.267840
Si Si7 0.038621 0.567954 0.165575
O O1 0.750000 0.836682 0.009526
O O2 0.471701 0.750000 0.030879
O O3 0.489383 0.897899 0.081268
O O4 0.474413 0.864528 0.929122
O O5 0.750000 0.889103 0.844800
O O6 0.023840 0.826891 0.780280
O O7 0.030456 0.978599 0.827694
O O8 0.750000 0.094798 0.528390
O O9 0.030382 0.166074 0.480301
O O10 0.023232 0.104563 0.615872
O O11 0.000000 0.000000 0.500000
O O12 0.750000 0.250000 0.465891
O O13 0.522818 0.250000 0.355120
O O14 0.750000 0.339937 0.687490
O O15 0.476014 0.250000 0.674601
O O16 0.470021 0.374689 0.767863
O O17 0.250000 0.250000 0.267963
O O18 0.250000 0.563143 0.176976
#
# Coordination Sequence:
#
# PCOD9448795 Si02
#       7
#     8   8   8   4   8   4   8
#     4  10  19  34  53  73 105 146 178 210 268 327
#     4   9  18  34  54  78 106 139 178 223 267 315
#     4  10  21  38  60  84 112 149 188 228 280 339
#     4  10  22  40  58  83 120 152 180 229 294 342
#     4   9  17  33  55  77 105 142 178 213 262 324
#     4  10  20  36  60  83 104 140 190 229 262 324
#     4  10  20  32  53  82 106 132 178 229 264 306
#
# _framework density 21.683367000000001
#
# number of rings (size 3 to 8) (size 9 to 14) (size 15 to 20)
#    0.000    2.333    1.667    1.000    2.333    1.667 
#    0.000    2.500    0.000    1.000    0.000    0.000 
#    0.000    0.000    0.000    0.000    0.000    0.000 
#
# Total GULP energy -268076.215760 kJ/mol
# GULP energy per Si atom -5584.921162 kJ/mol
# Density = 2.163402 g / cm^3
# Si number density = 21.683367 Si / 1000 Ang^3
#
#
#
# Elastic Constant Matrix: (Units=GPa)
#
#
# Indices 1 2 3 4 5 6 
#
# 1 52.8223 8.7448 -1.7011 0.0000 0.0000 0.0000
# 2 8.7448 134.7769 41.9212 0.0000 0.0000 0.0000
# 3 -1.7011 41.9212 112.6737 0.0000 0.0000 0.0000
# 4 0.0000 0.0000 0.0000 -14.6620 0.0000 0.0000
# 5 0.0000 0.0000 0.0000 0.0000 6.5295 0.0000
# 6 0.0000 0.0000 0.0000 0.0000 0.0000 16.0177
#
#
#
# Elastic Compliance Matrix: (Units=1/GPa)
#
#
# Indices 1 2 3 4 5 6 
#
# 1 0.019209 -0.001511 0.000852 0.000000 0.000000 0.000000
# 2 -0.001511 0.008510 -0.003189 0.000000 0.000000 0.000000
# 3 0.000852 -0.003189 0.010075 0.000000 0.000000 0.000000
# 4 0.000000 0.000000 0.000000 -0.068204 0.000000 0.000000
# 5 0.000000 0.000000 0.000000 0.000000 0.153150 0.000000
# 6 0.000000 0.000000 0.000000 0.000000 0.000000 0.062431
#
#
# Mechanical properties :
#
#
# Convention : Reuss Voigt Hill
#
# Bulk Modulus (GPa) = 33.22571 44.24475 38.73523
# Shear Modulus (GPa) = 24.64280 18.33091 21.48685
#
# Velocity S-wave (km/s) = 3.37483 2.91071 3.15133
# Velocity P-wave (km/s) = 5.52652 5.63432 5.58068
#
# Compressibility (1/GPa) = 0.03009718
#
# Stress axis : x y z
#
# Youngs Moduli (GPa) = 52.05876 117.51409 99.26044
#
# Poissons Ratio (x) = 0.17762 -0.08461
# Poissons Ratio (y) = 0.07869 0.31653
# Poissons Ratio (z) = -0.04437 0.37474
#
# Static dielectric constant tensor:
#      x y z
#    x 1.845690 0.000000 0.000000 
#    y 0.000000 1.773310 0.000000 
#    z 0.000000 0.000000 1.747890 
# 
# From -- ./inp_files/25604.got.cif
#   From: 2010.05.17/outbox.cif.g08.bks.cpg/sg59_13_cif.got.tgz:25604.got - 2010.06.03 14:40:33.
