data_PCOD9448752
_publ_section_title
;
Structure prediction by ZEFSAII (Michael W. Deem and Ramdas Pophale) SiO2 
 PCOD9448752
Probable space group: P M M N
;
_chemical_formula_sum "Si O2"
_cell_formula_units_Z 64
_cell_length_a 7.637929
_cell_length_b 32.190776
_cell_length_c 12.223738
_cell_angle_alpha 90.000000
_cell_angle_beta 90.000000
_cell_angle_gamma 90.000000
_cell_volume 3005.460993
_symmetry_space_group_name_H-M "P M M N"
_symmetry_group_IT_number 59
_space_group.IT_coordinate_system_code '2'
_symmetry_cell_setting 'orthorhombic'
loop_
_space_group_symop_operation_xyz
x,y,z
1/2-x,1/2-y,z
1/2+x,-y,-z
-x,1/2+y,-z
-x,-y,-z
1/2+x,1/2+y,-z
1/2-x,y,z
x,1/2-y,z
loop_
_atom_site_type_symbol
_atom_site_label
_atom_site_fract_x
_atom_site_fract_y
_atom_site_fract_z
Si Si1 0.039637 0.456587 0.221495
Si Si2 0.043962 0.953443 0.252032
Si Si3 0.960032 0.375988 0.608280
Si Si4 0.039095 0.296114 0.753209
Si Si5 0.038987 0.625300 0.640099
Si Si6 0.461526 0.327660 0.989172
Si Si7 0.962215 0.576094 0.010563
Si Si8 0.542152 0.295420 0.226282
O O1 0.250000 0.460270 0.213734
O O2 0.970417 0.500245 0.267768
O O3 0.002009 0.416930 0.295988
O O4 0.975927 0.447553 0.098082
O O5 0.250000 0.955255 0.278601
O O6 0.969514 0.915211 0.322259
O O7 0.025663 0.942929 0.123949
O O8 0.750000 0.380261 0.603027
O O9 0.026691 0.375486 0.484259
O O10 0.993818 0.333072 0.671139
O O11 0.250000 0.294757 0.758070
O O12 0.976574 0.250000 0.721955
O O13 0.976663 0.307873 0.875387
O O14 0.250000 0.628478 0.636740
O O15 0.970640 0.665301 0.706642
O O16 0.250000 0.327267 0.987772
O O17 0.517789 0.375725 0.995911
O O18 0.518154 0.303964 0.097717
O O19 0.750000 0.575379 0.012239
O O20 0.750000 0.294175 0.247358
O O21 0.469090 0.250000 0.254762
#
# Coordination Sequence:
#
# PCOD9448752 Si02
#       8
#     8   8   8   8   8   8   8   8
#     4  10  21  37  56  82 113 144 180 226 275 326
#     4  10  21  36  56  82 113 145 181 226 274 325
#     4  10  22  39  57  79 108 145 187 228 272 320
#     4  10  21  37  57  82 111 142 177 220 271 324
#     4  10  22  39  57  78 107 144 186 229 271 319
#     4  10  19  34  57  83 112 144 177 217 269 327
#     4  10  19  33  56  83 111 143 179 218 271 332
#     4  10  21  36  55  80 108 139 177 221 269 321
#
# _framework density 21.294568999999999
#
# number of rings (size 3 to 8) (size 9 to 14) (size 15 to 20)
#    0.000    2.000    2.500    0.750    0.000    4.500 
#    0.000    1.250    0.000    0.000    0.000    0.000 
#    0.000    0.000    0.000    0.000    0.000    0.000 
#
# Total GULP energy -357571.091215 kJ/mol
# GULP energy per Si atom -5587.048300 kJ/mol
# Density = 2.124610 g / cm^3
# Si number density = 21.294569 Si / 1000 Ang^3
#
#
#
# Elastic Constant Matrix: (Units=GPa)
#
#
# Indices 1 2 3 4 5 6 
#
# 1 37.2254 -1.3644 -10.9859 0.0000 0.0000 0.0000
# 2 -1.3644 207.4272 81.2827 0.0000 0.0000 0.0000
# 3 -10.9859 81.2827 139.5554 0.0000 0.0000 0.0000
# 4 0.0000 0.0000 0.0000 -0.2593 0.0000 0.0000
# 5 0.0000 0.0000 0.0000 0.0000 54.8085 0.0000
# 6 0.0000 0.0000 0.0000 0.0000 0.0000 22.0558
#
#
#
# Elastic Compliance Matrix: (Units=1/GPa)
#
#
# Indices 1 2 3 4 5 6 
#
# 1 0.027623 -0.000869 0.002680 0.000000 0.000000 0.000000
# 2 -0.000869 0.006274 -0.003723 0.000000 0.000000 0.000000
# 3 0.002680 -0.003723 0.009545 0.000000 0.000000 0.000000
# 4 0.000000 0.000000 0.000000 -3.856610 0.000000 0.000000
# 5 0.000000 0.000000 0.000000 0.000000 0.018245 0.000000
# 6 0.000000 0.000000 0.000000 0.000000 0.000000 0.045340
#
#
# Mechanical properties :
#
#
# Convention : Reuss Voigt Hill
#
# Bulk Modulus (GPa) = 25.23997 58.00809 41.62403
# Shear Modulus (GPa) = -1.33956 36.33937 17.49990
#
# Velocity S-wave (km/s) = -0.79400 4.13547 2.86982
# Velocity P-wave (km/s) = 3.32234 7.07833 5.52905
#
# Compressibility (1/GPa) = 0.03961970
#
# Stress axis : x y z
#
# Youngs Moduli (GPa) = 36.20224 159.38785 104.76886
#
# Poissons Ratio (x) = 0.13845 -0.28082
# Poissons Ratio (y) = 0.03145 0.39001
# Poissons Ratio (z) = -0.09704 0.59334
#
# Static dielectric constant tensor:
#      x y z
#    x 1.798560 0.000000 0.000000 
#    y 0.000000 1.779700 0.000000 
#    z 0.000000 0.000000 1.726020 
# 
# From -- ./inp_files/14909.got.cif
#   From: 2010.05.17/outbox.cif.g08.bks.cpg/sg59_8_cif.got.tgz:14909.got - 2010.06.03 14:40:33.
