data_PCOD9448955
_publ_section_title
;
Structure prediction by ZEFSAII (Michael W. Deem and Ramdas Pophale) SiO2 
 PCOD9448955
Probable space group: P M M N
;
_chemical_formula_sum "Si O2"
_cell_formula_units_Z 64
_cell_length_a 25.609461
_cell_length_b 7.581266
_cell_length_c 14.940487
_cell_angle_alpha 90.000000
_cell_angle_beta 90.000000
_cell_angle_gamma 90.000000
_cell_volume 2900.727463
_symmetry_space_group_name_H-M "P M M N"
_symmetry_group_IT_number 59
_space_group.IT_coordinate_system_code '2'
_symmetry_cell_setting 'orthorhombic'
loop_
_space_group_symop_operation_xyz
x,y,z
1/2-x,1/2-y,z
1/2+x,-y,-z
-x,1/2+y,-z
-x,-y,-z
1/2+x,1/2+y,-z
1/2-x,y,z
x,1/2-y,z
loop_
_atom_site_type_symbol
_atom_site_label
_atom_site_fract_x
_atom_site_fract_y
_atom_site_fract_z
Si Si1 0.907382 0.046571 0.077521
Si Si2 0.688859 0.462469 0.386881
Si Si3 0.514200 0.455235 0.222813
Si Si4 0.809511 0.956124 0.186357
Si Si5 0.191611 0.965874 0.241689
Si Si6 0.526338 0.539498 0.594185
Si Si7 0.907120 0.034813 0.875081
Si Si8 0.353973 0.544257 0.426910
O O1 0.924457 0.250000 0.067240
O O2 0.945282 0.963899 0.152236
O O3 0.849590 0.042706 0.118390
O O4 0.909354 0.972255 0.977717
O O5 0.750000 0.509356 0.397217
O O6 0.684776 0.250000 0.383036
O O7 0.671577 0.525855 0.289131
O O8 0.658694 0.529093 0.474628
O O9 0.529934 0.250000 0.234433
O O10 0.507556 0.530275 0.322388
O O11 0.457156 0.467452 0.178606
O O12 0.750000 0.026064 0.182925
O O13 0.808002 0.750000 0.164589
O O14 0.250000 0.020246 0.216580
O O15 0.190705 0.750000 0.243068
O O16 0.146078 0.020727 0.174090
O O17 0.177300 0.028524 0.341925
O O18 0.500000 0.500000 0.500000
O O19 0.530747 0.750000 0.604740
O O20 0.584942 0.467055 0.594689
O O21 0.908476 0.250000 0.873165
O O22 0.338839 0.750000 0.432359
#
# Coordination Sequence:
#
# PCOD9448955 Si02
#       8
#     8   8   8   8   8   8   8   8
#     4  10  22  38  59  86 112 148 195 238 284 342
#     4   9  18  33  55  81 108 143 183 222 270 330
#     4  10  22  40  59  81 115 152 188 234 288 344
#     4  10  22  39  57  82 116 151 187 233 287 337
#     4   9  17  31  54  85 117 147 183 230 282 338
#     4  11  24  39  56  81 114 151 188 234 287 338
#     4  10  20  36  60  88 114 145 190 241 289 335
#     4  10  19  34  57  82 112 147 184 228 279 340
#
# _framework density 22.063431999999999
#
# number of rings (size 3 to 8) (size 9 to 14) (size 15 to 20)
#    0.000    2.125    1.250    1.500    1.750    4.750 
#    0.000    1.250    0.000    2.250    0.000    0.000 
#    0.000    0.000    0.000    0.000    0.000    0.000 
#
# Total GULP energy -357519.586312 kJ/mol
# GULP energy per Si atom -5586.243536 kJ/mol
# Density = 2.201321 g / cm^3
# Si number density = 22.063432 Si / 1000 Ang^3
#
#
#
# Elastic Constant Matrix: (Units=GPa)
#
#
# Indices 1 2 3 4 5 6 
#
# 1 65.7073 -15.9099 31.5243 0.0000 0.0000 0.0000
# 2 -15.9099 47.3547 -7.1953 0.0000 0.0000 0.0000
# 3 31.5243 -7.1953 148.4001 0.0000 0.0000 0.0000
# 4 0.0000 0.0000 0.0000 2.9822 0.0000 0.0000
# 5 0.0000 0.0000 0.0000 0.0000 19.2405 0.0000
# 6 0.0000 0.0000 0.0000 0.0000 0.0000 23.5249
#
#
#
# Elastic Compliance Matrix: (Units=1/GPa)
#
#
# Indices 1 2 3 4 5 6 
#
# 1 0.018311 0.005602 -0.003618 0.000000 0.000000 0.000000
# 2 0.005602 0.022988 -0.000076 0.000000 0.000000 0.000000
# 3 -0.003618 -0.000076 0.007503 0.000000 0.000000 0.000000
# 4 0.000000 0.000000 0.000000 0.335321 0.000000 0.000000
# 5 0.000000 0.000000 0.000000 0.000000 0.051974 0.000000
# 6 0.000000 0.000000 0.000000 0.000000 0.000000 0.042508
#
#
# Mechanical properties :
#
#
# Convention : Reuss Voigt Hill
#
# Bulk Modulus (GPa) = 19.00410 30.92225 24.96318
# Shear Modulus (GPa) = 10.15581 26.01906 18.08744
#
# Velocity S-wave (km/s) = 2.14779 3.43780 2.86631
# Velocity P-wave (km/s) = 3.84484 5.45926 4.72156
#
# Compressibility (1/GPa) = 0.05262022
#
# Stress axis : x y z
#
# Youngs Moduli (GPa) = 54.61073 43.50092 133.27129
#
# Poissons Ratio (x) = -0.24371 0.48220
# Poissons Ratio (y) = -0.30595 0.01006
# Poissons Ratio (z) = 0.19759 0.00328
#
# Static dielectric constant tensor:
#      x y z
#    x 1.768270 0.000000 0.000000 
#    y 0.000000 1.853220 0.000000 
#    z 0.000000 0.000000 1.805530 
# 
# From -- ./inp_files/21430.got.cif
#   From: 2010.05.17/outbox.cif.g08.bks.cpg/sg59_11_cif.got.tgz:21430.got - 2010.06.03 14:40:33.
