data_PCOD9448815
_publ_section_title
;
Structure prediction by ZEFSAII (Michael W. Deem and Ramdas Pophale) SiO2 
 PCOD9448815
Probable space group: P M M N
;
_chemical_formula_sum "Si O2"
_cell_formula_units_Z 56
_cell_length_a 19.528388
_cell_length_b 8.870369
_cell_length_c 18.264043
_cell_angle_alpha 90.000000
_cell_angle_beta 90.000000
_cell_angle_gamma 90.000000
_cell_volume 3163.770722
_symmetry_space_group_name_H-M "P M M N"
_symmetry_group_IT_number 59
_space_group.IT_coordinate_system_code '2'
_symmetry_cell_setting 'orthorhombic'
loop_
_space_group_symop_operation_xyz
x,y,z
1/2-x,1/2-y,z
1/2+x,-y,-z
-x,1/2+y,-z
-x,-y,-z
1/2+x,1/2+y,-z
1/2-x,y,z
x,1/2-y,z
loop_
_atom_site_type_symbol
_atom_site_label
_atom_site_fract_x
_atom_site_fract_y
_atom_site_fract_z
Si Si1 0.410424 0.568188 0.235592
Si Si2 0.672006 0.433339 0.909579
Si Si3 0.833165 0.076620 0.475690
Si Si4 0.431584 0.931331 0.964471
Si Si5 0.329657 0.068573 0.677099
Si Si6 0.434194 0.068077 0.804308
Si Si7 0.830207 0.569806 0.628776
O O1 0.405711 0.750000 0.240924
O O2 0.369316 0.519533 0.162759
O O3 0.490013 0.529018 0.224914
O O4 0.375694 0.497219 0.306550
O O5 0.750000 0.487350 0.908520
O O6 0.673273 0.250000 0.908275
O O7 0.630893 0.476455 0.982346
O O8 0.750000 0.072472 0.474765
O O9 0.854998 0.250000 0.478857
O O10 0.854600 0.000754 0.399602
O O11 0.853472 0.990853 0.549536
O O12 0.436599 0.750000 0.964233
O O13 0.423084 0.992415 0.882721
O O14 0.500000 0.000000 0.000000
O O15 0.250000 0.025063 0.688716
O O16 0.331866 0.250000 0.670803
O O17 0.377280 0.023912 0.744818
O O18 0.432049 0.250000 0.813349
O O19 0.750000 0.524974 0.639305
O O20 0.833166 0.750000 0.629188
#
# Coordination Sequence:
#
# PCOD9448815 Si02
#       7
#     8   8   8   8   8   8   8
#     4  10  19  34  54  75 104 142 181 219 259 314
#     4   9  18  33  54  79 105 137 178 221 264 310
#     4   9  17  31  53  79 106 139 181 223 264 315
#     4  11  21  36  57  79 106 141 179 220 266 319
#     4   9  18  34  56  80 109 142 175 220 274 319
#     4  10  21  37  56  80 108 141 181 217 263 323
#     4  10  20  33  51  78 110 140 175 220 269 320
#
# _framework density 17.700396999999999
#
# number of rings (size 3 to 8) (size 9 to 14) (size 15 to 20)
#    0.000    2.286    1.429    1.714    0.000    4.857 
#    0.000    0.714    0.000    2.143    0.000    0.000 
#    0.000    0.000    0.000    0.000    0.000    0.000 
#
# Total GULP energy -312470.917828 kJ/mol
# GULP energy per Si atom -5579.837818 kJ/mol
# Density = 1.766011 g / cm^3
# Si number density = 17.700397 Si / 1000 Ang^3
#
#
#
# Elastic Constant Matrix: (Units=GPa)
#
#
# Indices 1 2 3 4 5 6 
#
# 1 113.8291 35.3664 93.8486 0.0000 0.0000 0.0000
# 2 35.3664 32.6043 55.8590 0.0000 0.0000 0.0000
# 3 93.8486 55.8590 207.3057 0.0000 0.0000 0.0000
# 4 0.0000 0.0000 0.0000 37.0692 0.0000 0.0000
# 5 0.0000 0.0000 0.0000 0.0000 30.7888 0.0000
# 6 0.0000 0.0000 0.0000 0.0000 0.0000 15.0323
#
#
#
# Elastic Compliance Matrix: (Units=1/GPa)
#
#
# Indices 1 2 3 4 5 6 
#
# 1 0.015254 -0.008759 -0.004546 0.000000 0.000000 0.000000
# 2 -0.008759 0.061999 -0.012741 0.000000 0.000000 0.000000
# 3 -0.004546 -0.012741 0.010315 0.000000 0.000000 0.000000
# 4 0.000000 0.000000 0.000000 0.026977 0.000000 0.000000
# 5 0.000000 0.000000 0.000000 0.000000 0.032479 0.000000
# 6 0.000000 0.000000 0.000000 0.000000 0.000000 0.066523
#
#
# Mechanical properties :
#
#
# Convention : Reuss Voigt Hill
#
# Bulk Modulus (GPa) = 28.18643 80.43189 54.30916
# Shear Modulus (GPa) = 18.02040 27.82240 22.92140
#
# Velocity S-wave (km/s) = 3.19420 3.96896 3.60247
# Velocity P-wave (km/s) = 5.43715 8.15738 6.93201
#
# Compressibility (1/GPa) = 0.03547807
#
# Stress axis : x y z
#
# Youngs Moduli (GPa) = 65.55623 16.12922 96.94965
#
# Poissons Ratio (x) = 0.14127 0.44069
# Poissons Ratio (y) = 0.57418 1.23521
# Poissons Ratio (z) = 0.29799 0.20550
#
# Static dielectric constant tensor:
#      x y z
#    x 1.597010 0.000000 0.000000 
#    y 0.000000 1.597480 0.000000 
#    z 0.000000 0.000000 1.575290 
# 
# From -- ./inp_files/28103.got.cif
#   From: 2010.05.17/outbox.cif.g08.bks.cpg/sg59_15_cif.got.tgz:28103.got - 2010.06.03 14:40:33.
