data_PCOD9448122
_publ_section_title
;
Structure prediction by ZEFSAII (Michael W. Deem and Ramdas Pophale) SiO2 
 PCOD9448122
Probable space group: P M M N
;
_chemical_formula_sum "Si O2"
_cell_formula_units_Z 64
_cell_length_a 23.455359
_cell_length_b 8.013183
_cell_length_c 18.305324
_cell_angle_alpha 90.000000
_cell_angle_beta 90.000000
_cell_angle_gamma 90.000000
_cell_volume 3440.523794
_symmetry_space_group_name_H-M "P M M N"
_symmetry_group_IT_number 59
_space_group.IT_coordinate_system_code '2'
_symmetry_cell_setting 'orthorhombic'
loop_
_space_group_symop_operation_xyz
x,y,z
1/2-x,1/2-y,z
1/2+x,-y,-z
-x,1/2+y,-z
-x,-y,-z
1/2+x,1/2+y,-z
1/2-x,y,z
x,1/2-y,z
loop_
_atom_site_type_symbol
_atom_site_label
_atom_site_fract_x
_atom_site_fract_y
_atom_site_fract_z
Si Si1 0.814789 0.954338 0.069357
Si Si2 0.083990 0.454882 0.351265
Si Si3 0.910339 0.945228 0.181181
Si Si4 0.485716 0.049988 0.082641
Si Si5 0.453613 0.554429 0.665159
Si Si6 0.934236 0.947548 0.490211
Si Si7 0.186976 0.045893 0.247468
Si Si8 0.855003 0.953395 0.909035
O O1 0.750000 0.002205 0.085498
O O2 0.817513 0.750000 0.068478
O O3 0.859748 0.014002 0.129908
O O4 0.831813 0.009958 0.987569
O O5 0.083880 0.250000 0.348300
O O6 0.095662 0.508300 0.435347
O O7 0.133645 0.510561 0.296582
O O8 0.019283 0.513272 0.331953
O O9 0.899500 0.750000 0.190877
O O10 0.920091 0.019026 0.260908
O O11 0.968453 0.970622 0.136135
O O12 0.489286 0.250000 0.090132
O O13 0.421067 0.998710 0.098867
O O14 0.500000 0.000000 0.000000
O O15 0.461227 0.750000 0.657392
O O16 0.420548 0.499090 0.592185
O O17 0.930601 0.750000 0.492559
O O18 0.000000 0.000000 0.500000
O O19 0.250000 0.994700 0.273152
O O20 0.185768 0.250000 0.248065
O O21 0.178160 0.993382 0.163294
O O22 0.852880 0.750000 0.910698
#
# Coordination Sequence:
#
# PCOD9448122 Si02
#       8
#     8   8   8   8   8   8   8   8
#     4   9  17  30  47  67  93 126 166 210 249 289
#     4   8  15  27  43  67  99 129 157 191 239 290
#     4  11  21  33  49  74 102 129 164 206 254 304
#     4  11  20  32  49  71 100 131 164 204 252 302
#     4  10  19  32  50  73 100 129 162 205 255 304
#     4   9  16  28  47  71 101 132 160 195 240 297
#     4   9  15  23  39  65  96 128 161 197 238 284
#     4   9  16  27  44  68  96 127 163 203 244 288
#
# _framework density 18.601818000000002
#
# number of rings (size 3 to 8) (size 9 to 14) (size 15 to 20)
#    0.000    2.500    1.250    3.375    0.000    3.500 
#    0.000    0.000    0.000    2.250    0.000    3.500 
#    0.000   41.500    0.000    0.000    0.000    0.000 
#
# Total GULP energy -356778.670367 kJ/mol
# GULP energy per Si atom -5574.666724 kJ/mol
# Density = 1.855948 g / cm^3
# Si number density = 18.601818 Si / 1000 Ang^3
#
#
#
# Elastic Constant Matrix: (Units=GPa)
#
#
# Indices 1 2 3 4 5 6 
#
# 1 100.5339 5.5494 57.9832 0.0000 0.0000 0.0000
# 2 5.5494 9.1719 4.5162 0.0000 0.0000 0.0000
# 3 57.9832 4.5162 154.6046 0.0000 0.0000 0.0000
# 4 0.0000 0.0000 0.0000 21.7289 0.0000 0.0000
# 5 0.0000 0.0000 0.0000 0.0000 16.0562 0.0000
# 6 0.0000 0.0000 0.0000 0.0000 0.0000 11.7704
#
#
#
# Elastic Compliance Matrix: (Units=1/GPa)
#
#
# Indices 1 2 3 4 5 6 
#
# 1 0.012963 -0.005529 -0.004700 0.000000 0.000000 0.000000
# 2 -0.005529 0.112977 -0.001227 0.000000 0.000000 0.000000
# 3 -0.004700 -0.001227 0.008267 0.000000 0.000000 0.000000
# 4 0.000000 0.000000 0.000000 0.046022 0.000000 0.000000
# 5 0.000000 0.000000 0.000000 0.000000 0.062281 0.000000
# 6 0.000000 0.000000 0.000000 0.000000 0.000000 0.084959
#
#
# Mechanical properties :
#
#
# Convention : Reuss Voigt Hill
#
# Bulk Modulus (GPa) = 8.98506 44.48979 26.73743
# Shear Modulus (GPa) = 12.90394 22.99521 17.94958
#
# Velocity S-wave (km/s) = 2.63666 3.51975 3.10971
# Velocity P-wave (km/s) = 3.75633 6.36294 5.22480
#
# Compressibility (1/GPa) = 0.11129581
#
# Stress axis : x y z
#
# Youngs Moduli (GPa) = 77.14328 8.85133 120.96743
#
# Poissons Ratio (x) = 0.04894 0.56856
# Poissons Ratio (y) = 0.42651 0.14839
# Poissons Ratio (z) = 0.36258 0.01086
#
# Static dielectric constant tensor:
#      x y z
#    x 1.702100 0.000000 0.000000 
#    y 0.000000 1.679030 0.000000 
#    z 0.000000 0.000000 1.664670 
# 
# From -- ./inp_files/28435.got.cif
#   From: 2010.05.17/outbox.cif.g08.bks.cpg/sg59_15_cif.got.tgz:28435.got - 2010.06.03 14:40:33.
