data_PCOD9448773
_publ_section_title
;
Structure prediction by ZEFSAII (Michael W. Deem and Ramdas Pophale) SiO2 
 PCOD9448773
Probable space group: P M M N
;
_chemical_formula_sum "Si O2"
_cell_formula_units_Z 48
_cell_length_a 20.867213
_cell_length_b 8.890423
_cell_length_c 14.402558
_cell_angle_alpha 90.000000
_cell_angle_beta 90.000000
_cell_angle_gamma 90.000000
_cell_volume 2671.938802
_symmetry_space_group_name_H-M "P M M N"
_symmetry_group_IT_number 59
_space_group.IT_coordinate_system_code '2'
_symmetry_cell_setting 'orthorhombic'
loop_
_space_group_symop_operation_xyz
x,y,z
1/2-x,1/2-y,z
1/2+x,-y,-z
-x,1/2+y,-z
-x,-y,-z
1/2+x,1/2+y,-z
1/2-x,y,z
x,1/2-y,z
loop_
_atom_site_type_symbol
_atom_site_label
_atom_site_fract_x
_atom_site_fract_y
_atom_site_fract_z
Si Si1 0.250000 0.068307 0.097116
Si Si2 0.924296 0.071010 0.395998
Si Si3 0.998172 0.429227 0.898438
Si Si4 0.871305 0.929583 0.212865
Si Si5 0.750000 0.070193 0.108705
Si Si6 0.924628 0.570008 0.593263
Si Si7 0.121679 0.431146 0.208348
O O1 0.250000 0.250000 0.084784
O O2 0.313054 0.027445 0.156058
O O3 0.250000 0.993129 0.996263
O O4 0.916657 0.250000 0.388137
O O5 0.000454 0.036091 0.384374
O O6 0.884168 0.989163 0.316421
O O7 0.907115 0.014614 0.498943
O O8 0.992149 0.250000 0.905248
O O9 0.064024 0.463260 0.844751
O O10 0.938337 0.495510 0.842913
O O11 0.000000 0.500000 0.000000
O O12 0.861471 0.750000 0.213266
O O13 0.812139 0.009048 0.162757
O O14 0.750000 0.250000 0.106946
O O15 0.920416 0.750000 0.577951
O O16 0.882693 0.528711 0.682868
O O17 0.115064 0.250000 0.203241
#
# Coordination Sequence:
#
# PCOD9448773 Si02
#       7
#     4   8   8   8   4   8   8
#     4  10  22  40  61  84 115 156 197 236 286 346
#     4  10  19  33  57  87 118 152 192 241 293 346
#     4  11  23  36  56  84 113 146 189 241 292 344
#     4  11  23  40  60  84 115 152 194 239 291 350
#     4  12  26  42  61  84 115 154 195 238 290 350
#     4   9  18  33  55  84 119 156 192 237 293 347
#     4  10  20  37  59  84 115 152 195 240 288 344
#
# _framework density 17.964483999999999
#
# number of rings (size 3 to 8) (size 9 to 14) (size 15 to 20)
#    0.000    1.667    1.667    3.250    0.000    8.000 
#    0.000    0.833    0.000    2.000    0.000    0.000 
#    0.000    0.000    0.000    0.000    0.000    0.000 
#
# Total GULP energy -268194.562178 kJ/mol
# GULP energy per Si atom -5587.386712 kJ/mol
# Density = 1.792360 g / cm^3
# Si number density = 17.964484 Si / 1000 Ang^3
#
#
#
# Elastic Constant Matrix: (Units=GPa)
#
#
# Indices 1 2 3 4 5 6 
#
# 1 137.6081 70.4119 94.4995 0.0000 0.0000 0.0000
# 2 70.4119 53.7597 69.0739 0.0000 0.0000 0.0000
# 3 94.4995 69.0739 181.5924 0.0000 0.0000 0.0000
# 4 0.0000 0.0000 0.0000 34.3250 0.0000 0.0000
# 5 0.0000 0.0000 0.0000 0.0000 27.0501 0.0000
# 6 0.0000 0.0000 0.0000 0.0000 0.0000 25.8174
#
#
#
# Elastic Compliance Matrix: (Units=1/GPa)
#
#
# Indices 1 2 3 4 5 6 
#
# 1 0.022119 -0.027736 -0.000960 0.000000 0.000000 0.000000
# 2 -0.027736 0.071164 -0.012635 0.000000 0.000000 0.000000
# 3 -0.000960 -0.012635 0.010813 0.000000 0.000000 0.000000
# 4 0.000000 0.000000 0.000000 0.029133 0.000000 0.000000
# 5 0.000000 0.000000 0.000000 0.000000 0.036968 0.000000
# 6 0.000000 0.000000 0.000000 0.000000 0.000000 0.038734
#
#
# Mechanical properties :
#
#
# Convention : Reuss Voigt Hill
#
# Bulk Modulus (GPa) = 46.66019 93.43676 70.04848
# Shear Modulus (GPa) = 16.73707 26.70349 21.72028
#
# Velocity S-wave (km/s) = 3.05565 3.85965 3.48094
# Velocity P-wave (km/s) = 6.20317 8.48454 7.43191
#
# Compressibility (1/GPa) = 0.02143154
#
# Stress axis : x y z
#
# Youngs Moduli (GPa) = 45.21087 14.05204 92.48390
#
# Poissons Ratio (x) = 0.38975 0.08879
# Poissons Ratio (y) = 1.25399 1.16858
# Poissons Ratio (z) = 0.04340 0.17755
#
# Static dielectric constant tensor:
#      x y z
#    x 1.601640 0.000000 0.000000 
#    y 0.000000 1.599100 0.000000 
#    z 0.000000 0.000000 1.596840 
# 
# From -- ./inp_files/23711.got.cif
#   From: 2010.05.17/outbox.cif.g08.bks.cpg/sg59_12_cif.got.tgz:23711.got - 2010.06.03 14:40:33.
