data_PCOD9448098
_publ_section_title
;
Structure prediction by ZEFSAII (Michael W. Deem and Ramdas Pophale) SiO2 
 PCOD9448098
Probable space group: P M M N
;
_chemical_formula_sum "Si O2"
_cell_formula_units_Z 64
_cell_length_a 31.601959
_cell_length_b 8.313387
_cell_length_c 14.922798
_cell_angle_alpha 90.000000
_cell_angle_beta 90.000000
_cell_angle_gamma 90.000000
_cell_volume 3920.507270
_symmetry_space_group_name_H-M "P M M N"
_symmetry_group_IT_number 59
_space_group.IT_coordinate_system_code '2'
_symmetry_cell_setting 'orthorhombic'
loop_
_space_group_symop_operation_xyz
x,y,z
1/2-x,1/2-y,z
1/2+x,-y,-z
-x,1/2+y,-z
-x,-y,-z
1/2+x,1/2+y,-z
1/2-x,y,z
x,1/2-y,z
loop_
_atom_site_type_symbol
_atom_site_label
_atom_site_fract_x
_atom_site_fract_y
_atom_site_fract_z
Si Si1 0.614936 0.555090 0.573408
Si Si2 0.459173 0.056600 0.557828
Si Si3 0.702552 0.945757 0.641344
Si Si4 0.618177 0.563747 0.933377
Si Si5 0.076523 0.936467 0.240995
Si Si6 0.018185 0.557207 0.752108
Si Si7 0.542140 0.440606 0.051991
Si Si8 0.798012 0.553562 0.848776
O O1 0.613434 0.750000 0.578729
O O2 0.583995 0.507175 0.492856
O O3 0.664209 0.505455 0.576724
O O4 0.595263 0.484114 0.663706
O O5 0.460834 0.250000 0.561510
O O6 0.500000 0.000000 0.500000
O O7 0.460876 0.988442 0.658016
O O8 0.750000 0.000496 0.617838
O O9 0.703330 0.750000 0.641939
O O10 0.693715 0.994672 0.744963
O O11 0.622228 0.750000 0.957518
O O12 0.596441 0.545212 0.836274
O O13 0.665299 0.495753 0.915523
O O14 0.585217 0.488016 0.002236
O O15 0.084814 0.750000 0.219981
O O16 0.026873 0.969926 0.244799
O O17 0.011541 0.750000 0.753639
O O18 0.041483 0.507924 0.843938
O O19 0.539078 0.250000 0.050655
O O20 0.500000 0.500000 0.000000
O O21 0.750000 0.505591 0.871311
O O22 0.799399 0.750000 0.849205
#
# Coordination Sequence:
#
# PCOD9448098 Si02
#       8
#     8   8   8   8   8   8   8   8
#     4  10  19  32  49  71  99 131 166 201 241 288
#     4  11  22  33  50  73 100 131 166 205 244 290
#     4   8  13  24  45  71  97 126 161 198 236 284
#     4  11  20  32  51  73 101 134 167 206 247 291
#     4  12  22  30  47  71 100 134 168 203 240 291
#     4  11  23  38  52  67  95 131 169 210 247 286
#     4  11  23  36  52  72  97 130 168 207 248 297
#     4   8  14  25  45  73 100 129 164 198 238 292
#
# _framework density 16.324418999999999
#
# number of rings (size 3 to 8) (size 9 to 14) (size 15 to 20)
#    0.000    1.750    3.750    3.375    0.000    2.000 
#    0.000    0.000    0.000    2.625    0.000    0.875 
#    0.000    5.000    0.000    0.000    0.000    0.000 
#
# Total GULP energy -356895.570618 kJ/mol
# GULP energy per Si atom -5576.493291 kJ/mol
# Density = 1.628726 g / cm^3
# Si number density = 16.324419 Si / 1000 Ang^3
#
#
#
# Elastic Constant Matrix: (Units=GPa)
#
#
# Indices 1 2 3 4 5 6 
#
# 1 143.1953 12.0021 60.0688 0.0000 0.0000 0.0000
# 2 12.0021 18.3775 13.8001 0.0000 0.0000 0.0000
# 3 60.0688 13.8001 98.4550 0.0000 0.0000 0.0000
# 4 0.0000 0.0000 0.0000 21.8992 0.0000 0.0000
# 5 0.0000 0.0000 0.0000 0.0000 13.9828 0.0000
# 6 0.0000 0.0000 0.0000 0.0000 0.0000 11.2051
#
#
#
# Elastic Compliance Matrix: (Units=1/GPa)
#
#
# Indices 1 2 3 4 5 6 
#
# 1 0.009455 -0.002060 -0.005480 0.000000 0.000000 0.000000
# 2 -0.002060 0.061264 -0.007330 0.000000 0.000000 0.000000
# 3 -0.005480 -0.007330 0.014528 0.000000 0.000000 0.000000
# 4 0.000000 0.000000 0.000000 0.045664 0.000000 0.000000
# 5 0.000000 0.000000 0.000000 0.000000 0.071516 0.000000
# 6 0.000000 0.000000 0.000000 0.000000 0.000000 0.089245
#
#
# Mechanical properties :
#
#
# Convention : Reuss Voigt Hill
#
# Bulk Modulus (GPa) = 18.01591 47.97443 32.99517
# Shear Modulus (GPa) = 14.70959 21.02788 17.86874
#
# Velocity S-wave (km/s) = 3.00505 3.59294 3.31207
# Velocity P-wave (km/s) = 4.80631 6.83112 5.90613
#
# Compressibility (1/GPa) = 0.05550651
#
# Stress axis : x y z
#
# Youngs Moduli (GPa) = 105.76594 16.32273 68.83394
#
# Poissons Ratio (x) = 0.03362 0.37720
# Poissons Ratio (y) = 0.21787 0.50458
# Poissons Ratio (z) = 0.57958 0.11965
#
# Static dielectric constant tensor:
#      x y z
#    x 1.584730 0.000000 0.000000 
#    y 0.000000 1.567440 0.000000 
#    z 0.000000 0.000000 1.541550 
# 
# From -- ./inp_files/25069.got.cif
#   From: 2010.05.17/outbox.cif.g08.bks.cpg/sg59_13_cif.got.tgz:25069.got - 2010.06.03 14:40:33.
