data_PCOD9448188
_publ_section_title
;
Structure prediction by ZEFSAII (Michael W. Deem and Ramdas Pophale) SiO2 
 PCOD9448188
Probable space group: P M M N
;
_chemical_formula_sum "Si O2"
_cell_formula_units_Z 64
_cell_length_a 20.491984
_cell_length_b 7.757495
_cell_length_c 20.567393
_cell_angle_alpha 90.000000
_cell_angle_beta 90.000000
_cell_angle_gamma 90.000000
_cell_volume 3269.525727
_symmetry_space_group_name_H-M "P M M N"
_symmetry_group_IT_number 59
_space_group.IT_coordinate_system_code '2'
_symmetry_cell_setting 'orthorhombic'
loop_
_space_group_symop_operation_xyz
x,y,z
1/2-x,1/2-y,z
1/2+x,-y,-z
-x,1/2+y,-z
-x,-y,-z
1/2+x,1/2+y,-z
1/2-x,y,z
x,1/2-y,z
loop_
_atom_site_type_symbol
_atom_site_label
_atom_site_fract_x
_atom_site_fract_y
_atom_site_fract_z
Si Si1 0.028586 0.459980 0.342707
Si Si2 0.939349 0.547546 0.801347
Si Si3 0.079018 0.041127 0.850862
Si Si4 0.676409 0.547531 0.039777
Si Si5 0.073543 0.042791 0.477139
Si Si6 0.321885 0.039260 0.739703
Si Si7 0.617266 0.954498 0.389637
Si Si8 0.822975 0.452734 0.894170
O O1 0.026613 0.250000 0.342311
O O2 0.049006 0.523472 0.271517
O O3 0.075725 0.515858 0.402313
O O4 0.955848 0.520979 0.361204
O O5 0.929643 0.750000 0.793699
O O6 0.876749 0.480871 0.839535
O O7 0.005132 0.518385 0.842577
O O8 0.076783 0.250000 0.851501
O O9 0.119893 0.978503 0.913359
O O10 0.121134 0.984456 0.788207
O O11 0.750000 0.474360 0.048857
O O12 0.681206 0.750000 0.056037
O O13 0.659424 0.533159 0.963870
O O14 0.080575 0.250000 0.476186
O O15 0.117731 0.974994 0.536622
O O16 0.000000 0.000000 0.500000
O O17 0.250000 0.987523 0.762437
O O18 0.323295 0.250000 0.739307
O O19 0.335663 0.977383 0.666506
O O20 0.629750 0.750000 0.394497
O O21 0.750000 0.515135 0.876044
O O22 0.819246 0.250000 0.906305
#
# Coordination Sequence:
#
# PCOD9448188 Si02
#       8
#     8   8   8   8   8   8   8   8
#     4   9  17  29  44  66  98 129 159 201 250 295
#     4  11  22  34  52  76 104 136 166 207 256 301
#     4  10  19  32  51  75 104 135 169 209 246 292
#     4   9  18  34  56  79 103 134 170 206 247 297
#     4   8  14  24  40  63  90 121 158 200 244 289
#     4   9  16  26  43  69 100 134 170 207 247 291
#     4   9  15  25  44  67  92 125 166 209 247 289
#     4  10  22  40  60  79  98 124 161 206 254 306
#
# _framework density 19.574705000000002
#
# number of rings (size 3 to 8) (size 9 to 14) (size 15 to 20)
#    0.000    2.625    1.250    1.125    0.000    3.750 
#    0.000    0.000    0.000    3.000    0.000    3.500 
#    0.000    0.000    0.000    0.000    0.000    0.000 
#
# Total GULP energy -356647.636808 kJ/mol
# GULP energy per Si atom -5572.619325 kJ/mol
# Density = 1.953015 g / cm^3
# Si number density = 19.574705 Si / 1000 Ang^3
#
#
#
# Elastic Constant Matrix: (Units=GPa)
#
#
# Indices 1 2 3 4 5 6 
#
# 1 72.3736 -7.1130 43.2211 0.0000 0.0000 0.0000
# 2 -7.1130 27.4657 -8.0677 0.0000 0.0000 0.0000
# 3 43.2211 -8.0677 98.3038 0.0000 0.0000 0.0000
# 4 0.0000 0.0000 0.0000 9.1433 0.0000 0.0000
# 5 0.0000 0.0000 0.0000 0.0000 25.1397 0.0000
# 6 0.0000 0.0000 0.0000 0.0000 0.0000 -1.3531
#
#
#
# Elastic Compliance Matrix: (Units=1/GPa)
#
#
# Indices 1 2 3 4 5 6 
#
# 1 0.018905 0.002515 -0.008105 0.000000 0.000000 0.000000
# 2 0.002515 0.037643 0.001984 0.000000 0.000000 0.000000
# 3 -0.008105 0.001984 0.013899 0.000000 0.000000 0.000000
# 4 0.000000 0.000000 0.000000 0.109369 0.000000 0.000000
# 5 0.000000 0.000000 0.000000 0.000000 0.039778 0.000000
# 6 0.000000 0.000000 0.000000 0.000000 0.000000 -0.739068
#
#
# Mechanical properties :
#
#
# Convention : Reuss Voigt Hill
#
# Bulk Modulus (GPa) = 15.81448 28.24710 22.03079
# Shear Modulus (GPa) = -10.17951 17.92617 3.87333
#
# Velocity S-wave (km/s) = -2.28290 3.02947 1.40820
# Velocity P-wave (km/s) = 1.07133 5.16708 3.73138
#
# Compressibility (1/GPa) = 0.06323317
#
# Stress axis : x y z
#
# Youngs Moduli (GPa) = 52.89626 26.56537 71.94735
#
# Poissons Ratio (x) = -0.06681 0.58317
# Poissons Ratio (y) = -0.13304 -0.14271
# Poissons Ratio (z) = 0.42875 -0.05269
#
# Static dielectric constant tensor:
#      x y z
#    x 1.664730 0.000000 0.000000 
#    y 0.000000 0.251700 0.000000 
#    z 0.000000 0.000000 1.739920 
# 
# From -- ./inp_files/30758.got.cif
#   From: 2010.05.17/outbox.cif.g08.bks.cpg/sg59_16_cif.got.tgz:30758.got - 2010.06.03 14:40:33.
