data_PCOD9448208
_publ_section_title
;
Structure prediction by ZEFSAII (Michael W. Deem and Ramdas Pophale) SiO2 
 PCOD9448208
Probable space group: P M M N
;
_chemical_formula_sum "Si O2"
_cell_formula_units_Z 64
_cell_length_a 18.174027
_cell_length_b 14.076749
_cell_length_c 14.325107
_cell_angle_alpha 90.000000
_cell_angle_beta 90.000000
_cell_angle_gamma 90.000000
_cell_volume 3664.809549
_symmetry_space_group_name_H-M "P M M N"
_symmetry_group_IT_number 59
_space_group.IT_coordinate_system_code '2'
_symmetry_cell_setting 'orthorhombic'
loop_
_space_group_symop_operation_xyz
x,y,z
1/2-x,1/2-y,z
1/2+x,-y,-z
-x,1/2+y,-z
-x,-y,-z
1/2+x,1/2+y,-z
1/2-x,y,z
x,1/2-y,z
loop_
_atom_site_type_symbol
_atom_site_label
_atom_site_fract_x
_atom_site_fract_y
_atom_site_fract_z
Si Si1 0.090104 0.641011 0.243290
Si Si2 0.409859 0.363831 0.524671
Si Si3 0.165129 0.508138 0.874038
Si Si4 0.574881 0.362817 0.467332
Si Si5 0.663815 0.482874 0.604140
Si Si6 0.169160 0.863574 0.697177
Si Si7 0.161348 0.641797 0.039857
Si Si8 0.086210 0.360348 0.741073
O O1 0.109499 0.750000 0.276226
O O2 0.125054 0.555287 0.302329
O O3 0.119416 0.634211 0.137861
O O4 0.002206 0.633766 0.252082
O O5 0.402459 0.250000 0.513149
O O6 0.495072 0.391092 0.504866
O O7 0.364316 0.421944 0.447764
O O8 0.391888 0.385302 0.633486
O O9 0.250000 0.477575 0.887708
O O10 0.165019 0.593008 0.798865
O O11 0.121324 0.425293 0.821250
O O12 0.138518 0.557973 0.969142
O O13 0.574941 0.250000 0.468811
O O14 0.638899 0.401701 0.532145
O O15 0.599604 0.394589 0.364573
O O16 0.750000 0.488087 0.618682
O O17 0.250000 0.892576 0.657786
O O18 0.168409 0.750000 0.700918
O O19 0.250000 0.634201 0.053661
O O20 0.148147 0.750000 0.003504
O O21 0.106933 0.250000 0.754750
#
# Coordination Sequence:
#
# PCOD9448208 Si02
#       8
#     8   8   8   8   8   8   8   8
#     4  10  21  37  57  83 112 144 180 224 279 334
#     4  10  22  39  55  74 107 154 194 224 265 321
#     4  10  20  33  53  79 106 140 181 224 272 326
#     4  10  19  32  51  76 106 140 176 219 273 328
#     4  12  23  33  54  83 109 142 185 231 273 321
#     4   9  17  28  45  75 110 137 167 215 275 331
#     4   9  18  35  58  82 111 142 171 213 275 343
#     4  10  21  37  56  77 107 146 187 230 272 318
#
# _framework density 17.46339
#
# number of rings (size 3 to 8) (size 9 to 14) (size 15 to 20)
#    0.000    2.000    1.250    2.625    1.750    6.000 
#    0.000    1.250    0.000    0.750    0.000    1.750 
#    0.000    0.000    0.000    0.000    0.000    0.000 
#
# Total GULP energy -356599.242663 kJ/mol
# GULP energy per Si atom -5571.863167 kJ/mol
# Density = 1.742364 g / cm^3
# Si number density = 17.463390 Si / 1000 Ang^3
#
#
#
# Elastic Constant Matrix: (Units=GPa)
#
#
# Indices 1 2 3 4 5 6 
#
# 1 51.3100 21.8728 24.0144 0.0000 0.0000 0.0000
# 2 21.8728 118.8688 61.7062 0.0000 0.0000 0.0000
# 3 24.0144 61.7062 89.6945 0.0000 0.0000 0.0000
# 4 0.0000 0.0000 0.0000 33.0158 0.0000 0.0000
# 5 0.0000 0.0000 0.0000 0.0000 23.9618 0.0000
# 6 0.0000 0.0000 0.0000 0.0000 0.0000 45.3142
#
#
#
# Elastic Compliance Matrix: (Units=1/GPa)
#
#
# Indices 1 2 3 4 5 6 
#
# 1 0.022469 -0.001574 -0.004933 0.000000 0.000000 0.000000
# 2 -0.001574 0.013196 -0.008657 0.000000 0.000000 0.000000
# 3 -0.004933 -0.008657 0.018426 0.000000 0.000000 0.000000
# 4 0.000000 0.000000 0.000000 0.030289 0.000000 0.000000
# 5 0.000000 0.000000 0.000000 0.000000 0.041733 0.000000
# 6 0.000000 0.000000 0.000000 0.000000 0.000000 0.022068
#
#
# Mechanical properties :
#
#
# Convention : Reuss Voigt Hill
#
# Bulk Modulus (GPa) = 42.08244 52.78446 47.43345
# Shear Modulus (GPa) = 26.81981 30.61035 28.71508
#
# Velocity S-wave (km/s) = 3.92315 4.19122 4.05940
# Velocity P-wave (km/s) = 6.68366 7.32893 7.01372
#
# Compressibility (1/GPa) = 0.02376288
#
# Stress axis : x y z
#
# Youngs Moduli (GPa) = 44.50570 75.77929 54.27255
#
# Poissons Ratio (x) = 0.11925 0.26774
# Poissons Ratio (y) = 0.07003 0.46985
# Poissons Ratio (z) = 0.21955 0.65603
#
# Static dielectric constant tensor:
#      x y z
#    x 1.601970 0.000000 0.000000 
#    y 0.000000 1.616340 0.000000 
#    z 0.000000 0.000000 1.607870 
# 
# From -- ./inp_files/24046.got.cif
#   From: 2010.05.17/outbox.cif.g08.bks.cpg/sg59_13_cif.got.tgz:24046.got - 2010.06.03 14:40:33.
