data_PCOD9448198
_publ_section_title
;
Structure prediction by ZEFSAII (Michael W. Deem and Ramdas Pophale) SiO2 
 PCOD9448198
Probable space group: P M M N
;
_chemical_formula_sum "Si O2"
_cell_formula_units_Z 64
_cell_length_a 7.945802
_cell_length_b 24.125701
_cell_length_c 16.451239
_cell_angle_alpha 90.000000
_cell_angle_beta 90.000000
_cell_angle_gamma 90.000000
_cell_volume 3153.670325
_symmetry_space_group_name_H-M "P M M N"
_symmetry_group_IT_number 59
_space_group.IT_coordinate_system_code '2'
_symmetry_cell_setting 'orthorhombic'
loop_
_space_group_symop_operation_xyz
x,y,z
1/2-x,1/2-y,z
1/2+x,-y,-z
-x,1/2+y,-z
-x,-y,-z
1/2+x,1/2+y,-z
1/2-x,y,z
x,1/2-y,z
loop_
_atom_site_type_symbol
_atom_site_label
_atom_site_fract_x
_atom_site_fract_y
_atom_site_fract_z
Si Si1 0.055153 0.031978 0.898443
Si Si2 0.954641 0.686786 0.515178
Si Si3 0.952102 0.501498 0.594735
Si Si4 0.954083 0.616944 0.669139
Si Si5 0.451846 0.685586 0.830758
Si Si6 0.550825 0.088563 0.054550
Si Si7 0.546605 0.813193 0.332389
Si Si8 0.946718 0.077130 0.731194
O O1 0.250000 0.029232 0.922677
O O2 0.039175 0.050216 0.806431
O O3 0.982286 0.969672 0.908469
O O4 0.973842 0.077058 0.958889
O O5 0.750000 0.684362 0.513818
O O6 0.002287 0.750000 0.531996
O O7 0.012141 0.648938 0.588196
O O8 0.011651 0.673021 0.424350
O O9 0.750000 0.503638 0.594001
O O10 0.008934 0.554064 0.649601
O O11 0.008459 0.448049 0.645591
O O12 0.000000 0.500000 0.500000
O O13 0.750000 0.617315 0.672609
O O14 0.013051 0.650299 0.748524
O O15 0.250000 0.690253 0.838482
O O16 0.516004 0.750000 0.828663
O O17 0.515966 0.644882 0.903705
O O18 0.750000 0.089544 0.071553
O O19 0.750000 0.816239 0.331005
O O20 0.498911 0.750000 0.315568
O O21 0.473382 0.857586 0.271708
O O22 0.750000 0.063991 0.739824
#
# Coordination Sequence:
#
# PCOD9448198 Si02
#       8
#     8   8   8   8   8   8   8   8
#     4  10  20  35  59  85 105 134 177 221 266 319
#     4   8  14  26  46  70  94 126 171 218 258 295
#     4  10  22  36  52  78 111 148 187 229 275 321
#     4  10  19  32  51  75 105 142 184 225 265 313
#     4  10  21  36  54  79 112 147 180 217 270 335
#     4   9  19  37  58  80 107 137 171 217 272 325
#     4   9  18  34  55  75  97 131 176 221 261 306
#     4  11  22  35  52  78 111 141 172 213 265 321
#
# _framework density 20.293816
#
# number of rings (size 3 to 8) (size 9 to 14) (size 15 to 20)
#    0.000    2.375    0.000    3.375    0.000    4.500 
#    0.000    1.250    0.000    3.000    0.000    0.000 
#    0.000    0.000    0.000    0.000    0.000    0.000 
#
# Total GULP energy -356814.890468 kJ/mol
# GULP energy per Si atom -5575.232664 kJ/mol
# Density = 2.024763 g / cm^3
# Si number density = 20.293816 Si / 1000 Ang^3
#
#
#
# Elastic Constant Matrix: (Units=GPa)
#
#
# Indices 1 2 3 4 5 6 
#
# 1 17.7479 13.4753 6.2911 0.0000 0.0000 0.0000
# 2 13.4753 131.7946 58.1094 0.0000 0.0000 0.0000
# 3 6.2911 58.1094 83.8130 0.0000 0.0000 0.0000
# 4 0.0000 0.0000 0.0000 32.8962 0.0000 0.0000
# 5 0.0000 0.0000 0.0000 0.0000 23.2400 0.0000
# 6 0.0000 0.0000 0.0000 0.0000 0.0000 17.3353
#
#
#
# Elastic Compliance Matrix: (Units=1/GPa)
#
#
# Indices 1 2 3 4 5 6 
#
# 1 0.061095 -0.006085 -0.000367 0.000000 0.000000 0.000000
# 2 -0.006085 0.011534 -0.007540 0.000000 0.000000 0.000000
# 3 -0.000367 -0.007540 0.017187 0.000000 0.000000 0.000000
# 4 0.000000 0.000000 0.000000 0.030399 0.000000 0.000000
# 5 0.000000 0.000000 0.000000 0.000000 0.043029 0.000000
# 6 0.000000 0.000000 0.000000 0.000000 0.000000 0.057686
#
#
# Mechanical properties :
#
#
# Convention : Reuss Voigt Hill
#
# Bulk Modulus (GPa) = 16.17300 43.23412 29.70356
# Shear Modulus (GPa) = 18.55122 25.05961 21.80542
#
# Velocity S-wave (km/s) = 3.02674 3.51784 3.28149
# Velocity P-wave (km/s) = 4.49462 6.15229 5.38759
#
# Compressibility (1/GPa) = 0.06183145
#
# Stress axis : x y z
#
# Youngs Moduli (GPa) = 16.36804 86.69830 58.18457
#
# Poissons Ratio (x) = 0.52754 0.02136
# Poissons Ratio (y) = 0.09960 0.43872
# Poissons Ratio (z) = 0.00601 0.65372
#
# Static dielectric constant tensor:
#      x y z
#    x 1.740010 0.000000 0.000000 
#    y 0.000000 1.771730 0.000000 
#    z 0.000000 0.000000 1.700420 
# 
# From -- ./inp_files/21432.got.cif
#   From: 2010.05.17/outbox.cif.g08.bks.cpg/sg59_11_cif.got.tgz:21432.got - 2010.06.03 14:40:33.
