data_PCOD9448635
_publ_section_title
;
Structure prediction by ZEFSAII (Michael W. Deem and Ramdas Pophale) SiO2 
 PCOD9448635
Probable space group: P M M N
;
_chemical_formula_sum "Si O2"
_cell_formula_units_Z 40
_cell_length_a 17.752929
_cell_length_b 13.611773
_cell_length_c 9.419039
_cell_angle_alpha 90.000000
_cell_angle_beta 90.000000
_cell_angle_gamma 90.000000
_cell_volume 2276.099845
_symmetry_space_group_name_H-M "P M M N"
_symmetry_group_IT_number 59
_space_group.IT_coordinate_system_code '2'
_symmetry_cell_setting 'orthorhombic'
loop_
_space_group_symop_operation_xyz
x,y,z
1/2-x,1/2-y,z
1/2+x,-y,-z
-x,1/2+y,-z
-x,-y,-z
1/2+x,1/2+y,-z
1/2-x,y,z
x,1/2-y,z
loop_
_atom_site_type_symbol
_atom_site_label
_atom_site_fract_x
_atom_site_fract_y
_atom_site_fract_z
Si Si1 0.911214 0.361002 0.160209
Si Si2 0.494206 0.138069 0.870020
Si Si3 0.528402 0.534475 0.652751
Si Si4 0.662416 0.865014 0.513166
Si Si5 0.335334 0.437407 0.811746
O O1 0.882534 0.250000 0.170657
O O2 0.849293 0.446521 0.167811
O O3 0.970877 0.385773 0.283837
O O4 0.958989 0.370962 0.014839
O O5 0.501538 0.250000 0.817768
O O6 0.405251 0.114810 0.890448
O O7 0.524451 0.057553 0.759508
O O8 0.500000 0.500000 0.500000
O O9 0.609742 0.580354 0.624894
O O10 0.750000 0.872981 0.551440
O O11 0.642091 0.750000 0.504618
O O12 0.654163 0.910030 0.354741
O O13 0.250000 0.409284 0.851777
#
# Coordination Sequence:
#
# PCOD9448635 Si02
#       5
#     8   8   8   8   8
#     4  10  21  37  55  78 111 145 181 220 264 322
#     4  10  21  37  56  81 111 143 181 222 266 321
#     4  11  19  33  56  82 107 138 181 223 265 317
#     4  10  20  34  53  81 114 141 172 223 278 321
#     4  10  19  33  54  80 107 139 178 223 271 318
#
# _framework density 17.573920999999999
#
# number of rings (size 3 to 8) (size 9 to 14) (size 15 to 20)
#    0.000    1.800    4.000    3.600    0.000    2.400 
#    0.000    4.000    0.000    3.000    0.000    0.000 
#    0.000    0.000    0.000    0.000    0.000    0.000 
#
# Total GULP energy -223115.789128 kJ/mol
# GULP energy per Si atom -5577.894728 kJ/mol
# Density = 1.753392 g / cm^3
# Si number density = 17.573921 Si / 1000 Ang^3
#
#
#
# Elastic Constant Matrix: (Units=GPa)
#
#
# Indices 1 2 3 4 5 6 
#
# 1 77.4954 33.8369 16.0912 0.0000 0.0000 0.0000
# 2 33.8369 114.6014 23.9016 0.0000 0.0000 0.0000
# 3 16.0912 23.9016 49.2262 0.0000 0.0000 0.0000
# 4 0.0000 0.0000 0.0000 24.4650 0.0000 0.0000
# 5 0.0000 0.0000 0.0000 0.0000 16.9554 0.0000
# 6 0.0000 0.0000 0.0000 0.0000 0.0000 18.1796
#
#
#
# Elastic Compliance Matrix: (Units=1/GPa)
#
#
# Indices 1 2 3 4 5 6 
#
# 1 0.015230 -0.003848 -0.003110 0.000000 0.000000 0.000000
# 2 -0.003848 0.010681 -0.003928 0.000000 0.000000 0.000000
# 3 -0.003110 -0.003928 0.023238 0.000000 0.000000 0.000000
# 4 0.000000 0.000000 0.000000 0.040875 0.000000 0.000000
# 5 0.000000 0.000000 0.000000 0.000000 0.058978 0.000000
# 6 0.000000 0.000000 0.000000 0.000000 0.000000 0.055007
#
#
# Mechanical properties :
#
#
# Convention : Reuss Voigt Hill
#
# Bulk Modulus (GPa) = 36.52738 43.22028 39.87383
# Shear Modulus (GPa) = 21.28492 23.08622 22.18557
#
# Velocity S-wave (km/s) = 3.48396 3.62838 3.55690
# Velocity P-wave (km/s) = 6.08392 6.49618 6.29342
#
# Compressibility (1/GPa) = 0.02737672
#
# Stress axis : x y z
#
# Youngs Moduli (GPa) = 65.66004 93.62058 43.03222
#
# Poissons Ratio (x) = 0.36026 0.13383
# Poissons Ratio (y) = 0.25267 0.16905
# Poissons Ratio (z) = 0.20420 0.36778
#
# Static dielectric constant tensor:
#      x y z
#    x 1.599730 0.000000 0.000000 
#    y 0.000000 1.620180 0.000000 
#    z 0.000000 0.000000 1.580350 
# 
# From -- ./inp_files/8813.got.cif
#   From: 2010.05.17/outbox.cif.g08.bks.cpg/sg59_5_cif.got.tgz:8813.got - 2010.06.03 14:40:33.
