data_PCOD9448032
_publ_section_title
;
Structure prediction by ZEFSAII (Michael W. Deem and Ramdas Pophale) SiO2 
 PCOD9448032
Probable space group: P M M N
;
_chemical_formula_sum "Si O2"
_cell_formula_units_Z 40
_cell_length_a 15.707068
_cell_length_b 8.250076
_cell_length_c 16.166083
_cell_angle_alpha 90.000000
_cell_angle_beta 90.000000
_cell_angle_gamma 90.000000
_cell_volume 2094.873859
_symmetry_space_group_name_H-M "P M M N"
_symmetry_group_IT_number 59
_space_group.IT_coordinate_system_code '2'
_symmetry_cell_setting 'orthorhombic'
loop_
_space_group_symop_operation_xyz
x,y,z
1/2-x,1/2-y,z
1/2+x,-y,-z
-x,1/2+y,-z
-x,-y,-z
1/2+x,1/2+y,-z
1/2-x,y,z
x,1/2-y,z
loop_
_atom_site_type_symbol
_atom_site_label
_atom_site_fract_x
_atom_site_fract_y
_atom_site_fract_z
Si Si1 0.250000 0.055775 0.343982
Si Si2 0.993427 0.068742 0.908355
Si Si3 0.072947 0.554263 0.265535
Si Si4 0.107094 0.446732 0.661507
Si Si5 0.250000 0.052840 0.532906
Si Si6 0.345109 0.935798 0.837242
O O1 0.250000 0.250000 0.345432
O O2 0.250000 0.994792 0.438812
O O3 0.336398 0.999751 0.299492
O O4 0.960052 0.250000 0.916628
O O5 0.944449 0.992749 0.828801
O O6 0.090124 0.060088 0.876899
O O7 0.000000 0.000000 0.000000
O O8 0.070832 0.750000 0.261723
O O9 0.992662 0.507444 0.324974
O O10 0.111633 0.250000 0.667722
O O11 0.163580 0.494562 0.582110
O O12 0.152407 0.527011 0.740117
O O13 0.250000 0.250000 0.531698
O O14 0.250000 0.953307 0.869155
O O15 0.373340 0.750000 0.851893
#
# Coordination Sequence:
#
# PCOD9448032 Si02
#       6
#     4   8   8   8   4   8
#     4  11  23  37  55  80 111 154 195 231 274 325
#     4  10  21  38  60  83 108 141 181 226 279 333
#     4   9  20  38  58  80 109 148 186 226 280 335
#     4   9  17  33  58  81 107 146 184 228 283 330
#     4   9  18  33  55  84 115 144 187 235 278 333
#     4  10  19  31  51  82 116 143 173 218 272 327
#
# _framework density 19.094228000000001
#
# number of rings (size 3 to 8) (size 9 to 14) (size 15 to 20)
#    0.000    2.400    1.000    2.700    0.000    6.000 
#    1.800    2.000    0.000    0.000    0.000    0.000 
#    0.000    0.000    0.000    0.000    0.000    0.000 
#
# Total GULP energy -222689.135988 kJ/mol
# GULP energy per Si atom -5567.228400 kJ/mol
# Density = 1.905077 g / cm^3
# Si number density = 19.094228 Si / 1000 Ang^3
#
#
#
# Elastic Constant Matrix: (Units=GPa)
#
#
# Indices 1 2 3 4 5 6 
#
# 1 136.4793 13.0082 77.3324 0.0000 0.0000 0.0000
# 2 13.0082 9.9283 16.6755 0.0000 0.0000 0.0000
# 3 77.3324 16.6755 155.6696 0.0000 0.0000 0.0000
# 4 0.0000 0.0000 0.0000 21.6201 0.0000 0.0000
# 5 0.0000 0.0000 0.0000 0.0000 5.5737 0.0000
# 6 0.0000 0.0000 0.0000 0.0000 0.0000 22.2645
#
#
#
# Elastic Compliance Matrix: (Units=1/GPa)
#
#
# Indices 1 2 3 4 5 6 
#
# 1 0.010491 -0.006087 -0.004559 0.000000 0.000000 0.000000
# 2 -0.006087 0.126352 -0.010511 0.000000 0.000000 0.000000
# 3 -0.004559 -0.010511 0.009815 0.000000 0.000000 0.000000
# 4 0.000000 0.000000 0.000000 0.046253 0.000000 0.000000
# 5 0.000000 0.000000 0.000000 0.000000 0.179414 0.000000
# 6 0.000000 0.000000 0.000000 0.000000 0.000000 0.044915
#
#
# Mechanical properties :
#
#
# Convention : Reuss Voigt Hill
#
# Bulk Modulus (GPa) = 9.58382 57.34548 33.46465
# Shear Modulus (GPa) = 10.11458 22.89573 16.50515
#
# Velocity S-wave (km/s) = 2.30406 3.46655 2.94327
# Velocity P-wave (km/s) = 3.47971 6.79122 5.39579
#
# Compressibility (1/GPa) = 0.10434255
#
# Stress axis : x y z
#
# Youngs Moduli (GPa) = 95.32149 7.91438 101.88632
#
# Poissons Ratio (x) = 0.04818 0.46455
# Poissons Ratio (y) = 0.58023 1.07094
# Poissons Ratio (z) = 0.43462 0.08319
#
# Static dielectric constant tensor:
#      x y z
#    x 1.678160 0.000000 0.000000 
#    y 0.000000 1.683390 0.000000 
#    z 0.000000 0.000000 1.692900 
# 
# From -- ./inp_files/19997.got.cif
#   From: 2010.05.17/outbox.cif.g08.bks.cpg/sg59_10_cif.got.tgz:19997.got - 2010.06.03 14:40:33.
