data_PCOD9448080
_publ_section_title
;
Structure prediction by ZEFSAII (Michael W. Deem and Ramdas Pophale) SiO2 
 PCOD9448080
Probable space group: P M M N
;
_chemical_formula_sum "Si O2"
_cell_formula_units_Z 64
_cell_length_a 31.330015
_cell_length_b 8.435585
_cell_length_c 15.046909
_cell_angle_alpha 90.000000
_cell_angle_beta 90.000000
_cell_angle_gamma 90.000000
_cell_volume 3976.702508
_symmetry_space_group_name_H-M "P M M N"
_symmetry_group_IT_number 59
_space_group.IT_coordinate_system_code '2'
_symmetry_cell_setting 'orthorhombic'
loop_
_space_group_symop_operation_xyz
x,y,z
1/2-x,1/2-y,z
1/2+x,-y,-z
-x,1/2+y,-z
-x,-y,-z
1/2+x,1/2+y,-z
1/2-x,y,z
x,1/2-y,z
loop_
_atom_site_type_symbol
_atom_site_label
_atom_site_fract_x
_atom_site_fract_y
_atom_site_fract_z
Si Si1 0.042201 0.560246 0.447057
Si Si2 0.298712 0.440861 0.650509
Si Si3 0.380927 0.941280 0.570469
Si Si4 0.542016 0.560057 0.946062
Si Si5 0.882662 0.060018 0.066663
Si Si6 0.524029 0.558455 0.746740
Si Si7 0.700793 0.558776 0.145469
Si Si8 0.074620 0.942571 0.750845
O O1 0.040677 0.750000 0.452616
O O2 0.085987 0.505630 0.494900
O O3 0.042518 0.508248 0.344622
O O4 0.000000 0.500000 0.500000
O O5 0.250000 0.489956 0.631908
O O6 0.299892 0.250000 0.652097
O O7 0.332561 0.500747 0.578707
O O8 0.308821 0.495008 0.752374
O O9 0.380368 0.750000 0.569071
O O10 0.401772 0.997524 0.663022
O O11 0.539236 0.750000 0.946960
O O12 0.541538 0.507380 0.842851
O O13 0.500000 0.500000 0.000000
O O14 0.585970 0.506171 0.991643
O O15 0.884396 0.250000 0.062951
O O16 0.903633 0.002361 0.159213
O O17 0.833678 0.006974 0.076310
O O18 0.526531 0.750000 0.742465
O O19 0.474410 0.511230 0.747585
O O20 0.750000 0.514140 0.126795
O O21 0.698512 0.750000 0.144914
O O22 0.076024 0.750000 0.751175
#
# Coordination Sequence:
#
# PCOD9448080 Si02
#       8
#     8   8   8   8   8   8   8   8
#     4  11  22  34  50  73 100 132 171 210 249 294
#     4   9  18  31  47  71 101 129 162 205 247 292
#     4  10  19  32  48  69  99 133 167 203 243 291
#     4  11  22  35  52  74 101 134 171 210 254 300
#     4  11  20  32  50  73 101 135 172 208 248 296
#     4  10  20  37  52  67  99 135 169 211 250 289
#     4   9  18  32  48  70 102 134 165 206 252 297
#     4   9  16  29  46  67  99 132 163 203 243 281
#
# _framework density 16.093736
#
# number of rings (size 3 to 8) (size 9 to 14) (size 15 to 20)
#    0.000    2.000    3.750    1.875    0.000    2.500 
#    0.000    1.250    0.000    0.000    0.000    0.875 
#    0.000    5.000    0.000    0.000    0.000    0.000 
#
# Total GULP energy -356758.053877 kJ/mol
# GULP energy per Si atom -5574.344592 kJ/mol
# Density = 1.605711 g / cm^3
# Si number density = 16.093736 Si / 1000 Ang^3
#
#
#
# Elastic Constant Matrix: (Units=GPa)
#
#
# Indices 1 2 3 4 5 6 
#
# 1 130.1648 23.1053 68.4913 0.0000 0.0000 0.0000
# 2 23.1053 25.4108 23.1517 0.0000 0.0000 0.0000
# 3 68.4913 23.1517 114.7965 0.0000 0.0000 0.0000
# 4 0.0000 0.0000 0.0000 21.8374 0.0000 0.0000
# 5 0.0000 0.0000 0.0000 0.0000 23.4897 0.0000
# 6 0.0000 0.0000 0.0000 0.0000 0.0000 25.0460
#
#
#
# Elastic Compliance Matrix: (Units=1/GPa)
#
#
# Indices 1 2 3 4 5 6 
#
# 1 0.011746 -0.005262 -0.005947 0.000000 0.000000 0.000000
# 2 -0.005262 0.050570 -0.007059 0.000000 0.000000 0.000000
# 3 -0.005947 -0.007059 0.013683 0.000000 0.000000 0.000000
# 4 0.000000 0.000000 0.000000 0.045793 0.000000 0.000000
# 5 0.000000 0.000000 0.000000 0.000000 0.042572 0.000000
# 6 0.000000 0.000000 0.000000 0.000000 0.000000 0.039927
#
#
# Mechanical properties :
#
#
# Convention : Reuss Voigt Hill
#
# Bulk Modulus (GPa) = 25.34067 55.54096 40.44082
# Shear Modulus (GPa) = 19.68666 24.44954 22.06810
#
# Velocity S-wave (km/s) = 3.50129 3.90191 3.70702
# Velocity P-wave (km/s) = 5.66791 7.40849 6.59587
#
# Compressibility (1/GPa) = 0.03946226
#
# Stress axis : x y z
#
# Youngs Moduli (GPa) = 85.13771 19.77472 73.08515
#
# Poissons Ratio (x) = 0.10406 0.43461
# Poissons Ratio (y) = 0.44800 0.51592
# Poissons Ratio (z) = 0.50628 0.13959
#
# Static dielectric constant tensor:
#      x y z
#    x 1.554680 0.000000 0.000000 
#    y 0.000000 1.558390 0.000000 
#    z 0.000000 0.000000 1.541640 
# 
# From -- ./inp_files/25086.got.cif
#   From: 2010.05.17/outbox.cif.g08.bks.cpg/sg59_13_cif.got.tgz:25086.got - 2010.06.03 14:40:33.
