data_PCOD9448766
_publ_section_title
;
Structure prediction by ZEFSAII (Michael W. Deem and Ramdas Pophale) SiO2 
 PCOD9448766
Probable space group: P M M N
;
_chemical_formula_sum "Si O2"
_cell_formula_units_Z 64
_cell_length_a 13.639661
_cell_length_b 27.457449
_cell_length_c 9.444574
_cell_angle_alpha 90.000000
_cell_angle_beta 90.000000
_cell_angle_gamma 90.000000
_cell_volume 3537.090207
_symmetry_space_group_name_H-M "P M M N"
_symmetry_group_IT_number 59
_space_group.IT_coordinate_system_code '2'
_symmetry_cell_setting 'orthorhombic'
loop_
_space_group_symop_operation_xyz
x,y,z
1/2-x,1/2-y,z
1/2+x,-y,-z
-x,1/2+y,-z
-x,-y,-z
1/2+x,1/2+y,-z
1/2-x,y,z
x,1/2-y,z
loop_
_atom_site_type_symbol
_atom_site_label
_atom_site_fract_x
_atom_site_fract_y
_atom_site_fract_z
Si Si1 0.635282 0.087034 0.173172
Si Si2 0.477022 0.021675 0.344826
Si Si3 0.532558 0.454354 0.908435
Si Si4 0.636123 0.193695 0.083969
Si Si5 0.063093 0.306319 0.950371
Si Si6 0.364604 0.108389 0.780902
Si Si7 0.866476 0.609336 0.542435
Si Si8 0.631742 0.805570 0.738080
O O1 0.750000 0.077156 0.199299
O O2 0.567953 0.051918 0.272079
O O3 0.619654 0.146013 0.183854
O O4 0.607954 0.074146 0.009234
O O5 0.395919 0.062942 0.366565
O O6 0.500000 0.000000 0.500000
O O7 0.440248 0.978625 0.241624
O O8 0.436152 0.422516 0.879427
O O9 0.500000 0.500000 0.000000
O O10 0.750000 0.190372 0.039017
O O11 0.622603 0.250000 0.139755
O O12 0.554770 0.188993 0.960597
O O13 0.088614 0.250000 0.936155
O O14 0.116288 0.336904 0.831308
O O15 0.099419 0.322379 0.106156
O O16 0.250000 0.095375 0.794122
O O17 0.398383 0.102698 0.619197
O O18 0.750000 0.613882 0.535829
O O19 0.905000 0.657727 0.618735
O O20 0.750000 0.805414 0.736021
O O21 0.598317 0.750000 0.717591
#
# Coordination Sequence:
#
# PCOD9448766 Si02
#       8
#     8   8   8   8   8   8   8   8
#     4  10  21  38  61  87 114 148 192 242 296 352
#     4  11  22  39  59  80 115 150 193 245 288 350
#     4  10  22  38  56  81 111 147 189 245 288 337
#     4   9  17  31  55  85 114 144 183 233 287 343
#     4  10  19  33  56  85 116 148 188 237 284 337
#     4  11  22  37  56  81 115 151 190 233 289 347
#     4  10  22  37  56  81 112 152 189 229 282 348
#     4   9  18  33  53  80 113 148 186 226 272 335
#
# _framework density 18.093969000000001
#
# number of rings (size 3 to 8) (size 9 to 14) (size 15 to 20)
#    0.000    2.000    2.500    1.125    1.750    4.250 
#    0.000    1.250    0.000    0.750    0.000    0.000 
#    0.000    8.000    0.000    0.000    0.000    0.000 
#
# Total GULP energy -356367.346373 kJ/mol
# GULP energy per Si atom -5568.239787 kJ/mol
# Density = 1.805279 g / cm^3
# Si number density = 18.093969 Si / 1000 Ang^3
#
#
#
# Elastic Constant Matrix: (Units=GPa)
#
#
# Indices 1 2 3 4 5 6 
#
# 1 33.4011 7.9975 14.9463 0.0000 0.0000 0.0000
# 2 7.9975 70.1642 25.7983 0.0000 0.0000 0.0000
# 3 14.9463 25.7983 68.5376 0.0000 0.0000 0.0000
# 4 0.0000 0.0000 0.0000 30.8931 0.0000 0.0000
# 5 0.0000 0.0000 0.0000 0.0000 22.8569 0.0000
# 6 0.0000 0.0000 0.0000 0.0000 0.0000 25.5714
#
#
#
# Elastic Compliance Matrix: (Units=1/GPa)
#
#
# Indices 1 2 3 4 5 6 
#
# 1 0.033279 -0.001306 -0.006766 0.000000 0.000000 0.000000
# 2 -0.001306 0.016593 -0.005961 0.000000 0.000000 0.000000
# 3 -0.006766 -0.005961 0.018310 0.000000 0.000000 0.000000
# 4 0.000000 0.000000 0.000000 0.032370 0.000000 0.000000
# 5 0.000000 0.000000 0.000000 0.000000 0.043750 0.000000
# 6 0.000000 0.000000 0.000000 0.000000 0.000000 0.039106
#
#
# Mechanical properties :
#
#
# Convention : Reuss Voigt Hill
#
# Bulk Modulus (GPa) = 24.92711 29.95414 27.44062
# Shear Modulus (GPa) = 22.23746 24.08833 23.16289
#
# Velocity S-wave (km/s) = 3.50951 3.65264 3.58179
# Velocity P-wave (km/s) = 5.49805 5.86343 5.68368
#
# Compressibility (1/GPa) = 0.04011697
#
# Stress axis : x y z
#
# Youngs Moduli (GPa) = 30.04862 60.26683 54.61553
#
# Poissons Ratio (x) = 0.07868 0.36953
# Poissons Ratio (y) = 0.03923 0.32556
# Poissons Ratio (z) = 0.20331 0.35925
#
# Static dielectric constant tensor:
#      x y z
#    x 1.634140 0.000000 0.000000 
#    y 0.000000 1.645290 0.000000 
#    z 0.000000 0.000000 1.634530 
# 
# From -- ./inp_files/9768.got.cif
#   From: 2010.05.17/outbox.cif.g08.bks.cpg/sg59_5_cif.got.tgz:9768.got - 2010.06.03 14:40:33.
