data_PCOD9448874
_publ_section_title
;
Structure prediction by ZEFSAII (Michael W. Deem and Ramdas Pophale) SiO2 
 PCOD9448874
Probable space group: P M M N
;
_chemical_formula_sum "Si O2"
_cell_formula_units_Z 56
_cell_length_a 8.821886
_cell_length_b 24.688211
_cell_length_c 15.098288
_cell_angle_alpha 90.000000
_cell_angle_beta 90.000000
_cell_angle_gamma 90.000000
_cell_volume 3288.355535
_symmetry_space_group_name_H-M "P M M N"
_symmetry_group_IT_number 59
_space_group.IT_coordinate_system_code '2'
_symmetry_cell_setting 'orthorhombic'
loop_
_space_group_symop_operation_xyz
x,y,z
1/2-x,1/2-y,z
1/2+x,-y,-z
-x,1/2+y,-z
-x,-y,-z
1/2+x,1/2+y,-z
1/2-x,y,z
x,1/2-y,z
loop_
_atom_site_type_symbol
_atom_site_label
_atom_site_fract_x
_atom_site_fract_y
_atom_site_fract_z
Si Si1 0.432213 0.553550 0.326417
Si Si2 0.070613 0.080726 0.053863
Si Si3 0.930458 0.750000 0.709409
Si Si4 0.569086 0.041310 0.878960
Si Si5 0.069123 0.750000 0.512337
Si Si6 0.931851 0.569478 0.640820
Si Si7 0.069235 0.136726 0.537689
Si Si8 0.929464 0.143010 0.208568
O O1 0.250000 0.559883 0.333164
O O2 0.472564 0.553081 0.222348
O O3 0.470412 0.493988 0.365050
O O4 0.512607 0.600429 0.381107
O O5 0.250000 0.090405 0.059731
O O6 0.981055 0.124138 0.111675
O O7 0.039167 0.021675 0.097598
O O8 0.017040 0.076099 0.952670
O O9 0.750000 0.750000 0.699387
O O10 0.004516 0.750000 0.612238
O O11 0.985722 0.697032 0.760794
O O12 0.750000 0.049339 0.888637
O O13 0.250000 0.750000 0.514567
O O14 0.009071 0.695138 0.467229
O O15 0.750000 0.573108 0.657360
O O16 0.966737 0.602993 0.552128
O O17 0.017837 0.596848 0.722343
O O18 0.250000 0.143788 0.540569
O O19 0.750000 0.150594 0.213364
#
# Coordination Sequence:
#
# PCOD9448874 Si02
#       8
#     8   8   4   8   4   8   8   8
#     4  10  20  36  56  81 117 155 192 234 282 336
#     4  10  19  34  55  80 113 149 183 228 280 333
#     4  12  24  40  60  81 112 149 188 234 286 336
#     4   9  18  33  54  81 112 148 187 230 277 331
#     4  12  24  40  60  83 108 145 194 238 282 334
#     4  10  20  36  55  79 116 156 187 229 283 335
#     4  11  23  37  57  82 113 152 192 237 285 335
#     4  12  23  35  56  85 115 149 190 232 277 340
#
# _framework density 17.029789000000001
#
# number of rings (size 3 to 8) (size 9 to 14) (size 15 to 20)
#    0.000    1.429    2.857    3.857    0.000    2.286 
#    0.000    0.000    0.000    0.857    0.000    1.000 
#    0.000    0.000    0.000    0.000    0.000    0.000 
#
# Total GULP energy -312905.815945 kJ/mol
# GULP energy per Si atom -5587.603856 kJ/mol
# Density = 1.699103 g / cm^3
# Si number density = 17.029789 Si / 1000 Ang^3
#
#
#
# Elastic Constant Matrix: (Units=GPa)
#
#
# Indices 1 2 3 4 5 6 
#
# 1 70.1749 59.1964 49.0295 0.0000 0.0000 0.0000
# 2 59.1964 122.7244 58.2172 0.0000 0.0000 0.0000
# 3 49.0295 58.2172 89.5176 0.0000 0.0000 0.0000
# 4 0.0000 0.0000 0.0000 13.6953 0.0000 0.0000
# 5 0.0000 0.0000 0.0000 0.0000 29.6558 0.0000
# 6 0.0000 0.0000 0.0000 0.0000 0.0000 18.4035
#
#
#
# Elastic Compliance Matrix: (Units=1/GPa)
#
#
# Indices 1 2 3 4 5 6 
#
# 1 0.028959 -0.009319 -0.009800 0.000000 0.000000 0.000000
# 2 -0.009319 0.014783 -0.004510 0.000000 0.000000 0.000000
# 3 -0.009800 -0.004510 0.019471 0.000000 0.000000 0.000000
# 4 0.000000 0.000000 0.000000 0.073018 0.000000 0.000000
# 5 0.000000 0.000000 0.000000 0.000000 0.033720 0.000000
# 6 0.000000 0.000000 0.000000 0.000000 0.000000 0.054337
#
#
# Mechanical properties :
#
#
# Convention : Reuss Voigt Hill
#
# Bulk Modulus (GPa) = 62.67757 68.36701 65.52229
# Shear Modulus (GPa) = 18.05938 20.08251 19.07095
#
# Velocity S-wave (km/s) = 3.26000 3.43776 3.35006
# Velocity P-wave (km/s) = 7.14526 7.48266 7.31591
#
# Compressibility (1/GPa) = 0.01595467
#
# Stress axis : x y z
#
# Youngs Moduli (GPa) = 34.53212 67.64635 51.35749
#
# Poissons Ratio (x) = 0.63042 0.50331
# Poissons Ratio (y) = 0.32182 0.23160
# Poissons Ratio (z) = 0.33842 0.30506
#
# Static dielectric constant tensor:
#      x y z
#    x 1.567300 0.000000 0.000000 
#    y 0.000000 1.561010 0.000000 
#    z 0.000000 0.000000 1.562940 
# 
# From -- ./inp_files/21181.got.cif
#   From: 2010.05.17/outbox.cif.g08.bks.cpg/sg59_11_cif.got.tgz:21181.got - 2010.06.03 14:40:33.
