data_PCOD9448711
_publ_section_title
;
Structure prediction by ZEFSAII (Michael W. Deem and Ramdas Pophale) SiO2 
 PCOD9448711
Probable space group: P M M N
;
_chemical_formula_sum "Si O2"
_cell_formula_units_Z 64
_cell_length_a 19.105281
_cell_length_b 9.042175
_cell_length_c 19.418859
_cell_angle_alpha 90.000000
_cell_angle_beta 90.000000
_cell_angle_gamma 90.000000
_cell_volume 3354.671862
_symmetry_space_group_name_H-M "P M M N"
_symmetry_group_IT_number 59
_space_group.IT_coordinate_system_code '2'
_symmetry_cell_setting 'orthorhombic'
loop_
_space_group_symop_operation_xyz
x,y,z
1/2-x,1/2-y,z
1/2+x,-y,-z
-x,1/2+y,-z
-x,-y,-z
1/2+x,1/2+y,-z
1/2-x,y,z
x,1/2-y,z
loop_
_atom_site_type_symbol
_atom_site_label
_atom_site_fract_x
_atom_site_fract_y
_atom_site_fract_z
Si Si1 0.092760 0.075617 0.214062
Si Si2 0.089876 0.074110 0.932400
Si Si3 0.831435 0.428502 0.195786
Si Si4 0.047273 0.924399 0.704377
Si Si5 0.043932 0.075049 0.561395
Si Si6 0.333910 0.080330 0.354832
Si Si7 0.422865 0.575091 0.074585
Si Si8 0.333504 0.577947 0.495289
O O1 0.104824 0.250000 0.201224
O O2 0.136739 0.032135 0.281390
O O3 0.012299 0.057473 0.237744
O O4 0.108042 0.984983 0.145725
O O5 0.100235 0.250000 0.932102
O O6 0.006740 0.045108 0.921778
O O7 0.134638 0.000069 0.872039
O O8 0.106212 0.006815 0.007316
O O9 0.750000 0.468326 0.203392
O O10 0.836343 0.250000 0.189716
O O11 0.879374 0.470489 0.261351
O O12 0.050446 0.750000 0.686644
O O13 0.025956 0.012942 0.636567
O O14 0.035903 0.250000 0.558270
O O15 0.123486 0.023665 0.546956
O O16 0.000000 0.000000 0.500000
O O17 0.250000 0.083935 0.351683
O O18 0.358911 0.250000 0.367698
O O19 0.352957 0.976065 0.418397
O O20 0.413243 0.750000 0.067388
O O21 0.250000 0.561967 0.502987
O O22 0.351669 0.750000 0.504917
#
# Coordination Sequence:
#
# PCOD9448711 Si02
#       8
#     8   8   8   8   8   8   8   8
#     4  10  19  33  55  81 111 148 186 230 280 336
#     4  10  20  35  56  82 111 145 188 235 283 332
#     4  10  21  38  60  85 117 156 194 237 290 345
#     4  10  21  37  57  83 115 150 193 237 287 347
#     4  12  25  40  60  86 118 153 194 245 299 350
#     4   9  18  33  54  81 112 146 184 227 280 341
#     4  10  20  33  55  83 111 143 185 235 283 331
#     4  10  21  38  60  84 111 147 191 237 288 349
#
# _framework density 19.077873
#
# number of rings (size 3 to 8) (size 9 to 14) (size 15 to 20)
#    0.000    1.875    1.250    3.000    0.000    5.000 
#    0.000    1.875    0.000    2.250    0.000    0.000 
#    0.000    0.000    0.000    0.000    0.000    0.000 
#
# Total GULP energy -357491.236666 kJ/mol
# GULP energy per Si atom -5585.800573 kJ/mol
# Density = 1.903445 g / cm^3
# Si number density = 19.077873 Si / 1000 Ang^3
#
#
#
# Elastic Constant Matrix: (Units=GPa)
#
#
# Indices 1 2 3 4 5 6 
#
# 1 38.2716 19.1665 10.0120 0.0000 0.0000 0.0000
# 2 19.1665 60.3781 41.8729 0.0000 0.0000 0.0000
# 3 10.0120 41.8729 87.5730 0.0000 0.0000 0.0000
# 4 0.0000 0.0000 0.0000 36.9326 0.0000 0.0000
# 5 0.0000 0.0000 0.0000 0.0000 30.4040 0.0000
# 6 0.0000 0.0000 0.0000 0.0000 0.0000 22.0862
#
#
#
# Elastic Compliance Matrix: (Units=1/GPa)
#
#
# Indices 1 2 3 4 5 6 
#
# 1 0.031247 -0.011133 0.001751 0.000000 0.000000 0.000000
# 2 -0.011133 0.028746 -0.012472 0.000000 0.000000 0.000000
# 3 0.001751 -0.012472 0.017182 0.000000 0.000000 0.000000
# 4 0.000000 0.000000 0.000000 0.027076 0.000000 0.000000
# 5 0.000000 0.000000 0.000000 0.000000 0.032890 0.000000
# 6 0.000000 0.000000 0.000000 0.000000 0.000000 0.045277
#
#
# Mechanical properties :
#
#
# Convention : Reuss Voigt Hill
#
# Bulk Modulus (GPa) = 29.88082 36.48062 33.18072
# Shear Modulus (GPa) = 21.07192 25.56265 23.31728
#
# Velocity S-wave (km/s) = 3.32704 3.66445 3.49981
# Velocity P-wave (km/s) = 5.51865 6.08833 5.81047
#
# Compressibility (1/GPa) = 0.03346629
#
# Stress axis : x y z
#
# Youngs Moduli (GPa) = 32.00348 34.78755 58.19938
#
# Poissons Ratio (x) = 0.38730 -0.10191
# Poissons Ratio (y) = 0.35631 0.72586
# Poissons Ratio (z) = -0.05604 0.43387
#
# Static dielectric constant tensor:
#      x y z
#    x 1.696800 0.000000 0.000000 
#    y 0.000000 1.640500 0.000000 
#    z 0.000000 0.000000 1.640890 
# 
# From -- ./inp_files/28261.got.cif
#   From: 2010.05.17/outbox.cif.g08.bks.cpg/sg59_15_cif.got.tgz:28261.got - 2010.06.03 14:40:33.
