data_PCOD9448183
_publ_section_title
;
Structure prediction by ZEFSAII (Michael W. Deem and Ramdas Pophale) SiO2 
 PCOD9448183
Probable space group: P M M N
;
_chemical_formula_sum "Si O2"
_cell_formula_units_Z 40
_cell_length_a 7.443934
_cell_length_b 26.491248
_cell_length_c 9.446969
_cell_angle_alpha 90.000000
_cell_angle_beta 90.000000
_cell_angle_gamma 90.000000
_cell_volume 1862.933800
_symmetry_space_group_name_H-M "P M M N"
_symmetry_group_IT_number 59
_space_group.IT_coordinate_system_code '2'
_symmetry_cell_setting 'orthorhombic'
loop_
_space_group_symop_operation_xyz
x,y,z
1/2-x,1/2-y,z
1/2+x,-y,-z
-x,1/2+y,-z
-x,-y,-z
1/2+x,1/2+y,-z
1/2-x,y,z
x,1/2-y,z
loop_
_atom_site_type_symbol
_atom_site_label
_atom_site_fract_x
_atom_site_fract_y
_atom_site_fract_z
Si Si1 0.030630 0.693059 0.150596
Si Si2 0.529901 0.405401 0.343185
Si Si3 0.963186 0.997773 0.166680
Si Si4 0.531259 0.193263 0.175443
Si Si5 0.458813 0.601804 0.338483
O O1 0.250000 0.691804 0.150182
O O2 0.977792 0.750000 0.190431
O O3 0.963962 0.649746 0.255052
O O4 0.976808 0.684003 0.987557
O O5 0.750000 0.406469 0.339948
O O6 0.469027 0.452557 0.248317
O O7 0.473089 0.352297 0.274994
O O8 0.467955 0.409348 0.505408
O O9 0.750000 0.996399 0.185182
O O10 0.033413 0.947076 0.239307
O O11 0.000000 0.000000 0.000000
O O12 0.750000 0.193409 0.177125
O O13 0.474062 0.250000 0.216071
O O14 0.250000 0.614330 0.362370
#
# Coordination Sequence:
#
# PCOD9448183 Si02
#       5
#     8   8   8   8   8
#     4   8  14  25  44  71 101 132 165 201 241 287
#     4   9  18  30  46  71 101 131 161 199 247 297
#     4  11  22  36  53  72  97 130 169 208 250 300
#     4   8  13  23  40  64  96 130 161 195 237 284
#     4  10  19  32  51  75 103 131 162 202 248 296
#
# _framework density 21.471506999999999
#
# number of rings (size 3 to 8) (size 9 to 14) (size 15 to 20)
#    0.000    2.800    0.000    3.600    0.000    4.000 
#    0.000    5.000    0.000    0.600    0.000    0.000 
#    0.000    5.600    0.000    0.000    0.000    0.000 
#
# Total GULP energy -223362.850695 kJ/mol
# GULP energy per Si atom -5584.071267 kJ/mol
# Density = 2.142264 g / cm^3
# Si number density = 21.471507 Si / 1000 Ang^3
#
#
#
# Elastic Constant Matrix: (Units=GPa)
#
#
# Indices 1 2 3 4 5 6 
#
# 1 61.3987 -12.3888 -10.7615 0.0000 0.0000 0.0000
# 2 -12.3888 174.4002 120.9956 0.0000 0.0000 0.0000
# 3 -10.7615 120.9956 177.3702 0.0000 0.0000 0.0000
# 4 0.0000 0.0000 0.0000 -8.6142 0.0000 0.0000
# 5 0.0000 0.0000 0.0000 0.0000 2.4126 0.0000
# 6 0.0000 0.0000 0.0000 0.0000 0.0000 9.3681
#
#
#
# Elastic Compliance Matrix: (Units=1/GPa)
#
#
# Indices 1 2 3 4 5 6 
#
# 1 0.016538 0.000909 0.000383 0.000000 0.000000 0.000000
# 2 0.000909 0.010936 -0.007405 0.000000 0.000000 0.000000
# 3 0.000383 -0.007405 0.010713 0.000000 0.000000 0.000000
# 4 0.000000 0.000000 0.000000 -0.116087 0.000000 0.000000
# 5 0.000000 0.000000 0.000000 0.000000 0.414483 0.000000
# 6 0.000000 0.000000 0.000000 0.000000 0.000000 0.106745
#
#
# Mechanical properties :
#
#
# Convention : Reuss Voigt Hill
#
# Bulk Modulus (GPa) = 38.51998 67.65108 53.08553
# Shear Modulus (GPa) = 10.77109 21.65490 16.21300
#
# Velocity S-wave (km/s) = 2.24217 3.17920 2.75088
# Velocity P-wave (km/s) = 4.96811 6.71209 5.90484
#
# Compressibility (1/GPa) = 0.02596055
#
# Stress axis : x y z
#
# Youngs Moduli (GPa) = 60.46841 91.44189 93.34817
#
# Poissons Ratio (x) = -0.08309 -0.03580
# Poissons Ratio (y) = -0.05495 0.69124
# Poissons Ratio (z) = -0.02319 0.67712
#
# Static dielectric constant tensor:
#      x y z
#    x 1.877050 0.000000 0.000000 
#    y 0.000000 1.738990 0.000000 
#    z 0.000000 0.000000 1.727080 
# 
# From -- ./inp_files/5647.got.cif
#   From: 2010.05.17/outbox.cif.g08.bks.cpg/sg59_3_cif.got.tgz:5647.got - 2010.06.03 14:40:33.
