data_PCOD9448707
_publ_section_title
;
Structure prediction by ZEFSAII (Michael W. Deem and Ramdas Pophale) SiO2 
 PCOD9448707
Probable space group: P M M N
;
_chemical_formula_sum "Si O2"
_cell_formula_units_Z 56
_cell_length_a 20.199440
_cell_length_b 8.709684
_cell_length_c 16.255253
_cell_angle_alpha 90.000000
_cell_angle_beta 90.000000
_cell_angle_gamma 90.000000
_cell_volume 2859.798679
_symmetry_space_group_name_H-M "P M M N"
_symmetry_group_IT_number 59
_space_group.IT_coordinate_system_code '2'
_symmetry_cell_setting 'orthorhombic'
loop_
_space_group_symop_operation_xyz
x,y,z
1/2-x,1/2-y,z
1/2+x,-y,-z
-x,1/2+y,-z
-x,-y,-z
1/2+x,1/2+y,-z
1/2-x,y,z
x,1/2-y,z
loop_
_atom_site_type_symbol
_atom_site_label
_atom_site_fract_x
_atom_site_fract_y
_atom_site_fract_z
Si Si1 0.584872 0.064099 0.340620
Si Si2 0.455600 0.067271 0.072823
Si Si3 0.827026 0.435022 0.999535
Si Si4 0.674658 0.436517 0.187807
Si Si5 0.675538 0.066225 0.666045
Si Si6 0.825402 0.566382 0.483116
Si Si7 0.453918 0.435221 0.256824
O O1 0.587542 0.250000 0.345517
O O2 0.625944 0.014393 0.259615
O O3 0.509184 0.018084 0.323448
O O4 0.620748 0.995971 0.419694
O O5 0.460956 0.250000 0.069005
O O6 0.475880 0.018477 0.164852
O O7 0.380268 0.014909 0.057812
O O8 0.500000 0.000000 0.000000
O O9 0.750000 0.471133 0.982807
O O10 0.834144 0.250000 0.993860
O O11 0.841891 0.481513 0.094361
O O12 0.750000 0.485579 0.205271
O O13 0.674094 0.250000 0.187367
O O14 0.750000 0.019959 0.692256
O O15 0.672651 0.250000 0.665270
O O16 0.665679 0.004136 0.573515
O O17 0.617407 0.001347 0.721956
O O18 0.750000 0.525945 0.455685
O O19 0.829747 0.750000 0.488601
O O20 0.450493 0.250000 0.257882
#
# Coordination Sequence:
#
# PCOD9448707 Si02
#       7
#     8   8   8   8   8   8   8
#     4  10  19  33  55  81 110 145 188 230 267 322
#     4  11  23  39  59  82 112 150 192 236 283 338
#     4   9  18  34  56  81 110 145 186 233 286 342
#     4   8  14  27  50  78 108 145 185 224 268 320
#     4  10  22  41  64  87 110 142 188 235 277 328
#     4  10  21  37  58  85 117 150 181 219 273 330
#     4  10  23  40  58  83 113 148 187 229 283 338
#
# _framework density 19.581797999999999
#
# number of rings (size 3 to 8) (size 9 to 14) (size 15 to 20)
#    0.000    2.286    0.000    3.429    0.000    7.714 
#    0.000    5.000    0.000    0.857    0.000    0.000 
#    0.000    0.000    0.000    0.000    0.000    0.000 
#
# Total GULP energy -312675.376486 kJ/mol
# GULP energy per Si atom -5583.488866 kJ/mol
# Density = 1.953723 g / cm^3
# Si number density = 19.581798 Si / 1000 Ang^3
#
#
#
# Elastic Constant Matrix: (Units=GPa)
#
#
# Indices 1 2 3 4 5 6 
#
# 1 98.2253 30.6261 53.6505 0.0000 0.0000 0.0000
# 2 30.6261 23.0181 25.0298 0.0000 0.0000 0.0000
# 3 53.6505 25.0298 67.9940 0.0000 0.0000 0.0000
# 4 0.0000 0.0000 0.0000 26.1753 0.0000 0.0000
# 5 0.0000 0.0000 0.0000 0.0000 37.9616 0.0000
# 6 0.0000 0.0000 0.0000 0.0000 0.0000 29.9088
#
#
#
# Elastic Compliance Matrix: (Units=1/GPa)
#
#
# Indices 1 2 3 4 5 6 
#
# 1 0.021131 -0.016649 -0.010545 0.000000 0.000000 0.000000
# 2 -0.016649 0.085560 -0.018359 0.000000 0.000000 0.000000
# 3 -0.010545 -0.018359 0.029786 0.000000 0.000000 0.000000
# 4 0.000000 0.000000 0.000000 0.038204 0.000000 0.000000
# 5 0.000000 0.000000 0.000000 0.000000 0.026342 0.000000
# 6 0.000000 0.000000 0.000000 0.000000 0.000000 0.033435
#
#
# Mechanical properties :
#
#
# Convention : Reuss Voigt Hill
#
# Bulk Modulus (GPa) = 22.04060 45.31668 33.67864
# Shear Modulus (GPa) = 14.67620 24.13787 19.40704
#
# Velocity S-wave (km/s) = 2.74064 3.51475 3.15155
# Velocity P-wave (km/s) = 4.61464 6.29792 5.52081
#
# Compressibility (1/GPa) = 0.04537081
#
# Stress axis : x y z
#
# Youngs Moduli (GPa) = 47.32300 11.68775 33.57326
#
# Poissons Ratio (x) = 0.19460 0.35402
# Poissons Ratio (y) = 0.78790 0.61636
# Poissons Ratio (z) = 0.49901 0.21457
#
# Static dielectric constant tensor:
#      x y z
#    x 1.693260 0.000000 0.000000 
#    y 0.000000 1.659870 0.000000 
#    z 0.000000 0.000000 1.673060 
# 
# From -- ./inp_files/24309.got.cif
#   From: 2010.05.17/outbox.cif.g08.bks.cpg/sg59_13_cif.got.tgz:24309.got - 2010.06.03 14:40:33.
