data_PCOD9448152
_publ_section_title
;
Structure prediction by ZEFSAII (Michael W. Deem and Ramdas Pophale) SiO2 
 PCOD9448152
Probable space group: P M M N
;
_chemical_formula_sum "Si O2"
_cell_formula_units_Z 64
_cell_length_a 17.957657
_cell_length_b 27.522208
_cell_length_c 7.091494
_cell_angle_alpha 90.000000
_cell_angle_beta 90.000000
_cell_angle_gamma 90.000000
_cell_volume 3504.860078
_symmetry_space_group_name_H-M "P M M N"
_symmetry_group_IT_number 59
_space_group.IT_coordinate_system_code '2'
_symmetry_cell_setting 'orthorhombic'
loop_
_space_group_symop_operation_xyz
x,y,z
1/2-x,1/2-y,z
1/2+x,-y,-z
-x,1/2+y,-z
-x,-y,-z
1/2+x,1/2+y,-z
1/2-x,y,z
x,1/2-y,z
loop_
_atom_site_type_symbol
_atom_site_label
_atom_site_fract_x
_atom_site_fract_y
_atom_site_fract_z
Si Si1 0.456610 0.896040 0.535858
Si Si2 0.559783 0.947783 0.815812
Si Si3 0.338619 0.440778 0.860426
Si Si4 0.831289 0.807548 0.897170
Si Si5 0.066362 0.560310 0.137262
Si Si6 0.661770 0.051739 0.202217
Si Si7 0.663969 0.841552 0.321728
Si Si8 0.954674 0.693322 0.620097
O O1 0.528077 0.923412 0.628760
O O2 0.447178 0.905431 0.314471
O O3 0.385817 0.918202 0.646565
O O4 0.474411 0.840182 0.581809
O O5 0.567469 0.005342 0.784576
O O6 0.633900 0.931605 0.925803
O O7 0.499018 0.938260 0.981493
O O8 0.250000 0.441156 0.861650
O O9 0.363263 0.494633 0.795881
O O10 0.360364 0.396970 0.722918
O O11 0.750000 0.827688 0.836265
O O12 0.829553 0.750000 0.855772
O O13 0.906938 0.825055 0.800019
O O14 0.835839 0.816007 0.118890
O O15 0.139339 0.568827 0.009033
O O16 0.750000 0.054342 0.233811
O O17 0.750000 0.840861 0.390215
O O18 0.605995 0.815296 0.455720
O O19 0.973092 0.750000 0.637508
#
# Coordination Sequence:
#
# PCOD9448152 Si02
#       8
#     8   8   8   8   8   8   8   8
#     4  11  21  33  54  76  98 135 174 208 258 315
#     4   9  17  31  49  74 108 138 168 204 242 295
#     4   9  17  31  51  75 107 141 171 208 250 295
#     4   9  18  33  52  72  97 136 183 221 253 292
#     4   9  18  31  52  78 103 133 165 201 248 308
#     4   9  20  38  56  78 105 129 161 209 261 318
#     4  10  19  32  51  73 102 142 178 208 247 293
#     4  11  23  35  49  74 105 135 175 225 264 295
#
# _framework density 18.260358
#
# number of rings (size 3 to 8) (size 9 to 14) (size 15 to 20)
#    0.000    2.375    0.000    3.375    0.000    3.750 
#    0.000    0.625    0.000    5.625    0.000    0.000 
#    0.000    0.000    0.000    0.000    0.000    0.000 
#
# Total GULP energy -356929.541903 kJ/mol
# GULP energy per Si atom -5577.024092 kJ/mol
# Density = 1.821880 g / cm^3
# Si number density = 18.260358 Si / 1000 Ang^3
#
#
#
# Elastic Constant Matrix: (Units=GPa)
#
#
# Indices 1 2 3 4 5 6 
#
# 1 48.7603 16.2521 5.5925 0.0000 0.0000 0.0000
# 2 16.2521 60.3096 1.5556 0.0000 0.0000 0.0000
# 3 5.5925 1.5556 46.6584 0.0000 0.0000 0.0000
# 4 0.0000 0.0000 0.0000 22.2276 0.0000 0.0000
# 5 0.0000 0.0000 0.0000 0.0000 25.8180 0.0000
# 6 0.0000 0.0000 0.0000 0.0000 0.0000 10.4931
#
#
#
# Elastic Compliance Matrix: (Units=1/GPa)
#
#
# Indices 1 2 3 4 5 6 
#
# 1 0.022828 -0.006086 -0.002533 0.000000 0.000000 0.000000
# 2 -0.006086 0.018218 0.000122 0.000000 0.000000 0.000000
# 3 -0.002533 0.000122 0.021732 0.000000 0.000000 0.000000
# 4 0.000000 0.000000 0.000000 0.044989 0.000000 0.000000
# 5 0.000000 0.000000 0.000000 0.000000 0.038733 0.000000
# 6 0.000000 0.000000 0.000000 0.000000 0.000000 0.095301
#
#
# Mechanical properties :
#
#
# Convention : Reuss Voigt Hill
#
# Bulk Modulus (GPa) = 21.84219 22.50319 22.17269
# Shear Modulus (GPa) = 18.24445 20.52960 19.38702
#
# Velocity S-wave (km/s) = 3.16433 3.35665 3.26191
# Velocity P-wave (km/s) = 5.03370 5.23193 5.13377
#
# Compressibility (1/GPa) = 0.04578295
#
# Stress axis : x y z
#
# Youngs Moduli (GPa) = 43.80666 54.89063 46.01529
#
# Poissons Ratio (x) = 0.33407 0.11657
# Poissons Ratio (y) = 0.26662 -0.00562
# Poissons Ratio (z) = 0.11097 -0.00670
#
# Static dielectric constant tensor:
#      x y z
#    x 1.672480 0.000000 0.000000 
#    y 0.000000 1.670570 0.000000 
#    z 0.000000 0.000000 1.641720 
# 
# From -- ./inp_files/3553.got.cif
#   From: 2010.05.17/outbox.cif.g08.bks.cpg/sg59_2_cif.got.tgz:3553.got - 2010.06.03 14:40:33.
