data_PCOD9448954
_publ_section_title
;
Structure prediction by ZEFSAII (Michael W. Deem and Ramdas Pophale) SiO2 
 PCOD9448954
Probable space group: P M M N
;
_chemical_formula_sum "Si O2"
_cell_formula_units_Z 64
_cell_length_a 7.765280
_cell_length_b 19.219952
_cell_length_c 20.448550
_cell_angle_alpha 90.000000
_cell_angle_beta 90.000000
_cell_angle_gamma 90.000000
_cell_volume 3051.911506
_symmetry_space_group_name_H-M "P M M N"
_symmetry_group_IT_number 59
_space_group.IT_coordinate_system_code '2'
_symmetry_cell_setting 'orthorhombic'
loop_
_space_group_symop_operation_xyz
x,y,z
1/2-x,1/2-y,z
1/2+x,-y,-z
-x,1/2+y,-z
-x,-y,-z
1/2+x,1/2+y,-z
1/2-x,y,z
x,1/2-y,z
loop_
_atom_site_type_symbol
_atom_site_label
_atom_site_fract_x
_atom_site_fract_y
_atom_site_fract_z
Si Si1 0.045445 0.934451 0.280881
Si Si2 0.452292 0.421206 0.868867
Si Si3 0.957324 0.579555 0.517303
Si Si4 0.541873 0.670674 0.395624
Si Si5 0.541378 0.828968 0.788339
Si Si6 0.045357 0.571675 0.908506
Si Si7 0.547322 0.327410 0.980683
Si Si8 0.960612 0.915994 0.664638
O O1 0.250000 0.940900 0.274287
O O2 0.975285 0.920428 0.208818
O O3 0.005596 0.873910 0.332144
O O4 0.981590 0.008113 0.309968
O O5 0.250000 0.418829 0.882694
O O6 0.526056 0.494484 0.896193
O O7 0.531457 0.357047 0.907868
O O8 0.750000 0.585560 0.518314
O O9 0.022046 0.630065 0.460124
O O10 0.019889 0.595850 0.590534
O O11 0.000000 0.500000 0.500000
O O12 0.750000 0.672301 0.398916
O O13 0.479997 0.750000 0.392746
O O14 0.750000 0.828940 0.789702
O O15 0.482044 0.750000 0.799485
O O16 0.481044 0.881430 0.844333
O O17 0.487170 0.858906 0.717899
O O18 0.250000 0.562844 0.918374
O O19 0.972774 0.615203 0.969521
O O20 0.750000 0.322499 0.996362
O O21 0.473023 0.250000 0.988095
O O22 0.750000 0.916703 0.663461
#
# Coordination Sequence:
#
# PCOD9448954 Si02
#       8
#     8   8   8   8   8   8   8   8
#     4  11  21  37  61  84 112 152 193 236 285 338
#     4  11  23  38  60  89 116 147 190 239 287 336
#     4  10  19  34  57  82 110 146 188 231 280 334
#     4  10  22  38  57  85 119 152 190 241 295 344
#     4  10  20  34  55  84 116 149 185 227 276 331
#     4  10  21  38  60  85 115 151 188 229 280 339
#     4  10  22  40  60  83 114 152 190 230 282 342
#     4   9  18  33  54  82 112 144 185 231 276 329
#
# _framework density 20.970464
#
# number of rings (size 3 to 8) (size 9 to 14) (size 15 to 20)
#    0.000    1.875    2.500    1.500    0.000    3.250 
#    0.000    3.125    0.000    0.000    0.000    1.750 
#    0.000    0.000    0.000    0.000    0.000    0.000 
#
# Total GULP energy -357597.550933 kJ/mol
# GULP energy per Si atom -5587.461733 kJ/mol
# Density = 2.092273 g / cm^3
# Si number density = 20.970464 Si / 1000 Ang^3
#
#
#
# Elastic Constant Matrix: (Units=GPa)
#
#
# Indices 1 2 3 4 5 6 
#
# 1 31.5504 -3.9131 -7.8806 0.0000 0.0000 0.0000
# 2 -3.9131 71.5731 16.7393 0.0000 0.0000 0.0000
# 3 -7.8806 16.7393 107.6027 0.0000 0.0000 0.0000
# 4 0.0000 0.0000 0.0000 29.0882 0.0000 0.0000
# 5 0.0000 0.0000 0.0000 0.0000 1.0302 0.0000
# 6 0.0000 0.0000 0.0000 0.0000 0.0000 13.6043
#
#
#
# Elastic Compliance Matrix: (Units=1/GPa)
#
#
# Indices 1 2 3 4 5 6 
#
# 1 0.032395 0.001262 0.002176 0.000000 0.000000 0.000000
# 2 0.001262 0.014548 -0.002171 0.000000 0.000000 0.000000
# 3 0.002176 -0.002171 0.009791 0.000000 0.000000 0.000000
# 4 0.000000 0.000000 0.000000 0.034378 0.000000 0.000000
# 5 0.000000 0.000000 0.000000 0.000000 0.970704 0.000000
# 6 0.000000 0.000000 0.000000 0.000000 0.000000 0.073506
#
#
# Mechanical properties :
#
#
# Convention : Reuss Voigt Hill
#
# Bulk Modulus (GPa) = 16.87205 24.51304 20.69254
# Shear Modulus (GPa) = 4.33823 22.46325 13.40074
#
# Velocity S-wave (km/s) = 1.43987 3.27645 2.53065
# Velocity P-wave (km/s) = 3.29050 5.10178 4.29276
#
# Compressibility (1/GPa) = 0.05926962
#
# Stress axis : x y z
#
# Youngs Moduli (GPa) = 30.86854 68.73594 102.13953
#
# Poissons Ratio (x) = -0.08676 -0.22228
# Poissons Ratio (y) = -0.03896 0.22172
# Poissons Ratio (z) = -0.06718 0.14921
#
# Static dielectric constant tensor:
#      x y z
#    x 1.773150 0.000000 0.000000 
#    y 0.000000 1.737320 0.000000 
#    z 0.000000 0.000000 1.729570 
# 
# From -- ./inp_files/29415.got.cif
#   From: 2010.05.17/outbox.cif.g08.bks.cpg/sg59_15_cif.got.tgz:29415.got - 2010.06.03 14:40:33.
