data_PCOD9448353
_publ_section_title
;
Structure prediction by ZEFSAII (Michael W. Deem and Ramdas Pophale) SiO2 
 PCOD9448353
Probable space group: P M M N
;
_chemical_formula_sum "Si O2"
_cell_formula_units_Z 64
_cell_length_a 20.607397
_cell_length_b 8.866688
_cell_length_c 20.303636
_cell_angle_alpha 90.000000
_cell_angle_beta 90.000000
_cell_angle_gamma 90.000000
_cell_volume 3709.867369
_symmetry_space_group_name_H-M "P M M N"
_symmetry_group_IT_number 59
_space_group.IT_coordinate_system_code '2'
_symmetry_cell_setting 'orthorhombic'
loop_
_space_group_symop_operation_xyz
x,y,z
1/2-x,1/2-y,z
1/2+x,-y,-z
-x,1/2+y,-z
-x,-y,-z
1/2+x,1/2+y,-z
1/2-x,y,z
x,1/2-y,z
loop_
_atom_site_type_symbol
_atom_site_label
_atom_site_fract_x
_atom_site_fract_y
_atom_site_fract_z
Si Si1 0.176355 0.069277 0.423843
Si Si2 0.574221 0.431011 0.838385
Si Si3 0.434694 0.569567 0.814085
Si Si4 0.098135 0.570594 0.311496
Si Si5 0.933615 0.569191 0.471401
Si Si6 0.824688 0.431825 0.950861
Si Si7 0.325011 0.069495 0.905589
Si Si8 0.041312 0.930169 0.663838
O O1 0.250000 0.032833 0.442211
O O2 0.171360 0.250000 0.414648
O O3 0.125208 0.026502 0.480352
O O4 0.155878 0.988888 0.356441
O O5 0.565167 0.250000 0.842990
O O6 0.503796 0.507885 0.840149
O O7 0.604096 0.462555 0.766168
O O8 0.623423 0.478419 0.895761
O O9 0.434005 0.750000 0.819910
O O10 0.375809 0.499491 0.854646
O O11 0.431391 0.530947 0.736201
O O12 0.090313 0.750000 0.319283
O O13 0.032809 0.488329 0.335776
O O14 0.939234 0.750000 0.470207
O O15 0.924156 0.507336 0.397791
O O16 0.000000 0.500000 0.500000
O O17 0.750000 0.469180 0.932421
O O18 0.828257 0.250000 0.957471
O O19 0.838400 0.506117 0.021328
O O20 0.250000 0.029588 0.889707
O O21 0.330475 0.250000 0.906009
O O22 0.041950 0.750000 0.656149
#
# Coordination Sequence:
#
# PCOD9448353 Si02
#       8
#     8   8   8   8   8   8   8   8
#     4  10  22  38  53  74 108 146 180 218 266 320
#     4   9  19  34  53  80 112 143 178 222 269 316
#     4  10  21  36  56  81 109 142 179 222 271 324
#     4  10  19  32  53  79 106 139 178 219 265 315
#     4  11  21  34  57  82 106 140 182 224 267 319
#     4   9  18  34  55  77 105 143 183 222 268 324
#     4  10  21  37  57  80 106 138 179 226 274 327
#     4  10  20  35  55  80 108 137 176 221 265 319
#
# _framework density 17.251290999999998
#
# number of rings (size 3 to 8) (size 9 to 14) (size 15 to 20)
#    0.000    2.125    1.250    1.875    0.000    5.000 
#    0.000    1.875    0.000    3.750    0.000    0.000 
#    0.000    0.000    0.000    0.000    0.000    0.000 
#
# Total GULP energy -357197.836414 kJ/mol
# GULP energy per Si atom -5581.216194 kJ/mol
# Density = 1.721203 g / cm^3
# Si number density = 17.251291 Si / 1000 Ang^3
#
#
#
# Elastic Constant Matrix: (Units=GPa)
#
#
# Indices 1 2 3 4 5 6 
#
# 1 128.9551 50.9333 99.2108 0.0000 0.0000 0.0000
# 2 50.9333 40.6474 51.2292 0.0000 0.0000 0.0000
# 3 99.2108 51.2292 128.9955 0.0000 0.0000 0.0000
# 4 0.0000 0.0000 0.0000 29.9520 0.0000 0.0000
# 5 0.0000 0.0000 0.0000 0.0000 31.8874 0.0000
# 6 0.0000 0.0000 0.0000 0.0000 0.0000 22.0820
#
#
#
# Elastic Compliance Matrix: (Units=1/GPa)
#
#
# Indices 1 2 3 4 5 6 
#
# 1 0.021692 -0.012322 -0.011790 0.000000 0.000000 0.000000
# 2 -0.012322 0.056255 -0.012864 0.000000 0.000000 0.000000
# 3 -0.011790 -0.012864 0.021928 0.000000 0.000000 0.000000
# 4 0.000000 0.000000 0.000000 0.033387 0.000000 0.000000
# 5 0.000000 0.000000 0.000000 0.000000 0.031360 0.000000
# 6 0.000000 0.000000 0.000000 0.000000 0.000000 0.045286
#
#
# Mechanical properties :
#
#
# Convention : Reuss Voigt Hill
#
# Bulk Modulus (GPa) = 38.57473 77.92718 58.25096
# Shear Modulus (GPa) = 17.09393 23.26593 20.17993
#
# Velocity S-wave (km/s) = 3.15124 3.67638 3.42389
# Velocity P-wave (km/s) = 5.97071 7.95556 7.03350
#
# Compressibility (1/GPa) = 0.02592371
#
# Stress axis : x y z
#
# Youngs Moduli (GPa) = 46.10062 17.77609 45.60277
#
# Poissons Ratio (x) = 0.21904 0.53764
# Poissons Ratio (y) = 0.56806 0.58665
# Poissons Ratio (z) = 0.54351 0.22868
#
# Static dielectric constant tensor:
#      x y z
#    x 1.564680 0.000000 0.000000 
#    y 0.000000 1.576880 0.000000 
#    z 0.000000 0.000000 1.581950 
# 
# From -- ./inp_files/28133.got.cif
#   From: 2010.05.17/outbox.cif.g08.bks.cpg/sg59_15_cif.got.tgz:28133.got - 2010.06.03 14:40:33.
