data_PCOD9448504
_publ_section_title
;
Structure prediction by ZEFSAII (Michael W. Deem and Ramdas Pophale) SiO2 
 PCOD9448504
Probable space group: P M M N
;
_chemical_formula_sum "Si O2"
_cell_formula_units_Z 64
_cell_length_a 7.396174
_cell_length_b 19.240850
_cell_length_c 20.478708
_cell_angle_alpha 90.000000
_cell_angle_beta 90.000000
_cell_angle_gamma 90.000000
_cell_volume 2914.297791
_symmetry_space_group_name_H-M "P M M N"
_symmetry_group_IT_number 59
_space_group.IT_coordinate_system_code '2'
_symmetry_cell_setting 'orthorhombic'
loop_
_space_group_symop_operation_xyz
x,y,z
1/2-x,1/2-y,z
1/2+x,-y,-z
-x,1/2+y,-z
-x,-y,-z
1/2+x,1/2+y,-z
1/2-x,y,z
x,1/2-y,z
loop_
_atom_site_type_symbol
_atom_site_label
_atom_site_fract_x
_atom_site_fract_y
_atom_site_fract_z
Si Si1 0.040437 0.573323 0.136752
Si Si2 0.959502 0.452036 0.719894
Si Si3 0.459474 0.414394 0.352870
Si Si4 0.529272 0.670146 0.525332
Si Si5 0.531517 0.670573 0.377230
Si Si6 0.531269 0.080692 0.102226
Si Si7 0.528631 0.330001 0.977100
Si Si8 0.468753 0.829182 0.773675
O O1 0.250000 0.592973 0.146724
O O2 0.959471 0.562592 0.208817
O O3 0.964902 0.631416 0.088415
O O4 0.032190 0.498528 0.101829
O O5 0.750000 0.472038 0.732100
O O6 0.040847 0.516259 0.679282
O O7 0.965664 0.383991 0.675535
O O8 0.250000 0.430425 0.367955
O O9 0.536881 0.382125 0.419112
O O10 0.467799 0.356733 0.296156
O O11 0.750000 0.670072 0.526704
O O12 0.474717 0.750000 0.538783
O O13 0.475316 0.652371 0.451317
O O14 0.750000 0.669310 0.375941
O O15 0.475006 0.750000 0.364143
O O16 0.750000 0.079277 0.102472
O O17 0.472154 0.119100 0.168745
O O18 0.472695 0.125387 0.040002
O O19 0.750000 0.330739 0.977154
O O20 0.472747 0.250000 0.981174
O O21 0.250000 0.830100 0.773084
O O22 0.525897 0.750000 0.785974
#
# Coordination Sequence:
#
# PCOD9448504 Si02
#       8
#     8   8   8   8   8   8   8   8
#     4  10  20  35  54  77 106 138 172 213 257 308
#     4  10  21  34  50  77 109 137 170 214 259 308
#     4  10  19  33  52  75 105 139 174 210 252 309
#     4   8  15  30  52  75  99 132 174 215 256 305
#     4   9  19  36  56  76  98 130 175 220 260 309
#     4  10  19  33  54  77 102 136 173 213 257 305
#     4   9  18  33  54  78 102 134 177 217 256 305
#     4  10  20  32  48  74 106 137 171 212 256 302
#
# _framework density 21.960692000000002
#
# number of rings (size 3 to 8) (size 9 to 14) (size 15 to 20)
#    0.000    2.500    1.250    1.875    0.000    4.500 
#    0.000    1.875    0.000    3.000    0.000    0.000 
#    0.000    0.000    0.000    0.000    0.000    0.000 
#
# Total GULP energy -357534.593781 kJ/mol
# GULP energy per Si atom -5586.478028 kJ/mol
# Density = 2.191071 g / cm^3
# Si number density = 21.960692 Si / 1000 Ang^3
#
#
#
# Elastic Constant Matrix: (Units=GPa)
#
#
# Indices 1 2 3 4 5 6 
#
# 1 72.9289 -9.0592 -3.0109 0.0000 0.0000 0.0000
# 2 -9.0592 66.3917 81.3148 0.0000 0.0000 0.0000
# 3 -3.0109 81.3148 139.6204 0.0000 0.0000 0.0000
# 4 0.0000 0.0000 0.0000 43.7043 0.0000 0.0000
# 5 0.0000 0.0000 0.0000 0.0000 -4.5641 0.0000
# 6 0.0000 0.0000 0.0000 0.0000 0.0000 11.9609
#
#
#
# Elastic Compliance Matrix: (Units=1/GPa)
#
#
# Indices 1 2 3 4 5 6 
#
# 1 0.014273 0.005478 -0.002883 0.000000 0.000000 0.000000
# 2 0.005478 0.054640 -0.031704 0.000000 0.000000 0.000000
# 3 -0.002883 -0.031704 0.025565 0.000000 0.000000 0.000000
# 4 0.000000 0.000000 0.000000 0.022881 0.000000 0.000000
# 5 0.000000 0.000000 0.000000 0.000000 -0.219102 0.000000
# 6 0.000000 0.000000 0.000000 0.000000 0.000000 0.083606
#
#
# Mechanical properties :
#
#
# Convention : Reuss Voigt Hill
#
# Bulk Modulus (GPa) = 27.57782 46.38117 36.97950
# Shear Modulus (GPa) = 95.84597 24.19998 60.02298
#
# Velocity S-wave (km/s) = 6.61355 3.32319 5.23367
# Velocity P-wave (km/s) = 8.42044 5.99089 7.30735
#
# Compressibility (1/GPa) = 0.03626102
#
# Stress axis : x y z
#
# Youngs Moduli (GPa) = 70.05993 18.30160 39.11665
#
# Poissons Ratio (x) = -0.10026 0.11277
# Poissons Ratio (y) = -0.38382 1.24016
# Poissons Ratio (z) = 0.20197 0.58024
#
# Static dielectric constant tensor:
#      x y z
#    x 1.831540 0.000000 0.000000 
#    y 0.000000 1.757850 0.000000 
#    z 0.000000 0.000000 1.779360 
# 
# From -- ./inp_files/29395.got.cif
#   From: 2010.05.17/outbox.cif.g08.bks.cpg/sg59_15_cif.got.tgz:29395.got - 2010.06.03 14:40:33.
