data_PCOD9448341
_publ_section_title
;
Structure prediction by ZEFSAII (Michael W. Deem and Ramdas Pophale) SiO2 
 PCOD9448341
Probable space group: P M M N
;
_chemical_formula_sum "Si O2"
_cell_formula_units_Z 64
_cell_length_a 20.710425
_cell_length_b 8.774910
_cell_length_c 20.141234
_cell_angle_alpha 90.000000
_cell_angle_beta 90.000000
_cell_angle_gamma 90.000000
_cell_volume 3660.309062
_symmetry_space_group_name_H-M "P M M N"
_symmetry_group_IT_number 59
_space_group.IT_coordinate_system_code '2'
_symmetry_cell_setting 'orthorhombic'
loop_
_space_group_symop_operation_xyz
x,y,z
1/2-x,1/2-y,z
1/2+x,-y,-z
-x,1/2+y,-z
-x,-y,-z
1/2+x,1/2+y,-z
1/2-x,y,z
x,1/2-y,z
loop_
_atom_site_type_symbol
_atom_site_label
_atom_site_fract_x
_atom_site_fract_y
_atom_site_fract_z
Si Si1 0.454540 0.430600 0.322772
Si Si2 0.040621 0.068613 0.561559
Si Si3 0.823033 0.067054 0.471386
Si Si4 0.955077 0.430126 0.201961
Si Si5 0.321323 0.071655 0.777110
Si Si6 0.454984 0.433718 0.943929
Si Si7 0.183237 0.070506 0.937924
Si Si8 0.822845 0.067222 0.629758
O O1 0.457648 0.250000 0.336550
O O2 0.500952 0.516794 0.374208
O O3 0.484947 0.457692 0.250557
O O4 0.381627 0.487466 0.332990
O O5 0.041295 0.250000 0.555786
O O6 0.114400 0.008338 0.561646
O O7 0.000000 0.000000 0.500000
O O8 0.750000 0.018962 0.450581
O O9 0.826729 0.250000 0.462589
O O10 0.828549 0.036296 0.550611
O O11 0.948488 0.250000 0.190160
O O12 0.888254 0.486238 0.237088
O O13 0.965977 0.512066 0.131546
O O14 0.250000 0.016409 0.753420
O O15 0.327016 0.250000 0.758657
O O16 0.318443 0.064704 0.857686
O O17 0.455953 0.250000 0.944252
O O18 0.383415 0.493318 0.962296
O O19 0.500000 0.500000 0.000000
O O20 0.250000 0.998819 0.960962
O O21 0.184186 0.250000 0.954737
O O22 0.750000 0.021692 0.650040
O O23 0.828188 0.250000 0.637561
#
# Coordination Sequence:
#
# PCOD9448341 Si02
#       8
#     8   8   8   8   8   8   8   8
#     4  11  23  37  54  78 108 143 180 220 267 317
#     4  12  23  35  54  79 107 138 176 219 264 315
#     4   9  18  34  55  79 108 139 174 220 271 319
#     4  10  21  35  51  76 108 139 177 220 262 313
#     4   8  14  27  48  72  98 131 171 211 251 300
#     4  10  19  32  53  78 105 137 173 215 264 316
#     4   7  11  22  42  68  95 123 158 199 242 289
#     4   9  18  33  55  81 105 133 172 220 272 320
#
# _framework density 17.484863000000001
#
# number of rings (size 3 to 8) (size 9 to 14) (size 15 to 20)
#    0.000    2.500    1.250    4.500    0.000    2.750 
#    0.000    1.875    0.000    2.625    0.000    1.750 
#    0.000    0.000    0.000    0.000    0.000    0.000 
#
# Total GULP energy -356519.620315 kJ/mol
# GULP energy per Si atom -5570.619067 kJ/mol
# Density = 1.744507 g / cm^3
# Si number density = 17.484863 Si / 1000 Ang^3
#
#
#
# Elastic Constant Matrix: (Units=GPa)
#
#
# Indices 1 2 3 4 5 6 
#
# 1 172.9038 58.2894 42.7798 0.0000 0.0000 0.0000
# 2 58.2894 62.6700 32.3698 0.0000 0.0000 0.0000
# 3 42.7798 32.3698 37.1480 0.0000 0.0000 0.0000
# 4 0.0000 0.0000 0.0000 19.3579 0.0000 0.0000
# 5 0.0000 0.0000 0.0000 0.0000 23.5316 0.0000
# 6 0.0000 0.0000 0.0000 0.0000 0.0000 31.4754
#
#
#
# Elastic Compliance Matrix: (Units=1/GPa)
#
#
# Indices 1 2 3 4 5 6 
#
# 1 0.009023 -0.005501 -0.005597 0.000000 0.000000 0.000000
# 2 -0.005501 0.032370 -0.021871 0.000000 0.000000 0.000000
# 3 -0.005597 -0.021871 0.052423 0.000000 0.000000 0.000000
# 4 0.000000 0.000000 0.000000 0.051659 0.000000 0.000000
# 5 0.000000 0.000000 0.000000 0.000000 0.042496 0.000000
# 6 0.000000 0.000000 0.000000 0.000000 0.000000 0.031771
#
#
# Mechanical properties :
#
#
# Convention : Reuss Voigt Hill
#
# Bulk Modulus (GPa) = 35.87204 59.95553 47.91379
# Shear Modulus (GPa) = 16.95066 24.15848 20.55457
#
# Velocity S-wave (km/s) = 3.11697 3.72113 3.43237
# Velocity P-wave (km/s) = 5.78918 7.26820 6.57044
#
# Compressibility (1/GPa) = 0.02787686
#
# Stress axis : x y z
#
# Youngs Moduli (GPa) = 110.82749 30.89277 19.07547
#
# Poissons Ratio (x) = 0.16995 0.10677
# Poissons Ratio (y) = 0.60969 0.41720
# Poissons Ratio (z) = 0.62034 0.67566
#
# Static dielectric constant tensor:
#      x y z
#    x 1.595900 0.000000 0.000000 
#    y 0.000000 1.588810 0.000000 
#    z 0.000000 0.000000 1.576380 
# 
# From -- ./inp_files/30665.got.cif
#   From: 2010.05.17/outbox.cif.g08.bks.cpg/sg59_16_cif.got.tgz:30665.got - 2010.06.03 14:40:33.
