data_PCOD9448053
_publ_section_title
;
Structure prediction by ZEFSAII (Michael W. Deem and Ramdas Pophale) SiO2 
 PCOD9448053
Probable space group: P M M N
;
_chemical_formula_sum "Si O2"
_cell_formula_units_Z 64
_cell_length_a 29.960893
_cell_length_b 8.560121
_cell_length_c 12.911407
_cell_angle_alpha 90.000000
_cell_angle_beta 90.000000
_cell_angle_gamma 90.000000
_cell_volume 3311.373955
_symmetry_space_group_name_H-M "P M M N"
_symmetry_group_IT_number 59
_space_group.IT_coordinate_system_code '2'
_symmetry_cell_setting 'orthorhombic'
loop_
_space_group_symop_operation_xyz
x,y,z
1/2-x,1/2-y,z
1/2+x,-y,-z
-x,1/2+y,-z
-x,-y,-z
1/2+x,1/2+y,-z
1/2-x,y,z
x,1/2-y,z
loop_
_atom_site_type_symbol
_atom_site_label
_atom_site_fract_x
_atom_site_fract_y
_atom_site_fract_z
Si Si1 0.108207 0.936716 0.445077
Si Si2 0.461251 0.436069 0.283527
Si Si3 0.200463 0.438060 0.376413
Si Si4 0.167655 0.064637 0.148321
Si Si5 0.558267 0.440796 0.347646
Si Si6 0.926241 0.066087 0.917133
Si Si7 0.894277 0.438321 0.137153
Si Si8 0.798684 0.563962 0.078280
O O1 0.107669 0.750000 0.443957
O O2 0.082775 0.993173 0.548263
O O3 0.080605 0.996995 0.346326
O O4 0.158977 0.993854 0.438952
O O5 0.459232 0.250000 0.289126
O O6 0.506978 0.491441 0.337041
O O7 0.459341 0.484405 0.163185
O O8 0.250000 0.492115 0.406747
O O9 0.199370 0.250000 0.384861
O O10 0.191625 0.475706 0.255243
O O11 0.155631 0.250000 0.152867
O O12 0.197104 0.042119 0.045854
O O13 0.122953 0.966728 0.129853
O O14 0.558279 0.250000 0.348411
O O15 0.584229 0.491493 0.244381
O O16 0.935501 0.250000 0.918338
O O17 0.921617 0.006526 0.035238
O O18 0.895766 0.250000 0.134310
O O19 0.842859 0.488862 0.126245
O O20 0.750000 0.505805 0.113283
O O21 0.800655 0.750000 0.096999
#
# Coordination Sequence:
#
# PCOD9448053 Si02
#       8
#     8   8   8   8   8   8   8   8
#     4  11  22  38  59  82 110 141 182 232 275 316
#     4  11  21  36  59  83 109 143 181 222 276 333
#     4  10  20  34  54  81 112 147 182 216 265 327
#     4   9  16  29  50  75 108 146 176 210 261 323
#     4   9  21  40  59  78 104 145 189 227 270 323
#     4  10  19  31  52  83 115 141 170 219 271 318
#     4   9  19  37  56  76 108 145 182 223 268 321
#     4   9  17  30  50  78 109 141 180 223 267 317
#
# _framework density 19.327325999999999
#
# number of rings (size 3 to 8) (size 9 to 14) (size 15 to 20)
#    0.000    2.250    1.250    1.875    0.000    3.000 
#    0.000    5.000    0.000    6.000    0.000    0.000 
#    0.000    0.000    0.000    0.000    0.000    0.000 
#
# Total GULP energy -357157.314932 kJ/mol
# GULP energy per Si atom -5580.583046 kJ/mol
# Density = 1.928334 g / cm^3
# Si number density = 19.327326 Si / 1000 Ang^3
#
#
#
# Elastic Constant Matrix: (Units=GPa)
#
#
# Indices 1 2 3 4 5 6 
#
# 1 69.5561 7.8242 20.2941 0.0000 0.0000 0.0000
# 2 7.8242 15.2395 8.8973 0.0000 0.0000 0.0000
# 3 20.2941 8.8973 77.1113 0.0000 0.0000 0.0000
# 4 0.0000 0.0000 0.0000 14.1263 0.0000 0.0000
# 5 0.0000 0.0000 0.0000 0.0000 76.2796 0.0000
# 6 0.0000 0.0000 0.0000 0.0000 0.0000 23.2625
#
#
#
# Elastic Compliance Matrix: (Units=1/GPa)
#
#
# Indices 1 2 3 4 5 6 
#
# 1 0.016103 -0.006212 -0.003521 0.000000 0.000000 0.000000
# 2 -0.006212 0.072754 -0.006760 0.000000 0.000000 0.000000
# 3 -0.003521 -0.006760 0.014675 0.000000 0.000000 0.000000
# 4 0.000000 0.000000 0.000000 0.070790 0.000000 0.000000
# 5 0.000000 0.000000 0.000000 0.000000 0.013110 0.000000
# 6 0.000000 0.000000 0.000000 0.000000 0.000000 0.042988
#
#
# Mechanical properties :
#
#
# Convention : Reuss Voigt Hill
#
# Bulk Modulus (GPa) = 14.17494 26.21532 20.19513
# Shear Modulus (GPa) = 17.42641 31.05978 24.24309
#
# Velocity S-wave (km/s) = 3.00600 4.01314 3.54551
# Velocity P-wave (km/s) = 4.40433 5.92174 5.21848
#
# Compressibility (1/GPa) = 0.07054702
#
# Stress axis : x y z
#
# Youngs Moduli (GPa) = 62.10021 13.74486 68.14338
#
# Poissons Ratio (x) = 0.08538 0.23995
# Poissons Ratio (y) = 0.38575 0.46063
# Poissons Ratio (z) = 0.21867 0.09291
#
# Static dielectric constant tensor:
#      x y z
#    x 1.678540 0.000000 0.000000 
#    y 0.000000 1.660180 0.000000 
#    z 0.000000 0.000000 1.676180 
# 
# From -- ./inp_files/19263.got.cif
#   From: 2010.05.17/outbox.cif.g08.bks.cpg/sg59_10_cif.got.tgz:19263.got - 2010.06.03 14:40:33.
