data_PCOD9448109
_publ_section_title
;
Structure prediction by ZEFSAII (Michael W. Deem and Ramdas Pophale) SiO2 
 PCOD9448109
Probable space group: P M M N
;
_chemical_formula_sum "Si O2"
_cell_formula_units_Z 64
_cell_length_a 9.013750
_cell_length_b 18.814686
_cell_length_c 21.541857
_cell_angle_alpha 90.000000
_cell_angle_beta 90.000000
_cell_angle_gamma 90.000000
_cell_volume 3653.302398
_symmetry_space_group_name_H-M "P M M N"
_symmetry_group_IT_number 59
_space_group.IT_coordinate_system_code '2'
_symmetry_cell_setting 'orthorhombic'
loop_
_space_group_symop_operation_xyz
x,y,z
1/2-x,1/2-y,z
1/2+x,-y,-z
-x,1/2+y,-z
-x,-y,-z
1/2+x,1/2+y,-z
1/2-x,y,z
x,1/2-y,z
loop_
_atom_site_type_symbol
_atom_site_label
_atom_site_fract_x
_atom_site_fract_y
_atom_site_fract_z
Si Si1 0.928521 0.167089 0.367908
Si Si2 0.571860 0.333944 0.124224
Si Si3 0.420856 0.336448 0.996204
Si Si4 0.929662 0.917031 0.246276
Si Si5 0.573458 0.334516 0.868008
Si Si6 0.578377 0.663490 0.504989
Si Si7 0.430706 0.918336 0.753256
Si Si8 0.930856 0.667879 0.368774
O O1 0.750000 0.164537 0.369821
O O2 0.971432 0.250000 0.359661
O O3 0.980613 0.121566 0.309141
O O4 0.990087 0.141336 0.434015
O O5 0.750000 0.340616 0.117975
O O6 0.539782 0.250000 0.133200
O O7 0.496427 0.358911 0.060525
O O8 0.522179 0.377428 0.184533
O O9 0.250000 0.358913 0.993192
O O10 0.424575 0.250000 0.996844
O O11 0.507487 0.358320 0.934287
O O12 0.750000 0.913032 0.242417
O O13 0.975708 0.879548 0.310630
O O14 0.998439 0.876114 0.188197
O O15 0.973793 0.999465 0.245995
O O16 0.750000 0.344004 0.867600
O O17 0.542416 0.250000 0.861211
O O18 0.750000 0.641942 0.511133
O O19 0.575218 0.750000 0.503175
O O20 0.520387 0.641526 0.436973
O O21 0.250000 0.915737 0.752723
O O22 0.750000 0.668181 0.371036
O O23 0.977376 0.750000 0.359812
#
# Coordination Sequence:
#
# PCOD9448109 Si02
#       8
#     8   8   8   8   8   8   8   8
#     4   9  16  28  47  69  93 123 159 196 235 282
#     4   9  16  29  50  72  95 125 158 192 235 285
#     4   9  17  30  50  76 100 120 151 196 237 274
#     4  10  19  32  50  70  94 125 162 200 234 274
#     4  10  20  34  52  74  99 125 153 188 233 283
#     4   8  14  26  44  66  90 115 149 194 239 282
#     4   9  18  31  47  69  96 126 160 197 236 279
#     4   8  14  26  46  69  90 116 152 192 235 283
#
# _framework density 17.518397
#
# number of rings (size 3 to 8) (size 9 to 14) (size 15 to 20)
#    0.000    3.000    0.000    2.250    0.000    4.250 
#    0.000    3.750    0.000    5.250    0.000    0.000 
#    0.000    0.000    0.000    0.000    0.000    0.000 
#
# Total GULP energy -356624.844529 kJ/mol
# GULP energy per Si atom -5572.263196 kJ/mol
# Density = 1.747852 g / cm^3
# Si number density = 17.518397 Si / 1000 Ang^3
#
#
#
# Elastic Constant Matrix: (Units=GPa)
#
#
# Indices 1 2 3 4 5 6 
#
# 1 24.4485 33.5179 51.4509 0.0000 0.0000 0.0000
# 2 33.5179 70.2794 87.4935 0.0000 0.0000 0.0000
# 3 51.4509 87.4935 223.6507 0.0000 0.0000 0.0000
# 4 0.0000 0.0000 0.0000 -3.5908 0.0000 0.0000
# 5 0.0000 0.0000 0.0000 0.0000 30.4685 0.0000
# 6 0.0000 0.0000 0.0000 0.0000 0.0000 11.3115
#
#
#
# Elastic Compliance Matrix: (Units=1/GPa)
#
#
# Indices 1 2 3 4 5 6 
#
# 1 0.130909 -0.048621 -0.011095 0.000000 0.000000 0.000000
# 2 -0.048621 0.045797 -0.006731 0.000000 0.000000 0.000000
# 3 -0.011095 -0.006731 0.009657 0.000000 0.000000 0.000000
# 4 0.000000 0.000000 0.000000 -0.278491 0.000000 0.000000
# 5 0.000000 0.000000 0.000000 0.000000 0.032821 0.000000
# 6 0.000000 0.000000 0.000000 0.000000 0.000000 0.088405
#
#
# Mechanical properties :
#
#
# Convention : Reuss Voigt Hill
#
# Bulk Modulus (GPa) = 18.70246 73.70035 46.20141
# Shear Modulus (GPa) = 27.80658 17.36561 22.58610
#
# Velocity S-wave (km/s) = 3.98839 3.15187 3.59455
# Velocity P-wave (km/s) = 5.64878 7.44361 6.60742
#
# Compressibility (1/GPa) = 0.05346889
#
# Stress axis : x y z
#
# Youngs Moduli (GPa) = 7.63892 21.83557 103.55566
#
# Poissons Ratio (x) = 1.06167 1.14891
# Poissons Ratio (y) = 0.37141 0.69700
# Poissons Ratio (z) = 0.08475 0.14697
#
# Static dielectric constant tensor:
#      x y z
#    x 1.590210 0.000000 0.000000 
#    y 0.000000 1.579950 0.000000 
#    z 0.000000 0.000000 1.594240 
# 
# From -- ./inp_files/29590.got.cif
#   From: 2010.05.17/outbox.cif.g08.bks.cpg/sg59_15_cif.got.tgz:29590.got - 2010.06.03 14:40:33.
