data_PCOD9448210
_publ_section_title
;
Structure prediction by ZEFSAII (Michael W. Deem and Ramdas Pophale) SiO2 
 PCOD9448210
Probable space group: P M M N
;
_chemical_formula_sum "Si O2"
_cell_formula_units_Z 64
_cell_length_a 17.717072
_cell_length_b 14.818928
_cell_length_c 12.878332
_cell_angle_alpha 90.000000
_cell_angle_beta 90.000000
_cell_angle_gamma 90.000000
_cell_volume 3381.180495
_symmetry_space_group_name_H-M "P M M N"
_symmetry_group_IT_number 59
_space_group.IT_coordinate_system_code '2'
_symmetry_cell_setting 'orthorhombic'
loop_
_space_group_symop_operation_xyz
x,y,z
1/2-x,1/2-y,z
1/2+x,-y,-z
-x,1/2+y,-z
-x,-y,-z
1/2+x,1/2+y,-z
1/2-x,y,z
x,1/2-y,z
loop_
_atom_site_type_symbol
_atom_site_label
_atom_site_fract_x
_atom_site_fract_y
_atom_site_fract_z
Si Si1 0.518978 0.846535 0.192769
Si Si2 0.660058 0.145340 0.566263
Si Si3 0.833667 0.958044 0.850328
Si Si4 0.131979 0.652922 0.071457
Si Si5 0.947014 0.999700 0.679302
Si Si6 0.834267 0.599938 0.084213
Si Si7 0.436616 0.647162 0.638849
Si Si8 0.164203 0.894114 0.837597
O O1 0.507183 0.750000 0.246848
O O2 0.505010 0.931002 0.266474
O O3 0.599863 0.848499 0.140618
O O4 0.455690 0.853602 0.102994
O O5 0.750000 0.129081 0.571274
O O6 0.647212 0.250000 0.602628
O O7 0.612970 0.067416 0.625222
O O8 0.627393 0.140889 0.449548
O O9 0.750000 0.931038 0.814198
O O10 0.899110 0.946545 0.766862
O O11 0.849039 0.911607 0.961211
O O12 0.832102 0.065260 0.876638
O O13 0.159735 0.750000 0.110774
O O14 0.144402 0.649040 0.948725
O O15 0.997342 0.926141 0.619452
O O16 0.750000 0.636758 0.096847
O O17 0.835519 0.500263 0.135143
O O18 0.465930 0.750000 0.637715
O O19 0.395594 0.628734 0.748852
O O20 0.250000 0.868037 0.807664
#
# Coordination Sequence:
#
# PCOD9448210 Si02
#       8
#     8   8   8   8   8   8   8   8
#     4  10  20  33  52  78 109 147 190 232 276 330
#     4  10  22  41  64  88 112 139 178 229 288 347
#     4   9  19  32  51  75 105 146 188 222 265 321
#     4   9  18  28  45  75 108 141 180 230 282 327
#     4  11  21  37  59  83 116 144 181 228 286 329
#     4   9  18  33  50  72 106 150 190 229 271 317
#     4  11  23  37  57  85 113 148 185 225 279 340
#     4  10  19  32  51  76 107 144 183 228 281 332
#
# _framework density 18.9283
#
# number of rings (size 3 to 8) (size 9 to 14) (size 15 to 20)
#    0.000    2.125    1.250    3.000    1.750    4.500 
#    0.000    0.000    0.000    2.250    0.000    0.000 
#    0.000    0.000    0.000    0.000    0.000    0.000 
#
# Total GULP energy -356884.263380 kJ/mol
# GULP energy per Si atom -5576.316615 kJ/mol
# Density = 1.888522 g / cm^3
# Si number density = 18.928300 Si / 1000 Ang^3
#
#
#
# Elastic Constant Matrix: (Units=GPa)
#
#
# Indices 1 2 3 4 5 6 
#
# 1 102.1033 48.0051 23.5440 0.0000 0.0000 0.0000
# 2 48.0051 82.8705 14.4746 0.0000 0.0000 0.0000
# 3 23.5440 14.4746 35.1703 0.0000 0.0000 0.0000
# 4 0.0000 0.0000 0.0000 11.3166 0.0000 0.0000
# 5 0.0000 0.0000 0.0000 0.0000 0.2120 0.0000
# 6 0.0000 0.0000 0.0000 0.0000 0.0000 30.0485
#
#
#
# Elastic Compliance Matrix: (Units=1/GPa)
#
#
# Indices 1 2 3 4 5 6 
#
# 1 0.014869 -0.007407 -0.006905 0.000000 0.000000 0.000000
# 2 -0.007407 0.016692 -0.001911 0.000000 0.000000 0.000000
# 3 -0.006905 -0.001911 0.033842 0.000000 0.000000 0.000000
# 4 0.000000 0.000000 0.000000 0.088366 0.000000 0.000000
# 5 0.000000 0.000000 0.000000 0.000000 4.716975 0.000000
# 6 0.000000 0.000000 0.000000 0.000000 0.000000 0.033280
#
#
# Mechanical properties :
#
#
# Convention : Reuss Voigt Hill
#
# Bulk Modulus (GPa) = 30.34356 43.57685 36.96020
# Shear Modulus (GPa) = 1.01062 17.25677 9.13369
#
# Velocity S-wave (km/s) = 0.73149 3.02270 2.19907
# Velocity P-wave (km/s) = 4.09622 5.93753 5.10065
#
# Compressibility (1/GPa) = 0.03295592
#
# Stress axis : x y z
#
# Youngs Moduli (GPa) = 67.25494 59.91046 29.54897
#
# Poissons Ratio (x) = 0.44376 0.20404
# Poissons Ratio (y) = 0.49816 0.05647
# Poissons Ratio (z) = 0.46441 0.11449
#
# Static dielectric constant tensor:
#      x y z
#    x 1.659850 0.000000 0.000000 
#    y 0.000000 1.676420 0.000000 
#    z 0.000000 0.000000 1.648850 
# 
# From -- ./inp_files/17881.got.cif
#   From: 2010.05.17/outbox.cif.g08.bks.cpg/sg59_9_cif.got.tgz:17881.got - 2010.06.03 14:40:33.
