data_PCOD9448436
_publ_section_title
;
Structure prediction by ZEFSAII (Michael W. Deem and Ramdas Pophale) SiO2 
 PCOD9448436
Probable space group: P M M N
;
_chemical_formula_sum "Si O2"
_cell_formula_units_Z 64
_cell_length_a 18.451140
_cell_length_b 8.651714
_cell_length_c 22.166079
_cell_angle_alpha 90.000000
_cell_angle_beta 90.000000
_cell_angle_gamma 90.000000
_cell_volume 3538.459550
_symmetry_space_group_name_H-M "P M M N"
_symmetry_group_IT_number 59
_space_group.IT_coordinate_system_code '2'
_symmetry_cell_setting 'orthorhombic'
loop_
_space_group_symop_operation_xyz
x,y,z
1/2-x,1/2-y,z
1/2+x,-y,-z
-x,1/2+y,-z
-x,-y,-z
1/2+x,1/2+y,-z
1/2-x,y,z
x,1/2-y,z
loop_
_atom_site_type_symbol
_atom_site_label
_atom_site_fract_x
_atom_site_fract_y
_atom_site_fract_z
Si Si1 0.334500 0.436804 0.501190
Si Si2 0.092231 0.934885 0.752663
Si Si3 0.021772 0.564077 0.935272
Si Si4 0.169981 0.562438 0.874403
Si Si5 0.586073 0.563795 0.375746
Si Si6 0.451136 0.565886 0.183392
Si Si7 0.917087 0.435165 0.614545
Si Si8 0.834309 0.564736 0.731087
O O1 0.250000 0.479598 0.497070
O O2 0.339379 0.250000 0.496483
O O3 0.368255 0.482170 0.565609
O O4 0.379760 0.509779 0.446923
O O5 0.083404 0.750000 0.753345
O O6 0.148433 0.977258 0.805637
O O7 0.113171 0.991329 0.686598
O O8 0.016018 0.010388 0.772420
O O9 0.020026 0.750000 0.935444
O O10 0.103170 0.512671 0.916264
O O11 0.969918 0.503653 0.881914
O O12 0.000000 0.500000 0.000000
O O13 0.250000 0.504931 0.890190
O O14 0.171398 0.750000 0.877308
O O15 0.589187 0.750000 0.370691
O O16 0.501714 0.518951 0.383991
O O17 0.451048 0.750000 0.180551
O O18 0.377151 0.504855 0.212236
O O19 0.913808 0.250000 0.619096
O O20 0.874450 0.506790 0.670908
O O21 0.750000 0.519324 0.729903
O O22 0.838654 0.750000 0.733282
#
# Coordination Sequence:
#
# PCOD9448436 Si02
#       8
#     8   8   8   8   8   8   8   8
#     4  10  22  39  55  73 104 145 186 232 286 341
#     4  10  19  32  55  83 110 144 182 225 278 332
#     4  10  20  36  60  87 116 155 196 236 281 331
#     4   8  16  32  54  82 114 146 185 231 276 324
#     4  10  21  36  54  78 107 142 183 229 280 336
#     4  11  21  36  58  83 114 148 185 229 273 330
#     4  11  22  36  56  80 106 141 185 233 280 336
#     4  11  23  38  58  84 113 145 183 231 286 339
#
# _framework density 18.086967000000001
#
# number of rings (size 3 to 8) (size 9 to 14) (size 15 to 20)
#    0.000    1.875    1.250    4.125    0.000    4.250 
#    0.000    0.625    0.000   15.375    0.000    0.000 
#    0.000    0.000    0.000    0.000    0.000    0.000 
#
# Total GULP energy -357443.107020 kJ/mol
# GULP energy per Si atom -5585.048547 kJ/mol
# Density = 1.804580 g / cm^3
# Si number density = 18.086967 Si / 1000 Ang^3
#
#
#
# Elastic Constant Matrix: (Units=GPa)
#
#
# Indices 1 2 3 4 5 6 
#
# 1 78.2500 21.2862 48.4448 0.0000 0.0000 0.0000
# 2 21.2862 44.2169 31.6162 0.0000 0.0000 0.0000
# 3 48.4448 31.6162 141.8828 0.0000 0.0000 0.0000
# 4 0.0000 0.0000 0.0000 36.1890 0.0000 0.0000
# 5 0.0000 0.0000 0.0000 0.0000 16.3755 0.0000
# 6 0.0000 0.0000 0.0000 0.0000 0.0000 15.6352
#
#
#
# Elastic Compliance Matrix: (Units=1/GPa)
#
#
# Indices 1 2 3 4 5 6 
#
# 1 0.017022 -0.004804 -0.004741 0.000000 0.000000 0.000000
# 2 -0.004804 0.028258 -0.004656 0.000000 0.000000 0.000000
# 3 -0.004741 -0.004656 0.009705 0.000000 0.000000 0.000000
# 4 0.000000 0.000000 0.000000 0.027633 0.000000 0.000000
# 5 0.000000 0.000000 0.000000 0.000000 0.061067 0.000000
# 6 0.000000 0.000000 0.000000 0.000000 0.000000 0.063958
#
#
# Mechanical properties :
#
#
# Convention : Reuss Voigt Hill
#
# Bulk Modulus (GPa) = 37.62181 51.89379 44.75780
# Shear Modulus (GPa) = 20.41596 24.50679 22.46138
#
# Velocity S-wave (km/s) = 3.36336 3.68495 3.52782
# Velocity P-wave (km/s) = 5.99404 6.84534 6.43379
#
# Compressibility (1/GPa) = 0.02658032
#
# Stress axis : x y z
#
# Youngs Moduli (GPa) = 58.74802 35.38822 103.04372
#
# Poissons Ratio (x) = 0.17001 0.48858
# Poissons Ratio (y) = 0.28223 0.47982
# Poissons Ratio (z) = 0.27855 0.16478
#
# Static dielectric constant tensor:
#      x y z
#    x 1.617960 0.000000 0.000000 
#    y 0.000000 1.611780 0.000000 
#    z 0.000000 0.000000 1.593530 
# 
# From -- ./inp_files/30730.got.cif
#   From: 2010.05.17/outbox.cif.g08.bks.cpg/sg59_16_cif.got.tgz:30730.got - 2010.06.03 14:40:33.
