data_PCOD9448356
_publ_section_title
;
Structure prediction by ZEFSAII (Michael W. Deem and Ramdas Pophale) SiO2 
 PCOD9448356
Probable space group: P M M N
;
_chemical_formula_sum "Si O2"
_cell_formula_units_Z 48
_cell_length_a 18.474289
_cell_length_b 8.930773
_cell_length_c 16.711941
_cell_angle_alpha 90.000000
_cell_angle_beta 90.000000
_cell_angle_gamma 90.000000
_cell_volume 2757.297821
_symmetry_space_group_name_H-M "P M M N"
_symmetry_group_IT_number 59
_space_group.IT_coordinate_system_code '2'
_symmetry_cell_setting 'orthorhombic'
loop_
_space_group_symop_operation_xyz
x,y,z
1/2-x,1/2-y,z
1/2+x,-y,-z
-x,1/2+y,-z
-x,-y,-z
1/2+x,1/2+y,-z
1/2-x,y,z
x,1/2-y,z
loop_
_atom_site_type_symbol
_atom_site_label
_atom_site_fract_x
_atom_site_fract_y
_atom_site_fract_z
Si Si1 0.832195 0.570142 0.838957
Si Si2 0.095724 0.071404 0.328478
Si Si3 0.529586 0.428178 0.919270
Si Si4 0.665582 0.429677 0.345173
Si Si5 0.420120 0.570809 0.492683
Si Si6 0.043572 0.428210 0.751998
O O1 0.750000 0.525048 0.856669
O O2 0.838144 0.750000 0.848197
O O3 0.851925 0.536922 0.746234
O O4 0.892519 0.492904 0.893449
O O5 0.092832 0.250000 0.339368
O O6 0.114613 0.992501 0.411422
O O7 0.017161 0.011391 0.301046
O O8 0.534328 0.250000 0.927975
O O9 0.476661 0.460643 0.844005
O O10 0.500000 0.500000 0.000000
O O11 0.750000 0.468904 0.346036
O O12 0.659304 0.250000 0.334703
O O13 0.627373 0.467385 0.429585
O O14 0.620685 0.512049 0.276280
O O15 0.500000 0.500000 0.500000
O O16 0.426712 0.750000 0.488093
O O17 0.037607 0.250000 0.739407
#
# Coordination Sequence:
#
# PCOD9448356 Si02
#       6
#     8   8   8   8   8   8
#     4   9  19  36  57  82 114 148 181 224 277 327
#     4  10  19  32  53  79 107 143 183 221 267 324
#     4  10  21  37  59  87 113 142 181 223 270 330
#     4  10  22  38  54  75 106 144 184 227 275 321
#     4  11  21  33  52  77 107 144 187 230 272 320
#     4  10  20  35  56  80 105 136 178 222 266 319
#
# _framework density 17.408346999999999
#
# number of rings (size 3 to 8) (size 9 to 14) (size 15 to 20)
#    0.000    2.000    1.667    2.000    0.000    4.667 
#    0.000    0.833    0.000    1.000    0.000    0.000 
#    0.000    0.000    0.000    0.000    0.000    0.000 
#
# Total GULP energy -267991.015650 kJ/mol
# GULP energy per Si atom -5583.146159 kJ/mol
# Density = 1.736873 g / cm^3
# Si number density = 17.408347 Si / 1000 Ang^3
#
#
#
# Elastic Constant Matrix: (Units=GPa)
#
#
# Indices 1 2 3 4 5 6 
#
# 1 142.8922 56.4953 79.0669 0.0000 0.0000 0.0000
# 2 56.4953 53.2494 60.0141 0.0000 0.0000 0.0000
# 3 79.0669 60.0141 128.4999 0.0000 0.0000 0.0000
# 4 0.0000 0.0000 0.0000 34.2650 0.0000 0.0000
# 5 0.0000 0.0000 0.0000 0.0000 19.6174 0.0000
# 6 0.0000 0.0000 0.0000 0.0000 0.0000 24.2154
#
#
#
# Elastic Compliance Matrix: (Units=1/GPa)
#
#
# Indices 1 2 3 4 5 6 
#
# 1 0.012649 -0.009814 -0.003199 0.000000 0.000000 0.000000
# 2 -0.009814 0.047265 -0.016036 0.000000 0.000000 0.000000
# 3 -0.003199 -0.016036 0.017240 0.000000 0.000000 0.000000
# 4 0.000000 0.000000 0.000000 0.029184 0.000000 0.000000
# 5 0.000000 0.000000 0.000000 0.000000 0.050975 0.000000
# 6 0.000000 0.000000 0.000000 0.000000 0.000000 0.041296
#
#
# Mechanical properties :
#
#
# Convention : Reuss Voigt Hill
#
# Bulk Modulus (GPa) = 52.47899 79.53271 66.00585
# Shear Modulus (GPa) = 19.00716 24.22389 21.61553
#
# Velocity S-wave (km/s) = 3.30789 3.73434 3.52757
# Velocity P-wave (km/s) = 6.69334 8.02368 7.38851
#
# Compressibility (1/GPa) = 0.01905524
#
# Stress axis : x y z
#
# Youngs Moduli (GPa) = 79.05914 21.15748 58.00470
#
# Poissons Ratio (x) = 0.20764 0.18558
# Poissons Ratio (y) = 0.77588 0.93015
# Poissons Ratio (z) = 0.25294 0.33928
#
# Static dielectric constant tensor:
#      x y z
#    x 1.577710 0.000000 0.000000 
#    y 0.000000 1.580340 0.000000 
#    z 0.000000 0.000000 1.586660 
# 
# From -- ./inp_files/20291.got.cif
#   From: 2010.05.17/outbox.cif.g08.bks.cpg/sg59_11_cif.got.tgz:20291.got - 2010.06.03 14:40:33.
