data_PCOD9448189
_publ_section_title
;
Structure prediction by ZEFSAII (Michael W. Deem and Ramdas Pophale) SiO2 
 PCOD9448189
Probable space group: P M M N
;
_chemical_formula_sum "Si O2"
_cell_formula_units_Z 48
_cell_length_a 7.476091
_cell_length_b 27.544061
_cell_length_c 10.704575
_cell_angle_alpha 90.000000
_cell_angle_beta 90.000000
_cell_angle_gamma 90.000000
_cell_volume 2204.306493
_symmetry_space_group_name_H-M "P M M N"
_symmetry_group_IT_number 59
_space_group.IT_coordinate_system_code '2'
_symmetry_cell_setting 'orthorhombic'
loop_
_space_group_symop_operation_xyz
x,y,z
1/2-x,1/2-y,z
1/2+x,-y,-z
-x,1/2+y,-z
-x,-y,-z
1/2+x,1/2+y,-z
1/2-x,y,z
x,1/2-y,z
loop_
_atom_site_type_symbol
_atom_site_label
_atom_site_fract_x
_atom_site_fract_y
_atom_site_fract_z
Si Si1 0.962525 0.029971 0.125940
Si Si2 0.459254 0.356985 0.116328
Si Si3 0.531106 0.806264 0.631966
Si Si4 0.531172 0.693934 0.134247
Si Si5 0.031130 0.362129 0.617133
Si Si6 0.535772 0.973042 0.370004
O O1 0.750000 0.033336 0.138864
O O2 0.028846 0.085015 0.117174
O O3 0.033140 0.002364 0.249279
O O4 0.000000 0.000000 0.000000
O O5 0.250000 0.343909 0.116153
O O6 0.532353 0.333300 0.242910
O O7 0.532669 0.334275 0.988834
O O8 0.750000 0.806917 0.631126
O O9 0.477225 0.750000 0.629995
O O10 0.473583 0.835129 0.508758
O O11 0.750000 0.693040 0.135175
O O12 0.477102 0.750000 0.131673
O O13 0.474392 0.667099 0.260268
O O14 0.250000 0.362500 0.615960
O O15 0.969990 0.417770 0.623634
O O16 0.750000 0.970182 0.355417
O O17 0.500000 0.000000 0.500000
#
# Coordination Sequence:
#
# PCOD9448189 Si02
#       6
#     8   8   8   8   8   8
#     4  11  23  38  56  79 108 142 182 224 268 319
#     4  10  19  32  51  75 104 135 170 214 262 312
#     4   9  16  26  44  72 102 131 165 206 254 309
#     4   9  16  27  46  72 101 133 169 212 261 309
#     4   9  16  27  44  68  99 130 163 209 261 307
#     4  10  21  36  54  78 107 139 176 220 268 319
#
# _framework density 21.775556000000002
#
# number of rings (size 3 to 8) (size 9 to 14) (size 15 to 20)
#    0.000    2.333    0.000    3.500    0.000    9.333 
#    0.000    0.000    0.000    2.000    0.000    0.000 
#    0.000    6.667    0.000    0.000    0.000    0.000 
#
# Total GULP energy -268320.185227 kJ/mol
# GULP energy per Si atom -5590.003859 kJ/mol
# Density = 2.172599 g / cm^3
# Si number density = 21.775556 Si / 1000 Ang^3
#
#
#
# Elastic Constant Matrix: (Units=GPa)
#
#
# Indices 1 2 3 4 5 6 
#
# 1 58.7904 -13.1515 -2.3962 0.0000 0.0000 0.0000
# 2 -13.1515 219.9406 147.4528 0.0000 0.0000 0.0000
# 3 -2.3962 147.4528 259.9023 0.0000 0.0000 0.0000
# 4 0.0000 0.0000 0.0000 50.2747 0.0000 0.0000
# 5 0.0000 0.0000 0.0000 0.0000 -1.8657 0.0000
# 6 0.0000 0.0000 0.0000 0.0000 0.0000 15.8262
#
#
#
# Elastic Compliance Matrix: (Units=1/GPa)
#
#
# Indices 1 2 3 4 5 6 
#
# 1 0.017317 0.001498 -0.000690 0.000000 0.000000 0.000000
# 2 0.001498 0.007467 -0.004223 0.000000 0.000000 0.000000
# 3 -0.000690 -0.004223 0.006237 0.000000 0.000000 0.000000
# 4 0.000000 0.000000 0.000000 0.019891 0.000000 0.000000
# 5 0.000000 0.000000 0.000000 0.000000 -0.535982 0.000000
# 6 0.000000 0.000000 0.000000 0.000000 0.000000 0.063187
#
#
# Mechanical properties :
#
#
# Convention : Reuss Voigt Hill
#
# Bulk Modulus (GPa) = 41.33719 89.16039 65.24879
# Shear Modulus (GPa) = -12.28528 39.96225 13.83849
#
# Velocity S-wave (km/s) = -2.37782 4.28856 2.52366
# Velocity P-wave (km/s) = 3.38907 8.09669 6.20654
#
# Compressibility (1/GPa) = 0.02419129
#
# Stress axis : x y z
#
# Youngs Moduli (GPa) = 57.74805 133.91877 160.33616
#
# Poissons Ratio (x) = -0.20065 0.11070
# Poissons Ratio (y) = -0.08652 0.67704
# Poissons Ratio (z) = 0.03987 0.56549
#
# Static dielectric constant tensor:
#      x y z
#    x 1.856000 0.000000 0.000000 
#    y 0.000000 1.720240 0.000000 
#    z 0.000000 0.000000 1.757400 
# 
# From -- ./inp_files/14378.got.cif
#   From: 2010.05.17/outbox.cif.g08.bks.cpg/sg59_8_cif.got.tgz:14378.got - 2010.06.03 14:40:33.
