data_PCOD9448073
_publ_section_title
;
Structure prediction by ZEFSAII (Michael W. Deem and Ramdas Pophale) SiO2 
 PCOD9448073
Probable space group: P M M N
;
_chemical_formula_sum "Si O2"
_cell_formula_units_Z 64
_cell_length_a 31.257107
_cell_length_b 7.733798
_cell_length_c 14.862256
_cell_angle_alpha 90.000000
_cell_angle_beta 90.000000
_cell_angle_gamma 90.000000
_cell_volume 3592.744570
_symmetry_space_group_name_H-M "P M M N"
_symmetry_group_IT_number 59
_space_group.IT_coordinate_system_code '2'
_symmetry_cell_setting 'orthorhombic'
loop_
_space_group_symop_operation_xyz
x,y,z
1/2-x,1/2-y,z
1/2+x,-y,-z
-x,1/2+y,-z
-x,-y,-z
1/2+x,1/2+y,-z
1/2-x,y,z
x,1/2-y,z
loop_
_atom_site_type_symbol
_atom_site_label
_atom_site_fract_x
_atom_site_fract_y
_atom_site_fract_z
Si Si1 0.941609 0.454711 0.046527
Si Si2 0.471021 0.949866 0.140321
Si Si3 0.531246 0.951502 0.656200
Si Si4 0.063084 0.545236 0.623709
Si Si5 0.883763 0.542693 0.201760
Si Si6 0.797651 0.961450 0.499729
Si Si7 0.888176 0.549062 0.551945
Si Si8 0.297162 0.039292 0.709913
O O1 0.950613 0.250000 0.043192
O O2 0.899429 0.485376 0.104107
O O3 0.980773 0.537838 0.101675
O O4 0.942876 0.517752 0.943530
O O5 0.460369 0.750000 0.156781
O O6 0.467651 0.040402 0.235930
O O7 0.530430 0.750000 0.628981
O O8 0.485585 0.024516 0.623317
O O9 0.574074 0.029500 0.612901
O O10 0.062488 0.750000 0.604882
O O11 0.082883 0.519450 0.722418
O O12 0.093244 0.459331 0.549424
O O13 0.884001 0.750000 0.204239
O O14 0.837061 0.479285 0.231574
O O15 0.750000 0.015219 0.530163
O O16 0.798237 0.750000 0.501555
O O17 0.840083 0.024529 0.550781
O O18 0.802249 0.011294 0.394640
O O19 0.883603 0.750000 0.578752
O O20 0.250000 0.983517 0.740297
O O21 0.297634 0.250000 0.710911
#
# Coordination Sequence:
#
# PCOD9448073 Si02
#       8
#     8   8   8   8   8   8   8   8
#     4  10  20  33  48  69  95 119 150 194 234 269
#     4  10  20  33  50  68  89 122 158 189 226 275
#     4  10  21  33  46  65  94 126 157 198 236 266
#     4  11  21  31  42  63  96 131 159 190 228 265
#     4  11  19  29  49  72  92 124 160 188 228 283
#     4   8  13  24  44  67  89 114 149 194 234 268
#     4  10  19  32  48  67  90 123 162 193 228 278
#     4   8  14  25  43  68  94 118 150 192 230 270
#
# _framework density 17.813679
#
# number of rings (size 3 to 8) (size 9 to 14) (size 15 to 20)
#    0.000    2.250    2.500    2.625    0.000    2.500 
#    0.000    0.000    0.000    2.625    0.000    0.875 
#    0.000    5.000    0.000    0.000    0.000    0.000 
#
# Total GULP energy -356892.795871 kJ/mol
# GULP energy per Si atom -5576.449935 kJ/mol
# Density = 1.777313 g / cm^3
# Si number density = 17.813679 Si / 1000 Ang^3
#
#
#
# Elastic Constant Matrix: (Units=GPa)
#
#
# Indices 1 2 3 4 5 6 
#
# 1 155.1923 0.7715 31.0895 0.0000 0.0000 0.0000
# 2 0.7715 31.8864 -6.7886 0.0000 0.0000 0.0000
# 3 31.0895 -6.7886 32.7315 0.0000 0.0000 0.0000
# 4 0.0000 0.0000 0.0000 13.1552 0.0000 0.0000
# 5 0.0000 0.0000 0.0000 0.0000 27.3887 0.0000
# 6 0.0000 0.0000 0.0000 0.0000 0.0000 8.8193
#
#
#
# Elastic Compliance Matrix: (Units=1/GPa)
#
#
# Indices 1 2 3 4 5 6 
#
# 1 0.008068 -0.001911 -0.008059 0.000000 0.000000 0.000000
# 2 -0.001911 0.033263 0.008714 0.000000 0.000000 0.000000
# 3 -0.008059 0.008714 0.040014 0.000000 0.000000 0.000000
# 4 0.000000 0.000000 0.000000 0.076016 0.000000 0.000000
# 5 0.000000 0.000000 0.000000 0.000000 0.036511 0.000000
# 6 0.000000 0.000000 0.000000 0.000000 0.000000 0.113388
#
#
# Mechanical properties :
#
#
# Convention : Reuss Voigt Hill
#
# Bulk Modulus (GPa) = 12.68529 29.99501 21.34015
# Shear Modulus (GPa) = 14.87880 22.85516 18.86698
#
# Velocity S-wave (km/s) = 2.89320 3.58580 3.25796
# Velocity P-wave (km/s) = 4.27754 5.83256 5.11449
#
# Compressibility (1/GPa) = 0.07883148
#
# Stress axis : x y z
#
# Youngs Moduli (GPa) = 123.95233 30.06368 24.99135
#
# Poissons Ratio (x) = 0.05745 0.20141
# Poissons Ratio (y) = 0.23687 -0.21777
# Poissons Ratio (z) = 0.99896 -0.26197
#
# Static dielectric constant tensor:
#      x y z
#    x 1.649410 0.000000 0.000000 
#    y 0.000000 1.677650 0.000000 
#    z 0.000000 0.000000 1.594340 
# 
# From -- ./inp_files/21902.got.cif
#   From: 2010.05.17/outbox.cif.g08.bks.cpg/sg59_11_cif.got.tgz:21902.got - 2010.06.03 14:40:33.
