data_PCOD9448737
_publ_section_title
;
Structure prediction by ZEFSAII (Michael W. Deem and Ramdas Pophale) SiO2 
 PCOD9448737
Probable space group: P M M N
;
_chemical_formula_sum "Si O2"
_cell_formula_units_Z 48
_cell_length_a 7.545052
_cell_length_b 28.763642
_cell_length_c 10.193791
_cell_angle_alpha 90.000000
_cell_angle_beta 90.000000
_cell_angle_gamma 90.000000
_cell_volume 2212.288884
_symmetry_space_group_name_H-M "P M M N"
_symmetry_group_IT_number 59
_space_group.IT_coordinate_system_code '2'
_symmetry_cell_setting 'orthorhombic'
loop_
_space_group_symop_operation_xyz
x,y,z
1/2-x,1/2-y,z
1/2+x,-y,-z
-x,1/2+y,-z
-x,-y,-z
1/2+x,1/2+y,-z
1/2-x,y,z
x,1/2-y,z
loop_
_atom_site_type_symbol
_atom_site_label
_atom_site_fract_x
_atom_site_fract_y
_atom_site_fract_z
Si Si1 0.958064 0.602386 0.934241
Si Si2 0.546456 0.451944 0.307096
Si Si3 0.463719 0.698441 0.070248
Si Si4 0.035302 0.900247 0.442661
Si Si5 0.040339 0.045243 0.819190
Si Si6 0.966069 0.301232 0.624510
O O1 0.750000 0.593381 0.918178
O O2 0.044522 0.590049 0.796307
O O3 0.031895 0.568006 0.047819
O O4 0.978225 0.654831 0.984851
O O5 0.750000 0.465209 0.336350
O O6 0.466781 0.434123 0.443265
O O7 0.465221 0.496350 0.232826
O O8 0.250000 0.698147 0.070215
O O9 0.521814 0.750000 0.026206
O O10 0.518899 0.693049 0.222594
O O11 0.250000 0.900262 0.450512
O O12 0.975255 0.846798 0.453394
O O13 0.984807 0.919200 0.300306
O O14 0.250000 0.038893 0.842805
O O15 0.750000 0.301045 0.622938
O O16 0.024315 0.250000 0.579895
#
# Coordination Sequence:
#
# PCOD9448737 Si02
#       6
#     8   8   8   8   8   8
#     4  11  22  35  53  78 107 143 180 218 266 312
#     4  10  22  37  52  75 109 144 180 221 266 320
#     4   9  17  32  56  81 104 134 172 216 264 312
#     4  10  19  33  56  81 103 135 176 220 269 318
#     4  10  21  36  53  76 106 140 180 224 268 317
#     4   8  14  27  50  79 104 126 161 210 259 308
#
# _framework density 21.696985000000002
#
# number of rings (size 3 to 8) (size 9 to 14) (size 15 to 20)
#    0.000    2.333    1.667    2.500    0.000    2.333 
#    0.000    0.833    0.000    3.500    0.000    0.000 
#    0.000    0.000    0.000    0.000    0.000    0.000 
#
# Total GULP energy -267978.706180 kJ/mol
# GULP energy per Si atom -5582.889712 kJ/mol
# Density = 2.164760 g / cm^3
# Si number density = 21.696985 Si / 1000 Ang^3
#
#
#
# Elastic Constant Matrix: (Units=GPa)
#
#
# Indices 1 2 3 4 5 6 
#
# 1 54.7036 -4.2395 -10.3638 0.0000 0.0000 0.0000
# 2 -4.2395 87.4460 -22.9332 0.0000 0.0000 0.0000
# 3 -10.3638 -22.9332 31.8688 0.0000 0.0000 0.0000
# 4 0.0000 0.0000 0.0000 4.0999 0.0000 0.0000
# 5 0.0000 0.0000 0.0000 0.0000 0.9896 0.0000
# 6 0.0000 0.0000 0.0000 0.0000 0.0000 20.4970
#
#
#
# Elastic Compliance Matrix: (Units=1/GPa)
#
#
# Indices 1 2 3 4 5 6 
#
# 1 0.020241 0.003337 0.008984 0.000000 0.000000 0.000000
# 2 0.003337 0.014646 0.011625 0.000000 0.000000 0.000000
# 3 0.008984 0.011625 0.042666 0.000000 0.000000 0.000000
# 4 0.000000 0.000000 0.000000 0.243908 0.000000 0.000000
# 5 0.000000 0.000000 0.000000 0.000000 1.010476 0.000000
# 6 0.000000 0.000000 0.000000 0.000000 0.000000 0.048788
#
#
# Mechanical properties :
#
#
# Convention : Reuss Voigt Hill
#
# Bulk Modulus (GPa) = 7.97158 10.99394 9.48276
# Shear Modulus (GPa) = 3.63730 19.22097 11.42913
#
# Velocity S-wave (km/s) = 1.29617 2.97961 2.29762
# Velocity P-wave (km/s) = 2.43353 4.11284 3.37917
#
# Compressibility (1/GPa) = 0.12544566
#
# Stress axis : x y z
#
# Youngs Moduli (GPa) = 49.40454 68.27749 23.43804
#
# Poissons Ratio (x) = -0.22787 -0.21057
# Poissons Ratio (y) = -0.16488 -0.27246
# Poissons Ratio (z) = -0.44386 -0.79372
#
# Static dielectric constant tensor:
#      x y z
#    x 1.812660 0.000000 0.000000 
#    y 0.000000 1.822870 0.000000 
#    z 0.000000 0.000000 1.749040 
# 
# From -- ./inp_files/6251.got.cif
#   From: 2010.05.17/outbox.cif.g08.bks.cpg/sg59_4_cif.got.tgz:6251.got - 2010.06.03 14:40:33.
