data_PCOD9448568
_publ_section_title
;
Structure prediction by ZEFSAII (Michael W. Deem and Ramdas Pophale) SiO2 
 PCOD9448568
Probable space group: P M M N
;
_chemical_formula_sum "Si O2"
_cell_formula_units_Z 56
_cell_length_a 20.447756
_cell_length_b 14.529624
_cell_length_c 9.060752
_cell_angle_alpha 90.000000
_cell_angle_beta 90.000000
_cell_angle_gamma 90.000000
_cell_volume 2691.933167
_symmetry_space_group_name_H-M "P M M N"
_symmetry_group_IT_number 59
_space_group.IT_coordinate_system_code '2'
_symmetry_cell_setting 'orthorhombic'
loop_
_space_group_symop_operation_xyz
x,y,z
1/2-x,1/2-y,z
1/2+x,-y,-z
-x,1/2+y,-z
-x,-y,-z
1/2+x,1/2+y,-z
1/2-x,y,z
x,1/2-y,z
loop_
_atom_site_type_symbol
_atom_site_label
_atom_site_fract_x
_atom_site_fract_y
_atom_site_fract_z
Si Si1 0.539459 0.354821 0.044593
Si Si2 0.062247 0.353219 0.823332
Si Si3 0.123198 0.998042 0.608891
Si Si4 0.637726 0.645199 0.607938
Si Si5 0.824079 0.886474 0.948060
Si Si6 0.517778 0.142136 0.375942
Si Si7 0.178709 0.584880 0.905291
O O1 0.515505 0.250000 0.044992
O O2 0.521793 0.390883 0.205436
O O3 0.617072 0.358074 0.039343
O O4 0.500559 0.395021 0.907597
O O5 0.049439 0.250000 0.764425
O O6 0.085743 0.423007 0.700736
O O7 0.120208 0.347847 0.944297
O O8 0.162115 0.058387 0.488372
O O9 0.069738 0.925326 0.545261
O O10 0.165329 0.945598 0.734778
O O11 0.657640 0.750000 0.563509
O O12 0.656977 0.632044 0.778917
O O13 0.558854 0.639333 0.590703
O O14 0.750000 0.852792 0.975027
O O15 0.822891 0.993603 0.993820
O O16 0.538492 0.250000 0.385245
O O17 0.250000 0.628066 0.915854
#
# Coordination Sequence:
#
# PCOD9448568 Si02
#       7
#     8   8   8   8   8   8   8
#     4   9  17  31  55  82 105 135 176 224 269 312
#     4  10  19  33  53  81 112 140 178 218 258 318
#     4  10  21  33  54  77 107 140 173 216 277 307
#     4  11  21  34  51  76 107 139 177 217 260 315
#     4  10  21  35  54  76 105 148 185 212 256 316
#     4   9  18  33  52  77 105 135 174 218 260 316
#     4   9  20  36  53  76 105 138 180 222 264 320
#
# _framework density 20.802894999999999
#
# number of rings (size 3 to 8) (size 9 to 14) (size 15 to 20)
#    0.000    2.286    1.429    1.286    2.000    3.714 
#    0.000    0.000    0.000    2.571    0.000    0.000 
#    0.000    0.000    0.000    0.000    0.000    0.000 
#
# Total GULP energy -312187.848063 kJ/mol
# GULP energy per Si atom -5574.783001 kJ/mol
# Density = 2.075555 g / cm^3
# Si number density = 20.802895 Si / 1000 Ang^3
#
#
#
# Elastic Constant Matrix: (Units=GPa)
#
#
# Indices 1 2 3 4 5 6 
#
# 1 104.4088 6.1319 18.1481 0.0000 0.0000 0.0000
# 2 6.1319 77.2647 12.9198 0.0000 0.0000 0.0000
# 3 18.1481 12.9198 48.7105 0.0000 0.0000 0.0000
# 4 0.0000 0.0000 0.0000 16.4035 0.0000 0.0000
# 5 0.0000 0.0000 0.0000 0.0000 7.9189 0.0000
# 6 0.0000 0.0000 0.0000 0.0000 0.0000 21.3331
#
#
#
# Elastic Compliance Matrix: (Units=1/GPa)
#
#
# Indices 1 2 3 4 5 6 
#
# 1 0.010243 -0.000183 -0.003768 0.000000 0.000000 0.000000
# 2 -0.000183 0.013546 -0.003525 0.000000 0.000000 0.000000
# 3 -0.003768 -0.003525 0.022868 0.000000 0.000000 0.000000
# 4 0.000000 0.000000 0.000000 0.060963 0.000000 0.000000
# 5 0.000000 0.000000 0.000000 0.000000 0.126280 0.000000
# 6 0.000000 0.000000 0.000000 0.000000 0.000000 0.046876
#
#
# Mechanical properties :
#
#
# Convention : Reuss Voigt Hill
#
# Bulk Modulus (GPa) = 31.53904 33.86485 32.70194
# Shear Modulus (GPa) = 16.32403 22.01004 19.16703
#
# Velocity S-wave (km/s) = 2.80429 3.25626 3.03869
# Velocity P-wave (km/s) = 5.06746 5.51833 5.29769
#
# Compressibility (1/GPa) = 0.03170674
#
# Stress axis : x y z
#
# Youngs Moduli (GPa) = 97.62388 73.82011 43.72887
#
# Poissons Ratio (x) = 0.01350 0.16476
# Poissons Ratio (y) = 0.01785 0.15414
# Poissons Ratio (z) = 0.36783 0.26021
#
# Static dielectric constant tensor:
#      x y z
#    x 1.784660 0.000000 0.000000 
#    y 0.000000 1.778720 0.000000 
#    z 0.000000 0.000000 1.768250 
# 
# From -- ./inp_files/11456.got.cif
#   From: 2010.05.17/outbox.cif.g08.bks.cpg/sg59_6_cif.got.tgz:11456.got - 2010.06.03 14:40:33.
