data_PCOD9448185
_publ_section_title
;
Structure prediction by ZEFSAII (Michael W. Deem and Ramdas Pophale) SiO2 
 PCOD9448185
Probable space group: P M M N
;
_chemical_formula_sum "Si O2"
_cell_formula_units_Z 64
_cell_length_a 8.572053
_cell_length_b 18.173404
_cell_length_c 23.504402
_cell_angle_alpha 90.000000
_cell_angle_beta 90.000000
_cell_angle_gamma 90.000000
_cell_volume 3661.595242
_symmetry_space_group_name_H-M "P M M N"
_symmetry_group_IT_number 59
_space_group.IT_coordinate_system_code '2'
_symmetry_cell_setting 'orthorhombic'
loop_
_space_group_symop_operation_xyz
x,y,z
1/2-x,1/2-y,z
1/2+x,-y,-z
-x,1/2+y,-z
-x,-y,-z
1/2+x,1/2+y,-z
1/2-x,y,z
x,1/2-y,z
loop_
_atom_site_type_symbol
_atom_site_label
_atom_site_fract_x
_atom_site_fract_y
_atom_site_fract_z
Si Si1 0.936978 0.466696 0.137315
Si Si2 0.564682 0.039588 0.376135
Si Si3 0.936501 0.011612 0.742515
Si Si4 0.437836 0.433726 0.961130
Si Si5 0.438992 0.166323 0.059768
Si Si6 0.061640 0.166719 0.455569
Si Si7 0.937090 0.878058 0.418082
Si Si8 0.437691 0.830088 0.298072
O O1 0.750000 0.463077 0.136517
O O2 0.987655 0.540042 0.101573
O O3 0.995752 0.474969 0.201181
O O4 0.000003 0.394483 0.104414
O O5 0.750000 0.042817 0.368178
O O6 0.506778 0.108462 0.411920
O O7 0.485805 0.030603 0.314731
O O8 0.528904 0.964678 0.410838
O O9 0.750000 0.012597 0.746422
O O10 0.993967 0.096364 0.734113
O O11 0.250000 0.433642 0.961100
O O12 0.500000 0.500000 0.000000
O O13 0.486458 0.361242 0.996099
O O14 0.250000 0.165163 0.062347
O O15 0.490962 0.250000 0.070604
O O16 0.250000 0.160896 0.454751
O O17 0.018113 0.250000 0.440812
O O18 0.011092 0.149836 0.520387
O O19 0.750000 0.867392 0.413999
O O20 0.013856 0.839239 0.363925
O O21 0.250000 0.830846 0.294986
O O22 0.493264 0.750000 0.277233
#
# Coordination Sequence:
#
# PCOD9448185 Si02
#       8
#     8   8   8   8   8   8   8   8
#     4  10  19  32  51  75 103 133 169 209 245 286
#     4  10  20  34  52  73  97 126 164 208 249 292
#     4  10  20  35  54  72  96 133 172 206 243 292
#     4   8  15  28  47  71  98 127 156 190 233 279
#     4   9  17  31  52  77 104 134 168 204 244 291
#     4  10  20  33  49  71 100 131 161 196 244 302
#     4   9  18  32  51  74  98 126 159 196 244 302
#     4   9  18  32  50  73  99 126 159 202 249 294
#
# _framework density 17.478722000000001
#
# number of rings (size 3 to 8) (size 9 to 14) (size 15 to 20)
#    0.000    2.625    0.000    1.875    0.000    3.250 
#    0.000    1.250    0.000    4.500    0.000    0.000 
#    0.000    0.000    0.000    0.000    0.000    0.000 
#
# Total GULP energy -356605.854039 kJ/mol
# GULP energy per Si atom -5571.966469 kJ/mol
# Density = 1.743894 g / cm^3
# Si number density = 17.478722 Si / 1000 Ang^3
#
#
#
# Elastic Constant Matrix: (Units=GPa)
#
#
# Indices 1 2 3 4 5 6 
#
# 1 15.6327 26.9215 14.8540 0.0000 0.0000 0.0000
# 2 26.9215 110.5046 44.1989 0.0000 0.0000 0.0000
# 3 14.8540 44.1989 61.3434 0.0000 0.0000 0.0000
# 4 0.0000 0.0000 0.0000 15.5556 0.0000 0.0000
# 5 0.0000 0.0000 0.0000 0.0000 16.7752 0.0000
# 6 0.0000 0.0000 0.0000 0.0000 0.0000 19.0865
#
#
#
# Elastic Compliance Matrix: (Units=1/GPa)
#
#
# Indices 1 2 3 4 5 6 
#
# 1 0.115053 -0.023723 -0.010767 0.000000 0.000000 0.000000
# 2 -0.023723 0.017605 -0.006940 0.000000 0.000000 0.000000
# 3 -0.010767 -0.006940 0.023909 0.000000 0.000000 0.000000
# 4 0.000000 0.000000 0.000000 0.064286 0.000000 0.000000
# 5 0.000000 0.000000 0.000000 0.000000 0.059612 0.000000
# 6 0.000000 0.000000 0.000000 0.000000 0.000000 0.052393
#
#
# Mechanical properties :
#
#
# Convention : Reuss Voigt Hill
#
# Bulk Modulus (GPa) = 13.56720 39.93662 26.75191
# Shear Modulus (GPa) = 11.35626 17.05054 14.20340
#
# Velocity S-wave (km/s) = 2.55172 3.12669 2.85373
# Velocity P-wave (km/s) = 4.05718 5.99443 5.11830
#
# Compressibility (1/GPa) = 0.07370716
#
# Stress axis : x y z
#
# Youngs Moduli (GPa) = 8.69166 56.80284 41.82498
#
# Poissons Ratio (x) = 1.34754 0.45031
# Poissons Ratio (y) = 0.20619 0.29027
# Poissons Ratio (z) = 0.09358 0.39421
#
# Static dielectric constant tensor:
#      x y z
#    x 1.593320 0.000000 0.000000 
#    y 0.000000 1.609240 0.000000 
#    z 0.000000 0.000000 1.574350 
# 
# From -- ./inp_files/29394.got.cif
#   From: 2010.05.17/outbox.cif.g08.bks.cpg/sg59_15_cif.got.tgz:29394.got - 2010.06.03 14:40:33.
