data_PCOD9448789
_publ_section_title
;
Structure prediction by ZEFSAII (Michael W. Deem and Ramdas Pophale) SiO2 
 PCOD9448789
Probable space group: P M M N
;
_chemical_formula_sum "Si O2"
_cell_formula_units_Z 64
_cell_length_a 31.871759
_cell_length_b 11.155816
_cell_length_c 9.565133
_cell_angle_alpha 90.000000
_cell_angle_beta 90.000000
_cell_angle_gamma 90.000000
_cell_volume 3400.935446
_symmetry_space_group_name_H-M "P M M N"
_symmetry_group_IT_number 59
_space_group.IT_coordinate_system_code '2'
_symmetry_cell_setting 'orthorhombic'
loop_
_space_group_symop_operation_xyz
x,y,z
1/2-x,1/2-y,z
1/2+x,-y,-z
-x,1/2+y,-z
-x,-y,-z
1/2+x,1/2+y,-z
1/2-x,y,z
x,1/2-y,z
loop_
_atom_site_type_symbol
_atom_site_label
_atom_site_fract_x
_atom_site_fract_y
_atom_site_fract_z
Si Si1 0.799201 0.893424 0.325342
Si Si2 0.417026 0.886849 0.378558
Si Si3 0.069235 0.609305 0.677135
Si Si4 0.005697 0.956255 0.212549
Si Si5 0.199723 0.387576 0.351312
Si Si6 0.136110 0.988936 0.889701
Si Si7 0.160095 0.606626 0.184449
Si Si8 0.441518 0.120645 0.009348
O O1 0.750000 0.928493 0.310721
O O2 0.801499 0.750000 0.304549
O O3 0.812579 0.915210 0.487072
O O4 0.828704 0.957533 0.212638
O O5 0.404974 0.750000 0.403366
O O6 0.415056 0.946566 0.530337
O O7 0.464383 0.893473 0.323338
O O8 0.384356 0.923111 0.259778
O O9 0.062416 0.750000 0.663381
O O10 0.025164 0.551201 0.717119
O O11 0.103742 0.587225 0.795969
O O12 0.973620 0.878194 0.121583
O O13 0.038162 0.021111 0.108150
O O14 0.250000 0.379445 0.352002
O O15 0.184489 0.250000 0.315305
O O16 0.188102 0.500332 0.252718
O O17 0.155478 0.916131 0.019134
O O18 0.104874 0.087999 0.957125
O O19 0.170520 0.750000 0.207721
O O20 0.441695 0.250000 0.079484
#
# Coordination Sequence:
#
# PCOD9448789 Si02
#       8
#     8   8   8   8   8   8   8   8
#     4   9  19  38  64  90 117 150 189 236 292 354
#     4  10  20  36  54  77 109 147 193 240 290 345
#     4  10  21  35  55  77 105 147 192 241 291 342
#     4  10  19  34  51  76 105 145 189 241 291 343
#     4   9  20  41  66  91 118 150 191 240 295 354
#     4  11  21  36  56  82 118 151 193 234 286 346
#     4  11  23  38  58  86 121 159 198 241 294 353
#     4  10  20  32  50  77 110 146 187 237 292 345
#
# _framework density 18.818352000000001
#
# number of rings (size 3 to 8) (size 9 to 14) (size 15 to 20)
#    0.000    2.000    1.250    3.375    0.000    1.750 
#    0.000    1.875    0.000    7.875    0.000    0.000 
#    0.000    0.000    0.000    0.000    0.000    0.000 
#
# Total GULP energy -356333.309238 kJ/mol
# GULP energy per Si atom -5567.707957 kJ/mol
# Density = 1.877552 g / cm^3
# Si number density = 18.818352 Si / 1000 Ang^3
#
#
#
# Elastic Constant Matrix: (Units=GPa)
#
#
# Indices 1 2 3 4 5 6 
#
# 1 44.9394 13.7856 15.2391 0.0000 0.0000 0.0000
# 2 13.7856 69.0385 24.2062 0.0000 0.0000 0.0000
# 3 15.2391 24.2062 97.2713 0.0000 0.0000 0.0000
# 4 0.0000 0.0000 0.0000 32.2049 0.0000 0.0000
# 5 0.0000 0.0000 0.0000 0.0000 13.3910 0.0000
# 6 0.0000 0.0000 0.0000 0.0000 0.0000 21.6598
#
#
#
# Elastic Compliance Matrix: (Units=1/GPa)
#
#
# Indices 1 2 3 4 5 6 
#
# 1 0.024410 -0.003871 -0.002861 0.000000 0.000000 0.000000
# 2 -0.003871 0.016483 -0.003495 0.000000 0.000000 0.000000
# 3 -0.002861 -0.003495 0.011599 0.000000 0.000000 0.000000
# 4 0.000000 0.000000 0.000000 0.031051 0.000000 0.000000
# 5 0.000000 0.000000 0.000000 0.000000 0.074677 0.000000
# 6 0.000000 0.000000 0.000000 0.000000 0.000000 0.046168
#
#
# Mechanical properties :
#
#
# Convention : Reuss Voigt Hill
#
# Bulk Modulus (GPa) = 31.21402 35.30121 33.25761
# Shear Modulus (GPa) = 21.22943 23.98569 22.60756
#
# Velocity S-wave (km/s) = 3.36240 3.57401 3.46982
# Velocity P-wave (km/s) = 5.63004 5.98591 5.81070
#
# Compressibility (1/GPa) = 0.03203689
#
# Stress axis : x y z
#
# Youngs Moduli (GPa) = 40.96713 60.66780 86.21762
#
# Poissons Ratio (x) = 0.23485 0.24666
# Poissons Ratio (y) = 0.15859 0.30137
# Poissons Ratio (z) = 0.11720 0.21206
#
# Static dielectric constant tensor:
#      x y z
#    x 1.638700 0.000000 0.000000 
#    y 0.000000 1.682550 0.000000 
#    z 0.000000 0.000000 1.702690 
# 
# From -- ./inp_files/13199.got.cif
#   From: 2010.05.17/outbox.cif.g08.bks.cpg/sg59_7_cif.got.tgz:13199.got - 2010.06.03 14:40:33.
