data_PCOD9448513
_publ_section_title
;
Structure prediction by ZEFSAII (Michael W. Deem and Ramdas Pophale) SiO2 
 PCOD9448513
Probable space group: P M M N
;
_chemical_formula_sum "Si O2"
_cell_formula_units_Z 48
_cell_length_a 27.692284
_cell_length_b 15.036419
_cell_length_c 5.630513
_cell_angle_alpha 90.000000
_cell_angle_beta 90.000000
_cell_angle_gamma 90.000000
_cell_volume 2344.504991
_symmetry_space_group_name_H-M "P M M N"
_symmetry_group_IT_number 59
_space_group.IT_coordinate_system_code '2'
_symmetry_cell_setting 'orthorhombic'
loop_
_space_group_symop_operation_xyz
x,y,z
1/2-x,1/2-y,z
1/2+x,-y,-z
-x,1/2+y,-z
-x,-y,-z
1/2+x,1/2+y,-z
1/2-x,y,z
x,1/2-y,z
loop_
_atom_site_type_symbol
_atom_site_label
_atom_site_fract_x
_atom_site_fract_y
_atom_site_fract_z
Si Si1 0.836970 0.551152 0.812349
Si Si2 0.519433 0.563050 0.297130
Si Si3 0.065944 0.750000 0.945127
Si Si4 0.623614 0.750000 0.833948
Si Si5 0.119858 0.250000 0.671345
Si Si6 0.006429 0.750000 0.446824
Si Si7 0.804224 0.587485 0.312073
Si Si8 0.077909 0.555007 0.003913
O O1 0.846605 0.658020 0.827482
O O2 0.812087 0.532816 0.067665
O O3 0.885883 0.493083 0.816586
O O4 0.810431 0.536446 0.562714
O O5 0.500000 0.500000 0.500000
O O6 0.522629 0.659737 0.405933
O O7 0.568073 0.519144 0.197988
O O8 0.476180 0.568498 0.105647
O O9 0.030676 0.750000 0.710710
O O10 0.092961 0.654309 0.927754
O O11 0.043833 0.750000 0.216839
O O12 0.592969 0.750000 0.075317
O O13 0.596848 0.750000 0.586691
O O14 0.155582 0.164864 0.680531
O O15 0.750000 0.625249 0.304631
#
# Coordination Sequence:
#
# PCOD9448513 Si02
#       8
#     8   8   4   4   4   4   8   8
#     4  10  21  33  53  76 109 140 177 219 268 320
#     4  10  20  36  57  78 112 145 184 224 272 320
#     4  10  20  36  56  78 104 137 188 231 261 316
#     4   8  16  31  44  72 107 137 172 213 256 318
#     4   8  15  28  48  70 100 140 178 210 250 305
#     4  10  20  35  55  80 106 144 184 224 268 317
#     4  10  19  33  52  77 105 140 177 218 265 323
#     4  10  22  36  56  82 109 144 183 231 274 320
#
# _framework density 20.473406000000001
#
# number of rings (size 3 to 8) (size 9 to 14) (size 15 to 20)
#    0.000    2.333    1.667    0.750    2.333    0.667 
#    0.000    6.667    0.000    0.000    0.000    3.500 
#    0.000    0.000    0.000    0.000    0.000    0.000 
#
# Total GULP energy -267218.497147 kJ/mol
# GULP energy per Si atom -5567.052024 kJ/mol
# Density = 2.042681 g / cm^3
# Si number density = 20.473406 Si / 1000 Ang^3
#
#
#
# Elastic Constant Matrix: (Units=GPa)
#
#
# Indices 1 2 3 4 5 6 
#
# 1 42.2641 18.7729 19.3361 0.0000 0.0000 0.0000
# 2 18.7729 106.7074 2.6285 0.0000 0.0000 0.0000
# 3 19.3361 2.6285 163.8244 0.0000 0.0000 0.0000
# 4 0.0000 0.0000 0.0000 19.1040 0.0000 0.0000
# 5 0.0000 0.0000 0.0000 0.0000 20.8263 0.0000
# 6 0.0000 0.0000 0.0000 0.0000 0.0000 11.4318
#
#
#
# Elastic Compliance Matrix: (Units=1/GPa)
#
#
# Indices 1 2 3 4 5 6 
#
# 1 0.027184 -0.004705 -0.003133 0.000000 0.000000 0.000000
# 2 -0.004705 0.010190 0.000392 0.000000 0.000000 0.000000
# 3 -0.003133 0.000392 0.006468 0.000000 0.000000 0.000000
# 4 0.000000 0.000000 0.000000 0.052345 0.000000 0.000000
# 5 0.000000 0.000000 0.000000 0.000000 0.048016 0.000000
# 6 0.000000 0.000000 0.000000 0.000000 0.000000 0.087476
#
#
# Mechanical properties :
#
#
# Convention : Reuss Voigt Hill
#
# Bulk Modulus (GPa) = 34.54424 43.80789 39.17607
# Shear Modulus (GPa) = 19.51445 28.40965 23.96205
#
# Velocity S-wave (km/s) = 3.09068 3.72914 3.42482
# Velocity P-wave (km/s) = 5.44479 6.32344 5.90049
#
# Compressibility (1/GPa) = 0.02894838
#
# Stress axis : x y z
#
# Youngs Moduli (GPa) = 36.78621 98.13970 154.61690
#
# Poissons Ratio (x) = 0.46177 0.48442
# Poissons Ratio (y) = 0.17309 -0.06059
# Poissons Ratio (z) = 0.11525 -0.03846
#
# Static dielectric constant tensor:
#      x y z
#    x 1.610830 0.000000 0.000000 
#    y 0.000000 1.767080 0.000000 
#    z 0.000000 0.000000 1.779370 
# 
# From -- ./inp_files/2193.got.cif
#   From: 2010.05.17/outbox.cif.g08.bks.cpg/sg59_2_cif.got.tgz:2193.got - 2010.06.03 14:40:33.
