data_PCOD9448601
_publ_section_title
;
Structure prediction by ZEFSAII (Michael W. Deem and Ramdas Pophale) SiO2 
 PCOD9448601
Probable space group: P M M N
;
_chemical_formula_sum "Si O2"
_cell_formula_units_Z 64
_cell_length_a 25.909323
_cell_length_b 8.311227
_cell_length_c 14.896604
_cell_angle_alpha 90.000000
_cell_angle_beta 90.000000
_cell_angle_gamma 90.000000
_cell_volume 3207.808858
_symmetry_space_group_name_H-M "P M M N"
_symmetry_group_IT_number 59
_space_group.IT_coordinate_system_code '2'
_symmetry_cell_setting 'orthorhombic'
loop_
_space_group_symop_operation_xyz
x,y,z
1/2-x,1/2-y,z
1/2+x,-y,-z
-x,1/2+y,-z
-x,-y,-z
1/2+x,1/2+y,-z
1/2-x,y,z
x,1/2-y,z
loop_
_atom_site_type_symbol
_atom_site_label
_atom_site_fract_x
_atom_site_fract_y
_atom_site_fract_z
Si Si1 0.191478 0.555659 0.287585
Si Si2 0.513388 0.436082 0.724724
Si Si3 0.554870 0.435013 0.530627
Si Si4 0.335835 0.435504 0.487095
Si Si5 0.805950 0.057459 0.322187
Si Si6 0.056973 0.555536 0.969777
Si Si7 0.102447 0.553320 0.151445
Si Si8 0.090835 0.558078 0.772875
O O1 0.250000 0.504094 0.266616
O O2 0.189947 0.750000 0.286836
O O3 0.178199 0.502899 0.388988
O O4 0.150119 0.498635 0.213116
O O5 0.500687 0.250000 0.743176
O O6 0.549935 0.438667 0.638244
O O7 0.548739 0.503595 0.803921
O O8 0.459379 0.524202 0.712137
O O9 0.500000 0.500000 0.500000
O O10 0.563117 0.250000 0.502227
O O11 0.602747 0.541180 0.501470
O O12 0.321241 0.250000 0.490369
O O13 0.311170 0.523608 0.571900
O O14 0.750000 0.995216 0.291089
O O15 0.806024 0.250000 0.310438
O O16 0.856339 0.992854 0.270010
O O17 0.055373 0.750000 0.966669
O O18 0.097952 0.508682 0.047356
O O19 0.074906 0.496232 0.871861
O O20 0.000000 0.500000 0.000000
O O21 0.102085 0.750000 0.156346
O O22 0.096625 0.750000 0.780104
#
# Coordination Sequence:
#
# PCOD9448601 Si02
#       8
#     8   8   8   8   8   8   8   8
#     4  10  20  37  60  82 108 148 192 230 276 335
#     4  10  19  33  54  77 109 147 178 216 271 331
#     4  11  22  36  53  78 113 151 191 231 278 334
#     4  12  24  37  56  83 113 146 188 235 282 330
#     4  10  22  41  60  77 106 150 191 232 283 333
#     4  10  19  33  55  82 113 143 177 222 273 328
#     4   9  17  33  54  79 110 143 178 221 271 328
#     4  10  21  35  55  85 113 139 182 232 275 328
#
# _framework density 19.951312999999999
#
# number of rings (size 3 to 8) (size 9 to 14) (size 15 to 20)
#    0.000    1.750    2.500    2.625    0.000    5.500 
#    0.000    1.250    0.000    3.750    0.000    0.000 
#    0.000    3.000    0.000    0.000    0.000    0.000 
#
# Total GULP energy -357220.947679 kJ/mol
# GULP energy per Si atom -5581.577307 kJ/mol
# Density = 1.990590 g / cm^3
# Si number density = 19.951313 Si / 1000 Ang^3
#
#
#
# Elastic Constant Matrix: (Units=GPa)
#
#
# Indices 1 2 3 4 5 6 
#
# 1 146.5390 5.5560 42.2928 0.0000 0.0000 0.0000
# 2 5.5560 11.6517 5.6348 0.0000 0.0000 0.0000
# 3 42.2928 5.6348 73.6812 0.0000 0.0000 0.0000
# 4 0.0000 0.0000 0.0000 12.0207 0.0000 0.0000
# 5 0.0000 0.0000 0.0000 0.0000 15.2276 0.0000
# 6 0.0000 0.0000 0.0000 0.0000 0.0000 17.2106
#
#
#
# Elastic Compliance Matrix: (Units=1/GPa)
#
#
# Indices 1 2 3 4 5 6 
#
# 1 0.008211 -0.001699 -0.004583 0.000000 0.000000 0.000000
# 2 -0.001699 0.089472 -0.005867 0.000000 0.000000 0.000000
# 3 -0.004583 -0.005867 0.016652 0.000000 0.000000 0.000000
# 4 0.000000 0.000000 0.000000 0.083190 0.000000 0.000000
# 5 0.000000 0.000000 0.000000 0.000000 0.065670 0.000000
# 6 0.000000 0.000000 0.000000 0.000000 0.000000 0.058104
#
#
# Mechanical properties :
#
#
# Convention : Reuss Voigt Hill
#
# Bulk Modulus (GPa) = 11.10670 37.64879 24.37774
# Shear Modulus (GPa) = 13.31168 20.78432 17.04800
#
# Velocity S-wave (km/s) = 2.58584 3.23112 2.92632
# Velocity P-wave (km/s) = 3.80715 5.72988 4.86446
#
# Compressibility (1/GPa) = 0.09003573
#
# Stress axis : x y z
#
# Youngs Moduli (GPa) = 121.78265 11.17670 60.05458
#
# Poissons Ratio (x) = 0.01899 0.27525
# Poissons Ratio (y) = 0.20690 0.35235
# Poissons Ratio (z) = 0.55817 0.06558
#
# Static dielectric constant tensor:
#      x y z
#    x 1.717830 0.000000 0.000000 
#    y 0.000000 1.702200 0.000000 
#    z 0.000000 0.000000 1.743040 
# 
# From -- ./inp_files/24706.got.cif
#   From: 2010.05.17/outbox.cif.g08.bks.cpg/sg59_13_cif.got.tgz:24706.got - 2010.06.03 14:40:33.
