data_PCOD9448918
_publ_section_title
;
Structure prediction by ZEFSAII (Michael W. Deem and Ramdas Pophale) SiO2 
 PCOD9448918
Probable space group: P M M N
;
_chemical_formula_sum "Si O2"
_cell_formula_units_Z 40
_cell_length_a 26.860722
_cell_length_b 8.633333
_cell_length_c 9.334721
_cell_angle_alpha 90.000000
_cell_angle_beta 90.000000
_cell_angle_gamma 90.000000
_cell_volume 2164.699001
_symmetry_space_group_name_H-M "P M M N"
_symmetry_group_IT_number 59
_space_group.IT_coordinate_system_code '2'
_symmetry_cell_setting 'orthorhombic'
loop_
_space_group_symop_operation_xyz
x,y,z
1/2-x,1/2-y,z
1/2+x,-y,-z
-x,1/2+y,-z
-x,-y,-z
1/2+x,1/2+y,-z
1/2-x,y,z
x,1/2-y,z
loop_
_atom_site_type_symbol
_atom_site_label
_atom_site_fract_x
_atom_site_fract_y
_atom_site_fract_z
Si Si1 0.355532 0.435746 0.408036
Si Si2 0.250000 0.571324 0.421016
Si Si3 0.641950 0.437248 0.913788
Si Si4 0.250000 0.570732 0.072376
Si Si5 0.547327 0.563205 0.414754
Si Si6 0.952223 0.563709 0.083300
O O1 0.355219 0.250000 0.396116
O O2 0.301600 0.491015 0.463795
O O3 0.363631 0.506646 0.250052
O O4 0.401163 0.484321 0.509167
O O5 0.250000 0.750000 0.465831
O O6 0.250000 0.568498 0.246428
O O7 0.642290 0.250000 0.913756
O O8 0.696258 0.495447 0.968590
O O9 0.597238 0.500206 0.008158
O O10 0.250000 0.750000 0.025982
O O11 0.500000 0.500000 0.500000
O O12 0.545459 0.750000 0.418469
O O13 0.545817 0.514598 0.249245
O O14 0.952258 0.750000 0.077132
O O15 0.000000 0.500000 0.000000
#
# Coordination Sequence:
#
# PCOD9448918 Si02
#       6
#     8   4   8   4   8   8
#     4  10  19  34  56  82 110 145 183 222 267 320
#     4   9  17  31  52  81 112 144 180 222 266 315
#     4  10  19  34  56  83 112 144 180 224 269 317
#     4   7  14  29  50  75 106 138 172 210 254 303
#     4  10  23  39  56  78 107 140 179 224 273 326
#     4  11  23  39  56  79 108 141 180 225 275 330
#
# _framework density 18.47832
#
# number of rings (size 3 to 8) (size 9 to 14) (size 15 to 20)
#    0.000    2.200    0.000    4.500    0.000    6.400 
#    0.000    2.500    0.000    3.600    0.000    0.000 
#    0.000    0.000    0.000    0.000    0.000    0.000 
#
# Total GULP energy -223212.887160 kJ/mol
# GULP energy per Si atom -5580.322179 kJ/mol
# Density = 1.843626 g / cm^3
# Si number density = 18.478320 Si / 1000 Ang^3
#
#
#
# Elastic Constant Matrix: (Units=GPa)
#
#
# Indices 1 2 3 4 5 6 
#
# 1 229.5895 48.6935 106.7486 0.0000 0.0000 0.0000
# 2 48.6935 55.5789 35.2794 0.0000 0.0000 0.0000
# 3 106.7486 35.2794 116.8995 0.0000 0.0000 0.0000
# 4 0.0000 0.0000 0.0000 21.4346 0.0000 0.0000
# 5 0.0000 0.0000 0.0000 0.0000 33.5349 0.0000
# 6 0.0000 0.0000 0.0000 0.0000 0.0000 35.9223
#
#
#
# Elastic Compliance Matrix: (Units=1/GPa)
#
#
# Indices 1 2 3 4 5 6 
#
# 1 0.007932 -0.002909 -0.006366 0.000000 0.000000 0.000000
# 2 -0.002909 0.023323 -0.004382 0.000000 0.000000 0.000000
# 3 -0.006366 -0.004382 0.015690 0.000000 0.000000 0.000000
# 4 0.000000 0.000000 0.000000 0.046653 0.000000 0.000000
# 5 0.000000 0.000000 0.000000 0.000000 0.029820 0.000000
# 6 0.000000 0.000000 0.000000 0.000000 0.000000 0.027838
#
#
# Mechanical properties :
#
#
# Convention : Reuss Voigt Hill
#
# Bulk Modulus (GPa) = 50.93956 87.05675 68.99815
# Shear Modulus (GPa) = 27.01053 32.26812 29.63932
#
# Velocity S-wave (km/s) = 3.82742 4.18337 4.00935
# Velocity P-wave (km/s) = 6.86726 8.39936 7.67165
#
# Compressibility (1/GPa) = 0.01963111
#
# Stress axis : x y z
#
# Youngs Moduli (GPa) = 126.06755 42.87671 63.73600
#
# Poissons Ratio (x) = 0.12473 0.40572
# Poissons Ratio (y) = 0.36672 0.27931
# Poissons Ratio (z) = 0.80249 0.18790
#
# Static dielectric constant tensor:
#      x y z
#    x 1.645800 0.000000 0.000000 
#    y 0.000000 1.633250 0.000000 
#    z 0.000000 0.000000 1.611440 
# 
# From -- ./inp_files/12421.got.cif
#   From: 2010.05.17/outbox.cif.g08.bks.cpg/sg59_7_cif.got.tgz:12421.got - 2010.06.03 14:40:33.
