data_PCOD9448361
_publ_section_title
;
Structure prediction by ZEFSAII (Michael W. Deem and Ramdas Pophale) SiO2 
 PCOD9448361
Probable space group: P M M N
;
_chemical_formula_sum "Si O2"
_cell_formula_units_Z 56
_cell_length_a 20.753795
_cell_length_b 8.970506
_cell_length_c 15.650689
_cell_angle_alpha 90.000000
_cell_angle_beta 90.000000
_cell_angle_gamma 90.000000
_cell_volume 2913.720739
_symmetry_space_group_name_H-M "P M M N"
_symmetry_group_IT_number 59
_space_group.IT_coordinate_system_code '2'
_symmetry_cell_setting 'orthorhombic'
loop_
_space_group_symop_operation_xyz
x,y,z
1/2-x,1/2-y,z
1/2+x,-y,-z
-x,1/2+y,-z
-x,-y,-z
1/2+x,1/2+y,-z
1/2-x,y,z
x,1/2-y,z
loop_
_atom_site_type_symbol
_atom_site_label
_atom_site_fract_x
_atom_site_fract_y
_atom_site_fract_z
Si Si1 0.323985 0.927849 0.450617
Si Si2 0.645106 0.922458 0.186197
Si Si3 0.177497 0.925740 0.986168
Si Si4 0.003115 0.921266 0.224996
Si Si5 0.173780 0.083301 0.624903
Si Si6 0.534096 0.429889 0.584080
Si Si7 0.946873 0.573776 0.937059
O O1 0.250000 0.983433 0.430679
O O2 0.320377 0.750000 0.443780
O O3 0.390132 0.975315 0.403647
O O4 0.341635 0.976611 0.547045
O O5 0.667721 0.750000 0.178127
O O6 0.568028 0.920902 0.184509
O O7 0.660772 0.975974 0.281204
O O8 0.673189 0.022994 0.112249
O O9 0.250000 0.953752 0.017531
O O10 0.163908 0.750000 0.993023
O O11 0.122921 0.018292 0.033554
O O12 0.027454 0.750000 0.223173
O O13 0.000756 0.966361 0.324815
O O14 0.042854 0.022950 0.160598
O O15 0.250000 0.101799 0.619390
O O16 0.143460 0.250000 0.616744
O O17 0.500000 0.500000 0.500000
O O18 0.532012 0.250000 0.573293
O O19 0.952887 0.750000 0.945458
O O20 0.000000 0.500000 0.000000
#
# Coordination Sequence:
#
# PCOD9448361 Si02
#       7
#     8   8   8   8   8   8   8
#     4   9  18  33  52  75 106 148 194 240 294 349
#     4  10  19  32  53  79 111 151 191 238 296 361
#     4  11  24  40  60  88 121 156 197 247 301 357
#     4  10  21  37  58  86 117 154 199 247 302 361
#     4   9  17  29  47  74 108 147 190 234 287 351
#     4  10  21  37  58  85 119 156 199 252 301 352
#     4  12  24  41  65  90 119 157 200 247 298 360
#
# _framework density 19.219411999999998
#
# number of rings (size 3 to 8) (size 9 to 14) (size 15 to 20)
#    0.000    1.857    1.429    3.000    0.000    4.571 
#    0.000    2.143    0.000    2.571    0.000    0.000 
#    0.000    0.000    0.000    0.000    0.000    0.000 
#
# Total GULP energy -312215.337198 kJ/mol
# GULP energy per Si atom -5575.273879 kJ/mol
# Density = 1.917567 g / cm^3
# Si number density = 19.219412 Si / 1000 Ang^3
#
#
#
# Elastic Constant Matrix: (Units=GPa)
#
#
# Indices 1 2 3 4 5 6 
#
# 1 84.4696 41.5216 30.2962 0.0000 0.0000 0.0000
# 2 41.5216 66.1520 34.9438 0.0000 0.0000 0.0000
# 3 30.2962 34.9438 74.5117 0.0000 0.0000 0.0000
# 4 0.0000 0.0000 0.0000 25.6082 0.0000 0.0000
# 5 0.0000 0.0000 0.0000 0.0000 30.8543 0.0000
# 6 0.0000 0.0000 0.0000 0.0000 0.0000 21.9919
#
#
#
# Elastic Compliance Matrix: (Units=1/GPa)
#
#
# Indices 1 2 3 4 5 6 
#
# 1 0.017495 -0.009602 -0.002610 0.000000 0.000000 0.000000
# 2 -0.009602 0.025365 -0.007991 0.000000 0.000000 0.000000
# 3 -0.002610 -0.007991 0.018230 0.000000 0.000000 0.000000
# 4 0.000000 0.000000 0.000000 0.039050 0.000000 0.000000
# 5 0.000000 0.000000 0.000000 0.000000 0.032410 0.000000
# 6 0.000000 0.000000 0.000000 0.000000 0.000000 0.045471
#
#
# Mechanical properties :
#
#
# Convention : Reuss Voigt Hill
#
# Bulk Modulus (GPa) = 48.35064 48.73962 48.54513
# Shear Modulus (GPa) = 22.19045 23.58232 22.88639
#
# Velocity S-wave (km/s) = 3.40161 3.50666 3.45453
# Velocity P-wave (km/s) = 6.37493 6.46608 6.42067
#
# Compressibility (1/GPa) = 0.02068225
#
# Stress axis : x y z
#
# Youngs Moduli (GPa) = 57.16004 39.42454 54.85568
#
# Poissons Ratio (x) = 0.37856 0.14318
# Poissons Ratio (y) = 0.54886 0.43836
# Poissons Ratio (z) = 0.14920 0.31505
#
# Static dielectric constant tensor:
#      x y z
#    x 1.774600 0.000000 0.000000 
#    y 0.000000 1.671550 0.000000 
#    z 0.000000 0.000000 1.679220 
# 
# From -- ./inp_files/24299.got.cif
#   From: 2010.05.17/outbox.cif.g08.bks.cpg/sg59_13_cif.got.tgz:24299.got - 2010.06.03 14:40:33.
