data_PCOD9448899
_publ_section_title
;
Structure prediction by ZEFSAII (Michael W. Deem and Ramdas Pophale) SiO2 
 PCOD9448899
Probable space group: P M M N
;
_chemical_formula_sum "Si O2"
_cell_formula_units_Z 48
_cell_length_a 16.635505
_cell_length_b 7.463437
_cell_length_c 17.341702
_cell_angle_alpha 90.000000
_cell_angle_beta 90.000000
_cell_angle_gamma 90.000000
_cell_volume 2153.111792
_symmetry_space_group_name_H-M "P M M N"
_symmetry_group_IT_number 59
_space_group.IT_coordinate_system_code '2'
_symmetry_cell_setting 'orthorhombic'
loop_
_space_group_symop_operation_xyz
x,y,z
1/2-x,1/2-y,z
1/2+x,-y,-z
-x,1/2+y,-z
-x,-y,-z
1/2+x,1/2+y,-z
1/2-x,y,z
x,1/2-y,z
loop_
_atom_site_type_symbol
_atom_site_label
_atom_site_fract_x
_atom_site_fract_y
_atom_site_fract_z
Si Si1 0.658195 0.031619 0.836910
Si Si2 0.250000 0.964388 0.410406
Si Si3 0.089262 0.531058 0.323924
Si Si4 0.339318 0.039005 0.832049
Si Si5 0.405825 0.538405 0.999738
Si Si6 0.750000 0.963543 0.408541
Si Si7 0.587699 0.531040 0.324118
O O1 0.750000 0.980320 0.820991
O O2 0.655617 0.250000 0.838749
O O3 0.603275 0.977789 0.765204
O O4 0.631834 0.965776 0.921062
O O5 0.250000 0.750000 0.398377
O O6 0.332829 0.030720 0.371673
O O7 0.250000 0.001523 0.500850
O O8 0.089764 0.750000 0.326219
O O9 0.000826 0.472007 0.350800
O O10 0.250000 0.960862 0.824322
O O11 0.332844 0.250000 0.816675
O O12 0.397918 0.973627 0.764775
O O13 0.369062 0.023077 0.919176
O O14 0.392695 0.750000 0.001359
O O15 0.500000 0.500000 0.000000
O O16 0.750000 0.750000 0.395103
O O17 0.833276 0.030010 0.370582
O O18 0.586129 0.750000 0.328085
#
# Coordination Sequence:
#
# PCOD9448899 Si02
#       7
#     8   4   8   8   8   4   8
#     4   9  16  29  50  76 102 132 174 220 260 309
#     4  10  20  34  54  81 106 130 166 221 278 320
#     4   9  16  29  52  79 105 132 172 220 264 309
#     4  10  19  34  56  80 107 140 183 229 273 323
#     4  11  22  34  50  76 110 146 187 230 272 319
#     4  10  20  36  56  77 104 140 178 213 258 326
#     4   9  17  32  55  80 104 140 183 218 255 319
#
# _framework density 22.293313999999999
#
# number of rings (size 3 to 8) (size 9 to 14) (size 15 to 20)
#    0.000    2.333    1.667    2.000    0.000    4.333 
#    0.000    0.833    0.000    5.000    0.000    0.000 
#    0.000    0.000    0.000    0.000    0.000    0.000 
#
# Total GULP energy -268040.172003 kJ/mol
# GULP energy per Si atom -5584.170250 kJ/mol
# Density = 2.224257 g / cm^3
# Si number density = 22.293314 Si / 1000 Ang^3
#
#
#
# Elastic Constant Matrix: (Units=GPa)
#
#
# Indices 1 2 3 4 5 6 
#
# 1 213.6015 3.4052 87.9600 0.0000 0.0000 0.0000
# 2 3.4052 61.6973 -4.1560 0.0000 0.0000 0.0000
# 3 87.9600 -4.1560 140.5132 0.0000 0.0000 0.0000
# 4 0.0000 0.0000 0.0000 21.0252 0.0000 0.0000
# 5 0.0000 0.0000 0.0000 0.0000 14.8923 0.0000
# 6 0.0000 0.0000 0.0000 0.0000 0.0000 -0.8620
#
#
#
# Elastic Compliance Matrix: (Units=1/GPa)
#
#
# Indices 1 2 3 4 5 6 
#
# 1 0.006331 -0.000618 -0.003981 0.000000 0.000000 0.000000
# 2 -0.000618 0.016301 0.000869 0.000000 0.000000 0.000000
# 3 -0.003981 0.000869 0.009635 0.000000 0.000000 0.000000
# 4 0.000000 0.000000 0.000000 0.047562 0.000000 0.000000
# 5 0.000000 0.000000 0.000000 0.000000 0.067149 0.000000
# 6 0.000000 0.000000 0.000000 0.000000 0.000000 -1.160125
#
#
# Mechanical properties :
#
#
# Convention : Reuss Voigt Hill
#
# Bulk Modulus (GPa) = 40.31281 65.58114 52.94697
# Shear Modulus (GPa) = -5.01294 28.91796 11.95251
#
# Velocity S-wave (km/s) = -1.50117 3.60552 2.31800
# Velocity P-wave (km/s) = 3.88812 6.84209 5.56470
#
# Compressibility (1/GPa) = 0.02480601
#
# Stress axis : x y z
#
# Youngs Moduli (GPa) = 157.95329 61.34682 103.79050
#
# Poissons Ratio (x) = 0.03789 0.41323
# Poissons Ratio (y) = 0.09755 -0.09017
# Poissons Ratio (z) = 0.62888 -0.05330
#
# Static dielectric constant tensor:
#      x y z
#    x 1.805970 0.000000 0.000000 
#    y 0.000000 1.854400 0.000000 
#    z 0.000000 0.000000 1.793220 
# 
# From -- ./inp_files/20517.got.cif
#   From: 2010.05.17/outbox.cif.g08.bks.cpg/sg59_11_cif.got.tgz:20517.got - 2010.06.03 14:40:33.
