data_PCOD9448633
_publ_section_title
;
Structure prediction by ZEFSAII (Michael W. Deem and Ramdas Pophale) SiO2 
 PCOD9448633
Probable space group: P M M N
;
_chemical_formula_sum "Si O2"
_cell_formula_units_Z 64
_cell_length_a 14.815542
_cell_length_b 7.537004
_cell_length_c 25.163790
_cell_angle_alpha 90.000000
_cell_angle_beta 90.000000
_cell_angle_gamma 90.000000
_cell_volume 2809.909560
_symmetry_space_group_name_H-M "P M M N"
_symmetry_group_IT_number 59
_space_group.IT_coordinate_system_code '2'
_symmetry_cell_setting 'orthorhombic'
loop_
_space_group_symop_operation_xyz
x,y,z
1/2-x,1/2-y,z
1/2+x,-y,-z
-x,1/2+y,-z
-x,-y,-z
1/2+x,1/2+y,-z
1/2-x,y,z
x,1/2-y,z
loop_
_atom_site_type_symbol
_atom_site_label
_atom_site_fract_x
_atom_site_fract_y
_atom_site_fract_z
Si Si1 0.049053 0.037282 0.123249
Si Si2 0.145365 0.967846 0.345706
Si Si3 0.153296 0.545456 0.898204
Si Si4 0.604430 0.960443 0.987222
Si Si5 0.849360 0.036662 0.376875
Si Si6 0.652934 0.542583 0.252665
Si Si7 0.524564 0.052941 0.559614
Si Si8 0.956071 0.462546 0.761145
O O1 0.042319 0.250000 0.116619
O O2 0.110576 0.975740 0.073726
O O3 0.944782 0.966927 0.118066
O O4 0.086679 0.998249 0.181522
O O5 0.250000 0.017940 0.344979
O O6 0.141203 0.750000 0.345312
O O7 0.094668 0.034642 0.398941
O O8 0.094594 0.026971 0.291698
O O9 0.250000 0.464700 0.881046
O O10 0.152913 0.750000 0.880416
O O11 0.153288 0.543087 0.962453
O O12 0.623085 0.750000 0.989163
O O13 0.500000 0.000000 0.000000
O O14 0.750000 0.994141 0.398872
O O15 0.859245 0.250000 0.376533
O O16 0.851980 0.969976 0.316559
O O17 0.930340 0.954311 0.409195
O O18 0.750000 0.462877 0.237395
O O19 0.654467 0.750000 0.237479
O O20 0.558191 0.463157 0.234635
O O21 0.561031 0.250000 0.553447
O O22 0.500000 0.000000 0.500000
O O23 0.963323 0.250000 0.755009
#
# Coordination Sequence:
#
# PCOD9448633 Si02
#       8
#     8   8   8   8   8   8   8   8
#     4   9  19  33  49  73 105 141 175 218 275 326
#     4   9  19  38  61  82 108 145 187 230 276 325
#     4   9  18  33  52  75 105 139 176 221 275 334
#     4   9  17  31  50  71  99 136 178 220 267 323
#     4  10  20  34  54  81 111 144 181 220 267 328
#     4   9  17  31  51  76 106 138 175 222 275 327
#     4  11  22  38  60  87 116 147 183 229 284 336
#     4  10  19  33  54  80 106 142 188 229 273 328
#
# _framework density 22.776532
#
# number of rings (size 3 to 8) (size 9 to 14) (size 15 to 20)
#    0.000    2.500    1.250    1.875    0.000    5.000 
#    0.000    1.875    0.000    5.250    0.000    0.000 
#    0.000    0.000    0.000    0.000    0.000    0.000 
#
# Total GULP energy -356863.432006 kJ/mol
# GULP energy per Si atom -5575.991125 kJ/mol
# Density = 2.272469 g / cm^3
# Si number density = 22.776532 Si / 1000 Ang^3
#
#
#
# Elastic Constant Matrix: (Units=GPa)
#
#
# Indices 1 2 3 4 5 6 
#
# 1 83.0065 -0.9608 55.7493 0.0000 0.0000 0.0000
# 2 -0.9608 62.3682 -1.0127 0.0000 0.0000 0.0000
# 3 55.7493 -1.0127 190.3078 0.0000 0.0000 0.0000
# 4 0.0000 0.0000 0.0000 20.1686 0.0000 0.0000
# 5 0.0000 0.0000 0.0000 0.0000 0.3289 0.0000
# 6 0.0000 0.0000 0.0000 0.0000 0.0000 0.3581
#
#
#
# Elastic Compliance Matrix: (Units=1/GPa)
#
#
# Indices 1 2 3 4 5 6 
#
# 1 0.015000 0.000160 -0.004393 0.000000 0.000000 0.000000
# 2 0.000160 0.016037 0.000039 0.000000 0.000000 0.000000
# 3 -0.004393 0.000039 0.006542 0.000000 0.000000 0.000000
# 4 0.000000 0.000000 0.000000 0.049582 0.000000 0.000000
# 5 0.000000 0.000000 0.000000 0.000000 3.040860 0.000000
# 6 0.000000 0.000000 0.000000 0.000000 0.000000 2.792449
#
#
# Mechanical properties :
#
#
# Convention : Reuss Voigt Hill
#
# Bulk Modulus (GPa) = 34.25999 49.24822 41.75410
# Shear Modulus (GPa) = 0.84195 22.96489 11.90342
#
# Velocity S-wave (km/s) = 0.60865 3.17877 2.28856
# Velocity P-wave (km/s) = 3.94568 5.92808 5.03540
#
# Compressibility (1/GPa) = 0.02918857
#
# Stress axis : x y z
#
# Youngs Moduli (GPa) = 66.66809 62.35615 152.86297
#
# Poissons Ratio (x) = -0.00996 0.67156
# Poissons Ratio (y) = -0.01065 -0.00589
# Poissons Ratio (z) = 0.29289 -0.00240
#
# Static dielectric constant tensor:
#      x y z
#    x 1.855010 0.000000 0.000000 
#    y 0.000000 1.879780 0.000000 
#    z 0.000000 0.000000 1.865280 
# 
# From -- ./inp_files/32126.got.cif
#   From: 2010.05.17/outbox.cif.g08.bks.cpg/sg59_17_cif.got.tgz:32126.got - 2010.06.03 14:40:33.
