data_PCOD9448265
_publ_section_title
;
Structure prediction by ZEFSAII (Michael W. Deem and Ramdas Pophale) SiO2 
 PCOD9448265
Probable space group: P M M N
;
_chemical_formula_sum "Si O2"
_cell_formula_units_Z 56
_cell_length_a 19.191800
_cell_length_b 9.757069
_cell_length_c 15.946542
_cell_angle_alpha 90.000000
_cell_angle_beta 90.000000
_cell_angle_gamma 90.000000
_cell_volume 2986.081153
_symmetry_space_group_name_H-M "P M M N"
_symmetry_group_IT_number 59
_space_group.IT_coordinate_system_code '2'
_symmetry_cell_setting 'orthorhombic'
loop_
_space_group_symop_operation_xyz
x,y,z
1/2-x,1/2-y,z
1/2+x,-y,-z
-x,1/2+y,-z
-x,-y,-z
1/2+x,1/2+y,-z
1/2-x,y,z
x,1/2-y,z
loop_
_atom_site_type_symbol
_atom_site_label
_atom_site_fract_x
_atom_site_fract_y
_atom_site_fract_z
Si Si1 0.832167 0.414644 0.074210
Si Si2 0.831668 0.399633 0.617922
Si Si3 0.974398 0.409263 0.369037
Si Si4 0.463163 0.914381 0.823532
Si Si5 0.101840 0.407076 0.502611
Si Si6 0.410647 0.409219 0.066437
Si Si7 0.666220 0.898818 0.757369
O O1 0.750000 0.449961 0.083146
O O2 0.835587 0.250000 0.058980
O O3 0.882936 0.444286 0.153419
O O4 0.869912 0.497410 0.999622
O O5 0.750000 0.383794 0.632299
O O6 0.864246 0.250000 0.604750
O O7 0.840472 0.498279 0.539390
O O8 0.858896 0.477978 0.699676
O O9 0.949239 0.250000 0.369085
O O10 0.983583 0.450539 0.271648
O O11 0.923989 0.517034 0.414219
O O12 0.041058 0.410326 0.431076
O O13 0.472219 0.750000 0.827483
O O14 0.515504 0.965077 0.896976
O O15 0.121179 0.250000 0.516536
O O16 0.418134 0.250000 0.036948
O O17 0.363787 0.405831 0.150291
O O18 0.750000 0.901229 0.760358
O O19 0.644978 0.750000 0.720327
#
# Coordination Sequence:
#
# PCOD9448265 Si02
#       7
#     8   8   8   8   8   8   8
#     4  10  21  36  53  75 105 139 173 211 258 309
#     4  10  20  32  47  70 101 137 175 212 251 301
#     4   9  18  34  55  76 100 131 169 213 258 307
#     4   9  18  34  55  77 102 135 175 217 258 304
#     4  10  19  32  52  77 104 134 167 209 263 313
#     4  10  19  33  55  79 102 132 173 217 261 310
#     4   9  17  29  46  70 100 132 166 208 262 319
#
# _framework density 18.753678000000001
#
# number of rings (size 3 to 8) (size 9 to 14) (size 15 to 20)
#    0.000    2.429    0.000    2.571    0.000    5.143 
#    0.000    3.571    0.000    2.571    0.000    0.000 
#    0.000    0.000    0.000    0.000    0.000    0.000 
#
# Total GULP energy -311911.255876 kJ/mol
# GULP energy per Si atom -5569.843855 kJ/mol
# Density = 1.871099 g / cm^3
# Si number density = 18.753678 Si / 1000 Ang^3
#
#
#
# Elastic Constant Matrix: (Units=GPa)
#
#
# Indices 1 2 3 4 5 6 
#
# 1 81.4405 33.9405 40.0962 0.0000 0.0000 0.0000
# 2 33.9405 88.4025 28.6542 0.0000 0.0000 0.0000
# 3 40.0962 28.6542 75.8858 0.0000 0.0000 0.0000
# 4 0.0000 0.0000 0.0000 28.4040 0.0000 0.0000
# 5 0.0000 0.0000 0.0000 0.0000 29.2820 0.0000
# 6 0.0000 0.0000 0.0000 0.0000 0.0000 18.6504
#
#
#
# Elastic Compliance Matrix: (Units=1/GPa)
#
#
# Indices 1 2 3 4 5 6 
#
# 1 0.017954 -0.004351 -0.007844 0.000000 0.000000 0.000000
# 2 -0.004351 0.013944 -0.002966 0.000000 0.000000 0.000000
# 3 -0.007844 -0.002966 0.018442 0.000000 0.000000 0.000000
# 4 0.000000 0.000000 0.000000 0.035206 0.000000 0.000000
# 5 0.000000 0.000000 0.000000 0.000000 0.034151 0.000000
# 6 0.000000 0.000000 0.000000 0.000000 0.000000 0.053618
#
#
# Mechanical properties :
#
#
# Convention : Reuss Voigt Hill
#
# Bulk Modulus (GPa) = 49.95364 50.12339 50.03852
# Shear Modulus (GPa) = 23.77460 24.80314 24.28887
#
# Velocity S-wave (km/s) = 3.56438 3.64067 3.60273
# Velocity P-wave (km/s) = 6.60563 6.66767 6.63672
#
# Compressibility (1/GPa) = 0.02001856
#
# Stress axis : x y z
#
# Youngs Moduli (GPa) = 55.69886 71.71687 54.22382
#
# Poissons Ratio (x) = 0.31201 0.42530
# Poissons Ratio (y) = 0.24233 0.16085
# Poissons Ratio (z) = 0.43687 0.21274
#
# Static dielectric constant tensor:
#      x y z
#    x 1.706360 0.000000 0.000000 
#    y 0.000000 1.676890 0.000000 
#    z 0.000000 0.000000 1.637100 
# 
# From -- ./inp_files/24297.got.cif
#   From: 2010.05.17/outbox.cif.g08.bks.cpg/sg59_13_cif.got.tgz:24297.got - 2010.06.03 14:40:33.
