data_PCOD9448743
_publ_section_title
;
Structure prediction by ZEFSAII (Michael W. Deem and Ramdas Pophale) SiO2 
 PCOD9448743
Probable space group: P M M N
;
_chemical_formula_sum "Si O2"
_cell_formula_units_Z 56
_cell_length_a 7.575755
_cell_length_b 17.144713
_cell_length_c 20.206620
_cell_angle_alpha 90.000000
_cell_angle_beta 90.000000
_cell_angle_gamma 90.000000
_cell_volume 2624.519567
_symmetry_space_group_name_H-M "P M M N"
_symmetry_group_IT_number 59
_space_group.IT_coordinate_system_code '2'
_symmetry_cell_setting 'orthorhombic'
loop_
_space_group_symop_operation_xyz
x,y,z
1/2-x,1/2-y,z
1/2+x,-y,-z
-x,1/2+y,-z
-x,-y,-z
1/2+x,1/2+y,-z
1/2-x,y,z
x,1/2-y,z
loop_
_atom_site_type_symbol
_atom_site_label
_atom_site_fract_x
_atom_site_fract_y
_atom_site_fract_z
Si Si1 0.034158 0.159285 0.022921
Si Si2 0.537309 0.900247 0.118028
Si Si3 0.459958 0.424515 0.155837
Si Si4 0.536794 0.660710 0.712701
Si Si5 0.534321 0.750000 0.200663
Si Si6 0.045171 0.099948 0.568924
Si Si7 0.467149 0.250000 0.646613
Si Si8 0.041126 0.575066 0.576259
O O1 0.250000 0.157953 0.023184
O O2 0.982738 0.250000 0.018594
O O3 0.971167 0.119673 0.090583
O O4 0.975877 0.113121 0.957397
O O5 0.750000 0.896986 0.116799
O O6 0.475938 0.827606 0.162352
O O7 0.488002 0.983655 0.147238
O O8 0.250000 0.410705 0.156333
O O9 0.528877 0.389104 0.224508
O O10 0.750000 0.661979 0.715309
O O11 0.474930 0.750000 0.716744
O O12 0.488665 0.621867 0.643161
O O13 0.750000 0.750000 0.199338
O O14 0.480939 0.750000 0.276911
O O15 0.250000 0.094908 0.588874
O O16 0.969808 0.172289 0.609246
O O17 0.035860 0.113176 0.490101
O O18 0.968944 0.013591 0.581599
O O19 0.250000 0.250000 0.643934
O O20 0.250000 0.569829 0.564090
#
# Coordination Sequence:
#
# PCOD9448743 Si02
#       8
#     8   8   8   8   4   8   4   8
#     4   9  16  31  55  81 107 141 186 227 261 311
#     4  10  19  33  56  82 108 141 181 223 269 320
#     4  10  21  35  54  79 109 142 181 227 273 317
#     4  10  22  39  57  77 104 145 188 224 266 323
#     4   9  18  32  53  81 108 139 180 222 261 315
#     4   9  19  36  57  81 108 145 182 215 261 324
#     4   9  18  32  55  81 106 139 184 220 253 313
#     4  10  21  36  57  84 113 140 174 226 278 319
#
# _framework density 21.337239
#
# number of rings (size 3 to 8) (size 9 to 14) (size 15 to 20)
#    0.000    2.429    0.714    1.286    3.000    3.143 
#    0.000    0.357    0.000    3.000    0.000    0.000 
#    0.000    0.000    0.000    0.000    0.000    0.000 
#
# Total GULP energy -312816.454701 kJ/mol
# GULP energy per Si atom -5586.008120 kJ/mol
# Density = 2.128867 g / cm^3
# Si number density = 21.337239 Si / 1000 Ang^3
#
#
#
# Elastic Constant Matrix: (Units=GPa)
#
#
# Indices 1 2 3 4 5 6 
#
# 1 46.7615 -8.3521 -12.0630 0.0000 0.0000 0.0000
# 2 -8.3521 111.6252 77.3658 0.0000 0.0000 0.0000
# 3 -12.0630 77.3658 148.0534 0.0000 0.0000 0.0000
# 4 0.0000 0.0000 0.0000 25.4740 0.0000 0.0000
# 5 0.0000 0.0000 0.0000 0.0000 0.0768 0.0000
# 6 0.0000 0.0000 0.0000 0.0000 0.0000 14.3827
#
#
#
# Elastic Compliance Matrix: (Units=1/GPa)
#
#
# Indices 1 2 3 4 5 6 
#
# 1 0.021872 0.000629 0.001453 0.000000 0.000000 0.000000
# 2 0.000629 0.014064 -0.007298 0.000000 0.000000 0.000000
# 3 0.001453 -0.007298 0.010686 0.000000 0.000000 0.000000
# 4 0.000000 0.000000 0.000000 0.039256 0.000000 0.000000
# 5 0.000000 0.000000 0.000000 0.000000 13.015598 0.000000
# 6 0.000000 0.000000 0.000000 0.000000 0.000000 0.069528
#
#
# Mechanical properties :
#
#
# Convention : Reuss Voigt Hill
#
# Bulk Modulus (GPa) = 27.63049 46.70461 37.16755
# Shear Modulus (GPa) = 0.37897 24.61934 12.49916
#
# Velocity S-wave (km/s) = 0.42190 3.40048 2.42294
# Velocity P-wave (km/s) = 3.63523 6.11179 5.02836
#
# Compressibility (1/GPa) = 0.03619190
#
# Stress axis : x y z
#
# Youngs Moduli (GPa) = 45.71972 71.10574 93.57897
#
# Poissons Ratio (x) = -0.04475 -0.13599
# Poissons Ratio (y) = -0.02877 0.68291
# Poissons Ratio (z) = -0.06644 0.51891
#
# Static dielectric constant tensor:
#      x y z
#    x 1.821550 0.000000 0.000000 
#    y 0.000000 1.742370 0.000000 
#    z 0.000000 0.000000 1.733300 
# 
# From -- ./inp_files/29206.got.cif
#   From: 2010.05.17/outbox.cif.g08.bks.cpg/sg59_15_cif.got.tgz:29206.got - 2010.06.03 14:40:33.
