data_PCOD9448560
_publ_section_title
;
Structure prediction by ZEFSAII (Michael W. Deem and Ramdas Pophale) SiO2 
 PCOD9448560
Probable space group: P M M N
;
_chemical_formula_sum "Si O2"
_cell_formula_units_Z 56
_cell_length_a 8.682545
_cell_length_b 21.515639
_cell_length_c 15.677490
_cell_angle_alpha 90.000000
_cell_angle_beta 90.000000
_cell_angle_gamma 90.000000
_cell_volume 2928.719806
_symmetry_space_group_name_H-M "P M M N"
_symmetry_group_IT_number 59
_space_group.IT_coordinate_system_code '2'
_symmetry_cell_setting 'orthorhombic'
loop_
_space_group_symop_operation_xyz
x,y,z
1/2-x,1/2-y,z
1/2+x,-y,-z
-x,1/2+y,-z
-x,-y,-z
1/2+x,1/2+y,-z
1/2-x,y,z
x,1/2-y,z
loop_
_atom_site_type_symbol
_atom_site_label
_atom_site_fract_x
_atom_site_fract_y
_atom_site_fract_z
Si Si1 0.434689 0.942088 0.444243
Si Si2 0.063190 0.509334 0.264737
Si Si3 0.081900 0.678171 0.850104
Si Si4 0.066239 0.042170 0.920714
Si Si5 0.936839 0.681908 0.527923
Si Si6 0.929232 0.875469 0.698406
Si Si7 0.068249 0.679050 0.053339
O O1 0.250000 0.945169 0.451205
O O2 0.472976 0.944965 0.343005
O O3 0.498467 0.877487 0.479714
O O4 0.500000 0.000000 0.500000
O O5 0.250000 0.508155 0.254208
O O6 0.004421 0.444092 0.303504
O O7 0.992183 0.518498 0.171514
O O8 0.250000 0.649851 0.831015
O O9 0.085874 0.750000 0.825262
O O10 0.953586 0.646970 0.793974
O O11 0.058688 0.676754 0.950603
O O12 0.250000 0.037985 0.926359
O O13 0.015849 0.115261 0.921060
O O14 0.000000 0.000000 0.000000
O O15 0.750000 0.681311 0.522838
O O16 0.988892 0.750000 0.498498
O O17 0.987201 0.671136 0.626548
O O18 0.750000 0.882171 0.680160
O O19 0.250000 0.674410 0.076427
O O20 0.016908 0.750000 0.078780
#
# Coordination Sequence:
#
# PCOD9448560 Si02
#       7
#     8   8   8   8   8   8   8
#     4  11  22  40  65  90 120 157 203 251 300 362
#     4  10  22  40  61  86 116 155 203 252 303 365
#     4   9  18  31  48  75 110 146 187 235 290 354
#     4  12  25  40  61  91 126 162 205 258 310 367
#     4  10  21  38  59  86 123 162 201 250 307 361
#     4  10  19  33  53  79 112 151 194 238 293 358
#     4   9  19  38  61  83 113 156 203 253 311 368
#
# _framework density 19.120982000000001
#
# number of rings (size 3 to 8) (size 9 to 14) (size 15 to 20)
#    0.000    1.857    1.429    3.857    0.000    6.571 
#    0.000    2.143    0.000    0.857    0.000    0.000 
#    0.000    0.000    0.000    0.000    0.000    0.000 
#
# Total GULP energy -311913.364672 kJ/mol
# GULP energy per Si atom -5569.881512 kJ/mol
# Density = 1.907746 g / cm^3
# Si number density = 19.120982 Si / 1000 Ang^3
#
#
#
# Elastic Constant Matrix: (Units=GPa)
#
#
# Indices 1 2 3 4 5 6 
#
# 1 48.4690 41.8603 35.9327 0.0000 0.0000 0.0000
# 2 41.8603 130.6569 47.6613 0.0000 0.0000 0.0000
# 3 35.9327 47.6613 87.1808 0.0000 0.0000 0.0000
# 4 0.0000 0.0000 0.0000 29.0141 0.0000 0.0000
# 5 0.0000 0.0000 0.0000 0.0000 29.0101 0.0000
# 6 0.0000 0.0000 0.0000 0.0000 0.0000 28.3236
#
#
#
# Elastic Compliance Matrix: (Units=1/GPa)
#
#
# Indices 1 2 3 4 5 6 
#
# 1 0.034554 -0.007339 -0.010230 0.000000 0.000000 0.000000
# 2 -0.007339 0.011119 -0.003054 0.000000 0.000000 0.000000
# 3 -0.010230 -0.003054 0.017356 0.000000 0.000000 0.000000
# 4 0.000000 0.000000 0.000000 0.034466 0.000000 0.000000
# 5 0.000000 0.000000 0.000000 0.000000 0.034471 0.000000
# 6 0.000000 0.000000 0.000000 0.000000 0.000000 0.035306
#
#
# Mechanical properties :
#
#
# Convention : Reuss Voigt Hill
#
# Bulk Modulus (GPa) = 45.90492 57.46837 51.68665
# Shear Modulus (GPa) = 23.17196 26.65971 24.91583
#
# Velocity S-wave (km/s) = 3.48495 3.73804 3.61371
# Velocity P-wave (km/s) = 6.34452 6.98219 6.67098
#
# Compressibility (1/GPa) = 0.02178416
#
# Stress axis : x y z
#
# Youngs Moduli (GPa) = 28.94038 89.93725 57.61624
#
# Poissons Ratio (x) = 0.66004 0.58940
# Poissons Ratio (y) = 0.21239 0.17595
# Poissons Ratio (z) = 0.29605 0.27465
#
# Static dielectric constant tensor:
#      x y z
#    x 1.677920 0.000000 0.000000 
#    y 0.000000 3.332100 0.000000 
#    z 0.000000 0.000000 1.666060 
# 
# From -- ./inp_files/20984.got.cif
#   From: 2010.05.17/outbox.cif.g08.bks.cpg/sg59_11_cif.got.tgz:20984.got - 2010.06.03 14:40:33.
