data_PCOD9448775
_publ_section_title
;
Structure prediction by ZEFSAII (Michael W. Deem and Ramdas Pophale) SiO2 
 PCOD9448775
Probable space group: P M M N
;
_chemical_formula_sum "Si O2"
_cell_formula_units_Z 56
_cell_length_a 14.066707
_cell_length_b 20.621596
_cell_length_c 9.609857
_cell_angle_alpha 90.000000
_cell_angle_beta 90.000000
_cell_angle_gamma 90.000000
_cell_volume 2787.607607
_symmetry_space_group_name_H-M "P M M N"
_symmetry_group_IT_number 59
_space_group.IT_coordinate_system_code '2'
_symmetry_cell_setting 'orthorhombic'
loop_
_space_group_symop_operation_xyz
x,y,z
1/2-x,1/2-y,z
1/2+x,-y,-z
-x,1/2+y,-z
-x,-y,-z
1/2+x,1/2+y,-z
1/2-x,y,z
x,1/2-y,z
loop_
_atom_site_type_symbol
_atom_site_label
_atom_site_fract_x
_atom_site_fract_y
_atom_site_fract_z
Si Si1 0.565213 0.179453 0.150768
Si Si2 0.488249 0.827557 0.538955
Si Si3 0.640855 0.928275 0.632235
Si Si4 0.361573 0.563767 0.031391
Si Si5 0.359190 0.051170 0.826884
Si Si6 0.855778 0.858458 0.916738
Si Si7 0.957859 0.061993 0.668569
O O1 0.605414 0.250000 0.123541
O O2 0.568425 0.166003 0.315618
O O3 0.452421 0.179312 0.113359
O O4 0.616547 0.127013 0.058293
O O5 0.497723 0.750000 0.509062
O O6 0.587777 0.865043 0.570628
O O7 0.441552 0.873378 0.421938
O O8 0.750000 0.932679 0.587446
O O9 0.640932 0.915530 0.800104
O O10 0.584974 0.995307 0.607754
O O11 0.250000 0.554808 0.057116
O O12 0.413410 0.568456 0.177991
O O13 0.392961 0.505774 0.929924
O O14 0.250000 0.039127 0.786545
O O15 0.429792 0.055725 0.698794
O O16 0.361358 0.113687 0.927511
O O17 0.750000 0.828521 0.898673
#
# Coordination Sequence:
#
# PCOD9448775 Si02
#       7
#     8   8   8   8   8   8   8
#     4  10  21  39  58  79 113 161 206 243 290 361
#     4  10  24  42  59  84 125 171 209 251 308 368
#     4  10  20  36  63  92 119 158 207 253 300 366
#     4  11  22  37  62  92 120 152 196 255 314 366
#     4  10  19  33  57  90 123 151 187 243 312 369
#     4   9  16  31  56  87 115 144 187 240 296 354
#     4  12  21  37  63  95 126 159 202 260 316 369
#
# _framework density 20.088909999999998
#
# number of rings (size 3 to 8) (size 9 to 14) (size 15 to 20)
#    0.000    1.714    2.857    3.000    0.000    2.000 
#    0.000    5.714    0.000    3.000    0.000    0.000 
#    0.000    0.000    0.000    0.000    0.000    0.000 
#
# Total GULP energy -312497.691455 kJ/mol
# GULP energy per Si atom -5580.315919 kJ/mol
# Density = 2.004319 g / cm^3
# Si number density = 20.088910 Si / 1000 Ang^3
#
#
#
# Elastic Constant Matrix: (Units=GPa)
#
#
# Indices 1 2 3 4 5 6 
#
# 1 33.5671 15.1763 11.1305 0.0000 0.0000 0.0000
# 2 15.1763 122.5150 47.3786 0.0000 0.0000 0.0000
# 3 11.1305 47.3786 70.5103 0.0000 0.0000 0.0000
# 4 0.0000 0.0000 0.0000 16.3561 0.0000 0.0000
# 5 0.0000 0.0000 0.0000 0.0000 14.7618 0.0000
# 6 0.0000 0.0000 0.0000 0.0000 0.0000 -27.3244
#
#
#
# Elastic Compliance Matrix: (Units=1/GPa)
#
#
# Indices 1 2 3 4 5 6 
#
# 1 0.032096 -0.002724 -0.003236 0.000000 0.000000 0.000000
# 2 -0.002724 0.011259 -0.007135 0.000000 0.000000 0.000000
# 3 -0.003236 -0.007135 0.019488 0.000000 0.000000 0.000000
# 4 0.000000 0.000000 0.000000 0.061139 0.000000 0.000000
# 5 0.000000 0.000000 0.000000 0.000000 0.067742 0.000000
# 6 0.000000 0.000000 0.000000 0.000000 0.000000 -0.036597
#
#
# Mechanical properties :
#
#
# Convention : Reuss Voigt Hill
#
# Bulk Modulus (GPa) = 27.28419 41.55147 34.41783
# Shear Modulus (GPa) = 25.83508 10.95250 18.39379
#
# Velocity S-wave (km/s) = 3.59003 2.33749 3.02920
# Velocity P-wave (km/s) = 5.54938 5.29281 5.42261
#
# Compressibility (1/GPa) = 0.03665126
#
# Stress axis : x y z
#
# Youngs Moduli (GPa) = 31.15668 88.81690 51.31449
#
# Poissons Ratio (x) = 0.24198 0.16605
# Poissons Ratio (y) = 0.08488 0.36615
# Poissons Ratio (z) = 0.10082 0.63374
#
# Static dielectric constant tensor:
#      x y z
#    x 1.726980 0.000000 0.000000 
#    y 0.000000 1.709460 0.000000 
#    z 0.000000 0.000000 1.721720 
# 
# From -- ./inp_files/9348.got.cif
#   From: 2010.05.17/outbox.cif.g08.bks.cpg/sg59_5_cif.got.tgz:9348.got - 2010.06.03 14:40:33.
