data_PCOD9448978
_publ_section_title
;
Structure prediction by ZEFSAII (Michael W. Deem and Ramdas Pophale) SiO2 
 PCOD9448978
Probable space group: P M M N
;
_chemical_formula_sum "Si O2"
_cell_formula_units_Z 48
_cell_length_a 15.704839
_cell_length_b 18.204073
_cell_length_c 9.372810
_cell_angle_alpha 90.000000
_cell_angle_beta 90.000000
_cell_angle_gamma 90.000000
_cell_volume 2679.611730
_symmetry_space_group_name_H-M "P M M N"
_symmetry_group_IT_number 59
_space_group.IT_coordinate_system_code '2'
_symmetry_cell_setting 'orthorhombic'
loop_
_space_group_symop_operation_xyz
x,y,z
1/2-x,1/2-y,z
1/2+x,-y,-z
-x,1/2+y,-z
-x,-y,-z
1/2+x,1/2+y,-z
1/2-x,y,z
x,1/2-y,z
loop_
_atom_site_type_symbol
_atom_site_label
_atom_site_fract_x
_atom_site_fract_y
_atom_site_fract_z
Si Si1 0.395772 0.422381 0.830209
Si Si2 0.250000 0.160475 0.656967
Si Si3 0.250000 0.337648 0.322660
Si Si4 0.454130 0.664786 0.045500
Si Si5 0.990993 0.523783 0.660260
Si Si6 0.062943 0.167427 0.245865
Si Si7 0.649471 0.479466 0.895122
O O1 0.327843 0.376015 0.742175
O O2 0.475398 0.367257 0.846887
O O3 0.427940 0.492608 0.742740
O O4 0.368513 0.459039 0.981629
O O5 0.250000 0.250000 0.665490
O O6 0.250000 0.137896 0.488680
O O7 0.250000 0.250000 0.330210
O O8 0.337359 0.355639 0.240697
O O9 0.428191 0.750000 0.071952
O O10 0.381888 0.601269 0.047957
O O11 0.509373 0.664788 0.899511
O O12 0.983430 0.610827 0.653910
O O13 0.910593 0.497068 0.757834
O O14 0.000000 0.500000 0.500000
O O15 0.061707 0.250000 0.300564
O O16 0.750000 0.478658 0.862826
#
# Coordination Sequence:
#
# PCOD9448978 Si02
#       7
#     8   4   4   8   8   8   8
#     4  11  20  38  55  86 121 149 189 241 288 349
#     4  11  22  35  55  85 120 159 190 236 296 348
#     4   9  20  33  47  81 125 153 186 234 285 344
#     4  10  20  36  60  85 111 150 196 240 289 343
#     4  11  22  38  59  85 118 157 197 232 291 357
#     4  10  19  34  57  85 118 154 192 238 288 346
#     4  11  22  40  60  83 118 150 191 245 294 340
#
# _framework density 17.913042999999998
#
# number of rings (size 3 to 8) (size 9 to 14) (size 15 to 20)
#    0.000    1.500    4.167    2.500    1.167    1.000 
#    1.500    5.000    0.000    0.000    0.000    0.000 
#    0.000    0.000    0.000    0.000    0.000    0.000 
#
# Total GULP energy -267222.495876 kJ/mol
# GULP energy per Si atom -5567.135331 kJ/mol
# Density = 1.787227 g / cm^3
# Si number density = 17.913043 Si / 1000 Ang^3
#
#
#
# Elastic Constant Matrix: (Units=GPa)
#
#
# Indices 1 2 3 4 5 6 
#
# 1 86.7863 40.4824 37.1165 0.0000 0.0000 0.0000
# 2 40.4824 132.7049 35.3824 0.0000 0.0000 0.0000
# 3 37.1165 35.3824 99.9098 0.0000 0.0000 0.0000
# 4 0.0000 0.0000 0.0000 20.2894 0.0000 0.0000
# 5 0.0000 0.0000 0.0000 0.0000 -453.1065 0.0000
# 6 0.0000 0.0000 0.0000 0.0000 0.0000 29.5682
#
#
#
# Elastic Compliance Matrix: (Units=1/GPa)
#
#
# Indices 1 2 3 4 5 6 
#
# 1 0.014975 -0.003407 -0.004357 0.000000 0.000000 0.000000
# 2 -0.003407 0.009096 -0.001956 0.000000 0.000000 0.000000
# 3 -0.004357 -0.001956 0.012320 0.000000 0.000000 0.000000
# 4 0.000000 0.000000 0.000000 0.049287 0.000000 0.000000
# 5 0.000000 0.000000 0.000000 0.000000 -0.002207 0.000000
# 6 0.000000 0.000000 0.000000 0.000000 0.000000 0.033820
#
#
# Mechanical properties :
#
#
# Convention : Reuss Voigt Hill
#
# Bulk Modulus (GPa) = 58.98663 60.59595 59.79129
# Shear Modulus (GPa) = 35.11717 -66.88848 -15.88565
#
# Velocity S-wave (km/s) = 4.43247 -6.11733 -2.98118
# Velocity P-wave (km/s) = 7.69394 3.99929 4.64770
#
# Compressibility (1/GPa) = 0.01695300
#
# Stress axis : x y z
#
# Youngs Moduli (GPa) = 66.77850 109.93629 81.16746
#
# Poissons Ratio (x) = 0.37450 0.35363
# Poissons Ratio (y) = 0.22748 0.15875
# Poissons Ratio (z) = 0.29094 0.21501
#
# Static dielectric constant tensor:
#      x y z
#    x 1.641500 0.000000 0.000000 
#    y 0.000000 1.650220 0.000000 
#    z 0.000000 0.000000 1.674250 
# 
# From -- ./inp_files/9070.got.cif
#   From: 2010.05.17/outbox.cif.g08.bks.cpg/sg59_5_cif.got.tgz:9070.got - 2010.06.03 14:40:33.
