data_PCOD9448047
_publ_section_title
;
Structure prediction by ZEFSAII (Michael W. Deem and Ramdas Pophale) SiO2 
 PCOD9448047
Probable space group: P M M N
;
_chemical_formula_sum "Si O2"
_cell_formula_units_Z 64
_cell_length_a 17.974609
_cell_length_b 7.802872
_cell_length_c 22.333818
_cell_angle_alpha 90.000000
_cell_angle_beta 90.000000
_cell_angle_gamma 90.000000
_cell_volume 3132.397779
_symmetry_space_group_name_H-M "P M M N"
_symmetry_group_IT_number 59
_space_group.IT_coordinate_system_code '2'
_symmetry_cell_setting 'orthorhombic'
loop_
_space_group_symop_operation_xyz
x,y,z
1/2-x,1/2-y,z
1/2+x,-y,-z
-x,1/2+y,-z
-x,-y,-z
1/2+x,1/2+y,-z
1/2-x,y,z
x,1/2-y,z
loop_
_atom_site_type_symbol
_atom_site_label
_atom_site_fract_x
_atom_site_fract_y
_atom_site_fract_z
Si Si1 0.665149 0.950003 0.711043
Si Si2 0.333566 0.539883 0.499463
Si Si3 0.058338 0.550730 0.394891
Si Si4 0.669331 0.543642 0.123179
Si Si5 0.016296 0.043555 0.931895
Si Si6 0.938883 0.450953 0.814084
Si Si7 0.095733 0.955641 0.755844
Si Si8 0.892409 0.447665 0.375105
O O1 0.750000 0.015151 0.710250
O O2 0.666374 0.750000 0.694833
O O3 0.611704 0.038774 0.662804
O O4 0.626843 0.966366 0.775961
O O5 0.250000 0.489172 0.482282
O O6 0.335742 0.750000 0.499289
O O7 0.394737 0.484375 0.451428
O O8 0.353425 0.478375 0.566144
O O9 0.039280 0.750000 0.404896
O O10 0.981207 0.454146 0.385297
O O11 0.750000 0.478352 0.104237
O O12 0.669712 0.750000 0.117808
O O13 0.598141 0.478730 0.086689
O O14 0.653274 0.499780 0.192130
O O15 0.016872 0.250000 0.926190
O O16 0.958609 0.981643 0.880689
O O17 0.000000 0.000000 0.000000
O O18 0.921941 0.250000 0.818235
O O19 0.015827 0.472790 0.776911
O O20 0.087213 0.750000 0.752034
O O21 0.119218 0.023497 0.690815
O O22 0.867255 0.250000 0.372043
#
# Coordination Sequence:
#
# PCOD9448047 Si02
#       8
#     8   8   8   8   8   8   8   8
#     4  11  23  37  55  81 111 141 178 228 282 330
#     4   9  19  35  52  73 103 140 182 228 278 330
#     4  11  21  34  56  79 103 140 185 228 272 333
#     4   9  19  36  56  79 111 148 186 229 274 321
#     4   9  19  35  57  84 111 146 186 223 267 317
#     4  10  20  36  57  80 110 144 180 220 264 321
#     4  10  19  31  52  81 110 140 178 223 271 324
#     4  10  20  34  54  78 106 139 177 226 277 329
#
# _framework density 20.431633000000001
#
# number of rings (size 3 to 8) (size 9 to 14) (size 15 to 20)
#    0.000    2.125    1.250    3.000    0.000    5.250 
#    0.000    2.500    0.000    4.125    0.000    0.000 
#    0.000    0.000    0.000    0.000    0.000    0.000 
#
# Total GULP energy -357295.256803 kJ/mol
# GULP energy per Si atom -5582.738388 kJ/mol
# Density = 2.038513 g / cm^3
# Si number density = 20.431633 Si / 1000 Ang^3
#
#
#
# Elastic Constant Matrix: (Units=GPa)
#
#
# Indices 1 2 3 4 5 6 
#
# 1 41.7279 -10.6557 6.8474 0.0000 0.0000 0.0000
# 2 -10.6557 29.7567 -10.2887 0.0000 0.0000 0.0000
# 3 6.8474 -10.2887 116.4415 0.0000 0.0000 0.0000
# 4 0.0000 0.0000 0.0000 15.1673 0.0000 0.0000
# 5 0.0000 0.0000 0.0000 0.0000 3.8100 0.0000
# 6 0.0000 0.0000 0.0000 0.0000 0.0000 11.0137
#
#
#
# Elastic Compliance Matrix: (Units=1/GPa)
#
#
# Indices 1 2 3 4 5 6 
#
# 1 0.026439 0.009211 -0.000741 0.000000 0.000000 0.000000
# 2 0.009211 0.037874 0.002805 0.000000 0.000000 0.000000
# 3 -0.000741 0.002805 0.008879 0.000000 0.000000 0.000000
# 4 0.000000 0.000000 0.000000 0.065931 0.000000 0.000000
# 5 0.000000 0.000000 0.000000 0.000000 0.262467 0.000000
# 6 0.000000 0.000000 0.000000 0.000000 0.000000 0.090796
#
#
# Mechanical properties :
#
#
# Convention : Reuss Voigt Hill
#
# Bulk Modulus (GPa) = 10.44463 17.74802 14.09632
# Shear Modulus (GPa) = 9.96514 19.46642 14.71578
#
# Velocity S-wave (km/s) = 2.21086 3.09003 2.68665
# Velocity P-wave (km/s) = 3.41179 4.62995 4.06674
#
# Compressibility (1/GPa) = 0.09574298
#
# Stress axis : x y z
#
# Youngs Moduli (GPa) = 37.82354 26.40319 112.62024
#
# Poissons Ratio (x) = -0.24321 0.08343
# Poissons Ratio (y) = -0.34841 -0.31588
# Poissons Ratio (z) = 0.02802 -0.07406
#
# Static dielectric constant tensor:
#      x y z
#    x 1.707050 0.000000 0.000000 
#    y 0.000000 1.738300 0.000000 
#    z 0.000000 0.000000 1.730420 
# 
# From -- ./inp_files/30787.got.cif
#   From: 2010.05.17/outbox.cif.g08.bks.cpg/sg59_16_cif.got.tgz:30787.got - 2010.06.03 14:40:33.
