data_PCOD9448206
_publ_section_title
;
Structure prediction by ZEFSAII (Michael W. Deem and Ramdas Pophale) SiO2 
 PCOD9448206
Probable space group: P M M N
;
_chemical_formula_sum "Si O2"
_cell_formula_units_Z 64
_cell_length_a 20.024863
_cell_length_b 7.981143
_cell_length_c 19.773647
_cell_angle_alpha 90.000000
_cell_angle_beta 90.000000
_cell_angle_gamma 90.000000
_cell_volume 3160.249874
_symmetry_space_group_name_H-M "P M M N"
_symmetry_group_IT_number 59
_space_group.IT_coordinate_system_code '2'
_symmetry_cell_setting 'orthorhombic'
loop_
_space_group_symop_operation_xyz
x,y,z
1/2-x,1/2-y,z
1/2+x,-y,-z
-x,1/2+y,-z
-x,-y,-z
1/2+x,1/2+y,-z
1/2-x,y,z
x,1/2-y,z
loop_
_atom_site_type_symbol
_atom_site_label
_atom_site_fract_x
_atom_site_fract_y
_atom_site_fract_z
Si Si1 0.174257 0.949157 0.198890
Si Si2 0.585290 0.554654 0.925158
Si Si3 0.551597 0.044213 0.713273
Si Si4 0.825793 0.454638 0.480141
Si Si5 0.828993 0.049383 0.329175
Si Si6 0.450685 0.548203 0.439383
Si Si7 0.067300 0.554643 0.932149
Si Si8 0.921712 0.945004 0.209162
O O1 0.250000 0.017839 0.199660
O O2 0.179373 0.750000 0.209494
O O3 0.122751 0.011585 0.256533
O O4 0.136469 0.974773 0.127418
O O5 0.582830 0.750000 0.908006
O O6 0.508822 0.487235 0.922002
O O7 0.602205 0.531962 0.004286
O O8 0.550722 0.250000 0.713404
O O9 0.536255 0.987839 0.636771
O O10 0.492557 0.988117 0.763126
O O11 0.750000 0.510683 0.490899
O O12 0.824735 0.250000 0.479442
O O13 0.848810 0.506161 0.404904
O O14 0.877575 0.509094 0.536419
O O15 0.750000 0.017459 0.322781
O O16 0.838938 0.250000 0.324914
O O17 0.870525 0.965490 0.270375
O O18 0.500000 0.500000 0.500000
O O19 0.450825 0.750000 0.436383
O O20 0.062115 0.750000 0.949389
O O21 0.100630 0.533462 0.859446
O O22 0.929669 0.750000 0.192975
#
# Coordination Sequence:
#
# PCOD9448206 Si02
#       8
#     8   8   8   8   8   8   8   8
#     4  10  20  36  57  79 110 152 191 227 269 320
#     4  10  20  35  56  82 109 138 174 220 267 312
#     4   9  19  33  50  77 110 141 179 224 271 318
#     4   8  15  29  50  73  96 130 177 222 262 311
#     4   9  18  33  51  72 101 135 173 219 270 326
#     4  10  19  32  51  76 106 138 175 225 275 321
#     4  10  20  34  56  82 107 138 176 215 260 316
#     4  11  20  32  52  77 109 142 174 220 266 315
#
# _framework density 20.251563000000001
#
# number of rings (size 3 to 8) (size 9 to 14) (size 15 to 20)
#    0.000    2.375    1.250    2.625    0.000    2.000 
#    0.000    4.375    0.000    4.875    0.000    0.000 
#    0.000    0.000    0.000    0.000    0.000    0.000 
#
# Total GULP energy -357070.725318 kJ/mol
# GULP energy per Si atom -5579.230083 kJ/mol
# Density = 2.020547 g / cm^3
# Si number density = 20.251563 Si / 1000 Ang^3
#
#
#
# Elastic Constant Matrix: (Units=GPa)
#
#
# Indices 1 2 3 4 5 6 
#
# 1 37.2789 7.6415 26.4076 0.0000 0.0000 0.0000
# 2 7.6415 18.5376 -0.2656 0.0000 0.0000 0.0000
# 3 26.4076 -0.2656 119.0668 0.0000 0.0000 0.0000
# 4 0.0000 0.0000 0.0000 17.9764 0.0000 0.0000
# 5 0.0000 0.0000 0.0000 0.0000 27.6048 0.0000
# 6 0.0000 0.0000 0.0000 0.0000 0.0000 16.6738
#
#
#
# Elastic Compliance Matrix: (Units=1/GPa)
#
#
# Indices 1 2 3 4 5 6 
#
# 1 0.035432 -0.014719 -0.007891 0.000000 0.000000 0.000000
# 2 -0.014719 0.060060 0.003398 0.000000 0.000000 0.000000
# 3 -0.007891 0.003398 0.010156 0.000000 0.000000 0.000000
# 4 0.000000 0.000000 0.000000 0.055628 0.000000 0.000000
# 5 0.000000 0.000000 0.000000 0.000000 0.036226 0.000000
# 6 0.000000 0.000000 0.000000 0.000000 0.000000 0.059974
#
#
# Mechanical properties :
#
#
# Convention : Reuss Voigt Hill
#
# Bulk Modulus (GPa) = 14.87523 26.93890 20.90706
# Shear Modulus (GPa) = 15.70806 21.85767 18.78286
#
# Velocity S-wave (km/s) = 2.78806 3.28885 3.04876
# Velocity P-wave (km/s) = 4.21018 5.26811 4.76857
#
# Compressibility (1/GPa) = 0.06722584
#
# Stress axis : x y z
#
# Youngs Moduli (GPa) = 28.22324 16.64991 98.46010
#
# Poissons Ratio (x) = 0.24506 0.77697
# Poissons Ratio (y) = 0.41541 -0.33461
# Poissons Ratio (z) = 0.22271 -0.05658
#
# Static dielectric constant tensor:
#      x y z
#    x 1.722120 0.000000 0.000000 
#    y 0.000000 1.754040 0.000000 
#    z 0.000000 0.000000 1.721730 
# 
# From -- ./inp_files/28137.got.cif
#   From: 2010.05.17/outbox.cif.g08.bks.cpg/sg59_15_cif.got.tgz:28137.got - 2010.06.03 14:40:33.
