data_PCOD9448558
_publ_section_title
;
Structure prediction by ZEFSAII (Michael W. Deem and Ramdas Pophale) SiO2 
 PCOD9448558
Probable space group: P M M N
;
_chemical_formula_sum "Si O2"
_cell_formula_units_Z 64
_cell_length_a 7.443560
_cell_length_b 24.257248
_cell_length_c 15.100218
_cell_angle_alpha 90.000000
_cell_angle_beta 90.000000
_cell_angle_gamma 90.000000
_cell_volume 2726.499604
_symmetry_space_group_name_H-M "P M M N"
_symmetry_group_IT_number 59
_space_group.IT_coordinate_system_code '2'
_symmetry_cell_setting 'orthorhombic'
loop_
_space_group_symop_operation_xyz
x,y,z
1/2-x,1/2-y,z
1/2+x,-y,-z
-x,1/2+y,-z
-x,-y,-z
1/2+x,1/2+y,-z
1/2-x,y,z
x,1/2-y,z
loop_
_atom_site_type_symbol
_atom_site_label
_atom_site_fract_x
_atom_site_fract_y
_atom_site_fract_z
Si Si1 0.033321 0.866838 0.802387
Si Si2 0.971034 0.490600 0.206442
Si Si3 0.539331 0.810827 0.981282
Si Si4 0.033222 0.810060 0.247994
Si Si5 0.469193 0.813641 0.619756
Si Si6 0.532916 0.358760 0.569682
Si Si7 0.551636 0.983266 0.400751
Si Si8 0.545166 0.901907 0.109931
O O1 0.250000 0.866166 0.801378
O O2 0.977269 0.929399 0.822805
O O3 0.972308 0.847828 0.705317
O O4 0.973904 0.825026 0.878099
O O5 0.750000 0.494224 0.206945
O O6 0.036673 0.498945 0.308078
O O7 0.034033 0.540317 0.143340
O O8 0.750000 0.808701 0.005710
O O9 0.462569 0.750000 0.999520
O O10 0.460155 0.862863 0.034749
O O11 0.250000 0.812948 0.239207
O O12 0.973688 0.750000 0.215455
O O13 0.990853 0.816764 0.351565
O O14 0.955113 0.860934 0.194177
O O15 0.250000 0.814211 0.618683
O O16 0.524203 0.750000 0.626554
O O17 0.527776 0.839498 0.526706
O O18 0.750000 0.364882 0.566926
O O19 0.454883 0.417421 0.597019
O O20 0.750000 0.007136 0.392354
O O21 0.500000 0.000000 0.500000
O O22 0.750000 0.914061 0.082029
#
# Coordination Sequence:
#
# PCOD9448558 Si02
#       8
#     8   8   8   8   8   8   8   8
#     4  10  20  36  59  83 107 141 186 235 281 329
#     4   9  19  36  57  82 112 144 185 232 276 327
#     4  10  22  39  58  82 111 144 183 229 285 343
#     4  10  20  33  52  82 117 147 180 229 281 324
#     4   9  17  31  53  79 108 147 191 228 272 335
#     4  10  19  33  53  79 111 145 184 229 277 328
#     4  11  21  35  55  79 110 149 190 232 273 324
#     4  10  20  38  60  80 109 151 190 224 270 336
#
# _framework density 23.473322
#
# number of rings (size 3 to 8) (size 9 to 14) (size 15 to 20)
#    0.000    2.125    1.250    2.250    0.000    6.000 
#    0.000    3.750    0.000    1.875    0.000    0.000 
#    0.000    0.000    0.000    0.000    0.000    0.000 
#
# Total GULP energy -357539.571072 kJ/mol
# GULP energy per Si atom -5586.555798 kJ/mol
# Density = 2.341990 g / cm^3
# Si number density = 23.473322 Si / 1000 Ang^3
#
#
#
# Elastic Constant Matrix: (Units=GPa)
#
#
# Indices 1 2 3 4 5 6 
#
# 1 66.9107 -5.8293 -6.1329 0.0000 0.0000 0.0000
# 2 -5.8293 84.3492 14.4506 0.0000 0.0000 0.0000
# 3 -6.1329 14.4506 93.7950 0.0000 0.0000 0.0000
# 4 0.0000 0.0000 0.0000 32.7920 0.0000 0.0000
# 5 0.0000 0.0000 0.0000 0.0000 16.3654 0.0000
# 6 0.0000 0.0000 0.0000 0.0000 0.0000 -138.0101
#
#
#
# Elastic Compliance Matrix: (Units=1/GPa)
#
#
# Indices 1 2 3 4 5 6 
#
# 1 0.015101 0.000898 0.000849 0.000000 0.000000 0.000000
# 2 0.000898 0.012230 -0.001826 0.000000 0.000000 0.000000
# 3 0.000849 -0.001826 0.010998 0.000000 0.000000 0.000000
# 4 0.000000 0.000000 0.000000 0.030495 0.000000 0.000000
# 5 0.000000 0.000000 0.000000 0.000000 0.061105 0.000000
# 6 0.000000 0.000000 0.000000 0.000000 0.000000 -0.007246
#
#
# Mechanical properties :
#
#
# Convention : Reuss Voigt Hill
#
# Bulk Modulus (GPa) = 26.19628 27.78130 26.98879
# Shear Modulus (GPa) = 36.88267 -1.59944 17.64162
#
# Velocity S-wave (km/s) = 3.96821 -0.82636 2.74443
# Velocity P-wave (km/s) = 5.67273 3.30915 4.64383
#
# Compressibility (1/GPa) = 0.03817336
#
# Stress axis : x y z
#
# Youngs Moduli (GPa) = 66.21915 81.76415 90.92299
#
# Poissons Ratio (x) = -0.07344 -0.07720
# Poissons Ratio (y) = -0.05948 0.16598
# Poissons Ratio (z) = -0.05622 0.14926
#
# Static dielectric constant tensor:
#      x y z
#    x 1.923550 0.000000 0.000000 
#    y 0.000000 1.913990 0.000000 
#    z 0.000000 0.000000 1.880580 
# 
# From -- ./inp_files/21528.got.cif
#   From: 2010.05.17/outbox.cif.g08.bks.cpg/sg59_11_cif.got.tgz:21528.got - 2010.06.03 14:40:33.
