data_PCOD9448885
_publ_section_title
;
Structure prediction by ZEFSAII (Michael W. Deem and Ramdas Pophale) SiO2 
 PCOD9448885
Probable space group: P M M N
;
_chemical_formula_sum "Si O2"
_cell_formula_units_Z 64
_cell_length_a 14.958323
_cell_length_b 22.993891
_cell_length_c 10.159206
_cell_angle_alpha 90.000000
_cell_angle_beta 90.000000
_cell_angle_gamma 90.000000
_cell_volume 3494.259397
_symmetry_space_group_name_H-M "P M M N"
_symmetry_group_IT_number 59
_space_group.IT_coordinate_system_code '2'
_symmetry_cell_setting 'orthorhombic'
loop_
_space_group_symop_operation_xyz
x,y,z
1/2-x,1/2-y,z
1/2+x,-y,-z
-x,1/2+y,-z
-x,-y,-z
1/2+x,1/2+y,-z
1/2-x,y,z
x,1/2-y,z
loop_
_atom_site_type_symbol
_atom_site_label
_atom_site_fract_x
_atom_site_fract_y
_atom_site_fract_z
Si Si1 0.460610 0.428596 0.255666
Si Si2 0.486860 0.319268 0.605441
Si Si3 0.973419 0.817910 0.088634
Si Si4 0.846576 0.319781 0.428711
Si Si5 0.545267 0.316869 0.183310
Si Si6 0.853178 0.916156 0.487585
Si Si7 0.149828 0.991385 0.748860
Si Si8 0.146717 0.075174 0.999618
O O1 0.469410 0.358976 0.239078
O O2 0.406376 0.440882 0.387097
O O3 0.561991 0.451680 0.258614
O O4 0.408708 0.447832 0.124775
O O5 0.473049 0.250000 0.582644
O O6 0.571682 0.340036 0.519168
O O7 0.403162 0.358249 0.562902
O O8 0.503835 0.327254 0.761494
O O9 0.944050 0.750000 0.079594
O O10 0.897878 0.864992 0.052846
O O11 0.048014 0.826206 0.973762
O O12 0.750000 0.344620 0.463333
O O13 0.843288 0.250000 0.448984
O O14 0.869332 0.328163 0.274828
O O15 0.521152 0.250000 0.205470
O O16 0.750000 0.904367 0.521173
O O17 0.855352 0.963183 0.371120
O O18 0.250000 0.964234 0.744852
O O19 0.143485 0.028588 0.882604
O O20 0.250000 0.085209 0.035571
#
# Coordination Sequence:
#
# PCOD9448885 Si02
#       8
#     8   8   8   8   8   8   8   8
#     4  11  21  36  58  81 109 148 178 226 280 331
#     4  10  19  34  55  82 114 150 187 223 270 327
#     4   9  18  32  54  81 113 149 182 219 268 326
#     4   9  17  31  52  76 106 145 185 223 266 319
#     4   9  18  33  53  80 109 138 176 222 272 325
#     4  11  22  37  55  82 113 144 183 227 276 331
#     4  10  22  39  58  80 106 140 190 233 270 329
#     4  10  20  36  57  83 112 145 184 225 272 329
#
# _framework density 18.315754999999999
#
# number of rings (size 3 to 8) (size 9 to 14) (size 15 to 20)
#    0.000    2.125    2.500    1.125    0.000    1.000 
#    0.000    1.875    0.000    7.500    0.000    0.000 
#    0.000    0.000    0.000    0.000    0.000    0.000 
#
# Total GULP energy -356597.601705 kJ/mol
# GULP energy per Si atom -5571.837527 kJ/mol
# Density = 1.827407 g / cm^3
# Si number density = 18.315755 Si / 1000 Ang^3
#
#
#
# Elastic Constant Matrix: (Units=GPa)
#
#
# Indices 1 2 3 4 5 6 
#
# 1 145.9603 43.3701 69.3575 0.0000 0.0000 0.0000
# 2 43.3701 43.9743 28.4782 0.0000 0.0000 0.0000
# 3 69.3575 28.4782 122.9331 0.0000 0.0000 0.0000
# 4 0.0000 0.0000 0.0000 12.4372 0.0000 0.0000
# 5 0.0000 0.0000 0.0000 0.0000 19.7246 0.0000
# 6 0.0000 0.0000 0.0000 0.0000 0.0000 16.5900
#
#
#
# Elastic Compliance Matrix: (Units=1/GPa)
#
#
# Indices 1 2 3 4 5 6 
#
# 1 0.011509 -0.008407 -0.004546 0.000000 0.000000 0.000000
# 2 -0.008407 0.032896 -0.002877 0.000000 0.000000 0.000000
# 3 -0.004546 -0.002877 0.011366 0.000000 0.000000 0.000000
# 4 0.000000 0.000000 0.000000 0.080404 0.000000 0.000000
# 5 0.000000 0.000000 0.000000 0.000000 0.050698 0.000000
# 6 0.000000 0.000000 0.000000 0.000000 0.000000 0.060277
#
#
# Mechanical properties :
#
#
# Convention : Reuss Voigt Hill
#
# Bulk Modulus (GPa) = 41.47640 66.14214 53.80927
# Shear Modulus (GPa) = 17.43085 21.19448 19.31266
#
# Velocity S-wave (km/s) = 3.08829 3.40541 3.25072
# Velocity P-wave (km/s) = 5.95072 7.18700 6.59788
#
# Compressibility (1/GPa) = 0.02411010
#
# Stress axis : x y z
#
# Youngs Moduli (GPa) = 86.88548 30.39918 87.98370
#
# Poissons Ratio (x) = 0.25558 0.39996
# Poissons Ratio (y) = 0.73047 0.25314
# Poissons Ratio (z) = 0.39497 0.08746
#
# Static dielectric constant tensor:
#      x y z
#    x 1.626010 0.000000 0.000000 
#    y 0.000000 1.643770 0.000000 
#    z 0.000000 0.000000 1.650020 
# 
# From -- ./inp_files/9585.got.cif
#   From: 2010.05.17/outbox.cif.g08.bks.cpg/sg59_5_cif.got.tgz:9585.got - 2010.06.03 14:40:33.
