data_PCOD9448648
_publ_section_title
;
Structure prediction by ZEFSAII (Michael W. Deem and Ramdas Pophale) SiO2 
 PCOD9448648
Probable space group: P M M N
;
_chemical_formula_sum "Si O2"
_cell_formula_units_Z 64
_cell_length_a 21.734883
_cell_length_b 26.409585
_cell_length_c 5.552508
_cell_angle_alpha 90.000000
_cell_angle_beta 90.000000
_cell_angle_gamma 90.000000
_cell_volume 3187.190897
_symmetry_space_group_name_H-M "P M M N"
_symmetry_group_IT_number 59
_space_group.IT_coordinate_system_code '2'
_symmetry_cell_setting 'orthorhombic'
loop_
_space_group_symop_operation_xyz
x,y,z
1/2-x,1/2-y,z
1/2+x,-y,-z
-x,1/2+y,-z
-x,-y,-z
1/2+x,1/2+y,-z
1/2-x,y,z
x,1/2-y,z
loop_
_atom_site_type_symbol
_atom_site_label
_atom_site_fract_x
_atom_site_fract_y
_atom_site_fract_z
Si Si1 0.575856 0.500480 0.987717
Si Si2 0.939865 0.037398 0.487114
Si Si3 0.397133 0.113873 0.941414
Si Si4 0.319776 0.306195 0.690846
Si Si5 0.388790 0.811153 0.072610
Si Si6 0.931676 0.695994 0.683884
Si Si7 0.989799 0.360251 0.640543
Si Si8 0.179754 0.688756 0.578196
O O1 0.594477 0.476286 0.241902
O O2 0.604529 0.556399 0.975834
O O3 0.500000 0.500000 0.000000
O O4 0.592746 0.472070 0.742697
O O5 0.957912 0.095998 0.488622
O O6 0.000000 0.000000 0.500000
O O7 0.338224 0.146204 0.856383
O O8 0.446347 0.114823 0.725582
O O9 0.426443 0.148603 0.145455
O O10 0.250000 0.311576 0.602439
O O11 0.323577 0.250000 0.811534
O O12 0.370529 0.304491 0.481116
O O13 0.398470 0.750000 0.067004
O O14 0.450792 0.841526 0.132579
O O15 0.357962 0.826316 0.818718
O O16 0.348885 0.822813 0.315401
O O17 0.935884 0.750000 0.812187
O O18 0.990804 0.687953 0.515758
O O19 0.250000 0.670230 0.592923
O O20 0.181409 0.750000 0.588660
#
# Coordination Sequence:
#
# PCOD9448648 Si02
#       8
#     8   8   8   8   8   8   8   8
#     4  10  19  33  54  81 111 140 182 235 284 334
#     4  10  19  34  53  77 111 145 182 232 273 336
#     4  11  21  33  57  80 112 151 193 236 295 366
#     4   9  20  38  55  78 111 148 200 255 298 351
#     4  10  21  33  50  81 114 146 182 225 274 331
#     4  10  21  34  51  77 113 158 189 228 291 359
#     4  11  22  33  52  79 121 147 187 223 292 355
#     4   9  18  35  55  74 102 142 188 229 260 299
#
# _framework density 20.080379000000001
#
# number of rings (size 3 to 8) (size 9 to 14) (size 15 to 20)
#    0.000    2.000    2.500    2.625    3.500    3.500 
#    0.000    1.250    0.000    0.000    0.000    5.250 
#    0.000    0.000    0.000    0.000    0.000    0.000 
#
# Total GULP energy -356795.635341 kJ/mol
# GULP energy per Si atom -5574.931802 kJ/mol
# Density = 2.003467 g / cm^3
# Si number density = 20.080379 Si / 1000 Ang^3
#
#
#
# Elastic Constant Matrix: (Units=GPa)
#
#
# Indices 1 2 3 4 5 6 
#
# 1 56.0979 37.9761 19.1738 0.0000 0.0000 0.0000
# 2 37.9761 89.4170 30.2542 0.0000 0.0000 0.0000
# 3 19.1738 30.2542 114.5066 0.0000 0.0000 0.0000
# 4 0.0000 0.0000 0.0000 23.4772 0.0000 0.0000
# 5 0.0000 0.0000 0.0000 0.0000 15.6613 0.0000
# 6 0.0000 0.0000 0.0000 0.0000 0.0000 8.3668
#
#
#
# Elastic Compliance Matrix: (Units=1/GPa)
#
#
# Indices 1 2 3 4 5 6 
#
# 1 0.025262 -0.010210 -0.001532 0.000000 0.000000 0.000000
# 2 -0.010210 0.016408 -0.002626 0.000000 0.000000 0.000000
# 3 -0.001532 -0.002626 0.009683 0.000000 0.000000 0.000000
# 4 0.000000 0.000000 0.000000 0.042595 0.000000 0.000000
# 5 0.000000 0.000000 0.000000 0.000000 0.063852 0.000000
# 6 0.000000 0.000000 0.000000 0.000000 0.000000 0.119520
#
#
# Mechanical properties :
#
#
# Convention : Reuss Voigt Hill
#
# Bulk Modulus (GPa) = 44.21465 48.31440 46.26453
# Shear Modulus (GPa) = 15.94409 21.00887 18.47648
#
# Velocity S-wave (km/s) = 2.82088 3.23807 3.03665
# Velocity P-wave (km/s) = 5.71633 6.17194 5.94850
#
# Compressibility (1/GPa) = 0.02261694
#
# Stress axis : x y z
#
# Youngs Moduli (GPa) = 39.58557 60.94448 103.26929
#
# Poissons Ratio (x) = 0.62227 0.15824
# Poissons Ratio (y) = 0.40419 0.27115
# Poissons Ratio (z) = 0.06066 0.16002
#
# Static dielectric constant tensor:
#      x y z
#    x 1.724180 0.000000 0.000000 
#    y 0.000000 1.732960 0.000000 
#    z 0.000000 0.000000 1.776910 
# 
# From -- ./inp_files/3538.got.cif
#   From: 2010.05.17/outbox.cif.g08.bks.cpg/sg59_2_cif.got.tgz:3538.got - 2010.06.03 14:40:33.
