data_PCOD9448974
_publ_section_title
;
Structure prediction by ZEFSAII (Michael W. Deem and Ramdas Pophale) SiO2 
 PCOD9448974
Probable space group: P M M N
;
_chemical_formula_sum "Si O2"
_cell_formula_units_Z 56
_cell_length_a 14.383367
_cell_length_b 20.654871
_cell_length_c 9.772328
_cell_angle_alpha 90.000000
_cell_angle_beta 90.000000
_cell_angle_gamma 90.000000
_cell_volume 2903.227601
_symmetry_space_group_name_H-M "P M M N"
_symmetry_group_IT_number 59
_space_group.IT_coordinate_system_code '2'
_symmetry_cell_setting 'orthorhombic'
loop_
_space_group_symop_operation_xyz
x,y,z
1/2-x,1/2-y,z
1/2+x,-y,-z
-x,1/2+y,-z
-x,-y,-z
1/2+x,1/2+y,-z
1/2-x,y,z
x,1/2-y,z
loop_
_atom_site_type_symbol
_atom_site_label
_atom_site_fract_x
_atom_site_fract_y
_atom_site_fract_z
Si Si1 0.645907 0.173079 0.140989
Si Si2 0.359904 0.559608 0.349096
Si Si3 0.139212 0.431876 0.533531
Si Si4 0.477995 0.399753 0.085519
Si Si5 0.637665 0.674174 0.685749
Si Si6 0.862766 0.322591 0.456211
Si Si7 0.531355 0.962432 0.188842
O O1 0.750000 0.146364 0.119466
O O2 0.651435 0.250000 0.127231
O O3 0.564436 0.146074 0.049007
O O4 0.615406 0.161108 0.298818
O O5 0.250000 0.563323 0.320206
O O6 0.377141 0.494051 0.435788
O O7 0.389195 0.620842 0.441152
O O8 0.424406 0.556924 0.217426
O O9 0.250000 0.428730 0.558210
O O10 0.111438 0.367624 0.448828
O O11 0.087324 0.443674 0.675706
O O12 0.408780 0.361630 0.185167
O O13 0.525196 0.461172 0.160900
O O14 0.432853 0.427342 0.947421
O O15 0.750000 0.670936 0.697133
O O16 0.610820 0.750000 0.678755
O O17 0.750000 0.320043 0.459434
O O18 0.896827 0.250000 0.488630
#
# Coordination Sequence:
#
# PCOD9448974 Si02
#       7
#     8   8   8   8   8   8   8
#     4   9  18  34  56  82 113 149 190 231 275 343
#     4  10  19  34  57  84 119 156 191 236 290 347
#     4  10  21  39  63  88 113 150 202 254 304 349
#     4  11  23  38  57  86 121 158 197 236 294 366
#     4  10  22  42  66  87 111 152 207 261 305 350
#     4   8  15  28  49  79 110 144 187 229 274 332
#     4  11  24  37  56  87 123 156 192 245 296 354
#
# _framework density 19.288875999999998
#
# number of rings (size 3 to 8) (size 9 to 14) (size 15 to 20)
#    0.000    2.143    1.429    2.571    2.000    2.857 
#    0.000    5.714    0.000    3.429    0.000    0.000 
#    0.000    0.000    0.000    0.000    0.000    0.000 
#
# Total GULP energy -312549.263750 kJ/mol
# GULP energy per Si atom -5581.236853 kJ/mol
# Density = 1.924497 g / cm^3
# Si number density = 19.288876 Si / 1000 Ang^3
#
#
#
# Elastic Constant Matrix: (Units=GPa)
#
#
# Indices 1 2 3 4 5 6 
#
# 1 47.7035 16.7136 29.2375 0.0000 0.0000 0.0000
# 2 16.7136 96.5980 46.5629 0.0000 0.0000 0.0000
# 3 29.2375 46.5629 83.2766 0.0000 0.0000 0.0000
# 4 0.0000 0.0000 0.0000 23.3230 0.0000 0.0000
# 5 0.0000 0.0000 0.0000 0.0000 13.6244 0.0000
# 6 0.0000 0.0000 0.0000 0.0000 0.0000 23.0185
#
#
#
# Elastic Compliance Matrix: (Units=1/GPa)
#
#
# Indices 1 2 3 4 5 6 
#
# 1 0.026712 -0.000139 -0.009301 0.000000 0.000000 0.000000
# 2 -0.000139 0.014172 -0.007876 0.000000 0.000000 0.000000
# 3 -0.009301 -0.007876 0.019677 0.000000 0.000000 0.000000
# 4 0.000000 0.000000 0.000000 0.042876 0.000000 0.000000
# 5 0.000000 0.000000 0.000000 0.000000 0.073397 0.000000
# 6 0.000000 0.000000 0.000000 0.000000 0.000000 0.043443
#
#
# Mechanical properties :
#
#
# Convention : Reuss Voigt Hill
#
# Bulk Modulus (GPa) = 38.56319 45.84510 42.20414
# Shear Modulus (GPa) = 18.97158 20.99746 19.98452
#
# Velocity S-wave (km/s) = 3.13956 3.30294 3.22229
# Velocity P-wave (km/s) = 5.76006 6.19396 5.98095
#
# Compressibility (1/GPa) = 0.02593146
#
# Stress axis : x y z
#
# Youngs Moduli (GPa) = 37.43668 70.55943 50.82036
#
# Poissons Ratio (x) = 0.00977 0.47267
# Poissons Ratio (y) = 0.00519 0.40025
# Poissons Ratio (z) = 0.34819 0.55570
#
# Static dielectric constant tensor:
#      x y z
#    x 1.697650 0.000000 0.000000 
#    y 0.000000 1.687090 0.000000 
#    z 0.000000 0.000000 1.659650 
# 
# From -- ./inp_files/9337.got.cif
#   From: 2010.05.17/outbox.cif.g08.bks.cpg/sg59_5_cif.got.tgz:9337.got - 2010.06.03 14:40:33.
