data_PCOD9448036
_publ_section_title
;
Structure prediction by ZEFSAII (Michael W. Deem and Ramdas Pophale) SiO2 
 PCOD9448036
Probable space group: P M M N
;
_chemical_formula_sum "Si O2"
_cell_formula_units_Z 48
_cell_length_a 15.061125
_cell_length_b 7.686346
_cell_length_c 20.513413
_cell_angle_alpha 90.000000
_cell_angle_beta 90.000000
_cell_angle_gamma 90.000000
_cell_volume 2374.735623
_symmetry_space_group_name_H-M "P M M N"
_symmetry_group_IT_number 59
_space_group.IT_coordinate_system_code '2'
_symmetry_cell_setting 'orthorhombic'
loop_
_space_group_symop_operation_xyz
x,y,z
1/2-x,1/2-y,z
1/2+x,-y,-z
-x,1/2+y,-z
-x,-y,-z
1/2+x,1/2+y,-z
1/2-x,y,z
x,1/2-y,z
loop_
_atom_site_type_symbol
_atom_site_label
_atom_site_fract_x
_atom_site_fract_y
_atom_site_fract_z
Si Si1 0.352221 0.537230 0.921170
Si Si2 0.943641 0.455298 0.435679
Si Si3 0.250000 0.454928 0.517252
Si Si4 0.250000 0.462924 0.368314
Si Si5 0.502615 0.546350 0.826851
Si Si6 0.147036 0.539783 0.067593
Si Si7 0.059195 0.035993 0.314631
O O1 0.250000 0.486582 0.910838
O O2 0.354482 0.750000 0.921320
O O3 0.418412 0.471795 0.865788
O O4 0.379541 0.483207 0.994397
O O5 0.947481 0.250000 0.429066
O O6 0.841007 0.501289 0.446134
O O7 0.000000 0.500000 0.500000
O O8 0.992843 0.525894 0.371579
O O9 0.250000 0.250000 0.508846
O O10 0.250000 0.527299 0.443292
O O11 0.250000 0.250000 0.369161
O O12 0.340598 0.516952 0.332929
O O13 0.482902 0.750000 0.816211
O O14 0.584546 0.531809 0.876483
O O15 0.528167 0.474205 0.756328
O O16 0.250000 0.490855 0.077006
O O17 0.142214 0.750000 0.069586
O O18 0.059697 0.250000 0.314059
#
# Coordination Sequence:
#
# PCOD9448036 Si02
#       7
#     8   8   4   4   8   8   8
#     4   8  15  30  50  72  99 133 172 213 255 305
#     4  11  21  37  58  83 111 141 184 228 269 322
#     4  11  21  37  61  83 107 144 181 222 278 327
#     4   9  16  31  53  75 105 140 163 198 264 323
#     4  10  19  31  52  79 101 129 173 216 257 305
#     4   9  18  32  49  70 102 139 169 204 259 313
#     4   9  19  33  51  78 110 139 168 212 268 315
#
# _framework density 20.212778
#
# number of rings (size 3 to 8) (size 9 to 14) (size 15 to 20)
#    0.000    2.500    1.667    2.250    1.167    0.333 
#    1.500    1.667    0.000    1.500    0.000    0.000 
#    0.000    0.000    0.000    0.000    0.000    0.000 
#
# Total GULP energy -267913.947900 kJ/mol
# GULP energy per Si atom -5581.540581 kJ/mol
# Density = 2.016677 g / cm^3
# Si number density = 20.212778 Si / 1000 Ang^3
#
#
#
# Elastic Constant Matrix: (Units=GPa)
#
#
# Indices 1 2 3 4 5 6 
#
# 1 152.6880 -1.4949 120.1364 0.0000 0.0000 0.0000
# 2 -1.4949 31.8613 3.6936 0.0000 0.0000 0.0000
# 3 120.1364 3.6936 206.7644 0.0000 0.0000 0.0000
# 4 0.0000 0.0000 0.0000 8.0098 0.0000 0.0000
# 5 0.0000 0.0000 0.0000 0.0000 -9.5597 0.0000
# 6 0.0000 0.0000 0.0000 0.0000 0.0000 20.3720
#
#
#
# Elastic Compliance Matrix: (Units=1/GPa)
#
#
# Indices 1 2 3 4 5 6 
#
# 1 0.012126 0.001389 -0.007070 0.000000 0.000000 0.000000
# 2 0.001389 0.031610 -0.001371 0.000000 0.000000 0.000000
# 3 -0.007070 -0.001371 0.008969 0.000000 0.000000 0.000000
# 4 0.000000 0.000000 0.000000 0.124847 0.000000 0.000000
# 5 0.000000 0.000000 0.000000 0.000000 -0.104606 0.000000
# 6 0.000000 0.000000 0.000000 0.000000 0.000000 0.049087
#
#
# Mechanical properties :
#
#
# Convention : Reuss Voigt Hill
#
# Bulk Modulus (GPa) = 25.90767 70.66489 48.28628
# Shear Modulus (GPa) = 33.55581 21.69634 27.62607
#
# Velocity S-wave (km/s) = 4.07889 3.27983 3.70099
# Velocity P-wave (km/s) = 5.91848 7.02705 6.49645
#
# Compressibility (1/GPa) = 0.03859861
#
# Stress axis : x y z
#
# Youngs Moduli (GPa) = 82.46824 31.63537 111.49533
#
# Poissons Ratio (x) = -0.04393 0.78831
# Poissons Ratio (y) = -0.11451 0.15291
# Poissons Ratio (z) = 0.58308 0.04339
#
# Static dielectric constant tensor:
#      x y z
#    x 1.690080 0.000000 0.000000 
#    y 0.000000 1.765610 0.000000 
#    z 0.000000 0.000000 1.711260 
# 
# From -- ./inp_files/27405.got.cif
#   From: 2010.05.17/outbox.cif.g08.bks.cpg/sg59_14_cif.got.tgz:27405.got - 2010.06.03 14:40:33.
