data_PCOD9448029
_publ_section_title
;
Structure prediction by ZEFSAII (Michael W. Deem and Ramdas Pophale) SiO2 
 PCOD9448029
Probable space group: P M M N
;
_chemical_formula_sum "Si O2"
_cell_formula_units_Z 48
_cell_length_a 18.657670
_cell_length_b 8.094287
_cell_length_c 16.266937
_cell_angle_alpha 90.000000
_cell_angle_beta 90.000000
_cell_angle_gamma 90.000000
_cell_volume 2456.641540
_symmetry_space_group_name_H-M "P M M N"
_symmetry_group_IT_number 59
_space_group.IT_coordinate_system_code '2'
_symmetry_cell_setting 'orthorhombic'
loop_
_space_group_symop_operation_xyz
x,y,z
1/2-x,1/2-y,z
1/2+x,-y,-z
-x,1/2+y,-z
-x,-y,-z
1/2+x,1/2+y,-z
1/2-x,y,z
x,1/2-y,z
loop_
_atom_site_type_symbol
_atom_site_label
_atom_site_fract_x
_atom_site_fract_y
_atom_site_fract_z
Si Si1 0.083209 0.551996 0.179220
Si Si2 0.082445 0.052481 0.499399
Si Si3 0.331695 0.550593 0.661052
Si Si4 0.583437 0.050855 0.999923
Si Si5 0.083216 0.949945 0.820920
Si Si6 0.168490 0.051231 0.340013
O O1 0.085044 0.750000 0.179391
O O2 0.110919 0.492853 0.089140
O O3 0.129388 0.489796 0.255102
O O4 0.000129 0.498893 0.188098
O O5 0.084678 0.250000 0.497321
O O6 0.123040 0.988611 0.417935
O O7 0.123055 0.995290 0.581055
O O8 0.000000 0.000000 0.500000
O O9 0.250000 0.490154 0.654872
O O10 0.329658 0.750000 0.665674
O O11 0.370733 0.489806 0.743874
O O12 0.588587 0.250000 0.999907
O O13 0.610927 0.992880 0.089023
O O14 0.500000 0.000000 0.000000
O O15 0.085626 0.750000 0.820723
O O16 0.250000 0.988321 0.341750
O O17 0.171198 0.250000 0.346624
#
# Coordination Sequence:
#
# PCOD9448029 Si02
#       6
#     8   8   8   8   8   8
#     4  10  19  31  51  80 107 132 170 220 264 298
#     4  11  23  39  59  81 104 133 171 214 260 310
#     4  10  21  36  54  78 107 138 173 213 257 306
#     4   8  15  28  47  73 103 134 170 211 254 298
#     4   9  17  32  53  75 103 141 178 210 251 307
#     4  10  22  39  55  72 100 139 175 205 248 310
#
# _framework density 19.538868999999998
#
# number of rings (size 3 to 8) (size 9 to 14) (size 15 to 20)
#    0.000    2.333    0.000    2.500    0.000    8.000 
#    0.000    0.833    0.000    3.000    0.000    0.000 
#    0.000    0.000    0.000    0.000    0.000    0.000 
#
# Total GULP energy -267742.645558 kJ/mol
# GULP energy per Si atom -5577.971782 kJ/mol
# Density = 1.949440 g / cm^3
# Si number density = 19.538869 Si / 1000 Ang^3
#
#
#
# Elastic Constant Matrix: (Units=GPa)
#
#
# Indices 1 2 3 4 5 6 
#
# 1 137.9328 10.0326 114.8337 0.0000 0.0000 0.0000
# 2 10.0326 15.2772 13.6682 0.0000 0.0000 0.0000
# 3 114.8337 13.6682 243.6611 0.0000 0.0000 0.0000
# 4 0.0000 0.0000 0.0000 10.9829 0.0000 0.0000
# 5 0.0000 0.0000 0.0000 0.0000 -12.1424 0.0000
# 6 0.0000 0.0000 0.0000 0.0000 0.0000 13.6044
#
#
#
# Elastic Compliance Matrix: (Units=1/GPa)
#
#
# Indices 1 2 3 4 5 6 
#
# 1 0.012059 -0.002984 -0.005516 0.000000 0.000000 0.000000
# 2 -0.002984 0.069654 -0.002501 0.000000 0.000000 0.000000
# 3 -0.005516 -0.002501 0.006844 0.000000 0.000000 0.000000
# 4 0.000000 0.000000 0.000000 0.091050 0.000000 0.000000
# 5 0.000000 0.000000 0.000000 0.000000 -0.082356 0.000000
# 6 0.000000 0.000000 0.000000 0.000000 0.000000 0.073506
#
#
# Mechanical properties :
#
#
# Convention : Reuss Voigt Hill
#
# Bulk Modulus (GPa) = 15.02509 74.88224 44.95367
# Shear Modulus (GPa) = 23.26179 19.71141 21.48660
#
# Velocity S-wave (km/s) = 3.45416 3.17966 3.31975
# Velocity P-wave (km/s) = 4.85951 7.20335 6.14423
#
# Compressibility (1/GPa) = 0.06655532
#
# Stress axis : x y z
#
# Youngs Moduli (GPa) = 82.92472 14.35661 146.11574
#
# Poissons Ratio (x) = 0.04285 0.80596
# Poissons Ratio (y) = 0.24748 0.36541
# Poissons Ratio (z) = 0.45740 0.03590
#
# Static dielectric constant tensor:
#      x y z
#    x 1.699030 0.000000 0.000000 
#    y 0.000000 1.725130 0.000000 
#    z 0.000000 0.000000 1.718800 
# 
# From -- ./inp_files/20472.got.cif
#   From: 2010.05.17/outbox.cif.g08.bks.cpg/sg59_11_cif.got.tgz:20472.got - 2010.06.03 14:40:33.
