data_PCOD9448913
_publ_section_title
;
Structure prediction by ZEFSAII (Michael W. Deem and Ramdas Pophale) SiO2 
 PCOD9448913
Probable space group: P M M N
;
_chemical_formula_sum "Si O2"
_cell_formula_units_Z 64
_cell_length_a 25.397505
_cell_length_b 8.791210
_cell_length_c 16.529413
_cell_angle_alpha 90.000000
_cell_angle_beta 90.000000
_cell_angle_gamma 90.000000
_cell_volume 3690.601381
_symmetry_space_group_name_H-M "P M M N"
_symmetry_group_IT_number 59
_space_group.IT_coordinate_system_code '2'
_symmetry_cell_setting 'orthorhombic'
loop_
_space_group_symop_operation_xyz
x,y,z
1/2-x,1/2-y,z
1/2+x,-y,-z
-x,1/2+y,-z
-x,-y,-z
1/2+x,1/2+y,-z
1/2-x,y,z
x,1/2-y,z
loop_
_atom_site_type_symbol
_atom_site_label
_atom_site_fract_x
_atom_site_fract_y
_atom_site_fract_z
Si Si1 0.594655 0.071288 0.326857
Si Si2 0.592661 0.566687 0.848703
Si Si3 0.660303 0.569515 0.576340
Si Si4 0.811019 0.926988 0.392917
Si Si5 0.522884 0.567853 0.190437
Si Si6 0.443059 0.430473 0.507395
Si Si7 0.442980 0.067513 0.980367
Si Si8 0.190118 0.932055 0.253225
O O1 0.589656 0.250000 0.315543
O O2 0.655100 0.017477 0.327119
O O3 0.554344 0.987248 0.268228
O O4 0.580524 0.018736 0.416938
O O5 0.592515 0.750000 0.842064
O O6 0.535407 0.505835 0.818083
O O7 0.594190 0.521693 0.944681
O O8 0.642516 0.503088 0.799394
O O9 0.670943 0.750000 0.586412
O O10 0.682631 0.524524 0.487712
O O11 0.597162 0.547848 0.567088
O O12 0.682030 0.482365 0.653447
O O13 0.750000 0.934201 0.373422
O O14 0.828804 0.750000 0.391740
O O15 0.515994 0.750000 0.190954
O O16 0.560890 0.525646 0.113960
O O17 0.500000 0.500000 0.500000
O O18 0.445555 0.250000 0.522390
O O19 0.445072 0.250000 0.983619
O O20 0.500000 0.000000 0.000000
O O21 0.250000 0.977906 0.228710
O O22 0.186617 0.750000 0.247636
#
# Coordination Sequence:
#
# PCOD9448913 Si02
#       8
#     8   8   8   8   8   8   8   8
#     4  11  22  34  50  77 109 140 175 214 260 313
#     4  10  20  35  56  81 107 136 173 216 268 323
#     4   9  19  35  54  75  99 132 177 223 267 312
#     4   9  18  35  57  77 100 133 175 222 270 316
#     4  10  19  34  56  81 111 141 173 215 264 319
#     4  10  21  36  52  72 103 141 179 220 267 320
#     4   8  16  31  53  80 105 131 164 204 251 307
#     4  11  24  38  52  75 107 143 184 224 264 315
#
# _framework density 17.341348
#
# number of rings (size 3 to 8) (size 9 to 14) (size 15 to 20)
#    0.000    2.250    0.000    3.750    1.750    5.250 
#    0.000    0.000    0.000    0.750    0.000    1.750 
#    0.000    0.000    0.000    0.000    0.000    0.000 
#
# Total GULP energy -356401.684102 kJ/mol
# GULP energy per Si atom -5568.776314 kJ/mol
# Density = 1.730188 g / cm^3
# Si number density = 17.341348 Si / 1000 Ang^3
#
#
#
# Elastic Constant Matrix: (Units=GPa)
#
#
# Indices 1 2 3 4 5 6 
#
# 1 108.6516 40.1783 42.9663 0.0000 0.0000 0.0000
# 2 40.1783 51.4545 24.6143 0.0000 0.0000 0.0000
# 3 42.9663 24.6143 71.4676 0.0000 0.0000 0.0000
# 4 0.0000 0.0000 0.0000 16.8555 0.0000 0.0000
# 5 0.0000 0.0000 0.0000 0.0000 18.1700 0.0000
# 6 0.0000 0.0000 0.0000 0.0000 0.0000 24.1045
#
#
#
# Elastic Compliance Matrix: (Units=1/GPa)
#
#
# Indices 1 2 3 4 5 6 
#
# 1 0.014742 -0.008706 -0.005865 0.000000 0.000000 0.000000
# 2 -0.008706 0.028410 -0.004550 0.000000 0.000000 0.000000
# 3 -0.005865 -0.004550 0.019085 0.000000 0.000000 0.000000
# 4 0.000000 0.000000 0.000000 0.059328 0.000000 0.000000
# 5 0.000000 0.000000 0.000000 0.000000 0.055036 0.000000
# 6 0.000000 0.000000 0.000000 0.000000 0.000000 0.041486
#
#
# Mechanical properties :
#
#
# Convention : Reuss Voigt Hill
#
# Bulk Modulus (GPa) = 41.67544 49.67681 45.67613
# Shear Modulus (GPa) = 18.91591 20.08032 19.49811
#
# Velocity S-wave (km/s) = 3.30631 3.40655 3.35680
# Velocity P-wave (km/s) = 6.21773 6.64691 6.43590
#
# Compressibility (1/GPa) = 0.02399495
#
# Stress axis : x y z
#
# Youngs Moduli (GPa) = 67.83201 35.19937 52.39614
#
# Poissons Ratio (x) = 0.30645 0.30728
# Poissons Ratio (y) = 0.59055 0.23843
# Poissons Ratio (z) = 0.39781 0.16017
#
# Static dielectric constant tensor:
#      x y z
#    x 1.655460 0.000000 0.000000 
#    y 0.000000 1.603070 0.000000 
#    z 0.000000 0.000000 1.611630 
# 
# From -- ./inp_files/28424.got.cif
#   From: 2010.05.17/outbox.cif.g08.bks.cpg/sg59_15_cif.got.tgz:28424.got - 2010.06.03 14:40:33.
