data_PCOD9448964
_publ_section_title
;
Structure prediction by ZEFSAII (Michael W. Deem and Ramdas Pophale) SiO2 
 PCOD9448964
Probable space group: P M M N
;
_chemical_formula_sum "Si O2"
_cell_formula_units_Z 64
_cell_length_a 14.341432
_cell_length_b 18.878352
_cell_length_c 12.002411
_cell_angle_alpha 90.000000
_cell_angle_beta 90.000000
_cell_angle_gamma 90.000000
_cell_volume 3249.563978
_symmetry_space_group_name_H-M "P M M N"
_symmetry_group_IT_number 59
_space_group.IT_coordinate_system_code '2'
_symmetry_cell_setting 'orthorhombic'
loop_
_space_group_symop_operation_xyz
x,y,z
1/2-x,1/2-y,z
1/2+x,-y,-z
-x,1/2+y,-z
-x,-y,-z
1/2+x,1/2+y,-z
1/2-x,y,z
x,1/2-y,z
loop_
_atom_site_type_symbol
_atom_site_label
_atom_site_fract_x
_atom_site_fract_y
_atom_site_fract_z
Si Si1 0.138273 0.100774 0.930800
Si Si2 0.852207 0.914206 0.440943
Si Si3 0.639052 0.056156 0.052372
Si Si4 0.638142 0.169243 0.873538
Si Si5 0.861592 0.829453 0.840339
Si Si6 0.998429 0.898126 0.277938
Si Si7 0.448540 0.061247 0.330292
Si Si8 0.647047 0.434642 0.317634
O O1 0.250000 0.099085 0.904416
O O2 0.077195 0.110111 0.821347
O O3 0.110382 0.023254 0.977861
O O4 0.122713 0.156396 0.028789
O O5 0.750000 0.879708 0.436955
O O6 0.940264 0.875117 0.386438
O O7 0.878789 0.935832 0.565826
O O8 0.846102 0.985658 0.365935
O O9 0.750000 0.058160 0.036288
O O10 0.627035 0.065985 0.184714
O O11 0.602404 0.116361 0.970659
O O12 0.750000 0.162644 0.861969
O O13 0.617270 0.250000 0.903639
O O14 0.586312 0.147232 0.760840
O O15 0.750000 0.834712 0.822947
O O16 0.891848 0.750000 0.809798
O O17 0.909982 0.889922 0.767900
O O18 0.033807 0.979600 0.293527
O O19 0.549922 0.091747 0.367992
O O20 0.750000 0.402127 0.336251
#
# Coordination Sequence:
#
# PCOD9448964 Si02
#       8
#     8   8   8   8   8   8   8   8
#     4  10  19  34  57  83 114 151 190 240 295 351
#     4  10  20  37  59  89 121 149 190 246 301 347
#     4   9  16  31  55  80 110 153 194 232 285 342
#     4  10  23  39  53  78 120 161 196 235 286 353
#     4  10  23  40  55  78 115 157 198 243 300 358
#     4  11  21  35  60  88 115 148 194 242 292 349
#     4  11  21  35  61  89 117 148 198 247 296 343
#     4   9  17  31  53  83 119 151 184 233 289 343
#
# _framework density 19.694949999999999
#
# number of rings (size 3 to 8) (size 9 to 14) (size 15 to 20)
#    0.000    2.000    2.500    3.000    1.750    3.500 
#    0.000    1.250    0.000    2.250    0.000    0.875 
#    0.000    3.000    0.000    0.000    0.000    0.000 
#
# Total GULP energy -356673.175793 kJ/mol
# GULP energy per Si atom -5573.018372 kJ/mol
# Density = 1.965012 g / cm^3
# Si number density = 19.694950 Si / 1000 Ang^3
#
#
#
# Elastic Constant Matrix: (Units=GPa)
#
#
# Indices 1 2 3 4 5 6 
#
# 1 58.7230 19.3206 12.2852 0.0000 0.0000 0.0000
# 2 19.3206 29.6209 0.5586 0.0000 0.0000 0.0000
# 3 12.2852 0.5586 54.1515 0.0000 0.0000 0.0000
# 4 0.0000 0.0000 0.0000 0.2045 0.0000 0.0000
# 5 0.0000 0.0000 0.0000 0.0000 91.2012 0.0000
# 6 0.0000 0.0000 0.0000 0.0000 0.0000 36.3158
#
#
#
# Elastic Compliance Matrix: (Units=1/GPa)
#
#
# Indices 1 2 3 4 5 6 
#
# 1 0.022991 -0.014900 -0.005062 0.000000 0.000000 0.000000
# 2 -0.014900 0.043424 0.002932 0.000000 0.000000 0.000000
# 3 -0.005062 0.002932 0.019585 0.000000 0.000000 0.000000
# 4 0.000000 0.000000 0.000000 4.889115 0.000000 0.000000
# 5 0.000000 0.000000 0.000000 0.000000 0.010965 0.000000
# 6 0.000000 0.000000 0.000000 0.000000 0.000000 0.027536
#
#
# Mechanical properties :
#
#
# Convention : Reuss Voigt Hill
#
# Bulk Modulus (GPa) = 19.25332 22.98043 21.11688
# Shear Modulus (GPa) = 0.98717 32.89971 16.94344
#
# Velocity S-wave (km/s) = 0.70874 4.09157 2.93626
# Velocity P-wave (km/s) = 3.23523 5.83221 4.71601
#
# Compressibility (1/GPa) = 0.05193909
#
# Stress axis : x y z
#
# Youngs Moduli (GPa) = 43.49616 23.02892 51.05984
#
# Poissons Ratio (x) = 0.34314 0.25847
# Poissons Ratio (y) = 0.64811 -0.14973
# Poissons Ratio (z) = 0.22018 -0.06753
#
# Static dielectric constant tensor:
#      x y z
#    x 1.771830 0.000000 0.000000 
#    y 0.000000 1.676100 0.000000 
#    z 0.000000 0.000000 1.706460 
# 
# From -- ./inp_files/17243.got.cif
#   From: 2010.05.17/outbox.cif.g08.bks.cpg/sg59_9_cif.got.tgz:17243.got - 2010.06.03 14:40:33.
