data_PCOD9448547
_publ_section_title
;
Structure prediction by ZEFSAII (Michael W. Deem and Ramdas Pophale) SiO2 
 PCOD9448547
Probable space group: P M M N
;
_chemical_formula_sum "Si O2"
_cell_formula_units_Z 56
_cell_length_a 7.539995
_cell_length_b 17.376471
_cell_length_c 19.944071
_cell_angle_alpha 90.000000
_cell_angle_beta 90.000000
_cell_angle_gamma 90.000000
_cell_volume 2613.042355
_symmetry_space_group_name_H-M "P M M N"
_symmetry_group_IT_number 59
_space_group.IT_coordinate_system_code '2'
_symmetry_cell_setting 'orthorhombic'
loop_
_space_group_symop_operation_xyz
x,y,z
1/2-x,1/2-y,z
1/2+x,-y,-z
-x,1/2+y,-z
-x,-y,-z
1/2+x,1/2+y,-z
1/2-x,y,z
x,1/2-y,z
loop_
_atom_site_type_symbol
_atom_site_label
_atom_site_fract_x
_atom_site_fract_y
_atom_site_fract_z
Si Si1 0.035130 0.160809 0.031235
Si Si2 0.532779 0.895759 0.114426
Si Si3 0.542764 0.439107 0.160645
Si Si4 0.458053 0.663618 0.720291
Si Si5 0.966346 0.750000 0.202715
Si Si6 0.036139 0.098403 0.563991
Si Si7 0.467297 0.250000 0.643063
Si Si8 0.959180 0.574832 0.587056
O O1 0.250000 0.159729 0.032541
O O2 0.979511 0.250000 0.032398
O O3 0.970103 0.114928 0.095699
O O4 0.977184 0.121479 0.961773
O O5 0.750000 0.896497 0.113363
O O6 0.478379 0.825775 0.162276
O O7 0.468078 0.977492 0.141803
O O8 0.750000 0.453374 0.176151
O O9 0.463790 0.393581 0.223846
O O10 0.250000 0.670838 0.736929
O O11 0.533679 0.750000 0.721284
O O12 0.468821 0.625331 0.647454
O O13 0.750000 0.750000 0.202926
O O14 0.024030 0.750000 0.279711
O O15 0.250000 0.101871 0.561551
O O16 0.974740 0.172854 0.604572
O O17 0.969794 0.095900 0.487037
O O18 0.990180 0.016282 0.596524
O O19 0.250000 0.250000 0.642690
O O20 0.750000 0.588439 0.585764
#
# Coordination Sequence:
#
# PCOD9448547 Si02
#       8
#     8   8   8   8   4   8   4   8
#     4  10  19  33  53  77 108 141 174 216 264 320
#     4   9  17  31  51  79 109 137 172 216 266 321
#     4  10  21  35  55  80 106 138 180 227 271 315
#     4  10  22  38  55  78 109 144 182 228 278 326
#     4   9  16  28  50  81 108 133 172 216 263 317
#     4   9  19  36  57  84 114 143 183 228 270 321
#     4   9  18  30  55  87 110 139 180 226 269 315
#     4  10  21  36  57  81 112 148 183 226 275 327
#
# _framework density 21.430956999999999
#
# number of rings (size 3 to 8) (size 9 to 14) (size 15 to 20)
#    0.000    2.429    0.714    1.286    3.000    2.286 
#    0.000    0.357    0.000    0.000    0.000    0.000 
#    0.000    0.000    0.000    0.000    0.000    0.000 
#
# Total GULP energy -312838.389749 kJ/mol
# GULP energy per Si atom -5586.399817 kJ/mol
# Density = 2.138218 g / cm^3
# Si number density = 21.430957 Si / 1000 Ang^3
#
#
#
# Elastic Constant Matrix: (Units=GPa)
#
#
# Indices 1 2 3 4 5 6 
#
# 1 49.2290 -10.3460 -12.1563 0.0000 0.0000 0.0000
# 2 -10.3460 136.4354 63.9740 0.0000 0.0000 0.0000
# 3 -12.1563 63.9740 103.3642 0.0000 0.0000 0.0000
# 4 0.0000 0.0000 0.0000 4.5976 0.0000 0.0000
# 5 0.0000 0.0000 0.0000 0.0000 6.6104 0.0000
# 6 0.0000 0.0000 0.0000 0.0000 0.0000 10.6467
#
#
#
# Elastic Compliance Matrix: (Units=1/GPa)
#
#
# Indices 1 2 3 4 5 6 
#
# 1 0.020957 0.000611 0.002087 0.000000 0.000000 0.000000
# 2 0.000611 0.010344 -0.006330 0.000000 0.000000 0.000000
# 3 0.002087 -0.006330 0.013838 0.000000 0.000000 0.000000
# 4 0.000000 0.000000 0.000000 0.217504 0.000000 0.000000
# 5 0.000000 0.000000 0.000000 0.000000 0.151277 0.000000
# 6 0.000000 0.000000 0.000000 0.000000 0.000000 0.093926
#
#
# Mechanical properties :
#
#
# Convention : Reuss Voigt Hill
#
# Bulk Modulus (GPa) = 26.40403 41.33022 33.86713
# Shear Modulus (GPa) = 9.47443 20.87473 15.17458
#
# Velocity S-wave (km/s) = 2.10488 3.12436 2.66384
# Velocity P-wave (km/s) = 4.27254 5.68706 5.02977
#
# Compressibility (1/GPa) = 0.03787300
#
# Stress axis : x y z
#
# Youngs Moduli (GPa) = 47.71708 96.67419 72.26557
#
# Poissons Ratio (x) = -0.05904 -0.15079
# Poissons Ratio (y) = -0.02914 0.45746
# Poissons Ratio (z) = -0.09957 0.61197
#
# Static dielectric constant tensor:
#      x y z
#    x 1.801800 0.000000 0.000000 
#    y 0.000000 1.745510 0.000000 
#    z 0.000000 0.000000 1.735260 
# 
# From -- ./inp_files/29208.got.cif
#   From: 2010.05.17/outbox.cif.g08.bks.cpg/sg59_15_cif.got.tgz:29208.got - 2010.06.03 14:40:33.
