data_PCOD9448628
_publ_section_title
;
Structure prediction by ZEFSAII (Michael W. Deem and Ramdas Pophale) SiO2 
 PCOD9448628
Probable space group: P M M N
;
_chemical_formula_sum "Si O2"
_cell_formula_units_Z 64
_cell_length_a 19.732456
_cell_length_b 8.974270
_cell_length_c 20.580153
_cell_angle_alpha 90.000000
_cell_angle_beta 90.000000
_cell_angle_gamma 90.000000
_cell_volume 3644.423797
_symmetry_space_group_name_H-M "P M M N"
_symmetry_group_IT_number 59
_space_group.IT_coordinate_system_code '2'
_symmetry_cell_setting 'orthorhombic'
loop_
_space_group_symop_operation_xyz
x,y,z
1/2-x,1/2-y,z
1/2+x,-y,-z
-x,1/2+y,-z
-x,-y,-z
1/2+x,1/2+y,-z
1/2-x,y,z
x,1/2-y,z
loop_
_atom_site_type_symbol
_atom_site_label
_atom_site_fract_x
_atom_site_fract_y
_atom_site_fract_z
Si Si1 0.670379 0.570318 0.102276
Si Si2 0.669609 0.572538 0.832015
Si Si3 0.065899 0.929105 0.266408
Si Si4 0.671629 0.926485 0.350128
Si Si5 0.098436 0.573772 0.535078
Si Si6 0.584225 0.568926 0.226686
Si Si7 0.167718 0.920990 0.033151
Si Si8 0.551697 0.573086 0.592952
O O1 0.750000 0.533324 0.114090
O O2 0.666705 0.750000 0.097060
O O3 0.623548 0.520107 0.162044
O O4 0.648046 0.498705 0.034228
O O5 0.750000 0.541323 0.824603
O O6 0.660495 0.750000 0.830475
O O7 0.626572 0.495273 0.775876
O O8 0.647275 0.508662 0.902106
O O9 0.069250 0.750000 0.267895
O O10 0.994064 0.973888 0.233578
O O11 0.065864 0.991950 0.339431
O O12 0.750000 0.943303 0.331878
O O13 0.658354 0.750000 0.360245
O O14 0.624557 0.979923 0.291052
O O15 0.654206 0.011891 0.415886
O O16 0.104700 0.750000 0.524923
O O17 0.096068 0.490605 0.466297
O O18 0.026130 0.545247 0.570785
O O19 0.586871 0.750000 0.226456
O O20 0.250000 0.921334 0.033021
O O21 0.144727 0.750000 0.035936
O O22 0.561052 0.750000 0.599705
#
# Coordination Sequence:
#
# PCOD9448628 Si02
#       8
#     8   8   8   8   8   8   8   8
#     4   9  16  29  51  77 106 143 185 223 259 305
#     4  10  21  38  59  81 105 135 174 220 271 331
#     4  11  21  35  57  83 112 142 175 221 271 321
#     4  10  19  33  54  79 111 150 188 225 266 316
#     4  10  20  34  54  79 106 138 179 226 269 313
#     4   9  18  32  51  78 110 145 184 221 260 313
#     4   9  17  31  52  78 106 136 175 222 271 321
#     4  10  20  35  56  79 105 139 179 220 265 320
#
# _framework density 17.561074000000001
#
# number of rings (size 3 to 8) (size 9 to 14) (size 15 to 20)
#    0.000    2.250    1.250    2.250    0.000    5.000 
#    0.000    3.125    0.000    5.250    0.000    0.000 
#    0.000    0.000    0.000    0.000    0.000    0.000 
#
# Total GULP energy -357091.546960 kJ/mol
# GULP energy per Si atom -5579.555421 kJ/mol
# Density = 1.752110 g / cm^3
# Si number density = 17.561074 Si / 1000 Ang^3
#
#
#
# Elastic Constant Matrix: (Units=GPa)
#
#
# Indices 1 2 3 4 5 6 
#
# 1 57.1164 41.7310 58.3347 0.0000 0.0000 0.0000
# 2 41.7310 55.5862 63.2560 0.0000 0.0000 0.0000
# 3 58.3347 63.2560 160.2072 0.0000 0.0000 0.0000
# 4 0.0000 0.0000 0.0000 28.1004 0.0000 0.0000
# 5 0.0000 0.0000 0.0000 0.0000 26.8806 0.0000
# 6 0.0000 0.0000 0.0000 0.0000 0.0000 19.6967
#
#
#
# Elastic Compliance Matrix: (Units=1/GPa)
#
#
# Indices 1 2 3 4 5 6 
#
# 1 0.040893 -0.024979 -0.005027 0.000000 0.000000 0.000000
# 2 -0.024979 0.047927 -0.009828 0.000000 0.000000 0.000000
# 3 -0.005027 -0.009828 0.011953 0.000000 0.000000 0.000000
# 4 0.000000 0.000000 0.000000 0.035587 0.000000 0.000000
# 5 0.000000 0.000000 0.000000 0.000000 0.037202 0.000000
# 6 0.000000 0.000000 0.000000 0.000000 0.000000 0.050770
#
#
# Mechanical properties :
#
#
# Convention : Reuss Voigt Hill
#
# Bulk Modulus (GPa) = 47.38416 66.61702 57.00059
# Shear Modulus (GPa) = 16.07531 22.24140 19.15835
#
# Velocity S-wave (km/s) = 3.02883 3.56268 3.30655
# Velocity P-wave (km/s) = 6.26680 7.41218 6.86343
#
# Compressibility (1/GPa) = 0.02110410
#
# Stress axis : x y z
#
# Youngs Moduli (GPa) = 24.45385 20.86493 83.66155
#
# Poissons Ratio (x) = 0.52120 0.42059
# Poissons Ratio (y) = 0.61084 0.82223
# Poissons Ratio (z) = 0.12294 0.20506
#
# Static dielectric constant tensor:
#      x y z
#    x 1.591910 0.000000 0.000000 
#    y 0.000000 1.584240 0.000000 
#    z 0.000000 0.000000 1.574980 
# 
# From -- ./inp_files/28245.got.cif
#   From: 2010.05.17/outbox.cif.g08.bks.cpg/sg59_15_cif.got.tgz:28245.got - 2010.06.03 14:40:33.
