data_PCOD9448663
_publ_section_title
;
Structure prediction by ZEFSAII (Michael W. Deem and Ramdas Pophale) SiO2 
 PCOD9448663
Probable space group: P M M N
;
_chemical_formula_sum "Si O2"
_cell_formula_units_Z 56
_cell_length_a 15.848060
_cell_length_b 15.698653
_cell_length_c 11.567600
_cell_angle_alpha 90.000000
_cell_angle_beta 90.000000
_cell_angle_gamma 90.000000
_cell_volume 2877.940159
_symmetry_space_group_name_H-M "P M M N"
_symmetry_group_IT_number 59
_space_group.IT_coordinate_system_code '2'
_symmetry_cell_setting 'orthorhombic'
loop_
_space_group_symop_operation_xyz
x,y,z
1/2-x,1/2-y,z
1/2+x,-y,-z
-x,1/2+y,-z
-x,-y,-z
1/2+x,1/2+y,-z
1/2-x,y,z
x,1/2-y,z
loop_
_atom_site_type_symbol
_atom_site_label
_atom_site_fract_x
_atom_site_fract_y
_atom_site_fract_z
Si Si1 0.650061 0.473660 0.425554
Si Si2 0.010597 0.848536 0.680283
Si Si3 0.873439 0.656429 0.055236
Si Si4 0.349334 0.039930 0.325493
Si Si5 0.554177 0.343335 0.049155
Si Si6 0.848702 0.655997 0.329087
Si Si7 0.656401 0.015080 0.924157
O O1 0.750000 0.461666 0.391472
O O2 0.585283 0.404648 0.375881
O O3 0.647123 0.478356 0.564274
O O4 0.619933 0.567720 0.382931
O O5 0.016576 0.750000 0.644992
O O6 0.023843 0.852324 0.819095
O O7 0.917556 0.885746 0.654632
O O8 0.843410 0.750000 0.016901
O O9 0.853569 0.647361 0.190208
O O10 0.841050 0.578326 0.980469
O O11 0.973189 0.656271 0.033665
O O12 0.250000 0.067118 0.313516
O O13 0.376741 0.995062 0.206026
O O14 0.596170 0.250000 0.038807
O O15 0.607333 0.423223 0.008988
O O16 0.750000 0.658852 0.362571
O O17 0.885353 0.750000 0.358975
O O18 0.750000 0.050037 0.912961
#
# Coordination Sequence:
#
# PCOD9448663 Si02
#       7
#     8   8   8   8   8   8   8
#     4  10  22  41  62  87 122 160 202 255 304 352
#     4  11  23  40  63  91 121 160 205 248 300 360
#     4  10  19  33  54  83 116 148 185 236 293 352
#     4  10  23  41  61  87 120 160 204 250 304 360
#     4  10  22  38  57  84 119 154 193 241 295 357
#     4   9  18  32  54  85 115 149 196 246 299 354
#     4  11  22  36  59  86 115 158 198 238 302 362
#
# _framework density 19.458362000000001
#
# number of rings (size 3 to 8) (size 9 to 14) (size 15 to 20)
#    0.000    1.857    1.429    2.143    2.000    4.000 
#    0.000    5.000    0.000    2.571    0.000    0.000 
#    0.000    0.000    0.000    0.000    0.000    0.000 
#
# Total GULP energy -312286.582446 kJ/mol
# GULP energy per Si atom -5576.546115 kJ/mol
# Density = 1.941407 g / cm^3
# Si number density = 19.458362 Si / 1000 Ang^3
#
#
#
# Elastic Constant Matrix: (Units=GPa)
#
#
# Indices 1 2 3 4 5 6 
#
# 1 60.3291 53.3852 12.1145 0.0000 0.0000 0.0000
# 2 53.3852 107.4806 29.0890 0.0000 0.0000 0.0000
# 3 12.1145 29.0890 44.4704 0.0000 0.0000 0.0000
# 4 0.0000 0.0000 0.0000 14.3110 0.0000 0.0000
# 5 0.0000 0.0000 0.0000 0.0000 33.6170 0.0000
# 6 0.0000 0.0000 0.0000 0.0000 0.0000 -159.7684
#
#
#
# Elastic Compliance Matrix: (Units=1/GPa)
#
#
# Indices 1 2 3 4 5 6 
#
# 1 0.029705 -0.015267 0.001894 0.000000 0.000000 0.000000
# 2 -0.015267 0.019152 -0.008369 0.000000 0.000000 0.000000
# 3 0.001894 -0.008369 0.027445 0.000000 0.000000 0.000000
# 4 0.000000 0.000000 0.000000 0.069876 0.000000 0.000000
# 5 0.000000 0.000000 0.000000 0.000000 0.029747 0.000000
# 6 0.000000 0.000000 0.000000 0.000000 0.000000 -0.006259
#
#
# Mechanical properties :
#
#
# Convention : Reuss Voigt Hill
#
# Bulk Modulus (GPa) = 30.46991 44.60639 37.53815
# Shear Modulus (GPa) = 22.31252 -14.52198 3.89527
#
# Velocity S-wave (km/s) = 3.38994 -2.73483 1.41640
# Velocity P-wave (km/s) = 5.56914 3.60574 4.69130
#
# Compressibility (1/GPa) = 0.03281927
#
# Stress axis : x y z
#
# Youngs Moduli (GPa) = 33.66398 52.21345 36.43649
#
# Poissons Ratio (x) = 0.79716 -0.06903
# Poissons Ratio (y) = 0.51396 0.30493
# Poissons Ratio (z) = -0.06377 0.43696
#
# Static dielectric constant tensor:
#      x y z
#    x 1.631300 0.000000 0.000000 
#    y 0.000000 1.690040 0.000000 
#    z 0.000000 0.000000 1.677260 
# 
# From -- ./inp_files/16963.got.cif
#   From: 2010.05.17/outbox.cif.g08.bks.cpg/sg59_9_cif.got.tgz:16963.got - 2010.06.03 14:40:33.
