data_PCOD9448113
_publ_section_title
;
Structure prediction by ZEFSAII (Michael W. Deem and Ramdas Pophale) SiO2 
 PCOD9448113
Probable space group: P M M N
;
_chemical_formula_sum "Si O2"
_cell_formula_units_Z 48
_cell_length_a 21.645229
_cell_length_b 7.281262
_cell_length_c 12.821905
_cell_angle_alpha 90.000000
_cell_angle_beta 90.000000
_cell_angle_gamma 90.000000
_cell_volume 2020.790996
_symmetry_space_group_name_H-M "P M M N"
_symmetry_group_IT_number 59
_space_group.IT_coordinate_system_code '2'
_symmetry_cell_setting 'orthorhombic'
loop_
_space_group_symop_operation_xyz
x,y,z
1/2-x,1/2-y,z
1/2+x,-y,-z
-x,1/2+y,-z
-x,-y,-z
1/2+x,1/2+y,-z
1/2-x,y,z
x,1/2-y,z
loop_
_atom_site_type_symbol
_atom_site_label
_atom_site_fract_x
_atom_site_fract_y
_atom_site_fract_z
Si Si1 0.373326 0.527138 0.047355
Si Si2 0.581168 0.029726 0.332060
Si Si3 0.250000 0.527672 0.170986
Si Si4 0.386944 0.974196 0.445898
Si Si5 0.549112 0.034659 0.765561
Si Si6 0.821235 0.474213 0.170091
Si Si7 0.750000 0.027019 0.589223
O O1 0.376000 0.750000 0.040578
O O2 0.311551 0.474525 0.110581
O O3 0.429241 0.463530 0.121603
O O4 0.361882 0.465467 0.929432
O O5 0.583549 0.250000 0.336878
O O6 0.576639 0.964227 0.451187
O O7 0.643403 0.968440 0.274392
O O8 0.522285 0.983330 0.262224
O O9 0.250000 0.750000 0.172538
O O10 0.250000 0.468111 0.290118
O O11 0.389176 0.750000 0.442838
O O12 0.413844 0.039343 0.335330
O O13 0.315333 0.028465 0.458426
O O14 0.564758 0.250000 0.768343
O O15 0.750000 0.532995 0.162050
O O16 0.819902 0.250000 0.169006
O O17 0.750000 0.250000 0.587489
#
# Coordination Sequence:
#
# PCOD9448113 Si02
#       7
#     8   8   4   8   8   8   4
#     4   9  15  25  45  71  95 118 152 197 238 273
#     4  10  21  33  46  69 100 130 155 184 230 287
#     4   9  12  20  39  67  97 116 142 195 249 271
#     4   9  17  28  45  70  98 123 153 195 239 276
#     4  10  19  32  50  71  94 125 161 194 228 271
#     4   9  17  29  46  69  97 124 151 192 243 283
#     4   9  14  22  41  71  97 114 146 203 249 267
#
# _framework density 23.753074999999999
#
# number of rings (size 3 to 8) (size 9 to 14) (size 15 to 20)
#    0.000    2.667    2.500    0.500    1.167    0.667 
#    0.000    0.000    0.000    0.500    0.000    3.500 
#    0.000    0.000    0.000    0.000    0.000    0.000 
#
# Total GULP energy -268124.786608 kJ/mol
# GULP energy per Si atom -5585.933054 kJ/mol
# Density = 2.369901 g / cm^3
# Si number density = 23.753075 Si / 1000 Ang^3
#
#
#
# Elastic Constant Matrix: (Units=GPa)
#
#
# Indices 1 2 3 4 5 6 
#
# 1 75.9671 -8.0279 27.6554 0.0000 0.0000 0.0000
# 2 -8.0279 99.4472 4.9993 0.0000 0.0000 0.0000
# 3 27.6554 4.9993 101.5202 0.0000 0.0000 0.0000
# 4 0.0000 0.0000 0.0000 -11.4170 0.0000 0.0000
# 5 0.0000 0.0000 0.0000 0.0000 20.2064 0.0000
# 6 0.0000 0.0000 0.0000 0.0000 0.0000 -1.3376
#
#
#
# Elastic Compliance Matrix: (Units=1/GPa)
#
#
# Indices 1 2 3 4 5 6 
#
# 1 0.014805 0.001401 -0.004102 0.000000 0.000000 0.000000
# 2 0.001401 0.010213 -0.000885 0.000000 0.000000 0.000000
# 3 -0.004102 -0.000885 0.011011 0.000000 0.000000 0.000000
# 4 0.000000 0.000000 0.000000 -0.087589 0.000000 0.000000
# 5 0.000000 0.000000 0.000000 0.000000 0.049489 0.000000
# 6 0.000000 0.000000 0.000000 0.000000 0.000000 -0.747585
#
#
# Mechanical properties :
#
#
# Convention : Reuss Voigt Hill
#
# Bulk Modulus (GPa) = 34.65166 36.24313 35.44740
# Shear Modulus (GPa) = -6.82254 18.31085 5.74416
#
# Velocity S-wave (km/s) = -1.69662 2.77949 1.55677
# Velocity P-wave (km/s) = 3.28359 5.05887 4.26463
#
# Compressibility (1/GPa) = 0.02885865
#
# Stress axis : x y z
#
# Youngs Moduli (GPa) = 67.54458 97.91262 90.81594
#
# Poissons Ratio (x) = -0.13721 0.37254
# Poissons Ratio (y) = -0.09465 0.08034
# Poissons Ratio (z) = 0.27707 0.08662
#
# Static dielectric constant tensor:
#      x y z
#    x 1.856350 0.000000 0.000000 
#    y 0.000000 1.971350 0.000000 
#    z 0.000000 0.000000 1.886590 
# 
# From -- ./inp_files/18685.got.cif
#   From: 2010.05.17/outbox.cif.g08.bks.cpg/sg59_10_cif.got.tgz:18685.got - 2010.06.03 14:40:33.
