data_PCOD9448024
_publ_section_title
;
Structure prediction by ZEFSAII (Michael W. Deem and Ramdas Pophale) SiO2 
 PCOD9448024
Probable space group: P M M N
;
_chemical_formula_sum "Si O2"
_cell_formula_units_Z 56
_cell_length_a 7.912083
_cell_length_b 14.776843
_cell_length_c 22.777432
_cell_angle_alpha 90.000000
_cell_angle_beta 90.000000
_cell_angle_gamma 90.000000
_cell_volume 2663.037318
_symmetry_space_group_name_H-M "P M M N"
_symmetry_group_IT_number 59
_space_group.IT_coordinate_system_code '2'
_symmetry_cell_setting 'orthorhombic'
loop_
_space_group_symop_operation_xyz
x,y,z
1/2-x,1/2-y,z
1/2+x,-y,-z
-x,1/2+y,-z
-x,-y,-z
1/2+x,1/2+y,-z
1/2-x,y,z
x,1/2-y,z
loop_
_atom_site_type_symbol
_atom_site_label
_atom_site_fract_x
_atom_site_fract_y
_atom_site_fract_z
Si Si1 0.046791 0.411063 0.331331
Si Si2 0.548155 0.750000 0.452486
Si Si3 0.951154 0.112927 0.645516
Si Si4 0.447892 0.154596 0.773610
Si Si5 0.551454 0.352913 0.960989
Si Si6 0.457806 0.250000 0.413678
Si Si7 0.550572 0.549249 0.923219
Si Si8 0.951745 0.045564 0.202991
O O1 0.250000 0.408275 0.331676
O O2 0.993612 0.509126 0.354572
O O3 0.985336 0.335665 0.375880
O O4 0.993833 0.403990 0.263458
O O5 0.750000 0.750000 0.454338
O O6 0.491312 0.835468 0.413976
O O7 0.484427 0.750000 0.519097
O O8 0.750000 0.118129 0.655625
O O9 0.037572 0.154377 0.703010
O O10 0.250000 0.153951 0.789579
O O11 0.522528 0.250000 0.795843
O O12 0.522272 0.057830 0.791648
O O13 0.750000 0.347787 0.946402
O O14 0.481736 0.250000 0.951963
O O15 0.483352 0.444423 0.928481
O O16 0.531500 0.385118 0.028631
O O17 0.250000 0.250000 0.414927
O O18 0.750000 0.546179 0.936434
O O19 0.521818 0.583445 0.857511
O O20 0.750000 0.041097 0.198778
#
# Coordination Sequence:
#
# PCOD9448024 Si02
#       8
#     8   4   8   8   8   4   8   8
#     4   9  19  38  59  77 103 139 181 228 274 319
#     4  11  21  33  53  79 107 141 178 213 264 335
#     4  10  19  31  51  79 106 133 170 219 271 321
#     4   9  17  30  49  73 103 140 177 215 265 323
#     4   9  19  37  59  82 112 147 182 226 273 313
#     4   9  20  39  59  77 101 139 182 225 272 321
#     4  10  20  35  56  83 113 146 185 224 267 320
#     4  10  20  34  53  79 110 144 182 222 268 320
#
# _framework density 21.028621000000001
#
# number of rings (size 3 to 8) (size 9 to 14) (size 15 to 20)
#    0.000    2.429    0.714    1.500    0.000    3.143 
#    1.286    1.786    0.000    0.000    0.000    0.000 
#    0.000    0.000    0.000    0.000    0.000    0.000 
#
# Total GULP energy -312334.738181 kJ/mol
# GULP energy per Si atom -5577.406039 kJ/mol
# Density = 2.098076 g / cm^3
# Si number density = 21.028621 Si / 1000 Ang^3
#
#
#
# Elastic Constant Matrix: (Units=GPa)
#
#
# Indices 1 2 3 4 5 6 
#
# 1 24.2027 0.6989 -10.7703 0.0000 0.0000 0.0000
# 2 0.6989 59.7045 15.4963 0.0000 0.0000 0.0000
# 3 -10.7703 15.4963 124.5334 0.0000 0.0000 0.0000
# 4 0.0000 0.0000 0.0000 -9.8329 0.0000 0.0000
# 5 0.0000 0.0000 0.0000 0.0000 19.4424 0.0000
# 6 0.0000 0.0000 0.0000 0.0000 0.0000 14.0244
#
#
#
# Elastic Compliance Matrix: (Units=1/GPa)
#
#
# Indices 1 2 3 4 5 6 
#
# 1 0.043105 -0.001521 0.003917 0.000000 0.000000 0.000000
# 2 -0.001521 0.017362 -0.002292 0.000000 0.000000 0.000000
# 3 0.003917 -0.002292 0.008654 0.000000 0.000000 0.000000
# 4 0.000000 0.000000 0.000000 -0.101699 0.000000 0.000000
# 5 0.000000 0.000000 0.000000 0.000000 0.051434 0.000000
# 6 0.000000 0.000000 0.000000 0.000000 0.000000 0.071304
#
#
# Mechanical properties :
#
#
# Convention : Reuss Voigt Hill
#
# Bulk Modulus (GPa) = 14.42407 24.36559 19.39483
# Shear Modulus (GPa) = 44.22360 18.26114 31.24237
#
# Velocity S-wave (km/s) = 4.59084 2.95005 3.85867
# Velocity P-wave (km/s) = 5.91399 4.81827 5.39403
#
# Compressibility (1/GPa) = 0.06932858
#
# Stress axis : x y z
#
# Youngs Moduli (GPa) = 23.19925 57.59754 115.55395
#
# Poissons Ratio (x) = 0.08762 -0.45265
# Poissons Ratio (y) = 0.03529 0.26485
# Poissons Ratio (z) = -0.09088 0.13201
#
# Static dielectric constant tensor:
#      x y z
#    x 1.764050 0.000000 0.000000 
#    y 0.000000 1.814460 0.000000 
#    z 0.000000 0.000000 1.733640 
# 
# From -- ./inp_files/29243.got.cif
#   From: 2010.05.17/outbox.cif.g08.bks.cpg/sg59_15_cif.got.tgz:29243.got - 2010.06.03 14:40:33.
