data_PCOD9448538
_publ_section_title
;
Structure prediction by ZEFSAII (Michael W. Deem and Ramdas Pophale) SiO2 
 PCOD9448538
Probable space group: P M M N
;
_chemical_formula_sum "Si O2"
_cell_formula_units_Z 48
_cell_length_a 8.432260
_cell_length_b 13.843281
_cell_length_c 21.590244
_cell_angle_alpha 90.000000
_cell_angle_beta 90.000000
_cell_angle_gamma 90.000000
_cell_volume 2520.232305
_symmetry_space_group_name_H-M "P M M N"
_symmetry_group_IT_number 59
_space_group.IT_coordinate_system_code '2'
_symmetry_cell_setting 'orthorhombic'
loop_
_space_group_symop_operation_xyz
x,y,z
1/2-x,1/2-y,z
1/2+x,-y,-z
-x,1/2+y,-z
-x,-y,-z
1/2+x,1/2+y,-z
1/2-x,y,z
x,1/2-y,z
loop_
_atom_site_type_symbol
_atom_site_label
_atom_site_fract_x
_atom_site_fract_y
_atom_site_fract_z
Si Si1 0.558600 0.538926 0.701892
Si Si2 0.559471 0.934970 0.087748
Si Si3 0.069984 0.539390 0.563008
Si Si4 0.924850 0.250000 0.406973
Si Si5 0.941275 0.142003 0.782732
Si Si6 0.430650 0.250000 0.280663
Si Si7 0.558398 0.358122 0.043895
O O1 0.750000 0.543792 0.705276
O O2 0.512878 0.526242 0.629765
O O3 0.501270 0.445880 0.739699
O O4 0.498991 0.642281 0.730557
O O5 0.750000 0.931462 0.089128
O O6 0.490589 0.883052 0.147534
O O7 0.508771 0.048353 0.084108
O O8 0.500305 0.883042 0.025265
O O9 0.250000 0.505185 0.570120
O O10 0.068334 0.654470 0.554123
O O11 0.000000 0.500000 0.500000
O O12 0.750000 0.250000 0.374345
O O13 0.060679 0.250000 0.355693
O O14 0.750000 0.142445 0.779035
O O15 0.997286 0.250000 0.765864
O O16 0.250000 0.250000 0.257433
O O17 0.750000 0.357501 0.043536
O O18 0.504747 0.250000 0.062520
#
# Coordination Sequence:
#
# PCOD9448538 Si02
#       7
#     8   8   8   4   8   4   8
#     4   9  18  34  54  75 100 132 172 214 258 305
#     4  10  20  33  52  78 105 135 176 221 261 303
#     4  10  19  33  53  77 104 133 168 209 255 306
#     4   8  16  30  48  70  96 128 162 195 238 299
#     4  10  21  37  54  73 104 146 182 209 251 315
#     4   8  14  28  52  74  92 118 158 211 256 291
#     4   9  18  34  54  75 104 139 173 213 264 317
#
# _framework density 19.045863000000001
#
# number of rings (size 3 to 8) (size 9 to 14) (size 15 to 20)
#    0.000    2.667    0.000    1.500    0.000    4.667 
#    3.000    0.000    0.000    0.000    0.000    0.000 
#    0.000    0.000    0.000    0.000    0.000    0.000 
#
# Total GULP energy -267219.655675 kJ/mol
# GULP energy per Si atom -5567.076160 kJ/mol
# Density = 1.900251 g / cm^3
# Si number density = 19.045863 Si / 1000 Ang^3
#
#
#
# Elastic Constant Matrix: (Units=GPa)
#
#
# Indices 1 2 3 4 5 6 
#
# 1 7.4748 14.5309 -3.8221 0.0000 0.0000 0.0000
# 2 14.5309 158.1887 39.6629 0.0000 0.0000 0.0000
# 3 -3.8221 39.6629 43.6031 0.0000 0.0000 0.0000
# 4 0.0000 0.0000 0.0000 22.0725 0.0000 0.0000
# 5 0.0000 0.0000 0.0000 0.0000 19.6276 0.0000
# 6 0.0000 0.0000 0.0000 0.0000 0.0000 18.2714
#
#
#
# Elastic Compliance Matrix: (Units=1/GPa)
#
#
# Indices 1 2 3 4 5 6 
#
# 1 0.223009 -0.032887 0.049464 0.000000 0.000000 0.000000
# 2 -0.032887 0.013039 -0.014744 0.000000 0.000000 0.000000
# 3 0.049464 -0.014744 0.040682 0.000000 0.000000 0.000000
# 4 0.000000 0.000000 0.000000 0.045305 0.000000 0.000000
# 5 0.000000 0.000000 0.000000 0.000000 0.050949 0.000000
# 6 0.000000 0.000000 0.000000 0.000000 0.000000 0.054730
#
#
# Mechanical properties :
#
#
# Convention : Reuss Voigt Hill
#
# Bulk Modulus (GPa) = 3.56639 34.44554 19.00597
# Shear Modulus (GPa) = 9.66158 22.58727 16.12442
#
# Velocity S-wave (km/s) = 2.25473 3.44749 2.91281
# Velocity P-wave (km/s) = 2.94194 5.82853 4.61664
#
# Compressibility (1/GPa) = 0.28039538
#
# Stress axis : x y z
#
# Youngs Moduli (GPa) = 4.48412 76.69134 24.58117
#
# Poissons Ratio (x) = 2.52218 -1.21588
# Poissons Ratio (y) = 0.14747 0.36242
# Poissons Ratio (z) = -0.22180 1.13072
#
# Static dielectric constant tensor:
#      x y z
#    x 1.692130 0.000000 0.000000 
#    y 0.000000 1.748670 0.000000 
#    z 0.000000 0.000000 1.613230 
# 
# From -- ./inp_files/25549.got.cif
#   From: 2010.05.17/outbox.cif.g08.bks.cpg/sg59_13_cif.got.tgz:25549.got - 2010.06.03 14:40:33.
