data_PCOD9448181
_publ_section_title
;
Structure prediction by ZEFSAII (Michael W. Deem and Ramdas Pophale) SiO2 
 PCOD9448181
Probable space group: P M M N
;
_chemical_formula_sum "Si O2"
_cell_formula_units_Z 40
_cell_length_a 7.482894
_cell_length_b 26.476479
_cell_length_c 9.451873
_cell_angle_alpha 90.000000
_cell_angle_beta 90.000000
_cell_angle_gamma 90.000000
_cell_volume 1872.611561
_symmetry_space_group_name_H-M "P M M N"
_symmetry_group_IT_number 59
_space_group.IT_coordinate_system_code '2'
_symmetry_cell_setting 'orthorhombic'
loop_
_space_group_symop_operation_xyz
x,y,z
1/2-x,1/2-y,z
1/2+x,-y,-z
-x,1/2+y,-z
-x,-y,-z
1/2+x,1/2+y,-z
1/2-x,y,z
x,1/2-y,z
loop_
_atom_site_type_symbol
_atom_site_label
_atom_site_fract_x
_atom_site_fract_y
_atom_site_fract_z
Si Si1 0.031938 0.750000 0.176950
Si Si2 0.038216 0.057006 0.137230
Si Si3 0.031104 0.750000 0.851262
Si Si4 0.456041 0.554455 0.182153
Si Si5 0.969454 0.150997 0.650173
Si Si6 0.464477 0.846827 0.673664
O O1 0.250000 0.750000 0.176502
O O2 0.975345 0.699701 0.259582
O O3 0.973759 0.750000 0.014133
O O4 0.250000 0.051352 0.114686
O O5 0.006781 0.100817 0.249119
O O6 0.966339 0.002192 0.185983
O O7 0.960901 0.069967 0.983054
O O8 0.250000 0.750000 0.852088
O O9 0.971551 0.700134 0.767690
O O10 0.250000 0.549480 0.227288
O O11 0.532856 0.599215 0.276739
O O12 0.750000 0.150690 0.652214
O O13 0.027921 0.154756 0.487773
O O14 0.250000 0.842542 0.667858
#
# Coordination Sequence:
#
# PCOD9448181 Si02
#       6
#     4   8   4   8   8   8
#     4   9  15  25  45  73 100 123 156 204 248 285
#     4  10  20  33  50  73 100 132 170 208 247 294
#     4   9  17  29  50  77 100 127 164 204 246 295
#     4   9  18  34  53  72  98 133 171 208 247 294
#     4   9  17  29  48  74 101 128 160 202 249 295
#     4  10  19  32  51  75 102 130 162 202 249 298
#
# _framework density 21.360541999999999
#
# number of rings (size 3 to 8) (size 9 to 14) (size 15 to 20)
#    0.000    2.600    0.000    2.400    0.000    7.200 
#    0.000    1.500    0.000    0.000    0.000    1.400 
#    0.000    0.000    0.000    0.000    0.000    0.000 
#
# Total GULP energy -223415.232948 kJ/mol
# GULP energy per Si atom -5585.380824 kJ/mol
# Density = 2.131192 g / cm^3
# Si number density = 21.360542 Si / 1000 Ang^3
#
#
#
# Elastic Constant Matrix: (Units=GPa)
#
#
# Indices 1 2 3 4 5 6 
#
# 1 59.5664 1.2974 -3.3889 0.0000 0.0000 0.0000
# 2 1.2974 172.4642 139.1201 0.0000 0.0000 0.0000
# 3 -3.3889 139.1201 192.1394 0.0000 0.0000 0.0000
# 4 0.0000 0.0000 0.0000 -21.2432 0.0000 0.0000
# 5 0.0000 0.0000 0.0000 0.0000 4.3761 0.0000
# 6 0.0000 0.0000 0.0000 0.0000 0.0000 4.7779
#
#
#
# Elastic Compliance Matrix: (Units=1/GPa)
#
#
# Indices 1 2 3 4 5 6 
#
# 1 0.016860 -0.000882 0.000936 0.000000 0.000000 0.000000
# 2 -0.000882 0.013987 -0.010143 0.000000 0.000000 0.000000
# 3 0.000936 -0.010143 0.012565 0.000000 0.000000 0.000000
# 4 0.000000 0.000000 0.000000 -0.047074 0.000000 0.000000
# 5 0.000000 0.000000 0.000000 0.000000 0.228514 0.000000
# 6 0.000000 0.000000 0.000000 0.000000 0.000000 0.209298
#
#
# Mechanical properties :
#
#
# Convention : Reuss Voigt Hill
#
# Bulk Modulus (GPa) = 43.03888 77.58082 60.30985
# Shear Modulus (GPa) = 10.82080 16.72489 13.77285
#
# Velocity S-wave (km/s) = 2.25317 2.80121 2.54201
# Velocity P-wave (km/s) = 5.19245 6.84551 6.07546
#
# Compressibility (1/GPa) = 0.02323481
#
# Stress axis : x y z
#
# Youngs Moduli (GPa) = 59.31047 71.49658 79.58623
#
# Poissons Ratio (x) = 0.06304 -0.07447
# Poissons Ratio (y) = 0.05229 0.80722
# Poissons Ratio (z) = -0.05550 0.72517
#
# Static dielectric constant tensor:
#      x y z
#    x 1.830930 0.000000 0.000000 
#    y 0.000000 1.751670 0.000000 
#    z 0.000000 0.000000 1.715570 
# 
# From -- ./inp_files/5941.got.cif
#   From: 2010.05.17/outbox.cif.g08.bks.cpg/sg59_3_cif.got.tgz:5941.got - 2010.06.03 14:40:33.
