data_PCOD9448731
_publ_section_title
;
Structure prediction by ZEFSAII (Michael W. Deem and Ramdas Pophale) SiO2 
 PCOD9448731
Probable space group: P M M N
;
_chemical_formula_sum "Si O2"
_cell_formula_units_Z 58
_cell_length_a 7.777722
_cell_length_b 22.383347
_cell_length_c 16.160280
_cell_angle_alpha 90.000000
_cell_angle_beta 90.000000
_cell_angle_gamma 90.000000
_cell_volume 2813.366584
_symmetry_space_group_name_H-M "P M M N"
_symmetry_group_IT_number 59
_space_group.IT_coordinate_system_code '2'
_symmetry_cell_setting 'orthorhombic'
loop_
_space_group_symop_operation_xyz
x,y,z
1/2-x,1/2-y,z
1/2+x,-y,-z
-x,1/2+y,-z
-x,-y,-z
1/2+x,1/2+y,-z
1/2-x,y,z
x,1/2-y,z
loop_
_atom_site_type_symbol
_atom_site_label
_atom_site_fract_x
_atom_site_fract_y
_atom_site_fract_z
Si Si1 0.040658 0.501389 0.864583
Si Si2 0.053429 0.353581 0.404376
Si Si3 0.550517 0.093641 0.004914
Si Si4 0.544505 0.027778 0.319647
Si Si5 0.448874 0.184371 0.884346
Si Si6 0.451172 0.681688 0.290730
Si Si7 0.457201 0.586405 0.423481
Si Si8 0.250000 0.750000 0.601673
O O1 0.250000 0.496410 0.867313
O O2 0.985589 0.502064 0.769596
O O3 0.971940 0.451311 0.927026
O O4 0.988342 0.562199 0.912015
O O5 0.250000 0.330327 0.400107
O O6 0.028883 0.406532 0.337055
O O7 0.029807 0.390261 0.490227
O O8 0.904399 0.303086 0.399678
O O9 0.750000 0.106471 0.015635
O O10 0.461967 0.151982 0.970994
O O11 0.750000 0.033867 0.315990
O O12 0.503207 0.979452 0.390803
O O13 0.250000 0.187191 0.861978
O O14 0.525294 0.250000 0.891926
O O15 0.533480 0.157167 0.802551
O O16 0.250000 0.686972 0.310187
O O17 0.522323 0.750000 0.294391
O O18 0.522693 0.634196 0.355024
O O19 0.250000 0.588711 0.429024
#
# Coordination Sequence:
#
# PCOD9448731 Si02
#       8
#     8   8   8   8   8   8   8   2
#     4   9  20  36  59  86 118 158 194 248 310 365
#     4  12  26  45  72  99 127 171 218 264 325 380
#     4  10  19  33  55  85 115 150 200 247 303 372
#     4  11  22  41  63  91 130 166 211 266 324 381
#     4  10  20  33  49  72 109 153 195 245 301 361
#     4   9  19  33  53  80 117 162 206 255 309 374
#     4  11  22  37  61  93 132 167 206 263 318 381
#     4  12  26  52  72  98 132 168 214 280 308 378
#
# _framework density 20.615870000000001
#
# number of rings (size 3 to 8) (size 9 to 14) (size 15 to 20)
#    0.000    1.655    1.379    3.103    0.966    5.793 
#    0.000    0.000    1.517    0.000    0.000    0.000 
#    0.000    0.000    0.000    0.000    0.000    0.000 
#
# Total GULP energy -323028.982849 kJ/mol
# GULP energy per Si atom -5569.465222 kJ/mol
# Density = 2.056895 g / cm^3
# Si number density = 20.615870 Si / 1000 Ang^3
#
#
#
# Elastic Constant Matrix: (Units=GPa)
#
#
# Indices 1 2 3 4 5 6 
#
# 1 93.8729 20.1870 4.3613 0.0000 0.0000 0.0000
# 2 20.1870 69.8367 7.8163 0.0000 0.0000 0.0000
# 3 4.3613 7.8163 31.4191 0.0000 0.0000 0.0000
# 4 0.0000 0.0000 0.0000 20.8538 0.0000 0.0000
# 5 0.0000 0.0000 0.0000 0.0000 5.6885 0.0000
# 6 0.0000 0.0000 0.0000 0.0000 0.0000 30.6587
#
#
#
# Elastic Compliance Matrix: (Units=1/GPa)
#
#
# Indices 1 2 3 4 5 6 
#
# 1 0.011377 -0.003201 -0.000783 0.000000 0.000000 0.000000
# 2 -0.003201 0.015630 -0.003444 0.000000 0.000000 0.000000
# 3 -0.000783 -0.003444 0.032793 0.000000 0.000000 0.000000
# 4 0.000000 0.000000 0.000000 0.047953 0.000000 0.000000
# 5 0.000000 0.000000 0.000000 0.000000 0.175792 0.000000
# 6 0.000000 0.000000 0.000000 0.000000 0.000000 0.032617
#
#
# Mechanical properties :
#
#
# Convention : Reuss Voigt Hill
#
# Bulk Modulus (GPa) = 22.24970 28.87310 25.56140
# Shear Modulus (GPa) = 14.45087 22.29115 18.37101
#
# Velocity S-wave (km/s) = 2.65043 3.29182 2.98839
# Velocity P-wave (km/s) = 4.49248 5.33702 4.93286
#
# Compressibility (1/GPa) = 0.04494442
#
# Stress axis : x y z
#
# Youngs Moduli (GPa) = 87.89301 63.97996 30.49414
#
# Poissons Ratio (x) = 0.20481 0.02388
# Poissons Ratio (y) = 0.28136 0.10502
# Poissons Ratio (z) = 0.06882 0.22034
#
# Static dielectric constant tensor:
#      x y z
#    x 1.738420 0.000000 0.000000 
#    y 0.000000 1.793850 0.000000 
#    z 0.000000 0.000000 1.753380 
# 
# From -- ./inp_files/21368.got.cif
#   From: 2010.05.17/outbox.cif.g08.bks.cpg/sg59_11_cif.got.tgz:21368.got - 2010.06.03 14:40:33.
