data_PCOD9448894
_publ_section_title
;
Structure prediction by ZEFSAII (Michael W. Deem and Ramdas Pophale) SiO2 
 PCOD9448894
Probable space group: P M M N
;
_chemical_formula_sum "Si O2"
_cell_formula_units_Z 64
_cell_length_a 7.621545
_cell_length_b 20.224766
_cell_length_c 19.325577
_cell_angle_alpha 90.000000
_cell_angle_beta 90.000000
_cell_angle_gamma 90.000000
_cell_volume 2978.921049
_symmetry_space_group_name_H-M "P M M N"
_symmetry_group_IT_number 59
_space_group.IT_coordinate_system_code '2'
_symmetry_cell_setting 'orthorhombic'
loop_
_space_group_symop_operation_xyz
x,y,z
1/2-x,1/2-y,z
1/2+x,-y,-z
-x,1/2+y,-z
-x,-y,-z
1/2+x,1/2+y,-z
1/2-x,y,z
x,1/2-y,z
loop_
_atom_site_type_symbol
_atom_site_label
_atom_site_fract_x
_atom_site_fract_y
_atom_site_fract_z
Si Si1 0.962391 0.563770 0.142490
Si Si2 0.038788 0.441763 0.554667
Si Si3 0.547416 0.820807 0.833191
Si Si4 0.959075 0.367257 0.309246
Si Si5 0.041440 0.826053 0.040249
Si Si6 0.035683 0.018495 0.706546
Si Si7 0.950128 0.068704 0.070613
Si Si8 0.539503 0.676837 0.535702
O O1 0.750000 0.559739 0.142092
O O2 0.021519 0.551348 0.221389
O O3 0.026067 0.502389 0.093371
O O4 0.014718 0.634726 0.111981
O O5 0.250000 0.438604 0.559245
O O6 0.975116 0.452478 0.632915
O O7 0.970020 0.375559 0.519105
O O8 0.000000 0.500000 0.500000
O O9 0.750000 0.825525 0.854269
O O10 0.476133 0.750000 0.858749
O O11 0.538398 0.822841 0.750693
O O12 0.449848 0.884797 0.861642
O O13 0.750000 0.363961 0.302172
O O14 0.017865 0.442015 0.295184
O O15 0.004707 0.346693 0.386495
O O16 0.250000 0.821559 0.026630
O O17 0.973988 0.750000 0.037975
O O18 0.968232 0.880283 0.985149
O O19 0.250000 0.020250 0.706589
O O20 0.750000 0.055544 0.048424
O O21 0.750000 0.678855 0.527654
O O22 0.468520 0.750000 0.526055
#
# Coordination Sequence:
#
# PCOD9448894 Si02
#       8
#     8   8   8   8   8   8   8   8
#     4  10  20  37  60  85 112 143 187 237 279 325
#     4  10  19  34  56  79 108 143 180 224 272 322
#     4  11  23  35  49  77 117 153 186 226 271 327
#     4  11  20  34  55  77 108 148 186 226 273 331
#     4  10  22  39  58  83 115 150 188 230 280 337
#     4   9  18  34  55  82 111 137 179 234 276 323
#     4  10  20  37  60  84 112 148 186 227 277 335
#     4  10  21  35  51  77 112 145 180 226 279 333
#
# _framework density 21.484289
#
# number of rings (size 3 to 8) (size 9 to 14) (size 15 to 20)
#    0.000    1.875    2.500    1.875    0.000    4.500 
#    0.000    1.250    0.000    2.250    0.000    0.000 
#    0.000    0.000    0.000    0.000    0.000    0.000 
#
# Total GULP energy -357347.416149 kJ/mol
# GULP energy per Si atom -5583.553377 kJ/mol
# Density = 2.143539 g / cm^3
# Si number density = 21.484289 Si / 1000 Ang^3
#
#
#
# Elastic Constant Matrix: (Units=GPa)
#
#
# Indices 1 2 3 4 5 6 
#
# 1 50.2123 2.7094 3.8270 0.0000 0.0000 0.0000
# 2 2.7094 135.0635 90.9084 0.0000 0.0000 0.0000
# 3 3.8270 90.9084 139.6482 0.0000 0.0000 0.0000
# 4 0.0000 0.0000 0.0000 -24.2152 0.0000 0.0000
# 5 0.0000 0.0000 0.0000 0.0000 2.7646 0.0000
# 6 0.0000 0.0000 0.0000 0.0000 0.0000 9.9844
#
#
#
# Elastic Compliance Matrix: (Units=1/GPa)
#
#
# Indices 1 2 3 4 5 6 
#
# 1 0.019957 -0.000057 -0.000510 0.000000 0.000000 0.000000
# 2 -0.000057 0.013178 -0.008577 0.000000 0.000000 0.000000
# 3 -0.000510 -0.008577 0.012758 0.000000 0.000000 0.000000
# 4 0.000000 0.000000 0.000000 -0.041296 0.000000 0.000000
# 5 0.000000 0.000000 0.000000 0.000000 0.361720 0.000000
# 6 0.000000 0.000000 0.000000 0.000000 0.000000 0.100156
#
#
# Mechanical properties :
#
#
# Convention : Reuss Voigt Hill
#
# Bulk Modulus (GPa) = 36.22440 57.75706 46.99073
# Shear Modulus (GPa) = 10.12219 12.87204 11.49712
#
# Velocity S-wave (km/s) = 2.17294 2.45038 2.31582
# Velocity P-wave (km/s) = 4.81592 5.91165 5.39169
#
# Compressibility (1/GPa) = 0.02760570
#
# Stress axis : x y z
#
# Youngs Moduli (GPa) = 50.10684 75.88291 78.37971
#
# Poissons Ratio (x) = 0.00435 0.03994
# Poissons Ratio (y) = 0.00287 0.67228
# Poissons Ratio (z) = 0.02553 0.65086
#
# Static dielectric constant tensor:
#      x y z
#    x 1.816160 0.000000 0.000000 
#    y 0.000000 1.775530 0.000000 
#    z 0.000000 0.000000 1.799270 
# 
# From -- ./inp_files/26191.got.cif
#   From: 2010.05.17/outbox.cif.g08.bks.cpg/sg59_14_cif.got.tgz:26191.got - 2010.06.03 14:40:33.
