data_PCOD9448555
_publ_section_title
;
Structure prediction by ZEFSAII (Michael W. Deem and Ramdas Pophale) SiO2 
 PCOD9448555
Probable space group: P M M N
;
_chemical_formula_sum "Si O2"
_cell_formula_units_Z 48
_cell_length_a 13.235309
_cell_length_b 12.765869
_cell_length_c 14.396362
_cell_angle_alpha 90.000000
_cell_angle_beta 90.000000
_cell_angle_gamma 90.000000
_cell_volume 2432.412503
_symmetry_space_group_name_H-M "P M M N"
_symmetry_group_IT_number 59
_space_group.IT_coordinate_system_code '2'
_symmetry_cell_setting 'orthorhombic'
loop_
_space_group_symop_operation_xyz
x,y,z
1/2-x,1/2-y,z
1/2+x,-y,-z
-x,1/2+y,-z
-x,-y,-z
1/2+x,1/2+y,-z
1/2-x,y,z
x,1/2-y,z
loop_
_atom_site_type_symbol
_atom_site_label
_atom_site_fract_x
_atom_site_fract_y
_atom_site_fract_z
Si Si1 0.939216 0.631934 0.603540
Si Si2 0.361292 0.135141 0.686230
Si Si3 0.366153 0.071967 0.202462
Si Si4 0.137027 0.371526 0.992269
Si Si5 0.361956 0.541167 0.529296
Si Si6 0.474362 0.870103 0.152873
O O1 0.899771 0.750000 0.587253
O O2 0.936926 0.612699 0.714490
O O3 0.879892 0.532543 0.560301
O O4 0.047997 0.620304 0.552890
O O5 0.250000 0.128963 0.731465
O O6 0.367687 0.250000 0.640211
O O7 0.448155 0.129672 0.761206
O O8 0.367851 0.043552 0.612427
O O9 0.250000 0.090844 0.230482
O O10 0.382477 0.124644 0.102263
O O11 0.387117 0.950115 0.180427
O O12 0.250000 0.418276 0.976782
O O13 0.142987 0.250000 0.963157
O O14 0.043176 0.412276 0.932277
O O15 0.250000 0.587748 0.526143
O O16 0.441443 0.750000 0.135562
#
# Coordination Sequence:
#
# PCOD9448555 Si02
#       6
#     8   8   8   8   8   8
#     4  11  23  39  60  84 113 148 186 226 273 331
#     4   9  16  29  53  81 106 134 174 224 271 316
#     4  11  22  36  53  79 113 149 188 227 272 328
#     4   9  18  33  55  81 107 138 181 232 279 325
#     4  10  21  38  59  84 112 143 182 228 275 325
#     4  10  19  33  53  78 109 143 183 228 276 327
#
# _framework density 19.733495000000001
#
# number of rings (size 3 to 8) (size 9 to 14) (size 15 to 20)
#    0.000    2.000    1.667    2.500    0.000    5.333 
#    0.000    0.000    0.000    2.000    0.000    2.333 
#    0.000    0.000    0.000    0.000    0.000    0.000 
#
# Total GULP energy -267517.233842 kJ/mol
# GULP energy per Si atom -5573.275705 kJ/mol
# Density = 1.968858 g / cm^3
# Si number density = 19.733495 Si / 1000 Ang^3
#
#
#
# Elastic Constant Matrix: (Units=GPa)
#
#
# Indices 1 2 3 4 5 6 
#
# 1 40.1257 -2.9170 0.0265 0.0000 0.0000 0.0000
# 2 -2.9170 53.8492 -0.7637 0.0000 0.0000 0.0000
# 3 0.0265 -0.7637 65.0053 0.0000 0.0000 0.0000
# 4 0.0000 0.0000 0.0000 13.8218 0.0000 0.0000
# 5 0.0000 0.0000 0.0000 0.0000 18.0209 0.0000
# 6 0.0000 0.0000 0.0000 0.0000 0.0000 -174.5638
#
#
#
# Elastic Compliance Matrix: (Units=1/GPa)
#
#
# Indices 1 2 3 4 5 6 
#
# 1 0.025020 0.001355 0.000006 0.000000 0.000000 0.000000
# 2 0.001355 0.018647 0.000219 0.000000 0.000000 0.000000
# 3 0.000006 0.000219 0.015386 0.000000 0.000000 0.000000
# 4 0.000000 0.000000 0.000000 0.072350 0.000000 0.000000
# 5 0.000000 0.000000 0.000000 0.000000 0.055491 0.000000
# 6 0.000000 0.000000 0.000000 0.000000 0.000000 -0.005729
#
#
# Mechanical properties :
#
#
# Convention : Reuss Voigt Hill
#
# Bulk Modulus (GPa) = 16.07397 16.85243 16.46320
# Shear Modulus (GPa) = 25.15807 -17.70193 3.72807
#
# Velocity S-wave (km/s) = 3.57444 -2.99833 1.37598
# Velocity P-wave (km/s) = 5.01983 1.85151 3.29929
#
# Compressibility (1/GPa) = 0.06221237
#
# Stress axis : x y z
#
# Youngs Moduli (GPa) = 39.96764 53.62824 64.99448
#
# Poissons Ratio (x) = -0.07269 -0.00037
# Poissons Ratio (y) = -0.05417 -0.01420
# Poissons Ratio (z) = -0.00023 -0.01172
#
# Static dielectric constant tensor:
#      x y z
#    x 1.730490 0.000000 0.000000 
#    y 0.000000 1.700360 0.000000 
#    z 0.000000 0.000000 1.697060 
# 
# From -- ./inp_files/22383.got.cif
#   From: 2010.05.17/outbox.cif.g08.bks.cpg/sg59_12_cif.got.tgz:22383.got - 2010.06.03 14:40:33.
