data_PCOD9448326
_publ_section_title
;
Structure prediction by ZEFSAII (Michael W. Deem and Ramdas Pophale) SiO2 
 PCOD9448326
Probable space group: P M M N
;
_chemical_formula_sum "Si O2"
_cell_formula_units_Z 48
_cell_length_a 14.239873
_cell_length_b 18.301421
_cell_length_c 9.807775
_cell_angle_alpha 90.000000
_cell_angle_beta 90.000000
_cell_angle_gamma 90.000000
_cell_volume 2556.003367
_symmetry_space_group_name_H-M "P M M N"
_symmetry_group_IT_number 59
_space_group.IT_coordinate_system_code '2'
_symmetry_cell_setting 'orthorhombic'
loop_
_space_group_symop_operation_xyz
x,y,z
1/2-x,1/2-y,z
1/2+x,-y,-z
-x,1/2+y,-z
-x,-y,-z
1/2+x,1/2+y,-z
1/2-x,y,z
x,1/2-y,z
loop_
_atom_site_type_symbol
_atom_site_label
_atom_site_fract_x
_atom_site_fract_y
_atom_site_fract_z
Si Si1 0.037101 0.619062 0.005656
Si Si2 0.536510 0.331831 0.299737
Si Si3 0.141389 0.467013 0.041463
Si Si4 0.362744 0.558836 0.507292
Si Si5 0.359380 0.831811 0.265633
Si Si6 0.359134 0.083173 0.354662
O O1 0.043924 0.660707 0.863034
O O2 0.929732 0.592182 0.021121
O O3 0.100501 0.545626 0.001194
O O4 0.076278 0.662406 0.133615
O O5 0.565508 0.250000 0.340997
O O6 0.594073 0.398826 0.365363
O O7 0.429775 0.349421 0.345144
O O8 0.250000 0.458940 0.002989
O O9 0.134907 0.456646 0.206115
O O10 0.250000 0.559193 0.519268
O O11 0.387562 0.609156 0.377447
O O12 0.389394 0.475876 0.469072
O O13 0.250000 0.846144 0.227514
O O14 0.363801 0.750000 0.322998
O O15 0.250000 0.102469 0.375275
#
# Coordination Sequence:
#
# PCOD9448326 Si02
#       6
#     8   8   8   8   8   8
#     4  10  19  32  53  77 106 139 172 215 263 314
#     4  11  23  35  51  81 116 140 165 214 277 324
#     4   9  17  32  54  79 103 133 177 223 259 301
#     4  10  20  36  56  77 104 140 179 219 262 312
#     4  10  19  32  53  77 102 138 179 214 256 314
#     4   9  18  36  60  79  99 137 188 224 250 305
#
# _framework density 18.779316999999999
#
# number of rings (size 3 to 8) (size 9 to 14) (size 15 to 20)
#    0.000    2.167    1.667    2.000    0.000    2.667 
#    0.000    0.000    0.000    1.500    0.000    0.000 
#    0.000    0.000    0.000    0.000    0.000    0.000 
#
# Total GULP energy -267747.584584 kJ/mol
# GULP energy per Si atom -5578.074679 kJ/mol
# Density = 1.873657 g / cm^3
# Si number density = 18.779317 Si / 1000 Ang^3
#
#
#
# Elastic Constant Matrix: (Units=GPa)
#
#
# Indices 1 2 3 4 5 6 
#
# 1 57.8762 -3.8008 18.6817 0.0000 0.0000 0.0000
# 2 -3.8008 37.6253 5.4151 0.0000 0.0000 0.0000
# 3 18.6817 5.4151 23.2577 0.0000 0.0000 0.0000
# 4 0.0000 0.0000 0.0000 5.3958 0.0000 0.0000
# 5 0.0000 0.0000 0.0000 0.0000 17.6644 0.0000
# 6 0.0000 0.0000 0.0000 0.0000 0.0000 18.0903
#
#
#
# Elastic Compliance Matrix: (Units=1/GPa)
#
#
# Indices 1 2 3 4 5 6 
#
# 1 0.024364 0.005461 -0.020842 0.000000 0.000000 0.000000
# 2 0.005461 0.028723 -0.011074 0.000000 0.000000 0.000000
# 3 -0.020842 -0.011074 0.062316 0.000000 0.000000 0.000000
# 4 0.000000 0.000000 0.000000 0.185330 0.000000 0.000000
# 5 0.000000 0.000000 0.000000 0.000000 0.056611 0.000000
# 6 0.000000 0.000000 0.000000 0.000000 0.000000 0.055278
#
#
# Mechanical properties :
#
#
# Convention : Reuss Voigt Hill
#
# Bulk Modulus (GPa) = 16.00173 17.70571 16.85372
# Shear Modulus (GPa) = 10.28032 14.79430 12.53731
#
# Velocity S-wave (km/s) = 2.34226 2.80982 2.58662
# Velocity P-wave (km/s) = 3.98175 4.46940 4.23260
#
# Compressibility (1/GPa) = 0.06249325
#
# Stress axis : x y z
#
# Youngs Moduli (GPa) = 41.04332 34.81489 16.04714
#
# Poissons Ratio (x) = -0.19012 0.33446
# Poissons Ratio (y) = -0.22413 0.17771
# Poissons Ratio (z) = 0.85543 0.38555
#
# Static dielectric constant tensor:
#      x y z
#    x 1.661300 0.000000 0.000000 
#    y 0.000000 1.643280 0.000000 
#    z 0.000000 0.000000 1.640050 
# 
# From -- ./inp_files/9027.got.cif
#   From: 2010.05.17/outbox.cif.g08.bks.cpg/sg59_5_cif.got.tgz:9027.got - 2010.06.03 14:40:33.
