data_PCOD9448940
_publ_section_title
;
Structure prediction by ZEFSAII (Michael W. Deem and Ramdas Pophale) SiO2 
 PCOD9448940
Probable space group: P M M N
;
_chemical_formula_sum "Si O2"
_cell_formula_units_Z 64
_cell_length_a 18.025637
_cell_length_b 7.520685
_cell_length_c 21.273115
_cell_angle_alpha 90.000000
_cell_angle_beta 90.000000
_cell_angle_gamma 90.000000
_cell_volume 2883.892766
_symmetry_space_group_name_H-M "P M M N"
_symmetry_group_IT_number 59
_space_group.IT_coordinate_system_code '2'
_symmetry_cell_setting 'orthorhombic'
loop_
_space_group_symop_operation_xyz
x,y,z
1/2-x,1/2-y,z
1/2+x,-y,-z
-x,1/2+y,-z
-x,-y,-z
1/2+x,1/2+y,-z
1/2-x,y,z
x,1/2-y,z
loop_
_atom_site_type_symbol
_atom_site_label
_atom_site_fract_x
_atom_site_fract_y
_atom_site_fract_z
Si Si1 0.607237 0.031985 0.123945
Si Si2 0.559750 0.541428 0.367598
Si Si3 0.559951 0.956798 0.853156
Si Si4 0.087450 0.539135 0.011229
Si Si5 0.831402 0.464579 0.255836
Si Si6 0.108939 0.454600 0.385262
Si Si7 0.835522 0.967602 0.480354
Si Si8 0.333017 0.031548 0.253970
O O1 0.607721 0.250000 0.122174
O O2 0.522817 0.969980 0.137584
O O3 0.655171 0.977920 0.183851
O O4 0.626756 0.974595 0.052833
O O5 0.547550 0.750000 0.378254
O O6 0.602405 0.519473 0.301786
O O7 0.478814 0.457465 0.372353
O O8 0.614047 0.472292 0.422298
O O9 0.548002 0.750000 0.838392
O O10 0.607175 0.033316 0.796390
O O11 0.602976 0.966303 0.919591
O O12 0.097463 0.750000 0.015035
O O13 0.000000 0.500000 0.000000
O O14 0.750000 0.525771 0.278079
O O15 0.831332 0.250000 0.255894
O O16 0.134298 0.250000 0.388201
O O17 0.130516 0.529294 0.453185
O O18 0.148068 0.532459 0.323924
O O19 0.750000 0.022136 0.474421
O O20 0.836686 0.750000 0.478776
O O21 0.250000 0.981539 0.235951
O O22 0.336100 0.250000 0.254303
#
# Coordination Sequence:
#
# PCOD9448940 Si02
#       8
#     8   8   8   8   8   8   8   8
#     4   8  15  29  48  70  95 124 161 207 252 288
#     4  11  22  35  52  76 109 141 166 201 254 309
#     4   9  16  28  47  70  98 129 161 201 248 300
#     4   9  16  28  47  70  96 126 163 205 248 295
#     4  10  20  35  55  76  98 129 172 216 253 294
#     4  10  19  34  57  79  99 129 176 221 246 283
#     4   9  18  33  54  79 105 134 168 208 254 300
#     4   9  17  30  51  77 101 129 168 213 257 297
#
# _framework density 22.192226000000002
#
# number of rings (size 3 to 8) (size 9 to 14) (size 15 to 20)
#    0.000    2.625    0.000    3.375    0.000    4.250 
#    0.000    7.500    0.000    4.875    0.000    0.000 
#    0.000    0.000    0.000    0.000    0.000    0.000 
#
# Total GULP energy -357208.961094 kJ/mol
# GULP energy per Si atom -5581.390017 kJ/mol
# Density = 2.214172 g / cm^3
# Si number density = 22.192226 Si / 1000 Ang^3
#
#
#
# Elastic Constant Matrix: (Units=GPa)
#
#
# Indices 1 2 3 4 5 6 
#
# 1 42.9888 -8.3930 -9.2702 0.0000 0.0000 0.0000
# 2 -8.3930 56.0321 -11.2682 0.0000 0.0000 0.0000
# 3 -9.2702 -11.2682 74.4377 0.0000 0.0000 0.0000
# 4 0.0000 0.0000 0.0000 7.2832 0.0000 0.0000
# 5 0.0000 0.0000 0.0000 0.0000 8.3477 0.0000
# 6 0.0000 0.0000 0.0000 0.0000 0.0000 0.6099
#
#
#
# Elastic Compliance Matrix: (Units=1/GPa)
#
#
# Indices 1 2 3 4 5 6 
#
# 1 0.024958 0.004500 0.003789 0.000000 0.000000 0.000000
# 2 0.004500 0.019219 0.003470 0.000000 0.000000 0.000000
# 3 0.003789 0.003470 0.014431 0.000000 0.000000 0.000000
# 4 0.000000 0.000000 0.000000 0.137303 0.000000 0.000000
# 5 0.000000 0.000000 0.000000 0.000000 0.119794 0.000000
# 6 0.000000 0.000000 0.000000 0.000000 0.000000 1.639723
#
#
# Mechanical properties :
#
#
# Convention : Reuss Voigt Hill
#
# Bulk Modulus (GPa) = 12.17629 12.84400 12.51015
# Shear Modulus (GPa) = 2.55195 16.74080 9.64638
#
# Velocity S-wave (km/s) = 1.07351 2.74953 2.08714
# Velocity P-wave (km/s) = 2.65240 3.98498 3.38491
#
# Compressibility (1/GPa) = 0.08212682
#
# Stress axis : x y z
#
# Youngs Moduli (GPa) = 40.06783 52.03240 69.29424
#
# Poissons Ratio (x) = -0.23417 -0.26258
# Poissons Ratio (y) = -0.18032 -0.24043
# Poissons Ratio (z) = -0.15183 -0.18054
#
# Static dielectric constant tensor:
#      x y z
#    x 1.776950 0.000000 0.000000 
#    y 0.000000 1.890150 0.000000 
#    z 0.000000 0.000000 1.820940 
# 
# From -- ./inp_files/30810.got.cif
#   From: 2010.05.17/outbox.cif.g08.bks.cpg/sg59_16_cif.got.tgz:30810.got - 2010.06.03 14:40:33.
