data_PCOD9448914
_publ_section_title
;
Structure prediction by ZEFSAII (Michael W. Deem and Ramdas Pophale) SiO2 
 PCOD9448914
Probable space group: P M M N
;
_chemical_formula_sum "Si O2"
_cell_formula_units_Z 64
_cell_length_a 23.036879
_cell_length_b 8.507805
_cell_length_c 18.158306
_cell_angle_alpha 90.000000
_cell_angle_beta 90.000000
_cell_angle_gamma 90.000000
_cell_volume 3558.905849
_symmetry_space_group_name_H-M "P M M N"
_symmetry_group_IT_number 59
_space_group.IT_coordinate_system_code '2'
_symmetry_cell_setting 'orthorhombic'
loop_
_space_group_symop_operation_xyz
x,y,z
1/2-x,1/2-y,z
1/2+x,-y,-z
-x,1/2+y,-z
-x,-y,-z
1/2+x,1/2+y,-z
1/2-x,y,z
x,1/2-y,z
loop_
_atom_site_type_symbol
_atom_site_label
_atom_site_fract_x
_atom_site_fract_y
_atom_site_fract_z
Si Si1 0.850053 0.063348 0.905557
Si Si2 0.022492 0.063483 0.078190
Si Si3 0.449734 0.059172 0.666368
Si Si4 0.583724 0.062372 0.648059
Si Si5 0.186033 0.437175 0.249469
Si Si6 0.683646 0.439413 0.071043
Si Si7 0.565935 0.561343 0.493446
Si Si8 0.581910 0.561855 0.173336
O O1 0.840518 0.250000 0.899720
O O2 0.918096 0.023488 0.902362
O O3 0.820600 0.981737 0.836182
O O4 0.828514 0.011985 0.986399
O O5 0.032252 0.250000 0.074177
O O6 0.973018 0.022208 0.136465
O O7 0.000000 0.000000 0.000000
O O8 0.451892 0.250000 0.665092
O O9 0.517644 0.006137 0.666782
O O10 0.418683 0.011785 0.590035
O O11 0.417555 0.013624 0.741072
O O12 0.582001 0.250000 0.649159
O O13 0.632250 0.006053 0.704922
O O14 0.597626 0.006236 0.564937
O O15 0.250000 0.492405 0.274982
O O16 0.183784 0.250000 0.256783
O O17 0.750000 0.476737 0.089820
O O18 0.676035 0.250000 0.073452
O O19 0.638147 0.515522 0.126572
O O20 0.500000 0.500000 0.500000
O O21 0.567074 0.750000 0.497817
O O22 0.573578 0.750000 0.168996
#
# Coordination Sequence:
#
# PCOD9448914 Si02
#       8
#     8   8   8   8   8   8   8   8
#     4  11  22  38  59  80 106 142 183 228 278 330
#     4  12  23  36  54  80 111 144 180 224 276 329
#     4   8  17  32  52  81 112 141 174 216 270 328
#     4  10  19  34  56  81 111 145 181 222 274 334
#     4  11  24  39  55  79 111 147 190 235 277 329
#     4  10  22  39  56  74 101 140 183 226 274 324
#     4   9  16  30  52  79 112 143 174 214 263 324
#     4  11  21  35  56  81 109 143 182 225 271 324
#
# _framework density 17.983055
#
# number of rings (size 3 to 8) (size 9 to 14) (size 15 to 20)
#    0.000    1.750    1.250    4.875    0.000    3.250 
#    0.000    6.875    0.000    0.750    0.000    1.750 
#    0.000    0.000    0.000    0.000    0.000    0.000 
#
# Total GULP energy -357217.337606 kJ/mol
# GULP energy per Si atom -5581.520900 kJ/mol
# Density = 1.794212 g / cm^3
# Si number density = 17.983055 Si / 1000 Ang^3
#
#
#
# Elastic Constant Matrix: (Units=GPa)
#
#
# Indices 1 2 3 4 5 6 
#
# 1 60.5778 2.2072 29.9605 0.0000 0.0000 0.0000
# 2 2.2072 31.0387 16.0313 0.0000 0.0000 0.0000
# 3 29.9605 16.0313 134.4259 0.0000 0.0000 0.0000
# 4 0.0000 0.0000 0.0000 30.2250 0.0000 0.0000
# 5 0.0000 0.0000 0.0000 0.0000 7.9220 0.0000
# 6 0.0000 0.0000 0.0000 0.0000 0.0000 19.3084
#
#
#
# Elastic Compliance Matrix: (Units=1/GPa)
#
#
# Indices 1 2 3 4 5 6 
#
# 1 0.018575 0.000871 -0.004244 0.000000 0.000000 0.000000
# 2 0.000871 0.034373 -0.004293 0.000000 0.000000 0.000000
# 3 -0.004244 -0.004293 0.008897 0.000000 0.000000 0.000000
# 4 0.000000 0.000000 0.000000 0.033085 0.000000 0.000000
# 5 0.000000 0.000000 0.000000 0.000000 0.126231 0.000000
# 6 0.000000 0.000000 0.000000 0.000000 0.000000 0.051791
#
#
# Mechanical properties :
#
#
# Convention : Reuss Voigt Hill
#
# Bulk Modulus (GPa) = 21.49945 35.82670 28.66308
# Shear Modulus (GPa) = 16.45880 23.34731 19.90305
#
# Velocity S-wave (km/s) = 3.02857 3.60710 3.33042
# Velocity P-wave (km/s) = 4.92047 6.10851 5.54639
#
# Compressibility (1/GPa) = 0.04651282
#
# Stress axis : x y z
#
# Youngs Moduli (GPa) = 53.83625 29.09224 112.39853
#
# Poissons Ratio (x) = -0.02534 0.47700
# Poissons Ratio (y) = -0.04689 0.48258
# Poissons Ratio (z) = 0.22847 0.12491
#
# Static dielectric constant tensor:
#      x y z
#    x 1.572190 0.000000 0.000000 
#    y 0.000000 1.593330 0.000000 
#    z 0.000000 0.000000 1.633920 
# 
# From -- ./inp_files/26274.got.cif
#   From: 2010.05.17/outbox.cif.g08.bks.cpg/sg59_14_cif.got.tgz:26274.got - 2010.06.03 14:40:33.
