data_PCOD9448072
_publ_section_title
;
Structure prediction by ZEFSAII (Michael W. Deem and Ramdas Pophale) SiO2 
 PCOD9448072
Probable space group: P M M N
;
_chemical_formula_sum "Si O2"
_cell_formula_units_Z 64
_cell_length_a 8.958167
_cell_length_b 29.058171
_cell_length_c 15.922329
_cell_angle_alpha 90.000000
_cell_angle_beta 90.000000
_cell_angle_gamma 90.000000
_cell_volume 4144.708798
_symmetry_space_group_name_H-M "P M M N"
_symmetry_group_IT_number 59
_space_group.IT_coordinate_system_code '2'
_symmetry_cell_setting 'orthorhombic'
loop_
_space_group_symop_operation_xyz
x,y,z
1/2-x,1/2-y,z
1/2+x,-y,-z
-x,1/2+y,-z
-x,-y,-z
1/2+x,1/2+y,-z
1/2-x,y,z
x,1/2-y,z
loop_
_atom_site_type_symbol
_atom_site_label
_atom_site_fract_x
_atom_site_fract_y
_atom_site_fract_z
Si Si1 0.571562 0.546066 0.399419
Si Si2 0.428088 0.195252 0.498191
Si Si3 0.072990 0.448626 0.401319
Si Si4 0.921688 0.194139 0.009839
Si Si5 0.568450 0.856663 0.331703
Si Si6 0.072053 0.195312 0.184568
Si Si7 0.927884 0.143526 0.341129
Si Si8 0.429767 0.304246 0.835292
O O1 0.750000 0.539422 0.389677
O O2 0.545524 0.556826 0.498245
O O3 0.487328 0.499086 0.378396
O O4 0.523345 0.590577 0.346595
O O5 0.250000 0.186203 0.487392
O O6 0.449274 0.250000 0.499710
O O7 0.475307 0.172915 0.586627
O O8 0.513575 0.172279 0.421243
O O9 0.250000 0.445300 0.387855
O O10 0.989507 0.407987 0.353431
O O11 0.750000 0.179195 0.014854
O O12 0.923673 0.250000 0.008714
O O13 0.996899 0.179936 0.922372
O O14 0.011298 0.180735 0.093254
O O15 0.750000 0.856064 0.330697
O O16 0.519156 0.833358 0.245208
O O17 0.250000 0.189622 0.188618
O O18 0.039770 0.250000 0.195236
O O19 0.994007 0.167102 0.258154
O O20 0.750000 0.143691 0.338608
O O21 0.250000 0.307737 0.842489
O O22 0.464120 0.250000 0.822078
#
# Coordination Sequence:
#
# PCOD9448072 Si02
#       8
#     8   8   8   8   8   8   8   8
#     4   9  17  31  50  70  94 122 159 206 252 287
#     4  10  19  32  48  66  94 133 171 201 233 277
#     4  10  19  33  51  69  92 122 162 205 247 291
#     4   9  17  30  47  68  96 127 158 198 245 284
#     4   9  16  29  48  71  96 127 165 203 238 279
#     4  10  20  34  52  72  95 126 164 202 239 284
#     4  12  23  33  47  69  98 129 162 198 243 291
#     4   9  16  27  46  71  97 128 166 201 233 276
#
# _framework density 15.441374
#
# number of rings (size 3 to 8) (size 9 to 14) (size 15 to 20)
#    0.000    2.250    1.250    3.000    0.000    6.000 
#    0.000    1.250    0.000    1.500    0.000    0.875 
#    0.000    0.000    0.000    0.000    0.000    0.000 
#
# Total GULP energy -357018.611711 kJ/mol
# GULP energy per Si atom -5578.415808 kJ/mol
# Density = 1.540623 g / cm^3
# Si number density = 15.441374 Si / 1000 Ang^3
#
#
#
# Elastic Constant Matrix: (Units=GPa)
#
#
# Indices 1 2 3 4 5 6 
#
# 1 65.7326 58.2729 61.3672 0.0000 0.0000 0.0000
# 2 58.2729 99.2019 76.7988 0.0000 0.0000 0.0000
# 3 61.3672 76.7988 144.6566 0.0000 0.0000 0.0000
# 4 0.0000 0.0000 0.0000 7.2229 0.0000 0.0000
# 5 0.0000 0.0000 0.0000 0.0000 6.8818 0.0000
# 6 0.0000 0.0000 0.0000 0.0000 0.0000 21.9362
#
#
#
# Elastic Compliance Matrix: (Units=1/GPa)
#
#
# Indices 1 2 3 4 5 6 
#
# 1 0.035210 -0.015483 -0.006717 0.000000 0.000000 0.000000
# 2 -0.015483 0.023923 -0.006133 0.000000 0.000000 0.000000
# 3 -0.006717 -0.006133 0.013018 0.000000 0.000000 0.000000
# 4 0.000000 0.000000 0.000000 0.138448 0.000000 0.000000
# 5 0.000000 0.000000 0.000000 0.000000 0.145310 0.000000
# 6 0.000000 0.000000 0.000000 0.000000 0.000000 0.045587
#
#
# Mechanical properties :
#
#
# Convention : Reuss Voigt Hill
#
# Bulk Modulus (GPa) = 64.57347 78.05211 71.31279
# Shear Modulus (GPa) = 10.79160 14.75167 12.77163
#
# Velocity S-wave (km/s) = 2.64649 3.09420 2.87906
# Velocity P-wave (km/s) = 7.15876 7.96383 7.57200
#
# Compressibility (1/GPa) = 0.01548624
#
# Stress axis : x y z
#
# Youngs Moduli (GPa) = 28.40112 41.80094 76.81470
#
# Poissons Ratio (x) = 0.64719 0.51598
# Poissons Ratio (y) = 0.43973 0.47107
# Poissons Ratio (z) = 0.19077 0.25635
#
# Static dielectric constant tensor:
#      x y z
#    x 1.515840 0.000000 0.000000 
#    y 0.000000 1.501030 0.000000 
#    z 0.000000 0.000000 1.497350 
# 
# From -- ./inp_files/21883.got.cif
#   From: 2010.05.17/outbox.cif.g08.bks.cpg/sg59_11_cif.got.tgz:21883.got - 2010.06.03 14:40:33.
