data_PCOD9448886
_publ_section_title
;
Structure prediction by ZEFSAII (Michael W. Deem and Ramdas Pophale) SiO2 
 PCOD9448886
Probable space group: P M M N
;
_chemical_formula_sum "Si O2"
_cell_formula_units_Z 56
_cell_length_a 24.588346
_cell_length_b 8.740023
_cell_length_c 15.003481
_cell_angle_alpha 90.000000
_cell_angle_beta 90.000000
_cell_angle_gamma 90.000000
_cell_volume 3224.288720
_symmetry_space_group_name_H-M "P M M N"
_symmetry_group_IT_number 59
_space_group.IT_coordinate_system_code '2'
_symmetry_cell_setting 'orthorhombic'
loop_
_space_group_symop_operation_xyz
x,y,z
1/2-x,1/2-y,z
1/2+x,-y,-z
-x,1/2+y,-z
-x,-y,-z
1/2+x,1/2+y,-z
1/2-x,y,z
x,1/2-y,z
loop_
_atom_site_type_symbol
_atom_site_label
_atom_site_fract_x
_atom_site_fract_y
_atom_site_fract_z
Si Si1 0.646466 0.068767 0.212201
Si Si2 0.461046 0.068555 0.130831
Si Si3 0.578695 0.433049 0.044334
Si Si4 0.366087 0.432555 0.461624
Si Si5 0.449561 0.568271 0.325194
Si Si6 0.750000 0.431788 0.498265
Si Si7 0.750000 0.928501 0.302847
Si Si8 0.435256 0.931299 0.624938
O O1 0.660343 0.250000 0.213418
O O2 0.625974 0.027275 0.113772
O O3 0.596889 0.049363 0.281926
O O4 0.696849 0.972319 0.246970
O O5 0.458140 0.250000 0.147302
O O6 0.521842 0.033017 0.095019
O O7 0.450150 0.980288 0.221893
O O8 0.422299 0.018879 0.049500
O O9 0.579752 0.250000 0.028948
O O10 0.364822 0.250000 0.466774
O O11 0.400269 0.488281 0.376805
O O12 0.305115 0.497761 0.462212
O O13 0.398079 0.498534 0.547551
O O14 0.445697 0.750000 0.334626
O O15 0.506255 0.510083 0.367842
O O16 0.750000 0.250000 0.508958
O O17 0.750000 0.473945 0.393426
O O18 0.750000 0.750000 0.326582
O O19 0.442322 0.750000 0.609330
#
# Coordination Sequence:
#
# PCOD9448886 Si02
#       8
#     8   8   8   8   8   4   4   8
#     4  10  20  36  58  81 115 155 192 233 285 342
#     4  10  19  34  55  83 115 147 185 231 282 339
#     4   9  18  34  55  82 112 147 186 227 280 340
#     4  12  25  41  60  84 114 151 195 242 289 343
#     4  12  24  38  57  84 118 157 196 238 288 346
#     4  12  24  42  62  83 112 149 194 240 288 340
#     4  12  24  36  56  85 116 149 196 240 284 340
#     4  11  21  37  58  84 118 155 191 235 287 345
#
# _framework density 17.368171
#
# number of rings (size 3 to 8) (size 9 to 14) (size 15 to 20)
#    0.000    1.143    2.857    5.143    0.000    1.714 
#    0.000    0.000    0.000    0.857    0.000    3.000 
#    0.000    0.000    0.000    0.000    0.000    0.000 
#
# Total GULP energy -313060.980648 kJ/mol
# GULP energy per Si atom -5590.374654 kJ/mol
# Density = 1.732864 g / cm^3
# Si number density = 17.368171 Si / 1000 Ang^3
#
#
#
# Elastic Constant Matrix: (Units=GPa)
#
#
# Indices 1 2 3 4 5 6 
#
# 1 93.9744 36.6295 38.2705 0.0000 0.0000 0.0000
# 2 36.6295 89.1564 32.0890 0.0000 0.0000 0.0000
# 3 38.2705 32.0890 66.1180 0.0000 0.0000 0.0000
# 4 0.0000 0.0000 0.0000 29.8889 0.0000 0.0000
# 5 0.0000 0.0000 0.0000 0.0000 8.0743 0.0000
# 6 0.0000 0.0000 0.0000 0.0000 0.0000 29.4181
#
#
#
# Elastic Compliance Matrix: (Units=1/GPa)
#
#
# Indices 1 2 3 4 5 6 
#
# 1 0.014839 -0.003641 -0.006822 0.000000 0.000000 0.000000
# 2 -0.003641 0.014484 -0.004922 0.000000 0.000000 0.000000
# 3 -0.006822 -0.004922 0.021462 0.000000 0.000000 0.000000
# 4 0.000000 0.000000 0.000000 0.033457 0.000000 0.000000
# 5 0.000000 0.000000 0.000000 0.000000 0.123849 0.000000
# 6 0.000000 0.000000 0.000000 0.000000 0.000000 0.033993
#
#
# Mechanical properties :
#
#
# Convention : Reuss Voigt Hill
#
# Bulk Modulus (GPa) = 49.96335 51.46965 50.71650
# Shear Modulus (GPa) = 17.88757 22.96026 20.42391
#
# Velocity S-wave (km/s) = 3.21270 3.63984 3.43292
# Velocity P-wave (km/s) = 6.52622 6.88211 6.70652
#
# Compressibility (1/GPa) = 0.02001467
#
# Stress axis : x y z
#
# Youngs Moduli (GPa) = 67.39214 69.04359 46.59456
#
# Poissons Ratio (x) = 0.25139 0.31786
# Poissons Ratio (y) = 0.24538 0.22933
# Poissons Ratio (z) = 0.45973 0.33982
#
# Static dielectric constant tensor:
#      x y z
#    x 1.571650 0.000000 0.000000 
#    y 0.000000 1.580590 0.000000 
#    z 0.000000 0.000000 1.582760 
# 
# From -- ./inp_files/24353.got.cif
#   From: 2010.05.17/outbox.cif.g08.bks.cpg/sg59_13_cif.got.tgz:24353.got - 2010.06.03 14:40:33.
