data_PCOD9448155
_publ_section_title
;
Structure prediction by ZEFSAII (Michael W. Deem and Ramdas Pophale) SiO2 
 PCOD9448155
Probable space group: P M M N
;
_chemical_formula_sum "Si O2"
_cell_formula_units_Z 64
_cell_length_a 18.393112
_cell_length_b 7.812150
_cell_length_c 23.386906
_cell_angle_alpha 90.000000
_cell_angle_beta 90.000000
_cell_angle_gamma 90.000000
_cell_volume 3360.458674
_symmetry_space_group_name_H-M "P M M N"
_symmetry_group_IT_number 59
_space_group.IT_coordinate_system_code '2'
_symmetry_cell_setting 'orthorhombic'
loop_
_space_group_symop_operation_xyz
x,y,z
1/2-x,1/2-y,z
1/2+x,-y,-z
-x,1/2+y,-z
-x,-y,-z
1/2+x,1/2+y,-z
1/2-x,y,z
x,1/2-y,z
loop_
_atom_site_type_symbol
_atom_site_label
_atom_site_fract_x
_atom_site_fract_y
_atom_site_fract_z
Si Si1 0.986567 0.952078 0.741574
Si Si2 0.330035 0.542752 0.296301
Si Si3 0.966294 0.548744 0.134757
Si Si4 0.331088 0.545092 0.943150
Si Si5 0.669874 0.040414 0.453267
Si Si6 0.431779 0.955538 0.040438
Si Si7 0.970326 0.042081 0.383862
Si Si8 0.126757 0.547287 0.421999
O O1 0.997381 0.750000 0.741467
O O2 0.018276 0.019377 0.681302
O O3 0.900144 0.987627 0.739486
O O4 0.024433 0.019873 0.798287
O O5 0.250000 0.488150 0.276361
O O6 0.331125 0.750000 0.297327
O O7 0.342128 0.479849 0.361819
O O8 0.965186 0.750000 0.123967
O O9 0.892139 0.483985 0.105473
O O10 0.038291 0.479323 0.101370
O O11 0.250000 0.478619 0.930781
O O12 0.325978 0.750000 0.948348
O O13 0.363314 0.478377 0.003891
O O14 0.750000 0.989548 0.433478
O O15 0.667607 0.250000 0.454193
O O16 0.604002 0.984458 0.413102
O O17 0.657627 0.980107 0.518466
O O18 0.422306 0.750000 0.044519
O O19 0.500000 0.000000 0.000000
O O20 0.971779 0.250000 0.383658
O O21 0.040412 0.981264 0.419130
O O22 0.142216 0.750000 0.421625
#
# Coordination Sequence:
#
# PCOD9448155 Si02
#       8
#     8   8   8   8   8   8   8   8
#     4  10  20  33  48  67  94 129 169 205 237 279
#     4   9  17  30  48  70  94 119 151 193 242 295
#     4  10  19  32  51  73  98 130 168 204 237 277
#     4   9  17  31  52  77 103 128 155 192 239 287
#     4   9  16  27  45  68  91 115 148 192 239 287
#     4   8  15  28  47  71  96 122 152 186 228 278
#     4   9  18  31  46  65  90 122 158 195 235 281
#     4   9  16  27  47  71  91 114 146 187 238 295
#
# _framework density 19.045020999999998
#
# number of rings (size 3 to 8) (size 9 to 14) (size 15 to 20)
#    0.000    2.875    0.000    1.500    0.000    3.000 
#    0.000    1.250    0.000    6.750    0.000    0.000 
#    0.000    0.000    0.000    0.000    0.000    0.000 
#
# Total GULP energy -356506.528225 kJ/mol
# GULP energy per Si atom -5570.414504 kJ/mol
# Density = 1.900167 g / cm^3
# Si number density = 19.045021 Si / 1000 Ang^3
#
#
#
# Elastic Constant Matrix: (Units=GPa)
#
#
# Indices 1 2 3 4 5 6 
#
# 1 123.4710 -2.0522 44.2858 0.0000 0.0000 0.0000
# 2 -2.0522 19.8677 -0.7156 0.0000 0.0000 0.0000
# 3 44.2858 -0.7156 65.2798 0.0000 0.0000 0.0000
# 4 0.0000 0.0000 0.0000 10.6703 0.0000 0.0000
# 5 0.0000 0.0000 0.0000 0.0000 15.1562 0.0000
# 6 0.0000 0.0000 0.0000 0.0000 0.0000 20.1607
#
#
#
# Elastic Compliance Matrix: (Units=1/GPa)
#
#
# Indices 1 2 3 4 5 6 
#
# 1 0.010718 0.000846 -0.007262 0.000000 0.000000 0.000000
# 2 0.000846 0.050420 -0.000021 0.000000 0.000000 0.000000
# 3 -0.007262 -0.000021 0.020245 0.000000 0.000000 0.000000
# 4 0.000000 0.000000 0.000000 0.093718 0.000000 0.000000
# 5 0.000000 0.000000 0.000000 0.000000 0.065980 0.000000
# 6 0.000000 0.000000 0.000000 0.000000 0.000000 0.049602
#
#
# Mechanical properties :
#
#
# Convention : Reuss Voigt Hill
#
# Bulk Modulus (GPa) = 14.59685 32.40605 23.50145
# Shear Modulus (GPa) = 15.31906 20.33747 17.82827
#
# Velocity S-wave (km/s) = 2.83920 3.27136 3.06291
# Velocity P-wave (km/s) = 4.29291 5.59656 4.98752
#
# Compressibility (1/GPa) = 0.06850793
#
# Stress axis : x y z
#
# Youngs Moduli (GPa) = 93.30392 19.83359 49.39564
#
# Poissons Ratio (x) = -0.01677 0.35869
# Poissons Ratio (y) = -0.07889 0.00103
# Poissons Ratio (z) = 0.67753 0.00042
#
# Static dielectric constant tensor:
#      x y z
#    x 1.669420 0.000000 0.000000 
#    y 0.000000 1.709690 0.000000 
#    z 0.000000 0.000000 1.673820 
# 
# From -- ./inp_files/29518.got.cif
#   From: 2010.05.17/outbox.cif.g08.bks.cpg/sg59_15_cif.got.tgz:29518.got - 2010.06.03 14:40:33.
