data_PCOD9448865
_publ_section_title
;
Structure prediction by ZEFSAII (Michael W. Deem and Ramdas Pophale) SiO2 
 PCOD9448865
Probable space group: P M M N
;
_chemical_formula_sum "Si O2"
_cell_formula_units_Z 40
_cell_length_a 8.595044
_cell_length_b 15.115026
_cell_length_c 17.568156
_cell_angle_alpha 90.000000
_cell_angle_beta 90.000000
_cell_angle_gamma 90.000000
_cell_volume 2282.354927
_symmetry_space_group_name_H-M "P M M N"
_symmetry_group_IT_number 59
_space_group.IT_coordinate_system_code '2'
_symmetry_cell_setting 'orthorhombic'
loop_
_space_group_symop_operation_xyz
x,y,z
1/2-x,1/2-y,z
1/2+x,-y,-z
-x,1/2+y,-z
-x,-y,-z
1/2+x,1/2+y,-z
1/2-x,y,z
x,1/2-y,z
loop_
_atom_site_type_symbol
_atom_site_label
_atom_site_fract_x
_atom_site_fract_y
_atom_site_fract_z
Si Si1 0.065090 0.440250 0.236095
Si Si2 0.937873 0.352722 0.493297
Si Si3 0.561538 0.060408 0.066762
Si Si4 0.075469 0.750000 0.937195
Si Si5 0.424659 0.750000 0.753876
Si Si6 0.436664 0.015561 0.615845
O O1 0.250000 0.442014 0.232249
O O2 0.996622 0.458948 0.152130
O O3 0.009557 0.341919 0.262269
O O4 0.001812 0.507105 0.299368
O O5 0.750000 0.351740 0.494949
O O6 0.989041 0.250000 0.482781
O O7 0.984802 0.424813 0.428859
O O8 0.999793 0.399800 0.569934
O O9 0.750000 0.062519 0.068967
O O10 0.498839 0.157935 0.044793
O O11 0.500000 0.000000 0.000000
O O12 0.250000 0.750000 0.970099
O O13 0.089628 0.750000 0.845558
O O14 0.250000 0.750000 0.720236
O O15 0.250000 0.018183 0.616666
#
# Coordination Sequence:
#
# PCOD9448865 Si02
#       6
#     8   8   8   4   4   8
#     4  11  21  33  51  79 110 142 181 224 267 322
#     4   9  19  36  56  78 106 143 180 219 270 324
#     4  10  19  34  55  79 107 143 179 221 270 321
#     4   7  14  29  49  71  99 132 165 202 257 315
#     4   9  17  31  49  73 105 138 169 214 271 319
#     4  10  20  34  54  80 109 143 179 223 269 319
#
# _framework density 17.525758
#
# number of rings (size 3 to 8) (size 9 to 14) (size 15 to 20)
#    0.000    2.400    0.000    4.500    1.400    1.200 
#    0.000    1.500    2.200    0.000    0.000    0.000 
#    0.000    0.000    0.000    0.000    0.000    0.000 
#
# Total GULP energy -222875.950722 kJ/mol
# GULP energy per Si atom -5571.898768 kJ/mol
# Density = 1.748587 g / cm^3
# Si number density = 17.525758 Si / 1000 Ang^3
#
#
#
# Elastic Constant Matrix: (Units=GPa)
#
#
# Indices 1 2 3 4 5 6 
#
# 1 47.2210 15.7450 18.7549 0.0000 0.0000 0.0000
# 2 15.7450 89.3932 41.0537 0.0000 0.0000 0.0000
# 3 18.7549 41.0537 90.5218 0.0000 0.0000 0.0000
# 4 0.0000 0.0000 0.0000 26.0869 0.0000 0.0000
# 5 0.0000 0.0000 0.0000 0.0000 25.0988 0.0000
# 6 0.0000 0.0000 0.0000 0.0000 0.0000 24.6477
#
#
#
# Elastic Compliance Matrix: (Units=1/GPa)
#
#
# Indices 1 2 3 4 5 6 
#
# 1 0.023477 -0.002401 -0.003775 0.000000 0.000000 0.000000
# 2 -0.002401 0.014375 -0.006022 0.000000 0.000000 0.000000
# 3 -0.003775 -0.006022 0.014560 0.000000 0.000000 0.000000
# 4 0.000000 0.000000 0.000000 0.038333 0.000000 0.000000
# 5 0.000000 0.000000 0.000000 0.000000 0.039843 0.000000
# 6 0.000000 0.000000 0.000000 0.000000 0.000000 0.040572
#
#
# Mechanical properties :
#
#
# Convention : Reuss Voigt Hill
#
# Bulk Modulus (GPa) = 35.69423 42.02704 38.86064
# Shear Modulus (GPa) = 24.40271 25.27216 24.83743
#
# Velocity S-wave (km/s) = 3.73552 3.80149 3.76865
# Velocity P-wave (km/s) = 6.24632 6.58032 6.41549
#
# Compressibility (1/GPa) = 0.02801573
#
# Stress axis : x y z
#
# Youngs Moduli (GPa) = 42.59478 69.56501 68.68009
#
# Poissons Ratio (x) = 0.16705 0.25927
# Poissons Ratio (y) = 0.10229 0.41358
# Poissons Ratio (z) = 0.16080 0.41891
#
# Static dielectric constant tensor:
#      x y z
#    x 1.597650 0.000000 0.000000 
#    y 0.000000 1.635460 0.000000 
#    z 0.000000 0.000000 1.586760 
# 
# From -- ./inp_files/19945.got.cif
#   From: 2010.05.17/outbox.cif.g08.bks.cpg/sg59_10_cif.got.tgz:19945.got - 2010.06.03 14:40:33.
