data_PCOD9448930
_publ_section_title
;
Structure prediction by ZEFSAII (Michael W. Deem and Ramdas Pophale) SiO2 
 PCOD9448930
Probable space group: P M M N
;
_chemical_formula_sum "Si O2"
_cell_formula_units_Z 64
_cell_length_a 11.133836
_cell_length_b 30.357227
_cell_length_c 9.968940
_cell_angle_alpha 90.000000
_cell_angle_beta 90.000000
_cell_angle_gamma 90.000000
_cell_volume 3369.425825
_symmetry_space_group_name_H-M "P M M N"
_symmetry_group_IT_number 59
_space_group.IT_coordinate_system_code '2'
_symmetry_cell_setting 'orthorhombic'
loop_
_space_group_symop_operation_xyz
x,y,z
1/2-x,1/2-y,z
1/2+x,-y,-z
-x,1/2+y,-z
-x,-y,-z
1/2+x,1/2+y,-z
1/2-x,y,z
x,1/2-y,z
loop_
_atom_site_type_symbol
_atom_site_label
_atom_site_fract_x
_atom_site_fract_y
_atom_site_fract_z
Si Si1 0.112845 0.428236 0.780495
Si Si2 0.124760 0.939611 0.488392
Si Si3 0.966106 0.353631 0.636470
Si Si4 0.609365 0.564414 0.926023
Si Si5 0.111447 0.197692 0.410068
Si Si6 0.015208 0.491795 0.311061
Si Si7 0.392132 0.331914 0.105597
Si Si8 0.610354 0.302977 0.903661
O O1 0.250000 0.419081 0.806467
O O2 0.061738 0.386069 0.706660
O O3 0.093538 0.473473 0.701527
O O4 0.054058 0.435781 0.925404
O O5 0.250000 0.944812 0.563023
O O6 0.117059 0.890628 0.431747
O O7 0.016270 0.953519 0.584147
O O8 0.116030 0.975476 0.369066
O O9 0.910643 0.324812 0.756845
O O10 0.026213 0.325499 0.518180
O O11 0.750000 0.551558 0.928854
O O12 0.544858 0.531627 0.826232
O O13 0.603472 0.615239 0.881368
O O14 0.250000 0.183272 0.432391
O O15 0.105021 0.250000 0.429487
O O16 0.084172 0.187670 0.253678
O O17 0.250000 0.320828 0.068063
O O18 0.498755 0.317685 0.001847
O O19 0.750000 0.313904 0.946589
O O20 0.603722 0.250000 0.893795
#
# Coordination Sequence:
#
# PCOD9448930 Si02
#       8
#     8   8   8   8   8   8   8   8
#     4  10  20  34  55  83 117 150 192 246 291 346
#     4  10  21  36  54  79 110 150 197 238 283 346
#     4  11  21  38  61  83 118 157 197 242 301 357
#     4  10  19  34  56  83 114 149 194 242 293 351
#     4  10  21  37  60  92 123 151 195 253 308 366
#     4  10  20  34  55  79 113 153 190 237 293 346
#     4  10  21  40  65  92 123 159 201 251 307 365
#     4  11  24  42  63  89 122 159 202 251 306 368
#
# _framework density 18.994335
#
# number of rings (size 3 to 8) (size 9 to 14) (size 15 to 20)
#    0.000    1.750    1.250    3.375    0.000    1.250 
#    0.000    7.500    0.000    3.000    0.000    0.000 
#    0.000    0.000    0.000    0.000    0.000    0.000 
#
# Total GULP energy -356468.753864 kJ/mol
# GULP energy per Si atom -5569.824279 kJ/mol
# Density = 1.895110 g / cm^3
# Si number density = 18.994335 Si / 1000 Ang^3
#
#
#
# Elastic Constant Matrix: (Units=GPa)
#
#
# Indices 1 2 3 4 5 6 
#
# 1 86.2923 36.2914 40.2520 0.0000 0.0000 0.0000
# 2 36.2914 79.2933 37.9995 0.0000 0.0000 0.0000
# 3 40.2520 37.9995 92.9752 0.0000 0.0000 0.0000
# 4 0.0000 0.0000 0.0000 41.1426 0.0000 0.0000
# 5 0.0000 0.0000 0.0000 0.0000 23.6931 0.0000
# 6 0.0000 0.0000 0.0000 0.0000 0.0000 -34.7476
#
#
#
# Elastic Compliance Matrix: (Units=1/GPa)
#
#
# Indices 1 2 3 4 5 6 
#
# 1 0.015951 -0.004963 -0.004877 0.000000 0.000000 0.000000
# 2 -0.004963 0.017228 -0.004892 0.000000 0.000000 0.000000
# 3 -0.004877 -0.004892 0.014867 0.000000 0.000000 0.000000
# 4 0.000000 0.000000 0.000000 0.024306 0.000000 0.000000
# 5 0.000000 0.000000 0.000000 0.000000 0.042206 0.000000
# 6 0.000000 0.000000 0.000000 0.000000 0.000000 -0.028779
#
#
# Mechanical properties :
#
#
# Convention : Reuss Voigt Hill
#
# Bulk Modulus (GPa) = 53.82228 54.18295 54.00261
# Shear Modulus (GPa) = 41.17381 15.61882 28.39632
#
# Velocity S-wave (km/s) = 4.66090 2.87067 3.87070
# Velocity P-wave (km/s) = 7.57382 6.29090 6.96197
#
# Compressibility (1/GPa) = 0.01857967
#
# Stress axis : x y z
#
# Youngs Moduli (GPa) = 62.69249 58.04673 67.26523
#
# Poissons Ratio (x) = 0.28810 0.32806
# Poissons Ratio (y) = 0.31116 0.32908
# Poissons Ratio (z) = 0.30576 0.28398
#
# Static dielectric constant tensor:
#      x y z
#    x 1.750370 0.000000 0.000000 
#    y 0.000000 1.637890 0.000000 
#    z 0.000000 0.000000 1.703360 
# 
# From -- ./inp_files/8038.got.cif
#   From: 2010.05.17/outbox.cif.g08.bks.cpg/sg59_5_cif.got.tgz:8038.got - 2010.06.03 14:40:33.
