data_PCOD9448327
_publ_section_title
;
Structure prediction by ZEFSAII (Michael W. Deem and Ramdas Pophale) SiO2 
 PCOD9448327
Probable space group: P M M N
;
_chemical_formula_sum "Si O2"
_cell_formula_units_Z 48
_cell_length_a 7.555408
_cell_length_b 24.620214
_cell_length_c 13.015773
_cell_angle_alpha 90.000000
_cell_angle_beta 90.000000
_cell_angle_gamma 90.000000
_cell_volume 2421.138930
_symmetry_space_group_name_H-M "P M M N"
_symmetry_group_IT_number 59
_space_group.IT_coordinate_system_code '2'
_symmetry_cell_setting 'orthorhombic'
loop_
_space_group_symop_operation_xyz
x,y,z
1/2-x,1/2-y,z
1/2+x,-y,-z
-x,1/2+y,-z
-x,-y,-z
1/2+x,1/2+y,-z
1/2-x,y,z
x,1/2-y,z
loop_
_atom_site_type_symbol
_atom_site_label
_atom_site_fract_x
_atom_site_fract_y
_atom_site_fract_z
Si Si1 0.462827 0.998616 0.621615
Si Si2 0.960756 0.115920 0.296196
Si Si3 0.966242 0.311963 0.110086
Si Si4 0.963837 0.811863 0.505297
Si Si5 0.460369 0.115699 0.683856
Si Si6 0.462925 0.811113 0.123823
O O1 0.250000 0.997323 0.632546
O O2 0.532565 0.943243 0.672678
O O3 0.500000 0.000000 0.500000
O O4 0.530262 0.054550 0.671662
O O5 0.750000 0.109886 0.281641
O O6 0.030411 0.144909 0.193592
O O7 0.988472 0.156151 0.391778
O O8 0.750000 0.312629 0.111089
O O9 0.018380 0.250000 0.136802
O O10 0.022274 0.322820 0.992744
O O11 0.750000 0.809971 0.499716
O O12 0.028696 0.750000 0.505770
O O13 0.030350 0.845597 0.406969
O O14 0.250000 0.111855 0.667076
O O15 0.487034 0.144608 0.792430
O O16 0.250000 0.809265 0.121348
O O17 0.525037 0.750000 0.152308
#
# Coordination Sequence:
#
# PCOD9448327 Si02
#       6
#     8   8   8   8   8   8
#     4  10  20  34  52  73  99 134 171 205 244 295
#     4  10  19  32  53  77  98 127 169 211 248 291
#     4   8  15  30  51  74 101 129 158 202 258 300
#     4  10  20  32  47  70 102 135 162 197 251 306
#     4  10  20  34  50  70 101 137 167 200 248 301
#     4   9  18  33  53  75  98 128 167 208 248 294
#
# _framework density 19.825379000000002
#
# number of rings (size 3 to 8) (size 9 to 14) (size 15 to 20)
#    0.000    2.500    1.667    2.000    0.000    3.333 
#    0.000    1.667    0.000    1.000    0.000    0.000 
#    0.000    0.000    0.000    0.000    0.000    0.000 
#
# Total GULP energy -267925.005999 kJ/mol
# GULP energy per Si atom -5581.770958 kJ/mol
# Density = 1.978026 g / cm^3
# Si number density = 19.825379 Si / 1000 Ang^3
#
#
#
# Elastic Constant Matrix: (Units=GPa)
#
#
# Indices 1 2 3 4 5 6 
#
# 1 44.8141 6.2073 -5.5458 0.0000 0.0000 0.0000
# 2 6.2073 221.1036 123.1246 0.0000 0.0000 0.0000
# 3 -5.5458 123.1246 143.6357 0.0000 0.0000 0.0000
# 4 0.0000 0.0000 0.0000 18.7239 0.0000 0.0000
# 5 0.0000 0.0000 0.0000 0.0000 69.0876 0.0000
# 6 0.0000 0.0000 0.0000 0.0000 0.0000 13.2753
#
#
#
# Elastic Compliance Matrix: (Units=1/GPa)
#
#
# Indices 1 2 3 4 5 6 
#
# 1 0.022957 -0.002177 0.002753 0.000000 0.000000 0.000000
# 2 -0.002177 0.008860 -0.007679 0.000000 0.000000 0.000000
# 3 0.002753 -0.007679 0.013651 0.000000 0.000000 0.000000
# 4 0.000000 0.000000 0.000000 0.053408 0.000000 0.000000
# 5 0.000000 0.000000 0.000000 0.000000 0.014474 0.000000
# 6 0.000000 0.000000 0.000000 0.000000 0.000000 0.075328
#
#
# Mechanical properties :
#
#
# Convention : Reuss Voigt Hill
#
# Bulk Modulus (GPa) = 31.98931 73.01396 52.50163
# Shear Modulus (GPa) = 23.44074 39.26854 31.35464
#
# Velocity S-wave (km/s) = 3.44228 4.45536 3.98117
# Velocity P-wave (km/s) = 5.65417 7.96087 6.90453
#
# Compressibility (1/GPa) = 0.03126045
#
# Stress axis : x y z
#
# Youngs Moduli (GPa) = 43.56031 112.86732 73.25662
#
# Poissons Ratio (x) = 0.24577 -0.20167
# Poissons Ratio (y) = 0.09485 0.56253
# Poissons Ratio (z) = -0.11992 0.86669
#
# Static dielectric constant tensor:
#      x y z
#    x 1.759120 0.000000 0.000000 
#    y 0.000000 1.691210 0.000000 
#    z 0.000000 0.000000 1.660730 
# 
# From -- ./inp_files/14341.got.cif
#   From: 2010.05.17/outbox.cif.g08.bks.cpg/sg59_8_cif.got.tgz:14341.got - 2010.06.03 14:40:33.
