data_PCOD9448511
_publ_section_title
;
Structure prediction by ZEFSAII (Michael W. Deem and Ramdas Pophale) SiO2 
 PCOD9448511
Probable space group: P M M N
;
_chemical_formula_sum "Si O2"
_cell_formula_units_Z 64
_cell_length_a 20.726832
_cell_length_b 8.046898
_cell_length_c 20.734375
_cell_angle_alpha 90.000000
_cell_angle_beta 90.000000
_cell_angle_gamma 90.000000
_cell_volume 3458.218044
_symmetry_space_group_name_H-M "P M M N"
_symmetry_group_IT_number 59
_space_group.IT_coordinate_system_code '2'
_symmetry_cell_setting 'orthorhombic'
loop_
_space_group_symop_operation_xyz
x,y,z
1/2-x,1/2-y,z
1/2+x,-y,-z
-x,1/2+y,-z
-x,-y,-z
1/2+x,1/2+y,-z
1/2-x,y,z
x,1/2-y,z
loop_
_atom_site_type_symbol
_atom_site_label
_atom_site_fract_x
_atom_site_fract_y
_atom_site_fract_z
Si Si1 0.543639 0.551919 0.328597
Si Si2 0.676861 0.049466 0.092843
Si Si3 0.322686 0.953629 0.430755
Si Si4 0.397039 0.549287 0.305367
Si Si5 0.823527 0.950945 0.946244
Si Si6 0.580538 0.550715 0.835848
Si Si7 0.568724 0.052110 0.470579
Si Si8 0.934963 0.050518 0.187461
O O1 0.542680 0.750000 0.325839
O O2 0.468903 0.493219 0.326490
O O3 0.573730 0.500406 0.396333
O O4 0.575389 0.488180 0.262781
O O5 0.750000 0.989299 0.106453
O O6 0.678082 0.250000 0.097203
O O7 0.622337 0.987031 0.141951
O O8 0.661060 0.003177 0.019206
O O9 0.250000 0.007960 0.443383
O O10 0.323337 0.750000 0.431346
O O11 0.347144 0.005003 0.359918
O O12 0.373799 0.011984 0.484027
O O13 0.397029 0.750000 0.304128
O O14 0.386993 0.488056 0.232916
O O15 0.750000 0.007219 0.931905
O O16 0.823347 0.750000 0.943851
O O17 0.875799 0.012674 0.894573
O O18 0.576553 0.750000 0.842244
O O19 0.506587 0.486455 0.831997
O O20 0.570972 0.250000 0.473107
O O21 0.500000 0.000000 0.500000
O O22 0.936846 0.250000 0.180744
#
# Coordination Sequence:
#
# PCOD9448511 Si02
#       8
#     8   8   8   8   8   8   8   8
#     4  10  19  33  52  77 102 128 166 208 248 297
#     4   9  18  33  52  72  95 125 166 211 250 295
#     4   9  18  33  51  73 102 133 167 207 249 296
#     4   9  17  31  49  71  97 127 164 202 242 290
#     4   9  18  32  48  67  96 132 165 197 241 299
#     4   9  18  31  47  70  99 130 161 197 243 294
#     4  11  20  33  55  79 101 133 172 210 252 299
#     4   9  18  33  51  73  99 128 161 204 252 296
#
# _framework density 18.506640999999998
#
# number of rings (size 3 to 8) (size 9 to 14) (size 15 to 20)
#    0.000    2.625    1.250    0.750    0.000    2.500 
#    0.000    0.625    0.000    6.750    0.000    0.000 
#    0.000    0.000    0.000    0.000    0.000    0.000 
#
# Total GULP energy -356894.796947 kJ/mol
# GULP energy per Si atom -5576.481202 kJ/mol
# Density = 1.846452 g / cm^3
# Si number density = 18.506641 Si / 1000 Ang^3
#
#
#
# Elastic Constant Matrix: (Units=GPa)
#
#
# Indices 1 2 3 4 5 6 
#
# 1 133.4491 8.8584 117.5923 0.0000 0.0000 0.0000
# 2 8.8584 8.5754 5.1278 0.0000 0.0000 0.0000
# 3 117.5923 5.1278 170.1898 0.0000 0.0000 0.0000
# 4 0.0000 0.0000 0.0000 28.6421 0.0000 0.0000
# 5 0.0000 0.0000 0.0000 0.0000 31.1854 0.0000
# 6 0.0000 0.0000 0.0000 0.0000 0.0000 10.5349
#
#
#
# Elastic Compliance Matrix: (Units=1/GPa)
#
#
# Indices 1 2 3 4 5 6 
#
# 1 0.020473 -0.012923 -0.013757 0.000000 0.000000 0.000000
# 2 -0.012923 0.126909 0.005106 0.000000 0.000000 0.000000
# 3 -0.013757 0.005106 0.015227 0.000000 0.000000 0.000000
# 4 0.000000 0.000000 0.000000 0.034914 0.000000 0.000000
# 5 0.000000 0.000000 0.000000 0.000000 0.032066 0.000000
# 6 0.000000 0.000000 0.000000 0.000000 0.000000 0.094923
#
#
# Mechanical properties :
#
#
# Convention : Reuss Voigt Hill
#
# Bulk Modulus (GPa) = 8.37094 63.93015 36.15054
# Shear Modulus (GPa) = 12.27049 26.11484 19.19267
#
# Velocity S-wave (km/s) = 2.57773 3.76055 3.22385
# Velocity P-wave (km/s) = 3.65960 7.31266 5.78220
#
# Compressibility (1/GPa) = 0.11946089
#
# Stress axis : x y z
#
# Youngs Moduli (GPa) = 48.84367 7.87966 65.67212
#
# Poissons Ratio (x) = 0.10183 0.90343
# Poissons Ratio (y) = 0.63122 -0.33529
# Poissons Ratio (z) = 0.67193 -0.04023
#
# Static dielectric constant tensor:
#      x y z
#    x 1.647640 0.000000 0.000000 
#    y 0.000000 1.659370 0.000000 
#    z 0.000000 0.000000 1.612360 
# 
# From -- ./inp_files/26202.got.cif
#   From: 2010.05.17/outbox.cif.g08.bks.cpg/sg59_14_cif.got.tgz:26202.got - 2010.06.03 14:40:33.
