data_PCOD9448057
_publ_section_title
;
Structure prediction by ZEFSAII (Michael W. Deem and Ramdas Pophale) SiO2 
 PCOD9448057
Probable space group: P M M N
;
_chemical_formula_sum "Si O2"
_cell_formula_units_Z 64
_cell_length_a 15.334583
_cell_length_b 17.045141
_cell_length_c 10.716482
_cell_angle_alpha 90.000000
_cell_angle_beta 90.000000
_cell_angle_gamma 90.000000
_cell_volume 2801.075452
_symmetry_space_group_name_H-M "P M M N"
_symmetry_group_IT_number 59
_space_group.IT_coordinate_system_code '2'
_symmetry_cell_setting 'orthorhombic'
loop_
_space_group_symop_operation_xyz
x,y,z
1/2-x,1/2-y,z
1/2+x,-y,-z
-x,1/2+y,-z
-x,-y,-z
1/2+x,1/2+y,-z
1/2-x,y,z
x,1/2-y,z
loop_
_atom_site_type_symbol
_atom_site_label
_atom_site_fract_x
_atom_site_fract_y
_atom_site_fract_z
Si Si1 0.851884 0.665831 0.315067
Si Si2 0.652927 0.546863 0.990243
Si Si3 0.152606 0.503370 0.293056
Si Si4 0.602138 0.665227 0.600194
Si Si5 0.144178 0.839343 0.206642
Si Si6 0.418179 0.834373 0.693842
Si Si7 0.150419 0.997736 0.744957
Si Si8 0.009846 0.837384 0.978626
O O1 0.750000 0.667428 0.276095
O O2 0.891062 0.750000 0.274413
O O3 0.856410 0.664395 0.464489
O O4 0.893266 0.582838 0.275500
O O5 0.750000 0.584785 0.004300
O O6 0.645291 0.487439 0.105770
O O7 0.569644 0.602839 0.994212
O O8 0.653423 0.506601 0.856630
O O9 0.250000 0.506753 0.345523
O O10 0.117958 0.419533 0.338460
O O11 0.115701 0.591609 0.302698
O O12 0.630467 0.750000 0.661002
O O13 0.498281 0.669747 0.599211
O O14 0.250000 0.848065 0.184606
O O15 0.131292 0.750000 0.252339
O O16 0.087120 0.847077 0.079917
O O17 0.369755 0.750000 0.686363
O O18 0.376782 0.919273 0.676325
O O19 0.456271 0.839158 0.835670
O O20 0.250000 0.009830 0.708304
O O21 0.973917 0.750000 0.997190
#
# Coordination Sequence:
#
# PCOD9448057 Si02
#       8
#     8   8   8   8   8   8   8   8
#     4   9  19  38  61  81 106 142 183 227 274 335
#     4  10  21  34  51  82 118 148 183 230 282 340
#     4  10  19  31  53  82 110 144 178 219 281 331
#     4  10  20  35  56  84 112 139 178 227 280 335
#     4   9  19  34  51  74 107 149 197 236 264 318
#     4  10  21  35  54  82 112 145 186 231 280 330
#     4  10  22  38  57  81 109 148 191 228 277 333
#     4  10  20  34  53  79 113 156 192 223 278 339
#
# _framework density 22.848367
#
# number of rings (size 3 to 8) (size 9 to 14) (size 15 to 20)
#    0.000    2.250    1.250    1.125    1.750    4.750 
#    0.000    3.750    0.000    0.750    0.000    1.750 
#    0.000    0.000    0.000    0.000    0.000    0.000 
#
# Total GULP energy -356410.968498 kJ/mol
# GULP energy per Si atom -5568.921383 kJ/mol
# Density = 2.279636 g / cm^3
# Si number density = 22.848367 Si / 1000 Ang^3
#
#
#
# Elastic Constant Matrix: (Units=GPa)
#
#
# Indices 1 2 3 4 5 6 
#
# 1 42.3863 31.6860 -9.0254 0.0000 0.0000 0.0000
# 2 31.6860 210.2457 17.2886 0.0000 0.0000 0.0000
# 3 -9.0254 17.2886 24.5706 0.0000 0.0000 0.0000
# 4 0.0000 0.0000 0.0000 11.0313 0.0000 0.0000
# 5 0.0000 0.0000 0.0000 0.0000 11.0704 0.0000
# 6 0.0000 0.0000 0.0000 0.0000 0.0000 16.9224
#
#
#
# Elastic Compliance Matrix: (Units=1/GPa)
#
#
# Indices 1 2 3 4 5 6 
#
# 1 0.031479 -0.006045 0.015816 0.000000 0.000000 0.000000
# 2 -0.006045 0.006209 -0.006589 0.000000 0.000000 0.000000
# 3 0.015816 -0.006589 0.051145 0.000000 0.000000 0.000000
# 4 0.000000 0.000000 0.000000 0.090652 0.000000 0.000000
# 5 0.000000 0.000000 0.000000 0.000000 0.090331 0.000000
# 6 0.000000 0.000000 0.000000 0.000000 0.000000 0.059093
#
#
# Mechanical properties :
#
#
# Convention : Reuss Voigt Hill
#
# Bulk Modulus (GPa) = 10.50440 39.67790 25.09115
# Shear Modulus (GPa) = 14.11322 23.62170 18.86746
#
# Velocity S-wave (km/s) = 2.48803 3.21884 2.87674
# Velocity P-wave (km/s) = 3.58625 5.58731 4.69463
#
# Compressibility (1/GPa) = 0.09519823
#
# Stress axis : x y z
#
# Youngs Moduli (GPa) = 31.76701 161.05134 19.55213
#
# Poissons Ratio (x) = 0.97353 -0.30925
# Poissons Ratio (y) = 0.19203 0.12884
# Poissons Ratio (z) = -0.50244 1.06123
#
# Static dielectric constant tensor:
#      x y z
#    x 1.873930 0.000000 0.000000 
#    y 0.000000 2.022470 0.000000 
#    z 0.000000 0.000000 1.836850 
# 
# From -- ./inp_files/17820.got.cif
#   From: 2010.05.17/outbox.cif.g08.bks.cpg/sg59_9_cif.got.tgz:17820.got - 2010.06.03 14:40:33.
