data_PCOD9448666
_publ_section_title
;
Structure prediction by ZEFSAII (Michael W. Deem and Ramdas Pophale) SiO2 
 PCOD9448666
Probable space group: P M M N
;
_chemical_formula_sum "Si O2"
_cell_formula_units_Z 40
_cell_length_a 19.035636
_cell_length_b 12.710633
_cell_length_c 10.013154
_cell_angle_alpha 90.000000
_cell_angle_beta 90.000000
_cell_angle_gamma 90.000000
_cell_volume 2422.732507
_symmetry_space_group_name_H-M "P M M N"
_symmetry_group_IT_number 59
_space_group.IT_coordinate_system_code '2'
_symmetry_cell_setting 'orthorhombic'
loop_
_space_group_symop_operation_xyz
x,y,z
1/2-x,1/2-y,z
1/2+x,-y,-z
-x,1/2+y,-z
-x,-y,-z
1/2+x,1/2+y,-z
1/2-x,y,z
x,1/2-y,z
loop_
_atom_site_type_symbol
_atom_site_label
_atom_site_fract_x
_atom_site_fract_y
_atom_site_fract_z
Si Si1 0.435518 0.123810 0.112749
Si Si2 0.668701 0.625292 0.643081
Si Si3 0.408387 0.960095 0.882209
Si Si4 0.830263 0.250000 0.415820
Si Si5 0.669755 0.250000 0.090682
Si Si6 0.664819 0.476770 0.398787
O O1 0.437218 0.250000 0.089932
O O2 0.382378 0.101800 0.234052
O O3 0.513291 0.082063 0.147346
O O4 0.412105 0.057308 0.983600
O O5 0.750000 0.598362 0.675549
O O6 0.665415 0.750000 0.618642
O O7 0.649165 0.563688 0.508840
O O8 0.368522 0.858720 0.945335
O O9 0.369800 0.992059 0.745386
O O10 0.750000 0.250000 0.464633
O O11 0.829874 0.250000 0.253613
O O12 0.861011 0.137344 0.452642
O O13 0.750000 0.250000 0.044791
O O14 0.750000 0.471163 0.381303
#
# Coordination Sequence:
#
# PCOD9448666 Si02
#       6
#     8   8   8   4   4   8
#     4  10  21  36  52  73 107 144 176 214 262 317
#     4   9  19  35  52  71 101 138 172 210 259 312
#     4  10  19  33  55  77 104 138 178 219 261 310
#     4   7  12  24  45  71  97 122 152 200 254 294
#     4   9  16  30  53  81 104 128 170 220 265 304
#     4   9  17  31  53  78 101 128 170 217 258 305
#
# _framework density 16.510283000000001
#
# number of rings (size 3 to 8) (size 9 to 14) (size 15 to 20)
#    0.000    2.800    1.000    1.800    0.000    3.200 
#    0.000    1.000    0.000    1.200    0.000    0.000 
#    0.000    0.000    0.000    0.000    0.000    0.000 
#
# Total GULP energy -222719.815537 kJ/mol
# GULP energy per Si atom -5567.995388 kJ/mol
# Density = 1.647270 g / cm^3
# Si number density = 16.510283 Si / 1000 Ang^3
#
#
#
# Elastic Constant Matrix: (Units=GPa)
#
#
# Indices 1 2 3 4 5 6 
#
# 1 80.4566 53.8918 61.0606 0.0000 0.0000 0.0000
# 2 53.8918 84.5966 73.1140 0.0000 0.0000 0.0000
# 3 61.0606 73.1140 94.0588 0.0000 0.0000 0.0000
# 4 0.0000 0.0000 0.0000 24.0834 0.0000 0.0000
# 5 0.0000 0.0000 0.0000 0.0000 25.6206 0.0000
# 6 0.0000 0.0000 0.0000 0.0000 0.0000 20.2236
#
#
#
# Elastic Compliance Matrix: (Units=1/GPa)
#
#
# Indices 1 2 3 4 5 6 
#
# 1 0.025426 -0.005887 -0.011930 0.000000 0.000000 0.000000
# 2 -0.005887 0.037382 -0.025236 0.000000 0.000000 0.000000
# 3 -0.011930 -0.025236 0.037993 0.000000 0.000000 0.000000
# 4 0.000000 0.000000 0.000000 0.041522 0.000000 0.000000
# 5 0.000000 0.000000 0.000000 0.000000 0.039031 0.000000
# 6 0.000000 0.000000 0.000000 0.000000 0.000000 0.049447
#
#
# Mechanical properties :
#
#
# Convention : Reuss Voigt Hill
#
# Bulk Modulus (GPa) = 68.05097 70.58277 69.31687
# Shear Modulus (GPa) = 15.53734 18.72189 17.12961
#
# Velocity S-wave (km/s) = 3.07102 3.37108 3.22454
# Velocity P-wave (km/s) = 7.34041 7.61550 7.47922
#
# Compressibility (1/GPa) = 0.01469487
#
# Stress axis : x y z
#
# Youngs Moduli (GPa) = 39.32931 26.75114 26.32080
#
# Poissons Ratio (x) = 0.15748 0.31401
# Poissons Ratio (y) = 0.23153 0.66423
# Poissons Ratio (z) = 0.46920 0.67509
#
# Static dielectric constant tensor:
#      x y z
#    x 1.567040 0.000000 0.000000 
#    y 0.000000 1.579060 0.000000 
#    z 0.000000 0.000000 1.514240 
# 
# From -- ./inp_files/11143.got.cif
#   From: 2010.05.17/outbox.cif.g08.bks.cpg/sg59_6_cif.got.tgz:11143.got - 2010.06.03 14:40:33.
