data_PCOD9448723
_publ_section_title
;
Structure prediction by ZEFSAII (Michael W. Deem and Ramdas Pophale) SiO2 
 PCOD9448723
Probable space group: P M M N
;
_chemical_formula_sum "Si O2"
_cell_formula_units_Z 64
_cell_length_a 8.016557
_cell_length_b 19.983534
_cell_length_c 19.411967
_cell_angle_alpha 90.000000
_cell_angle_beta 90.000000
_cell_angle_gamma 90.000000
_cell_volume 3109.780407
_symmetry_space_group_name_H-M "P M M N"
_symmetry_group_IT_number 59
_space_group.IT_coordinate_system_code '2'
_symmetry_cell_setting 'orthorhombic'
loop_
_space_group_symop_operation_xyz
x,y,z
1/2-x,1/2-y,z
1/2+x,-y,-z
-x,1/2+y,-z
-x,-y,-z
1/2+x,1/2+y,-z
1/2-x,y,z
x,1/2-y,z
loop_
_atom_site_type_symbol
_atom_site_label
_atom_site_fract_x
_atom_site_fract_y
_atom_site_fract_z
Si Si1 0.050920 0.116736 0.817933
Si Si2 0.447566 0.324057 0.960511
Si Si3 0.549171 0.172853 0.460732
Si Si4 0.547367 0.566452 0.644192
Si Si5 0.556882 0.529664 0.795927
Si Si6 0.948497 0.677146 0.323237
Si Si7 0.943160 0.430685 0.574969
Si Si8 0.555864 0.060244 0.050571
O O1 0.250000 0.101156 0.823345
O O2 0.985572 0.141044 0.891386
O O3 0.032191 0.171586 0.758714
O O4 0.960842 0.050185 0.793339
O O5 0.250000 0.318206 0.948124
O O6 0.517204 0.250000 0.970301
O O7 0.470873 0.372408 0.024482
O O8 0.750000 0.175594 0.469152
O O9 0.488455 0.250000 0.466734
O O10 0.507268 0.136302 0.389083
O O11 0.481572 0.118648 0.516729
O O12 0.750000 0.562517 0.644821
O O13 0.489143 0.557324 0.723200
O O14 0.486252 0.503290 0.596817
O O15 0.750000 0.549286 0.800425
O O16 0.475698 0.548232 0.868903
O O17 0.750000 0.670104 0.337480
O O18 0.004500 0.750000 0.348590
O O19 0.043451 0.616531 0.358371
O O20 0.750000 0.442276 0.556203
O O21 0.750000 0.067842 0.039108
O O22 0.500000 0.000000 0.000000
#
# Coordination Sequence:
#
# PCOD9448723 Si02
#       8
#     8   8   8   8   8   8   8   8
#     4  10  19  33  55  82 117 157 193 233 286 346
#     4  10  21  38  60  87 120 157 196 241 295 352
#     4  10  22  39  60  86 116 153 196 241 294 353
#     4  10  22  39  61  88 117 150 193 243 293 348
#     4  11  22  38  60  88 118 150 196 246 294 350
#     4  10  20  32  49  80 120 159 197 233 277 341
#     4  10  20  37  58  84 117 152 192 238 291 346
#     4  12  24  39  61  88 119 156 199 244 292 346
#
# _framework density 20.580231999999999
#
# number of rings (size 3 to 8) (size 9 to 14) (size 15 to 20)
#    0.000    1.625    2.500    2.625    0.000    4.750 
#    0.000    0.625    0.000    3.000    0.000    0.000 
#    0.000    0.000    0.000    0.000    0.000    0.000 
#
# Total GULP energy -357188.317118 kJ/mol
# GULP energy per Si atom -5581.067455 kJ/mol
# Density = 2.053339 g / cm^3
# Si number density = 20.580232 Si / 1000 Ang^3
#
#
#
# Elastic Constant Matrix: (Units=GPa)
#
#
# Indices 1 2 3 4 5 6 
#
# 1 14.0108 -8.7518 -3.4241 0.0000 0.0000 0.0000
# 2 -8.7518 81.5114 53.2474 0.0000 0.0000 0.0000
# 3 -3.4241 53.2474 112.7691 0.0000 0.0000 0.0000
# 4 0.0000 0.0000 0.0000 13.7768 0.0000 0.0000
# 5 0.0000 0.0000 0.0000 0.0000 17.6097 0.0000
# 6 0.0000 0.0000 0.0000 0.0000 0.0000 11.4141
#
#
#
# Elastic Compliance Matrix: (Units=1/GPa)
#
#
# Indices 1 2 3 4 5 6 
#
# 1 0.076901 0.009734 -0.002261 0.000000 0.000000 0.000000
# 2 0.009734 0.018972 -0.008663 0.000000 0.000000 0.000000
# 3 -0.002261 -0.008663 0.012889 0.000000 0.000000 0.000000
# 4 0.000000 0.000000 0.000000 0.072586 0.000000 0.000000
# 5 0.000000 0.000000 0.000000 0.000000 0.056787 0.000000
# 6 0.000000 0.000000 0.000000 0.000000 0.000000 0.087611
#
#
# Mechanical properties :
#
#
# Convention : Reuss Voigt Hill
#
# Bulk Modulus (GPa) = 9.40001 32.27048 20.83524
# Shear Modulus (GPa) = 13.75184 19.70810 16.72997
#
# Velocity S-wave (km/s) = 2.58777 3.09791 2.85426
# Velocity P-wave (km/s) = 3.67507 5.33951 4.58348
#
# Compressibility (1/GPa) = 0.10638291
#
# Stress axis : x y z
#
# Youngs Moduli (GPa) = 13.00370 52.70827 77.58283
#
# Poissons Ratio (x) = -0.51306 0.17543
# Poissons Ratio (y) = -0.12658 0.67209
# Poissons Ratio (z) = 0.02940 0.45660
#
# Static dielectric constant tensor:
#      x y z
#    x 1.743590 0.000000 0.000000 
#    y 0.000000 1.715900 0.000000 
#    z 0.000000 0.000000 1.755470 
# 
# From -- ./inp_files/26256.got.cif
#   From: 2010.05.17/outbox.cif.g08.bks.cpg/sg59_14_cif.got.tgz:26256.got - 2010.06.03 14:40:33.
