data_PCOD9448117
_publ_section_title
;
Structure prediction by ZEFSAII (Michael W. Deem and Ramdas Pophale) SiO2 
 PCOD9448117
Probable space group: P M M N
;
_chemical_formula_sum "Si O2"
_cell_formula_units_Z 64
_cell_length_a 32.582160
_cell_length_b 7.600722
_cell_length_c 12.505166
_cell_angle_alpha 90.000000
_cell_angle_beta 90.000000
_cell_angle_gamma 90.000000
_cell_volume 3096.878603
_symmetry_space_group_name_H-M "P M M N"
_symmetry_group_IT_number 59
_space_group.IT_coordinate_system_code '2'
_symmetry_cell_setting 'orthorhombic'
loop_
_space_group_symop_operation_xyz
x,y,z
1/2-x,1/2-y,z
1/2+x,-y,-z
-x,1/2+y,-z
-x,-y,-z
1/2+x,1/2+y,-z
1/2-x,y,z
x,1/2-y,z
loop_
_atom_site_type_symbol
_atom_site_label
_atom_site_fract_x
_atom_site_fract_y
_atom_site_fract_z
Si Si1 0.451319 0.461197 0.990673
Si Si2 0.059869 0.036844 0.751792
Si Si3 0.203471 0.041931 0.003543
Si Si4 0.608549 0.462292 0.629895
Si Si5 0.703519 0.036855 0.241740
Si Si6 0.135583 0.958057 0.598411
Si Si7 0.875421 0.539422 0.869428
Si Si8 0.516168 0.460800 0.618368
O O1 0.449068 0.250000 0.991771
O O2 0.435631 0.522637 0.873916
O O3 0.500000 0.500000 0.000000
O O4 0.418889 0.526622 0.080316
O O5 0.060280 0.250000 0.752062
O O6 0.016329 0.974307 0.705152
O O7 0.094644 0.979004 0.669104
O O8 0.250000 0.969774 0.020524
O O9 0.205880 0.250000 0.026809
O O10 0.193306 0.021313 0.878259
O O11 0.165148 0.969215 0.070575
O O12 0.606867 0.250000 0.621118
O O13 0.629515 0.529215 0.521102
O O14 0.627807 0.504946 0.743648
O O15 0.561841 0.530402 0.631820
O O16 0.750000 0.981870 0.264483
O O17 0.702178 0.250000 0.241185
O O18 0.672233 0.968125 0.330002
O O19 0.143395 0.750000 0.586822
O O20 0.875802 0.750000 0.885180
O O21 0.500000 0.500000 0.500000
O O22 0.517822 0.250000 0.629750
#
# Coordination Sequence:
#
# PCOD9448117 Si02
#       8
#     8   8   8   8   8   8   8   8
#     4  10  21  36  52  74 105 138 173 213 258 309
#     4  10  20  33  52  76 101 131 168 213 259 302
#     4   9  18  35  59  83 106 134 170 214 265 318
#     4  10  21  36  52  73 104 140 177 216 254 303
#     4   9  18  33  54  80 107 132 162 205 257 312
#     4  10  20  34  52  75 102 133 169 209 254 302
#     4  10  21  36  54  77 105 139 177 218 263 311
#     4  10  19  32  50  72 100 134 171 211 253 299
#
# _framework density 20.665970000000002
#
# number of rings (size 3 to 8) (size 9 to 14) (size 15 to 20)
#    0.000    2.250    1.250    1.500    0.000    5.000 
#    0.000    0.625    0.000    0.750    0.000    0.000 
#    0.000    0.000    0.000    0.000    0.000    0.000 
#
# Total GULP energy -357254.680197 kJ/mol
# GULP energy per Si atom -5582.104378 kJ/mol
# Density = 2.061893 g / cm^3
# Si number density = 20.665970 Si / 1000 Ang^3
#
#
#
# Elastic Constant Matrix: (Units=GPa)
#
#
# Indices 1 2 3 4 5 6 
#
# 1 146.1985 1.5852 101.8316 0.0000 0.0000 0.0000
# 2 1.5852 41.0076 -3.9579 0.0000 0.0000 0.0000
# 3 101.8316 -3.9579 159.4755 0.0000 0.0000 0.0000
# 4 0.0000 0.0000 0.0000 24.9272 0.0000 0.0000
# 5 0.0000 0.0000 0.0000 0.0000 38.6688 0.0000
# 6 0.0000 0.0000 0.0000 0.0000 0.0000 12.1390
#
#
#
# Elastic Compliance Matrix: (Units=1/GPa)
#
#
# Indices 1 2 3 4 5 6 
#
# 1 0.012382 -0.001245 -0.007937 0.000000 0.000000 0.000000
# 2 -0.001245 0.024569 0.001405 0.000000 0.000000 0.000000
# 3 -0.007937 0.001405 0.011374 0.000000 0.000000 0.000000
# 4 0.000000 0.000000 0.000000 0.040117 0.000000 0.000000
# 5 0.000000 0.000000 0.000000 0.000000 0.025861 0.000000
# 6 0.000000 0.000000 0.000000 0.000000 0.000000 0.082379
#
#
# Mechanical properties :
#
#
# Convention : Reuss Voigt Hill
#
# Bulk Modulus (GPa) = 30.51550 60.62216 45.56883
# Shear Modulus (GPa) = 22.40545 31.62854 27.01699
#
# Velocity S-wave (km/s) = 3.29625 3.91636 3.61961
# Velocity P-wave (km/s) = 5.41157 7.06034 6.29021
#
# Compressibility (1/GPa) = 0.03277023
#
# Stress axis : x y z
#
# Youngs Moduli (GPa) = 80.76150 40.70099 87.92165
#
# Poissons Ratio (x) = 0.05066 0.69787
# Poissons Ratio (y) = 0.10053 -0.12349
# Poissons Ratio (z) = 0.64104 -0.05717
#
# Static dielectric constant tensor:
#      x y z
#    x 1.748790 0.000000 0.000000 
#    y 0.000000 1.778700 0.000000 
#    z 0.000000 0.000000 1.707730 
# 
# From -- ./inp_files/19284.got.cif
#   From: 2010.05.17/outbox.cif.g08.bks.cpg/sg59_10_cif.got.tgz:19284.got - 2010.06.03 14:40:33.
