data_PCOD9448567
_publ_section_title
;
Structure prediction by ZEFSAII (Michael W. Deem and Ramdas Pophale) SiO2 
 PCOD9448567
Probable space group: P M M N
;
_chemical_formula_sum "Si O2"
_cell_formula_units_Z 32
_cell_length_a 9.063565
_cell_length_b 17.491439
_cell_length_c 11.922413
_cell_angle_alpha 90.000000
_cell_angle_beta 90.000000
_cell_angle_gamma 90.000000
_cell_volume 1890.117293
_symmetry_space_group_name_H-M "P M M N"
_symmetry_group_IT_number 59
_space_group.IT_coordinate_system_code '2'
_symmetry_cell_setting 'orthorhombic'
loop_
_space_group_symop_operation_xyz
x,y,z
1/2-x,1/2-y,z
1/2+x,-y,-z
-x,1/2+y,-z
-x,-y,-z
1/2+x,1/2+y,-z
1/2-x,y,z
x,1/2-y,z
loop_
_atom_site_type_symbol
_atom_site_label
_atom_site_fract_x
_atom_site_fract_y
_atom_site_fract_z
Si Si1 0.426668 0.750000 0.269008
Si Si2 0.925238 0.566844 0.652543
Si Si3 0.074215 0.250000 0.972288
Si Si4 0.578028 0.335815 0.159312
Si Si5 0.425577 0.895379 0.422573
O O1 0.250000 0.750000 0.246572
O O2 0.512892 0.750000 0.152635
O O3 0.461339 0.824780 0.342530
O O4 0.750000 0.577706 0.661307
O O5 0.955740 0.476446 0.637655
O O6 0.004875 0.603641 0.758970
O O7 0.986541 0.605196 0.538920
O O8 0.250000 0.250000 0.976289
O O9 0.008231 0.178151 0.042781
O O10 0.750000 0.352275 0.139103
O O11 0.569594 0.250000 0.212847
O O12 0.250000 0.892882 0.447681
#
# Coordination Sequence:
#
# PCOD9448567 Si02
#       5
#     4   8   4   8   8
#     4  10  20  37  56  73 102 143 181 209 255 318
#     4  10  19  33  53  81 111 136 174 222 265 304
#     4  10  20  35  54  79 106 131 173 225 265 304
#     4   9  19  34  55  77 102 138 175 211 259 314
#     4   9  20  35  53  77 109 146 176 212 261 319
#
# _framework density 16.930167000000001
#
# number of rings (size 3 to 8) (size 9 to 14) (size 15 to 20)
#    0.750    1.750    0.000    2.250    1.750    2.000 
#    0.000    1.250    0.000    0.000    0.000    0.000 
#    0.000    0.000    0.000    0.000    0.000    0.000 
#
# Total GULP energy -178307.016202 kJ/mol
# GULP energy per Si atom -5572.094256 kJ/mol
# Density = 1.689163 g / cm^3
# Si number density = 16.930167 Si / 1000 Ang^3
#
#
#
# Elastic Constant Matrix: (Units=GPa)
#
#
# Indices 1 2 3 4 5 6 
#
# 1 100.7656 60.3546 80.4614 0.0000 0.0000 0.0000
# 2 60.3546 72.7466 75.5835 0.0000 0.0000 0.0000
# 3 80.4614 75.5835 124.8935 0.0000 0.0000 0.0000
# 4 0.0000 0.0000 0.0000 -34.5927 0.0000 0.0000
# 5 0.0000 0.0000 0.0000 0.0000 34.2789 0.0000
# 6 0.0000 0.0000 0.0000 0.0000 0.0000 24.4556
#
#
#
# Elastic Compliance Matrix: (Units=1/GPa)
#
#
# Indices 1 2 3 4 5 6 
#
# 1 0.022782 -0.009837 -0.008724 0.000000 0.000000 0.000000
# 2 -0.009837 0.041278 -0.018643 0.000000 0.000000 0.000000
# 3 -0.008724 -0.018643 0.024910 0.000000 0.000000 0.000000
# 4 0.000000 0.000000 0.000000 -0.028908 0.000000 0.000000
# 5 0.000000 0.000000 0.000000 0.000000 0.029172 0.000000
# 6 0.000000 0.000000 0.000000 0.000000 0.000000 0.040890
#
#
# Mechanical properties :
#
#
# Convention : Reuss Voigt Hill
#
# Bulk Modulus (GPa) = 68.67565 81.24496 74.96030
# Shear Modulus (GPa) = 23.87915 10.29544 17.08730
#
# Velocity S-wave (km/s) = 3.75967 2.46867 3.18036
# Velocity P-wave (km/s) = 7.71356 7.49788 7.60648
#
# Compressibility (1/GPa) = 0.01456120
#
# Stress axis : x y z
#
# Youngs Moduli (GPa) = 43.89409 24.22581 40.14509
#
# Poissons Ratio (x) = 0.23832 0.35022
# Poissons Ratio (y) = 0.43180 0.74844
# Poissons Ratio (z) = 0.38292 0.45165
#
# Static dielectric constant tensor:
#      x y z
#    x 1.562180 0.000000 0.000000 
#    y 0.000000 1.572030 0.000000 
#    z 0.000000 0.000000 1.536440 
# 
# From -- ./inp_files/13763.got.cif
#   From: 2010.05.17/outbox.cif.g08.bks.cpg/sg59_7_cif.got.tgz:13763.got - 2010.06.03 14:40:33.
