data_PCOD9448008
_publ_section_title
;
Structure prediction by ZEFSAII (Michael W. Deem and Ramdas Pophale) SiO2 
 PCOD9448008
Probable space group: P M M N
;
_chemical_formula_sum "Si O2"
_cell_formula_units_Z 48
_cell_length_a 9.228686
_cell_length_b 7.709523
_cell_length_c 35.720729
_cell_angle_alpha 90.000000
_cell_angle_beta 90.000000
_cell_angle_gamma 90.000000
_cell_volume 2541.485824
_symmetry_space_group_name_H-M "P M M N"
_symmetry_group_IT_number 59
_space_group.IT_coordinate_system_code '2'
_symmetry_cell_setting 'orthorhombic'
loop_
_space_group_symop_operation_xyz
x,y,z
1/2-x,1/2-y,z
1/2+x,-y,-z
-x,1/2+y,-z
-x,-y,-z
1/2+x,1/2+y,-z
1/2-x,y,z
x,1/2-y,z
loop_
_atom_site_type_symbol
_atom_site_label
_atom_site_fract_x
_atom_site_fract_y
_atom_site_fract_z
Si Si1 0.075997 0.449850 0.038796
Si Si2 0.423899 0.453982 0.238254
Si Si3 0.926334 0.250000 0.904594
Si Si4 0.414616 0.041136 0.537793
Si Si5 0.426095 0.750000 0.180710
Si Si6 0.914041 0.042013 0.610516
Si Si7 0.585164 0.041222 0.314060
O O1 0.250000 0.466744 0.034111
O O2 0.043978 0.250000 0.047926
O O3 0.030500 0.581349 0.071511
O O4 0.000000 0.500000 0.000000
O O5 0.250000 0.468553 0.243471
O O6 0.455829 0.250000 0.231305
O O7 0.467407 0.579263 0.204270
O O8 0.502769 0.512380 0.276280
O O9 0.750000 0.250000 0.903220
O O10 0.979051 0.250000 0.861944
O O11 0.250000 0.975175 0.536346
O O12 0.407799 0.250000 0.540783
O O13 0.498952 0.975064 0.574419
O O14 0.500000 0.000000 0.500000
O O15 0.250000 0.750000 0.179290
O O16 0.750000 0.973705 0.611893
O O17 0.905374 0.250000 0.606472
O O18 0.998330 0.007180 0.648791
O O19 0.750000 0.975472 0.315342
O O20 0.590134 0.250000 0.312878
#
# Coordination Sequence:
#
# PCOD9448008 Si02
#       7
#     8   8   4   8   4   8   8
#     4  10  19  31  51  77 106 143 184 227 279 333
#     4   9  18  33  53  77 105 137 176 224 271 321
#     4   9  18  32  49  77 111 139 179 235 279 327
#     4  10  21  37  56  78 105 139 178 217 261 316
#     4   9  18  32  53  79 107 141 183 225 275 333
#     4  10  21  36  55  79 106 135 171 217 264 313
#     4  10  21  36  54  78 107 138 172 213 262 316
#
# _framework density 18.886590000000002
#
# number of rings (size 3 to 8) (size 9 to 14) (size 15 to 20)
#    0.000    2.333    0.833    1.500    1.167    4.333 
#    0.000    3.333    0.000    2.000    0.000    2.333 
#    0.000    0.000    0.000    0.000    0.000    0.000 
#
# Total GULP energy -267924.557429 kJ/mol
# GULP energy per Si atom -5581.761613 kJ/mol
# Density = 1.884360 g / cm^3
# Si number density = 18.886590 Si / 1000 Ang^3
#
#
#
# Elastic Constant Matrix: (Units=GPa)
#
#
# Indices 1 2 3 4 5 6 
#
# 1 94.3339 40.3116 80.1748 0.0000 0.0000 0.0000
# 2 40.3116 86.3896 69.6452 0.0000 0.0000 0.0000
# 3 80.1748 69.6452 218.1143 0.0000 0.0000 0.0000
# 4 0.0000 0.0000 0.0000 31.0532 0.0000 0.0000
# 5 0.0000 0.0000 0.0000 0.0000 27.5193 0.0000
# 6 0.0000 0.0000 0.0000 0.0000 0.0000 16.6219
#
#
#
# Elastic Compliance Matrix: (Units=1/GPa)
#
#
# Indices 1 2 3 4 5 6 
#
# 1 0.016263 -0.003729 -0.004787 0.000000 0.000000 0.000000
# 2 -0.003729 0.016443 -0.003880 0.000000 0.000000 0.000000
# 3 -0.004787 -0.003880 0.007583 0.000000 0.000000 0.000000
# 4 0.000000 0.000000 0.000000 0.032203 0.000000 0.000000
# 5 0.000000 0.000000 0.000000 0.000000 0.036338 0.000000
# 6 0.000000 0.000000 0.000000 0.000000 0.000000 0.060162
#
#
# Mechanical properties :
#
#
# Convention : Reuss Voigt Hill
#
# Bulk Modulus (GPa) = 64.52792 86.56678 75.54735
# Shear Modulus (GPa) = 25.13195 28.95264 27.04229
#
# Velocity S-wave (km/s) = 3.65180 3.91957 3.78805
# Velocity P-wave (km/s) = 7.21256 8.14976 7.69544
#
# Compressibility (1/GPa) = 0.01549717
#
# Stress axis : x y z
#
# Youngs Moduli (GPa) = 61.48954 60.81488 131.87069
#
# Poissons Ratio (x) = 0.22681 0.63128
# Poissons Ratio (y) = 0.22932 0.51160
# Poissons Ratio (z) = 0.29436 0.23594
#
# Static dielectric constant tensor:
#      x y z
#    x 1.653570 0.000000 0.000000 
#    y 0.000000 1.681780 0.000000 
#    z 0.000000 0.000000 1.612800 
# 
# From -- ./inp_files/33033.got.cif
#   From: 2010.05.17/outbox.cif.g08.bks.cpg/sg59_17_cif.got.tgz:33033.got - 2010.06.03 14:40:33.
