data_PCOD9448675
_publ_section_title
;
Structure prediction by ZEFSAII (Michael W. Deem and Ramdas Pophale) SiO2 
 PCOD9448675
Probable space group: P M M N
;
_chemical_formula_sum "Si O2"
_cell_formula_units_Z 32
_cell_length_a 5.363146
_cell_length_b 13.695818
_cell_length_c 20.801247
_cell_angle_alpha 90.000000
_cell_angle_beta 90.000000
_cell_angle_gamma 90.000000
_cell_volume 1527.907163
_symmetry_space_group_name_H-M "P M M N"
_symmetry_group_IT_number 59
_space_group.IT_coordinate_system_code '2'
_symmetry_cell_setting 'orthorhombic'
loop_
_space_group_symop_operation_xyz
x,y,z
1/2-x,1/2-y,z
1/2+x,-y,-z
-x,1/2+y,-z
-x,-y,-z
1/2+x,1/2+y,-z
1/2-x,y,z
x,1/2-y,z
loop_
_atom_site_type_symbol
_atom_site_label
_atom_site_fract_x
_atom_site_fract_y
_atom_site_fract_z
Si Si1 0.250000 0.061781 0.718701
Si Si2 0.750000 0.641963 0.847255
Si Si3 0.750000 0.571581 0.430807
Si Si4 0.750000 0.364002 0.495437
Si Si5 0.250000 0.382968 0.003817
Si Si6 0.250000 0.599238 0.058297
Si Si7 0.750000 0.367352 0.792084
Si Si8 0.250000 0.867992 0.780105
O O1 0.250000 0.092533 0.644735
O O2 0.499728 0.099787 0.754440
O O3 0.250000 0.942809 0.721278
O O4 0.750000 0.750000 0.818222
O O5 0.490713 0.602024 0.821908
O O6 0.750000 0.651108 0.923131
O O7 0.750000 0.453874 0.444249
O O8 0.501022 0.616163 0.463174
O O9 0.750000 0.250000 0.473439
O O10 0.494123 0.354085 0.965026
O O11 0.250000 0.498804 0.017741
O O12 0.250000 0.590050 0.135074
O O13 0.750000 0.250000 0.798030
O O14 0.250000 0.750000 0.768067
#
# Coordination Sequence:
#
# PCOD9448675 Si02
#       8
#     4   4   4   4   4   4   4   4
#     4  12  24  42  65  88 124 164 206 254 290 349
#     4  10  20  34  54  82 112 142 186 242 305 374
#     4  10  23  39  63  99 124 161 213 240 289 360
#     4  10  21  41  66  94 133 164 192 249 301 341
#     4  10  19  33  55  79 103 142 189 245 315 368
#     4  10  21  35  53  77 107 143 193 249 303 363
#     4  12  27  43  60  86 123 168 211 251 300 355
#     4  10  21  37  59  87 118 154 196 250 316 372
#
# _framework density 20.943678999999999
#
# number of rings (size 3 to 8) (size 9 to 14) (size 15 to 20)
#    0.000    1.500    0.000    5.250    0.000    6.500 
#    0.000    0.000    0.000    6.000    0.000    0.000 
#    0.000    0.000    0.000    0.000    0.000    0.000 
#
# Total GULP energy -178487.721294 kJ/mol
# GULP energy per Si atom -5577.741290 kJ/mol
# Density = 2.089601 g / cm^3
# Si number density = 20.943679 Si / 1000 Ang^3
#
#
#
# Elastic Constant Matrix: (Units=GPa)
#
#
# Indices 1 2 3 4 5 6 
#
# 1 194.5144 36.8525 50.9440 0.0000 0.0000 0.0000
# 2 36.8525 103.9989 -15.5532 0.0000 0.0000 0.0000
# 3 50.9440 -15.5532 81.4592 0.0000 0.0000 0.0000
# 4 0.0000 0.0000 0.0000 31.5512 0.0000 0.0000
# 5 0.0000 0.0000 0.0000 0.0000 19.4605 0.0000
# 6 0.0000 0.0000 0.0000 0.0000 0.0000 -522.9211
#
#
#
# Elastic Compliance Matrix: (Units=1/GPa)
#
#
# Indices 1 2 3 4 5 6 
#
# 1 0.007083 -0.003266 -0.005053 0.000000 0.000000 0.000000
# 2 -0.003266 0.011404 0.004220 0.000000 0.000000 0.000000
# 3 -0.005053 0.004220 0.016242 0.000000 0.000000 0.000000
# 4 0.000000 0.000000 0.000000 0.031694 0.000000 0.000000
# 5 0.000000 0.000000 0.000000 0.000000 0.051386 0.000000
# 6 0.000000 0.000000 0.000000 0.000000 0.000000 -0.001912
#
#
# Mechanical properties :
#
#
# Convention : Reuss Voigt Hill
#
# Bulk Modulus (GPa) = 37.69263 58.27323 47.98293
# Shear Modulus (GPa) = 37.61110 -73.86660 -18.12775
#
# Velocity S-wave (km/s) = 4.24231 -5.94523 -2.94521
# Velocity P-wave (km/s) = 6.48325 4.38674 3.37558
#
# Compressibility (1/GPa) = 0.02653039
#
# Stress axis : x y z
#
# Youngs Moduli (GPa) = 141.17906 87.69040 61.56852
#
# Poissons Ratio (x) = 0.28637 0.31113
# Poissons Ratio (y) = 0.46105 -0.25980
# Poissons Ratio (z) = 0.71342 -0.37003
#
# Static dielectric constant tensor:
#      x y z
#    x 1.730750 0.000000 0.000000 
#    y 0.000000 1.767500 0.000000 
#    z 0.000000 0.000000 1.670940 
# 
# From -- ./inp_files/25149.got.cif
#   From: 2010.05.17/outbox.cif.g08.bks.cpg/sg59_13_cif.got.tgz:25149.got - 2010.06.03 14:40:33.
