data_PCOD9448943
_publ_section_title
;
Structure prediction by ZEFSAII (Michael W. Deem and Ramdas Pophale) SiO2 
 PCOD9448943
Probable space group: P M M N
;
_chemical_formula_sum "Si O2"
_cell_formula_units_Z 56
_cell_length_a 14.255687
_cell_length_b 13.545446
_cell_length_c 15.034921
_cell_angle_alpha 90.000000
_cell_angle_beta 90.000000
_cell_angle_gamma 90.000000
_cell_volume 2903.237809
_symmetry_space_group_name_H-M "P M M N"
_symmetry_group_IT_number 59
_space_group.IT_coordinate_system_code '2'
_symmetry_cell_setting 'orthorhombic'
loop_
_space_group_symop_operation_xyz
x,y,z
1/2-x,1/2-y,z
1/2+x,-y,-z
-x,1/2+y,-z
-x,-y,-z
1/2+x,1/2+y,-z
1/2-x,y,z
x,1/2-y,z
loop_
_atom_site_type_symbol
_atom_site_label
_atom_site_fract_x
_atom_site_fract_y
_atom_site_fract_z
Si Si1 0.993960 0.138254 0.620675
Si Si2 0.360147 0.367399 0.950589
Si Si3 0.856464 0.358128 0.218876
Si Si4 0.550297 0.864496 0.866069
Si Si5 0.358202 0.427567 0.753168
Si Si6 0.854184 0.632539 0.517797
Si Si7 0.359254 0.025584 0.300704
O O1 0.961707 0.250000 0.602095
O O2 0.071643 0.138166 0.698433
O O3 0.056053 0.097749 0.538244
O O4 0.912463 0.067869 0.656674
O O5 0.250000 0.381965 0.970520
O O6 0.374876 0.250000 0.936165
O O7 0.418805 0.398197 0.036466
O O8 0.380686 0.420647 0.857832
O O9 0.750000 0.364451 0.182976
O O10 0.865137 0.250000 0.263928
O O11 0.868532 0.457601 0.275720
O O12 0.938506 0.361376 0.146779
O O13 0.584144 0.750000 0.855214
O O14 0.592495 0.932016 0.787960
O O15 0.250000 0.397222 0.742247
O O16 0.750000 0.594016 0.489577
O O17 0.852364 0.750000 0.505013
O O18 0.864655 0.607005 0.621164
O O19 0.250000 0.004531 0.283219
#
# Coordination Sequence:
#
# PCOD9448943 Si02
#       7
#     8   8   8   8   8   8   8
#     4  11  22  37  56  80 110 145 183 221 267 319
#     4   9  18  31  50  80 110 137 177 228 274 316
#     4   9  18  33  52  77 109 141 176 220 271 326
#     4  10  19  34  57  81 107 141 181 227 276 321
#     4  10  19  34  57  81 107 141 181 227 276 321
#     4   9  19  36  60  88 111 131 168 224 274 318
#     4  11  22  37  56  80 110 145 183 221 267 319
#
# _framework density 19.288809000000001
#
# number of rings (size 3 to 8) (size 9 to 14) (size 15 to 20)
#    0.000    2.143    1.429    2.143    0.000    3.714 
#    0.000    0.000    0.000    0.000    0.000    0.000 
#    0.000    0.000    0.000    0.000    0.000    0.000 
#
# Total GULP energy -312133.323831 kJ/mol
# GULP energy per Si atom -5573.809354 kJ/mol
# Density = 1.924491 g / cm^3
# Si number density = 19.288809 Si / 1000 Ang^3
#
#
#
# Elastic Constant Matrix: (Units=GPa)
#
#
# Indices 1 2 3 4 5 6 
#
# 1 70.6541 19.7784 19.5043 0.0000 0.0000 0.0000
# 2 19.7784 60.1581 5.0944 0.0000 0.0000 0.0000
# 3 19.5043 5.0944 49.9443 0.0000 0.0000 0.0000
# 4 0.0000 0.0000 0.0000 17.3908 0.0000 0.0000
# 5 0.0000 0.0000 0.0000 0.0000 18.0328 0.0000
# 6 0.0000 0.0000 0.0000 0.0000 0.0000 10.8094
#
#
#
# Elastic Compliance Matrix: (Units=1/GPa)
#
#
# Indices 1 2 3 4 5 6 
#
# 1 0.017322 -0.005167 -0.006237 0.000000 0.000000 0.000000
# 2 -0.005167 0.018309 0.000150 0.000000 0.000000 0.000000
# 3 -0.006237 0.000150 0.022443 0.000000 0.000000 0.000000
# 4 0.000000 0.000000 0.000000 0.057502 0.000000 0.000000
# 5 0.000000 0.000000 0.000000 0.000000 0.055455 0.000000
# 6 0.000000 0.000000 0.000000 0.000000 0.000000 0.092512
#
#
# Mechanical properties :
#
#
# Convention : Reuss Voigt Hill
#
# Bulk Modulus (GPa) = 28.11726 29.94565 29.03146
# Shear Modulus (GPa) = 16.78389 18.33855 17.56122
#
# Velocity S-wave (km/s) = 2.95301 3.08674 3.02062
# Velocity P-wave (km/s) = 5.12207 5.31626 5.22007
#
# Compressibility (1/GPa) = 0.03556534
#
# Stress axis : x y z
#
# Youngs Moduli (GPa) = 57.73122 54.61845 44.55766
#
# Poissons Ratio (x) = 0.28220 0.27793
# Poissons Ratio (y) = 0.29828 -0.00669
# Poissons Ratio (z) = 0.36010 -0.00820
#
# Static dielectric constant tensor:
#      x y z
#    x 1.686330 0.000000 0.000000 
#    y 0.000000 1.735800 0.000000 
#    z 0.000000 0.000000 1.651910 
# 
# From -- ./inp_files/23313.got.cif
#   From: 2010.05.17/outbox.cif.g08.bks.cpg/sg59_12_cif.got.tgz:23313.got - 2010.06.03 14:40:33.
