data_PCOD9448650
_publ_section_title
;
Structure prediction by ZEFSAII (Michael W. Deem and Ramdas Pophale) SiO2 
 PCOD9448650
Probable space group: P M M N
;
_chemical_formula_sum "Si O2"
_cell_formula_units_Z 64
_cell_length_a 22.964897
_cell_length_b 8.880611
_cell_length_c 18.029857
_cell_angle_alpha 90.000000
_cell_angle_beta 90.000000
_cell_angle_gamma 90.000000
_cell_volume 3677.050810
_symmetry_space_group_name_H-M "P M M N"
_symmetry_group_IT_number 59
_space_group.IT_coordinate_system_code '2'
_symmetry_cell_setting 'orthorhombic'
loop_
_space_group_symop_operation_xyz
x,y,z
1/2-x,1/2-y,z
1/2+x,-y,-z
-x,1/2+y,-z
-x,-y,-z
1/2+x,1/2+y,-z
1/2-x,y,z
x,1/2-y,z
loop_
_atom_site_type_symbol
_atom_site_label
_atom_site_fract_x
_atom_site_fract_y
_atom_site_fract_z
Si Si1 0.682387 0.071097 0.932911
Si Si2 0.452633 0.930791 0.328028
Si Si3 0.418039 0.931016 0.652287
Si Si4 0.590993 0.572967 0.820125
Si Si5 0.685209 0.568888 0.251286
Si Si6 0.144872 0.070447 0.911240
Si Si7 0.063690 0.930496 0.490047
Si Si8 0.521304 0.072555 0.076665
O O1 0.750000 0.042461 0.915731
O O2 0.672311 0.250000 0.934034
O O3 0.640450 0.996578 0.872413
O O4 0.668521 0.005737 0.014290
O O5 0.458027 0.750000 0.324161
O O6 0.420549 0.972489 0.405785
O O7 0.518120 0.000459 0.329342
O O8 0.417502 0.991823 0.258070
O O9 0.422007 0.750000 0.658881
O O10 0.403618 0.972297 0.566036
O O11 0.367480 0.992527 0.704899
O O12 0.601723 0.750000 0.809579
O O13 0.530073 0.556360 0.864150
O O14 0.750000 0.524058 0.277052
O O15 0.679827 0.750000 0.258750
O O16 0.679526 0.534640 0.163681
O O17 0.145118 0.250000 0.922071
O O18 0.079401 0.012139 0.899288
O O19 0.059554 0.750000 0.491053
O O20 0.000000 0.000000 0.500000
O O21 0.533162 0.250000 0.066141
O O22 0.500000 0.000000 0.000000
#
# Coordination Sequence:
#
# PCOD9448650 Si02
#       8
#     8   8   8   8   8   8   8   8
#     4  11  24  40  58  78 101 135 179 224 269 318
#     4  10  19  33  55  82 112 144 177 217 269 326
#     4  10  19  33  54  81 112 142 177 220 267 321
#     4  11  23  37  55  81 110 141 177 220 269 316
#     4  10  22  38  54  75 106 145 187 226 267 320
#     4  11  22  37  57  79 105 140 179 223 270 316
#     4   8  16  30  50  78 109 139 170 207 255 312
#     4  11  22  35  53  78 108 140 175 217 268 323
#
# _framework density 17.405253999999999
#
# number of rings (size 3 to 8) (size 9 to 14) (size 15 to 20)
#    0.000    1.750    1.250    3.375    0.000    7.250 
#    0.000    0.000    0.000    0.750    0.000    1.750 
#    0.000    0.000    0.000    0.000    0.000    0.000 
#
# Total GULP energy -357169.261911 kJ/mol
# GULP energy per Si atom -5580.769717 kJ/mol
# Density = 1.736564 g / cm^3
# Si number density = 17.405254 Si / 1000 Ang^3
#
#
#
# Elastic Constant Matrix: (Units=GPa)
#
#
# Indices 1 2 3 4 5 6 
#
# 1 81.6887 37.3564 46.8495 0.0000 0.0000 0.0000
# 2 37.3564 49.3607 52.7471 0.0000 0.0000 0.0000
# 3 46.8495 52.7471 144.7190 0.0000 0.0000 0.0000
# 4 0.0000 0.0000 0.0000 27.5756 0.0000 0.0000
# 5 0.0000 0.0000 0.0000 0.0000 12.9183 0.0000
# 6 0.0000 0.0000 0.0000 0.0000 0.0000 19.8315
#
#
#
# Elastic Compliance Matrix: (Units=1/GPa)
#
#
# Indices 1 2 3 4 5 6 
#
# 1 0.018913 -0.012728 -0.001484 0.000000 0.000000 0.000000
# 2 -0.012728 0.041749 -0.011096 0.000000 0.000000 0.000000
# 3 -0.001484 -0.011096 0.011435 0.000000 0.000000 0.000000
# 4 0.000000 0.000000 0.000000 0.036264 0.000000 0.000000
# 5 0.000000 0.000000 0.000000 0.000000 0.077409 0.000000
# 6 0.000000 0.000000 0.000000 0.000000 0.000000 0.050425
#
#
# Mechanical properties :
#
#
# Convention : Reuss Voigt Hill
#
# Bulk Modulus (GPa) = 46.55290 61.07494 53.81392
# Shear Modulus (GPa) = 17.00845 21.31944 19.16395
#
# Velocity S-wave (km/s) = 3.12941 3.50363 3.32180
# Velocity P-wave (km/s) = 6.31365 7.17868 6.76001
#
# Compressibility (1/GPa) = 0.02148094
#
# Stress axis : x y z
#
# Youngs Moduli (GPa) = 52.87365 23.95249 87.45411
#
# Poissons Ratio (x) = 0.30487 0.12974
# Poissons Ratio (y) = 0.67298 0.97042
# Poissons Ratio (z) = 0.07844 0.26578
#
# Static dielectric constant tensor:
#      x y z
#    x 1.540510 0.000000 0.000000 
#    y 0.000000 1.583540 0.000000 
#    z 0.000000 0.000000 1.640960 
# 
# From -- ./inp_files/28309.got.cif
#   From: 2010.05.17/outbox.cif.g08.bks.cpg/sg59_15_cif.got.tgz:28309.got - 2010.06.03 14:40:33.
