data_PCOD9448011
_publ_section_title
;
Structure prediction by ZEFSAII (Michael W. Deem and Ramdas Pophale) SiO2 
 PCOD9448011
Probable space group: P M M N
;
_chemical_formula_sum "Si O2"
_cell_formula_units_Z 64
_cell_length_a 7.842752
_cell_length_b 28.616646
_cell_length_c 14.359140
_cell_angle_alpha 90.000000
_cell_angle_beta 90.000000
_cell_angle_gamma 90.000000
_cell_volume 3222.668567
_symmetry_space_group_name_H-M "P M M N"
_symmetry_group_IT_number 59
_space_group.IT_coordinate_system_code '2'
_symmetry_cell_setting 'orthorhombic'
loop_
_space_group_symop_operation_xyz
x,y,z
1/2-x,1/2-y,z
1/2+x,-y,-z
-x,1/2+y,-z
-x,-y,-z
1/2+x,1/2+y,-z
1/2-x,y,z
x,1/2-y,z
loop_
_atom_site_type_symbol
_atom_site_label
_atom_site_fract_x
_atom_site_fract_y
_atom_site_fract_z
Si Si1 0.554533 0.693169 0.619895
Si Si2 0.452997 0.985972 0.395685
Si Si3 0.050597 0.109557 0.071911
Si Si4 0.960057 0.803571 0.823389
Si Si5 0.548898 0.562300 0.112151
Si Si6 0.456103 0.196627 0.582468
Si Si7 0.547536 0.467806 0.207999
Si Si8 0.453341 0.891428 0.298176
O O1 0.750000 0.675763 0.620051
O O2 0.561038 0.750000 0.619519
O O3 0.478802 0.681003 0.720119
O O4 0.477031 0.680853 0.519893
O O5 0.250000 0.985289 0.390043
O O6 0.515817 0.934355 0.363951
O O7 0.500000 0.000000 0.500000
O O8 0.516002 0.021712 0.316353
O O9 0.250000 0.116779 0.050025
O O10 0.979799 0.160022 0.099539
O O11 0.036016 0.077340 0.162939
O O12 0.974364 0.082191 0.983691
O O13 0.750000 0.804292 0.820202
O O14 0.009703 0.750000 0.839728
O O15 0.750000 0.553962 0.097608
O O16 0.479153 0.513202 0.151114
O O17 0.527124 0.598893 0.196029
O O18 0.250000 0.198346 0.575512
O O19 0.513541 0.250000 0.601283
O O20 0.502372 0.158291 0.658156
O O21 0.750000 0.463919 0.194231
O O22 0.250000 0.895016 0.291076
#
# Coordination Sequence:
#
# PCOD9448011 Si02
#       8
#     8   8   8   8   8   8   8   8
#     4   7  11  22  41  65  92 121 153 189 231 281
#     4  10  21  37  55  77 106 138 171 207 252 309
#     4  10  19  31  51  78 102 128 170 218 257 299
#     4   8  14  26  45  71 102 130 157 196 247 298
#     4   9  19  35  52  71  99 134 171 212 259 310
#     4   9  17  30  50  75 101 133 175 215 249 296
#     4  10  20  34  52  74 102 136 171 210 257 306
#     4  10  21  35  52  74 101 133 168 210 260 310
#
# _framework density 19.859317000000001
#
# number of rings (size 3 to 8) (size 9 to 14) (size 15 to 20)
#    0.000    2.875    0.000    3.000    0.000    3.750 
#    0.000    1.875    0.000    2.625    0.000    1.750 
#    0.000    0.000    0.000    0.000    0.000    0.000 
#
# Total GULP energy -356741.832065 kJ/mol
# GULP energy per Si atom -5574.091126 kJ/mol
# Density = 1.981412 g / cm^3
# Si number density = 19.859317 Si / 1000 Ang^3
#
#
#
# Elastic Constant Matrix: (Units=GPa)
#
#
# Indices 1 2 3 4 5 6 
#
# 1 22.0755 -8.1930 -13.8484 0.0000 0.0000 0.0000
# 2 -8.1930 69.1492 44.0666 0.0000 0.0000 0.0000
# 3 -13.8484 44.0666 76.4386 0.0000 0.0000 0.0000
# 4 0.0000 0.0000 0.0000 24.2879 0.0000 0.0000
# 5 0.0000 0.0000 0.0000 0.0000 8.6384 0.0000
# 6 0.0000 0.0000 0.0000 0.0000 0.0000 11.0623
#
#
#
# Elastic Compliance Matrix: (Units=1/GPa)
#
#
# Indices 1 2 3 4 5 6 
#
# 1 0.051110 0.000245 0.009119 0.000000 0.000000 0.000000
# 2 0.000245 0.022861 -0.013135 0.000000 0.000000 0.000000
# 3 0.009119 -0.013135 0.022307 0.000000 0.000000 0.000000
# 4 0.000000 0.000000 0.000000 0.041173 0.000000 0.000000
# 5 0.000000 0.000000 0.000000 0.000000 0.115763 0.000000
# 6 0.000000 0.000000 0.000000 0.000000 0.000000 0.090397
#
#
# Mechanical properties :
#
#
# Convention : Reuss Voigt Hill
#
# Bulk Modulus (GPa) = 11.26958 23.52376 17.39667
# Shear Modulus (GPa) = 13.13261 18.50692 15.81977
#
# Velocity S-wave (km/s) = 2.57433 3.05602 2.82546
# Velocity P-wave (km/s) = 3.81094 4.93186 4.40718
#
# Compressibility (1/GPa) = 0.08873449
#
# Stress axis : x y z
#
# Youngs Moduli (GPa) = 19.56556 43.74274 44.82974
#
# Poissons Ratio (x) = -0.01071 -0.40878
# Poissons Ratio (y) = -0.00479 0.58883
# Poissons Ratio (z) = -0.17841 0.57456
#
# Static dielectric constant tensor:
#      x y z
#    x 1.730630 0.000000 0.000000 
#    y 0.000000 1.700580 0.000000 
#    z 0.000000 0.000000 1.707630 
# 
# From -- ./inp_files/14941.got.cif
#   From: 2010.05.17/outbox.cif.g08.bks.cpg/sg59_8_cif.got.tgz:14941.got - 2010.06.03 14:40:33.
