data_PCOD9448295
_publ_section_title
;
Structure prediction by ZEFSAII (Michael W. Deem and Ramdas Pophale) SiO2 
 PCOD9448295
Probable space group: P M M N
;
_chemical_formula_sum "Si O2"
_cell_formula_units_Z 64
_cell_length_a 8.768897
_cell_length_b 34.621209
_cell_length_c 11.290408
_cell_angle_alpha 90.000000
_cell_angle_beta 90.000000
_cell_angle_gamma 90.000000
_cell_volume 3427.652884
_symmetry_space_group_name_H-M "P M M N"
_symmetry_group_IT_number 59
_space_group.IT_coordinate_system_code '2'
_symmetry_cell_setting 'orthorhombic'
loop_
_space_group_symop_operation_xyz
x,y,z
1/2-x,1/2-y,z
1/2+x,-y,-z
-x,1/2+y,-z
-x,-y,-z
1/2+x,1/2+y,-z
1/2-x,y,z
x,1/2-y,z
loop_
_atom_site_type_symbol
_atom_site_label
_atom_site_fract_x
_atom_site_fract_y
_atom_site_fract_z
Si Si1 0.568997 0.594724 0.091544
Si Si2 0.567308 0.021223 0.796347
Si Si3 0.932725 0.446637 0.285843
Si Si4 0.934115 0.205885 0.281455
Si Si5 0.432576 0.629884 0.854480
Si Si6 0.568214 0.363987 0.679879
Si Si7 0.931298 0.794815 0.457653
Si Si8 0.066285 0.559507 0.450512
O O1 0.750000 0.591784 0.094133
O O2 0.498719 0.552002 0.111290
O O3 0.509876 0.620332 0.201674
O O4 0.512908 0.614974 0.972315
O O5 0.750000 0.022703 0.801468
O O6 0.514426 0.036247 0.665482
O O7 0.508776 0.977604 0.801222
O O8 0.750000 0.452768 0.283993
O O9 0.960770 0.402929 0.244514
O O10 0.992130 0.451940 0.420428
O O11 0.750000 0.204224 0.291191
O O12 0.975626 0.250000 0.246832
O O13 0.981315 0.171979 0.191989
O O14 0.003171 0.198178 0.410895
O O15 0.250000 0.631001 0.875272
O O16 0.750000 0.363797 0.697689
O O17 0.508848 0.323252 0.635158
O O18 0.533737 0.395827 0.578466
O O19 0.750000 0.800845 0.458299
O O20 0.962149 0.750000 0.429356
O O21 0.250000 0.555377 0.454488
#
# Coordination Sequence:
#
# PCOD9448295 Si02
#       8
#     8   8   8   8   8   8   8   8
#     4  11  23  39  57  76 102 140 184 228 276 328
#     4  10  20  35  54  77 107 141 178 221 269 322
#     4  10  19  32  52  78 108 140 175 218 270 323
#     4   9  18  35  60  86 111 143 182 221 265 318
#     4  10  21  37  56  79 108 143 185 232 274 318
#     4  10  19  35  58  80 105 140 182 224 269 322
#     4  10  20  33  52  83 120 149 175 214 266 322
#     4   8  16  31  52  78 105 134 170 217 270 321
#
# _framework density 18.671669999999999
#
# number of rings (size 3 to 8) (size 9 to 14) (size 15 to 20)
#    0.000    2.250    0.000    4.125    0.000    4.250 
#    0.000    5.000    0.000    2.250    0.000    0.000 
#    0.000    0.000    0.000    0.000    0.000    0.000 
#
# Total GULP energy -357239.072930 kJ/mol
# GULP energy per Si atom -5581.860515 kJ/mol
# Density = 1.862917 g / cm^3
# Si number density = 18.671670 Si / 1000 Ang^3
#
#
#
# Elastic Constant Matrix: (Units=GPa)
#
#
# Indices 1 2 3 4 5 6 
#
# 1 38.5085 32.8901 15.1504 0.0000 0.0000 0.0000
# 2 32.8901 79.0620 11.2670 0.0000 0.0000 0.0000
# 3 15.1504 11.2670 31.0047 0.0000 0.0000 0.0000
# 4 0.0000 0.0000 0.0000 20.7305 0.0000 0.0000
# 5 0.0000 0.0000 0.0000 0.0000 18.9878 0.0000
# 6 0.0000 0.0000 0.0000 0.0000 0.0000 26.0047
#
#
#
# Elastic Compliance Matrix: (Units=1/GPa)
#
#
# Indices 1 2 3 4 5 6 
#
# 1 0.047388 -0.017310 -0.016866 0.000000 0.000000 0.000000
# 2 -0.017310 0.019662 0.001313 0.000000 0.000000 0.000000
# 3 -0.016866 0.001313 0.040017 0.000000 0.000000 0.000000
# 4 0.000000 0.000000 0.000000 0.048238 0.000000 0.000000
# 5 0.000000 0.000000 0.000000 0.000000 0.052665 0.000000
# 6 0.000000 0.000000 0.000000 0.000000 0.000000 0.038455
#
#
# Mechanical properties :
#
#
# Convention : Reuss Voigt Hill
#
# Bulk Modulus (GPa) = 24.18801 29.68780 26.93790
# Shear Modulus (GPa) = 15.34060 19.09578 17.21819
#
# Velocity S-wave (km/s) = 2.86946 3.20146 3.04000
# Velocity P-wave (km/s) = 4.89499 5.44061 5.17500
#
# Compressibility (1/GPa) = 0.04134280
#
# Stress axis : x y z
#
# Youngs Moduli (GPa) = 21.10218 50.85876 24.98915
#
# Poissons Ratio (x) = 0.88038 0.42146
# Poissons Ratio (y) = 0.36528 -0.03282
# Poissons Ratio (z) = 0.35591 -0.06680
#
# Static dielectric constant tensor:
#      x y z
#    x 1.624400 0.000000 0.000000 
#    y 0.000000 1.654290 0.000000 
#    z 0.000000 0.000000 1.637530 
# 
# From -- ./inp_files/14923.got.cif
#   From: 2010.05.17/outbox.cif.g08.bks.cpg/sg59_8_cif.got.tgz:14923.got - 2010.06.03 14:40:33.
