data_PCOD9448078
_publ_section_title
;
Structure prediction by ZEFSAII (Michael W. Deem and Ramdas Pophale) SiO2 
 PCOD9448078
Probable space group: P M M N
;
_chemical_formula_sum "Si O2"
_cell_formula_units_Z 64
_cell_length_a 24.170410
_cell_length_b 8.659359
_cell_length_c 18.768539
_cell_angle_alpha 90.000000
_cell_angle_beta 90.000000
_cell_angle_gamma 90.000000
_cell_volume 3928.260043
_symmetry_space_group_name_H-M "P M M N"
_symmetry_group_IT_number 59
_space_group.IT_coordinate_system_code '2'
_symmetry_cell_setting 'orthorhombic'
loop_
_space_group_symop_operation_xyz
x,y,z
1/2-x,1/2-y,z
1/2+x,-y,-z
-x,1/2+y,-z
-x,-y,-z
1/2+x,1/2+y,-z
1/2-x,y,z
x,1/2-y,z
loop_
_atom_site_type_symbol
_atom_site_label
_atom_site_fract_x
_atom_site_fract_y
_atom_site_fract_z
Si Si1 0.501669 0.435567 0.080643
Si Si2 0.612133 0.062647 0.864853
Si Si3 0.120711 0.561716 0.861160
Si Si4 0.182705 0.928881 0.564943
Si Si5 0.185697 0.561087 0.722037
Si Si6 0.687096 0.438165 0.999335
Si Si7 0.186460 0.564820 0.267271
Si Si8 0.182848 0.426211 0.417201
O O1 0.501559 0.250000 0.076488
O O2 0.448328 0.494015 0.123268
O O3 0.558426 0.485197 0.119494
O O4 0.500000 0.500000 0.000000
O O5 0.608278 0.250000 0.864344
O O6 0.649184 0.016739 0.932987
O O7 0.644593 0.011539 0.793940
O O8 0.121300 0.750000 0.859959
O O9 0.146449 0.510083 0.786244
O O10 0.159920 0.512707 0.926440
O O11 0.250000 0.932606 0.565154
O O12 0.166243 0.750000 0.559905
O O13 0.167129 0.990851 0.643103
O O14 0.163104 0.013003 0.493701
O O15 0.250000 0.516408 0.734205
O O16 0.185521 0.750000 0.720181
O O17 0.750000 0.491497 0.991798
O O18 0.688022 0.250000 0.999667
O O19 0.250000 0.507706 0.256421
O O20 0.188849 0.750000 0.262465
O O21 0.167607 0.520031 0.346606
O O22 0.250000 0.433249 0.420187
O O23 0.166221 0.250000 0.407424
#
# Coordination Sequence:
#
# PCOD9448078 Si02
#       8
#     8   8   8   8   8   8   8   8
#     4  11  21  34  50  67  88 119 157 197 234 270
#     4  10  19  32  48  69  92 117 152 191 232 274
#     4   9  16  26  42  66  91 115 149 190 229 266
#     4   8  13  22  38  61  89 118 146 176 215 264
#     4   8  13  22  39  66  95 117 142 184 231 268
#     4   9  15  24  42  67  92 116 145 183 224 267
#     4   9  17  29  46  68  94 121 151 190 231 271
#     4   9  16  25  39  61  91 125 155 179 211 263
#
# _framework density 16.292200000000001
#
# number of rings (size 3 to 8) (size 9 to 14) (size 15 to 20)
#    0.000    2.875    1.250    2.250    0.000    5.000 
#    0.000    0.000    0.000    2.625    0.000    0.875 
#    0.000    0.000    0.000    0.000    0.000    0.000 
#
# Total GULP energy -356421.443570 kJ/mol
# GULP energy per Si atom -5569.085056 kJ/mol
# Density = 1.625512 g / cm^3
# Si number density = 16.292200 Si / 1000 Ang^3
#
#
#
# Elastic Constant Matrix: (Units=GPa)
#
#
# Indices 1 2 3 4 5 6 
#
# 1 78.7135 9.8928 44.6465 0.0000 0.0000 0.0000
# 2 9.8928 9.5273 15.2155 0.0000 0.0000 0.0000
# 3 44.6465 15.2155 131.8142 0.0000 0.0000 0.0000
# 4 0.0000 0.0000 0.0000 4.5713 0.0000 0.0000
# 5 0.0000 0.0000 0.0000 0.0000 4.5778 0.0000
# 6 0.0000 0.0000 0.0000 0.0000 0.0000 17.1418
#
#
#
# Elastic Compliance Matrix: (Units=1/GPa)
#
#
# Indices 1 2 3 4 5 6 
#
# 1 0.016474 -0.010047 -0.004420 0.000000 0.000000 0.000000
# 2 -0.010047 0.134813 -0.012159 0.000000 0.000000 0.000000
# 3 -0.004420 -0.012159 0.010487 0.000000 0.000000 0.000000
# 4 0.000000 0.000000 0.000000 0.218756 0.000000 0.000000
# 5 0.000000 0.000000 0.000000 0.000000 0.218448 0.000000
# 6 0.000000 0.000000 0.000000 0.000000 0.000000 0.058337
#
#
# Mechanical properties :
#
#
# Convention : Reuss Voigt Hill
#
# Bulk Modulus (GPa) = 9.21472 39.95163 24.58317
# Shear Modulus (GPa) = 6.69576 15.27818 10.98697
#
# Velocity S-wave (km/s) = 2.02946 3.06561 2.59968
# Velocity P-wave (km/s) = 3.34063 6.09145 4.91251
#
# Compressibility (1/GPa) = 0.10852203
#
# Stress axis : x y z
#
# Youngs Moduli (GPa) = 60.70113 7.41771 95.35547
#
# Poissons Ratio (x) = 0.07453 0.42149
# Poissons Ratio (y) = 0.60987 1.15939
# Poissons Ratio (z) = 0.26831 0.09019
#
# Static dielectric constant tensor:
#      x y z
#    x 1.527730 0.000000 0.000000 
#    y 0.000000 1.561160 0.000000 
#    z 0.000000 0.000000 1.557280 
# 
# From -- ./inp_files/28405.got.cif
#   From: 2010.05.17/outbox.cif.g08.bks.cpg/sg59_15_cif.got.tgz:28405.got - 2010.06.03 14:40:33.
