data_PCOD9448624
_publ_section_title
;
Structure prediction by ZEFSAII (Michael W. Deem and Ramdas Pophale) SiO2 
 PCOD9448624
Probable space group: P M M N
;
_chemical_formula_sum "Si O2"
_cell_formula_units_Z 56
_cell_length_a 7.647155
_cell_length_b 21.266663
_cell_length_c 16.612613
_cell_angle_alpha 90.000000
_cell_angle_beta 90.000000
_cell_angle_gamma 90.000000
_cell_volume 2701.700419
_symmetry_space_group_name_H-M "P M M N"
_symmetry_group_IT_number 59
_space_group.IT_coordinate_system_code '2'
_symmetry_cell_setting 'orthorhombic'
loop_
_space_group_symop_operation_xyz
x,y,z
1/2-x,1/2-y,z
1/2+x,-y,-z
-x,1/2+y,-z
-x,-y,-z
1/2+x,1/2+y,-z
1/2-x,y,z
x,1/2-y,z
loop_
_atom_site_type_symbol
_atom_site_label
_atom_site_fract_x
_atom_site_fract_y
_atom_site_fract_z
Si Si1 0.039982 0.497816 0.905488
Si Si2 0.453495 0.069758 0.436544
Si Si3 0.048219 0.062090 0.615480
Si Si4 0.961708 0.320715 0.320732
Si Si5 0.040432 0.111150 0.785782
Si Si6 0.041694 0.750000 0.153148
Si Si7 0.035994 0.750000 0.969422
Si Si8 0.963600 0.135441 0.144074
O O1 0.250000 0.497446 0.897858
O O2 0.974716 0.436878 0.855595
O O3 0.975710 0.564477 0.870820
O O4 0.000000 0.500000 0.000000
O O5 0.250000 0.051708 0.444609
O O6 0.527627 0.077331 0.526972
O O7 0.469860 0.132892 0.387651
O O8 0.541879 0.013742 0.386113
O O9 0.250000 0.083425 0.613380
O O10 0.971476 0.089983 0.697706
O O11 0.750000 0.322888 0.321847
O O12 0.018107 0.250000 0.335500
O O13 0.017521 0.341745 0.231965
O O14 0.250000 0.102689 0.783408
O O15 0.008516 0.184268 0.804967
O O16 0.250000 0.750000 0.148893
O O17 0.974019 0.750000 0.061223
O O18 0.250000 0.750000 0.969384
O O19 0.981049 0.687059 0.921900
O O20 0.750000 0.134981 0.141968
#
# Coordination Sequence:
#
# PCOD9448624 Si02
#       8
#     8   8   8   8   8   4   4   8
#     4  10  20  33  53  80 110 142 180 229 275 320
#     4  10  20  34  56  85 113 139 171 223 281 321
#     4   9  19  38  61  81 103 141 187 221 260 324
#     4  10  19  33  54  79 108 146 188 221 257 318
#     4  10  21  39  59  79 107 148 191 227 268 328
#     4  11  23  37  57  82 107 138 180 237 289 325
#     4   9  16  29  51  78 107 140 182 227 269 313
#     4   9  16  30  52  78 105 140 185 223 256 312
#
# _framework density 20.727688000000001
#
# number of rings (size 3 to 8) (size 9 to 14) (size 15 to 20)
#    0.000    2.286    0.714    2.357    0.000    5.429 
#    1.286    2.143    0.000    1.714    0.000    0.000 
#    0.000    0.000    0.000    0.000    0.000    0.000 
#
# Total GULP energy -312570.215893 kJ/mol
# GULP energy per Si atom -5581.610998 kJ/mol
# Density = 2.068051 g / cm^3
# Si number density = 20.727688 Si / 1000 Ang^3
#
#
#
# Elastic Constant Matrix: (Units=GPa)
#
#
# Indices 1 2 3 4 5 6 
#
# 1 40.2014 -1.4650 8.9076 0.0000 0.0000 0.0000
# 2 -1.4650 176.9828 115.5353 0.0000 0.0000 0.0000
# 3 8.9076 115.5353 163.2868 0.0000 0.0000 0.0000
# 4 0.0000 0.0000 0.0000 40.4379 0.0000 0.0000
# 5 0.0000 0.0000 0.0000 0.0000 8.8712 0.0000
# 6 0.0000 0.0000 0.0000 0.0000 0.0000 10.9362
#
#
#
# Elastic Compliance Matrix: (Units=1/GPa)
#
#
# Indices 1 2 3 4 5 6 
#
# 1 0.025587 0.002087 -0.002872 0.000000 0.000000 0.000000
# 2 0.002087 0.010671 -0.007664 0.000000 0.000000 0.000000
# 3 -0.002872 -0.007664 0.011704 0.000000 0.000000 0.000000
# 4 0.000000 0.000000 0.000000 0.024729 0.000000 0.000000
# 5 0.000000 0.000000 0.000000 0.000000 0.112724 0.000000
# 6 0.000000 0.000000 0.000000 0.000000 0.000000 0.091439
#
#
# Mechanical properties :
#
#
# Convention : Reuss Voigt Hill
#
# Bulk Modulus (GPa) = 32.19308 69.60296 50.89802
# Shear Modulus (GPa) = 16.44157 29.21528 22.82843
#
# Velocity S-wave (km/s) = 2.81947 3.75838 3.32226
# Velocity P-wave (km/s) = 5.11511 7.24476 6.27100
#
# Compressibility (1/GPa) = 0.03106258
#
# Stress axis : x y z
#
# Youngs Moduli (GPa) = 39.08191 93.71534 85.44378
#
# Poissons Ratio (x) = -0.19558 0.24544
# Poissons Ratio (y) = -0.08156 0.65484
# Poissons Ratio (z) = 0.11226 0.71823
#
# Static dielectric constant tensor:
#      x y z
#    x 1.799900 0.000000 0.000000 
#    y 0.000000 1.732160 0.000000 
#    z 0.000000 0.000000 1.729900 
# 
# From -- ./inp_files/21155.got.cif
#   From: 2010.05.17/outbox.cif.g08.bks.cpg/sg59_11_cif.got.tgz:21155.got - 2010.06.03 14:40:33.
