data_PCOD9448889
_publ_section_title
;
Structure prediction by ZEFSAII (Michael W. Deem and Ramdas Pophale) SiO2 
 PCOD9448889
Probable space group: P M M N
;
_chemical_formula_sum "Si O2"
_cell_formula_units_Z 48
_cell_length_a 9.047386
_cell_length_b 18.222842
_cell_length_c 16.421073
_cell_angle_alpha 90.000000
_cell_angle_beta 90.000000
_cell_angle_gamma 90.000000
_cell_volume 2707.327290
_symmetry_space_group_name_H-M "P M M N"
_symmetry_group_IT_number 59
_space_group.IT_coordinate_system_code '2'
_symmetry_cell_setting 'orthorhombic'
loop_
_space_group_symop_operation_xyz
x,y,z
1/2-x,1/2-y,z
1/2+x,-y,-z
-x,1/2+y,-z
-x,-y,-z
1/2+x,1/2+y,-z
1/2-x,y,z
x,1/2-y,z
loop_
_atom_site_type_symbol
_atom_site_label
_atom_site_fract_x
_atom_site_fract_y
_atom_site_fract_z
Si Si1 0.922826 0.886735 0.975225
Si Si2 0.424829 0.537897 0.123217
Si Si3 0.571352 0.164662 0.565134
Si Si4 0.427807 0.110867 0.398438
Si Si5 0.925034 0.250000 0.108563
Si Si6 0.429627 0.960410 0.310746
Si Si7 0.574202 0.750000 0.716369
O O1 0.750000 0.868229 0.979705
O O2 0.013898 0.820737 0.937807
O O3 0.938693 0.956806 0.915357
O O4 0.984753 0.909875 0.063119
O O5 0.250000 0.557042 0.120721
O O6 0.476529 0.539101 0.216611
O O7 0.750000 0.163140 0.559922
O O8 0.526048 0.250000 0.573112
O O9 0.504753 0.129904 0.483318
O O10 0.526809 0.112646 0.640386
O O11 0.250000 0.108270 0.410293
O O12 0.458803 0.177594 0.336431
O O13 0.476661 0.033623 0.359265
O O14 0.750000 0.250000 0.109824
O O15 0.987667 0.250000 0.199824
O O16 0.250000 0.962948 0.309331
O O17 0.750000 0.750000 0.733865
#
# Coordination Sequence:
#
# PCOD9448889 Si02
#       7
#     8   8   8   8   4   8   4
#     4  10  20  36  58  81 113 147 177 225 283 331
#     4   9  18  36  59  81 107 143 187 229 272 330
#     4  10  20  34  51  74 109 145 178 222 272 318
#     4  10  19  34  56  78 104 140 182 225 272 326
#     4  12  24  36  54  83 112 143 184 225 268 331
#     4   9  18  33  54  79 105 140 185 225 265 322
#     4  10  20  34  54  79 106 137 174 225 284 329
#
# _framework density 17.729662999999999
#
# number of rings (size 3 to 8) (size 9 to 14) (size 15 to 20)
#    0.000    2.167    0.833    2.750    0.000    4.000 
#    1.500    1.667    0.000    0.000    0.000    0.000 
#    0.000    0.000    0.000    0.000    0.000    0.000 
#
# Total GULP energy -267935.727043 kJ/mol
# GULP energy per Si atom -5581.994313 kJ/mol
# Density = 1.768931 g / cm^3
# Si number density = 17.729663 Si / 1000 Ang^3
#
#
#
# Elastic Constant Matrix: (Units=GPa)
#
#
# Indices 1 2 3 4 5 6 
#
# 1 37.9704 37.3293 51.3090 0.0000 0.0000 0.0000
# 2 37.3293 80.6472 93.6229 0.0000 0.0000 0.0000
# 3 51.3090 93.6229 166.1551 0.0000 0.0000 0.0000
# 4 0.0000 0.0000 0.0000 17.8121 0.0000 0.0000
# 5 0.0000 0.0000 0.0000 0.0000 31.4625 0.0000
# 6 0.0000 0.0000 0.0000 0.0000 0.0000 19.2850
#
#
#
# Elastic Compliance Matrix: (Units=1/GPa)
#
#
# Indices 1 2 3 4 5 6 
#
# 1 0.051059 -0.015409 -0.007084 0.000000 0.000000 0.000000
# 2 -0.015409 0.040501 -0.018062 0.000000 0.000000 0.000000
# 3 -0.007084 -0.018062 0.018384 0.000000 0.000000 0.000000
# 4 0.000000 0.000000 0.000000 0.056142 0.000000 0.000000
# 5 0.000000 0.000000 0.000000 0.000000 0.031784 0.000000
# 6 0.000000 0.000000 0.000000 0.000000 0.000000 0.051854
#
#
# Mechanical properties :
#
#
# Convention : Reuss Voigt Hill
#
# Bulk Modulus (GPa) = 34.68516 72.14389 53.41452
# Shear Modulus (GPa) = 14.68668 20.54603 17.61636
#
# Velocity S-wave (km/s) = 2.88126 3.40788 3.15558
# Velocity P-wave (km/s) = 5.53847 7.50095 6.59314
#
# Compressibility (1/GPa) = 0.02883078
#
# Stress axis : x y z
#
# Youngs Moduli (GPa) = 19.58537 24.69086 54.39612
#
# Poissons Ratio (x) = 0.38047 0.38536
# Poissons Ratio (y) = 0.30180 0.98252
# Poissons Ratio (z) = 0.13875 0.44598
#
# Static dielectric constant tensor:
#      x y z
#    x 1.593680 0.000000 0.000000 
#    y 0.000000 1.598400 0.000000 
#    z 0.000000 0.000000 1.577670 
# 
# From -- ./inp_files/20493.got.cif
#   From: 2010.05.17/outbox.cif.g08.bks.cpg/sg59_11_cif.got.tgz:20493.got - 2010.06.03 14:40:33.
