data_PCOD9448878
_publ_section_title
;
Structure prediction by ZEFSAII (Michael W. Deem and Ramdas Pophale) SiO2 
 PCOD9448878
Probable space group: P M M N
;
_chemical_formula_sum "Si O2"
_cell_formula_units_Z 56
_cell_length_a 14.471906
_cell_length_b 7.606408
_cell_length_c 22.592306
_cell_angle_alpha 90.000000
_cell_angle_beta 90.000000
_cell_angle_gamma 90.000000
_cell_volume 2486.943458
_symmetry_space_group_name_H-M "P M M N"
_symmetry_group_IT_number 59
_space_group.IT_coordinate_system_code '2'
_symmetry_cell_setting 'orthorhombic'
loop_
_space_group_symop_operation_xyz
x,y,z
1/2-x,1/2-y,z
1/2+x,-y,-z
-x,1/2+y,-z
-x,-y,-z
1/2+x,1/2+y,-z
1/2-x,y,z
x,1/2-y,z
loop_
_atom_site_type_symbol
_atom_site_label
_atom_site_fract_x
_atom_site_fract_y
_atom_site_fract_z
Si Si1 0.548872 0.537787 0.794633
Si Si2 0.352384 0.460461 0.640336
Si Si3 0.443202 0.958539 0.077473
Si Si4 0.146025 0.045707 0.956497
Si Si5 0.143204 0.465534 0.327327
Si Si6 0.525555 0.944599 0.565922
Si Si7 0.348710 0.956649 0.778787
O O1 0.544617 0.750000 0.790435
O O2 0.594632 0.492551 0.856889
O O3 0.593631 0.475528 0.733287
O O4 0.444503 0.465189 0.799995
O O5 0.250000 0.495439 0.616312
O O6 0.366846 0.250000 0.640664
O O7 0.430544 0.550116 0.602310
O O8 0.353981 0.526591 0.707643
O O9 0.447495 0.750000 0.066953
O O10 0.549804 0.029490 0.071175
O O11 0.378528 0.035522 0.026299
O O12 0.250000 0.971241 0.945307
O O13 0.149961 0.250000 0.938649
O O14 0.250000 0.512179 0.325584
O O15 0.136199 0.250000 0.327356
O O16 0.095539 0.533909 0.387546
O O17 0.563763 0.750000 0.558123
O O18 0.500000 0.000000 0.500000
O O19 0.250000 0.033862 0.797863
O O20 0.347317 0.750000 0.793955
#
# Coordination Sequence:
#
# PCOD9448878 Si02
#       7
#     8   8   8   8   8   8   8
#     4  10  19  34  55  81 112 150 191 226 275 341
#     4  10  20  34  54  80 108 140 179 224 278 337
#     4  10  21  35  54  85 117 146 185 237 286 328
#     4   9  19  38  60  79 107 151 195 232 276 335
#     4   9  19  37  59  81 108 146 190 231 272 328
#     4  11  22  38  59  84 111 145 187 236 289 342
#     4   9  17  31  52  78 107 139 179 227 276 329
#
# _framework density 22.517600999999999
#
# number of rings (size 3 to 8) (size 9 to 14) (size 15 to 20)
#    0.000    2.286    1.429    1.286    0.000    4.000 
#    0.000    2.857    0.000    3.000    0.000    0.000 
#    0.000    0.000    0.000    0.000    0.000    0.000 
#
# Total GULP energy -312385.731488 kJ/mol
# GULP energy per Si atom -5578.316634 kJ/mol
# Density = 2.246635 g / cm^3
# Si number density = 22.517601 Si / 1000 Ang^3
#
#
#
# Elastic Constant Matrix: (Units=GPa)
#
#
# Indices 1 2 3 4 5 6 
#
# 1 89.3407 3.0211 38.2901 0.0000 0.0000 0.0000
# 2 3.0211 52.7667 -5.4081 0.0000 0.0000 0.0000
# 3 38.2901 -5.4081 150.3441 0.0000 0.0000 0.0000
# 4 0.0000 0.0000 0.0000 13.7774 0.0000 0.0000
# 5 0.0000 0.0000 0.0000 0.0000 -0.3143 0.0000
# 6 0.0000 0.0000 0.0000 0.0000 0.0000 3.9266
#
#
#
# Elastic Compliance Matrix: (Units=1/GPa)
#
#
# Indices 1 2 3 4 5 6 
#
# 1 0.012623 -0.001056 -0.003253 0.000000 0.000000 0.000000
# 2 -0.001056 0.019110 0.000956 0.000000 0.000000 0.000000
# 3 -0.003253 0.000956 0.007514 0.000000 0.000000 0.000000
# 4 0.000000 0.000000 0.000000 0.072583 0.000000 0.000000
# 5 0.000000 0.000000 0.000000 0.000000 -3.181975 0.000000
# 6 0.000000 0.000000 0.000000 0.000000 0.000000 0.254671
#
#
# Mechanical properties :
#
#
# Convention : Reuss Voigt Hill
#
# Bulk Modulus (GPa) = 30.72962 40.47308 35.60135
# Shear Modulus (GPa) = -1.78704 20.58118 9.39707
#
# Velocity S-wave (km/s) = -0.89182 3.02653 2.04506
# Velocity P-wave (km/s) = 3.55192 5.49783 4.62830
#
# Compressibility (1/GPa) = 0.03254189
#
# Stress axis : x y z
#
# Youngs Moduli (GPa) = 79.22087 52.32912 133.08045
#
# Poissons Ratio (x) = 0.05527 0.43289
# Poissons Ratio (y) = 0.08367 -0.12728
# Poissons Ratio (z) = 0.25769 -0.05005
#
# Static dielectric constant tensor:
#      x y z
#    x 1.753470 0.000000 0.000000 
#    y 0.000000 1.862490 0.000000 
#    z 0.000000 0.000000 1.827220 
# 
# From -- ./inp_files/30289.got.cif
#   From: 2010.05.17/outbox.cif.g08.bks.cpg/sg59_16_cif.got.tgz:30289.got - 2010.06.03 14:40:33.
