data_PCOD9448214
_publ_section_title
;
Structure prediction by ZEFSAII (Michael W. Deem and Ramdas Pophale) SiO2 
 PCOD9448214
Probable space group: P M M N
;
_chemical_formula_sum "Si O2"
_cell_formula_units_Z 64
_cell_length_a 24.364467
_cell_length_b 7.561941
_cell_length_c 15.131001
_cell_angle_alpha 90.000000
_cell_angle_beta 90.000000
_cell_angle_gamma 90.000000
_cell_volume 2787.775902
_symmetry_space_group_name_H-M "P M M N"
_symmetry_group_IT_number 59
_space_group.IT_coordinate_system_code '2'
_symmetry_cell_setting 'orthorhombic'
loop_
_space_group_symop_operation_xyz
x,y,z
1/2-x,1/2-y,z
1/2+x,-y,-z
-x,1/2+y,-z
-x,-y,-z
1/2+x,1/2+y,-z
1/2-x,y,z
x,1/2-y,z
loop_
_atom_site_type_symbol
_atom_site_label
_atom_site_fract_x
_atom_site_fract_y
_atom_site_fract_z
Si Si1 0.022667 0.538471 0.097598
Si Si2 0.642769 0.465578 0.947821
Si Si3 0.359711 0.956298 0.679563
Si Si4 0.313785 0.533995 0.865649
Si Si5 0.599141 0.457313 0.643828
Si Si6 0.688506 0.547169 0.504076
Si Si7 0.808195 0.466040 0.771651
Si Si8 0.016617 0.035523 0.710821
O O1 0.023979 0.750000 0.107203
O O2 0.084961 0.473722 0.091228
O O3 0.992138 0.475222 0.186527
O O4 0.000000 0.500000 0.000000
O O5 0.640985 0.250000 0.951752
O O6 0.687001 0.512869 0.874199
O O7 0.655723 0.528118 0.045957
O O8 0.345012 0.750000 0.676600
O O9 0.341648 0.026956 0.775283
O O10 0.327116 0.040687 0.598904
O O11 0.425345 0.973157 0.673290
O O12 0.250000 0.484378 0.868450
O O13 0.316032 0.750000 0.866484
O O14 0.592940 0.250000 0.663641
O O15 0.636017 0.469365 0.555887
O O16 0.639816 0.532952 0.718048
O O17 0.537002 0.525049 0.654774
O O18 0.750000 0.468989 0.518062
O O19 0.690941 0.750000 0.532502
O O20 0.750000 0.524770 0.733965
O O21 0.809273 0.250000 0.766660
O O22 0.019416 0.250000 0.709895
#
# Coordination Sequence:
#
# PCOD9448214 Si02
#       8
#     8   8   8   8   8   8   8   8
#     4  10  19  32  51  77 114 157 200 243 288 346
#     4   9  15  26  45  74 111 147 182 226 283 342
#     4  11  23  39  61  87 115 153 203 254 299 350
#     4   9  17  29  48  78 114 148 187 241 297 342
#     4  10  20  37  61  89 118 152 195 243 290 344
#     4  11  25  44  65  90 119 153 191 235 297 366
#     4   9  15  25  47  79 111 143 181 225 276 333
#     4  10  21  38  58  84 122 160 197 245 303 360
#
# _framework density 22.957369
#
# number of rings (size 3 to 8) (size 9 to 14) (size 15 to 20)
#    0.000    2.125    1.250    2.625    0.000    6.000 
#    0.000    0.000    0.000    0.000    0.000    0.000 
#    0.000    5.000    0.000    0.000    0.000    0.000 
#
# Total GULP energy -357317.215571 kJ/mol
# GULP energy per Si atom -5583.081493 kJ/mol
# Density = 2.290512 g / cm^3
# Si number density = 22.957369 Si / 1000 Ang^3
#
#
#
# Elastic Constant Matrix: (Units=GPa)
#
#
# Indices 1 2 3 4 5 6 
#
# 1 78.5462 -9.9764 14.6998 0.0000 0.0000 0.0000
# 2 -9.9764 53.7871 -6.9952 0.0000 0.0000 0.0000
# 3 14.6998 -6.9952 99.0522 0.0000 0.0000 0.0000
# 4 0.0000 0.0000 0.0000 3.1297 0.0000 0.0000
# 5 0.0000 0.0000 0.0000 0.0000 27.8861 0.0000
# 6 0.0000 0.0000 0.0000 0.0000 0.0000 0.5898
#
#
#
# Elastic Compliance Matrix: (Units=1/GPa)
#
#
# Indices 1 2 3 4 5 6 
#
# 1 0.013357 0.002240 -0.001824 0.000000 0.000000 0.000000
# 2 0.002240 0.019140 0.001019 0.000000 0.000000 0.000000
# 3 -0.001824 0.001019 0.010438 0.000000 0.000000 0.000000
# 4 0.000000 0.000000 0.000000 0.319519 0.000000 0.000000
# 5 0.000000 0.000000 0.000000 0.000000 0.035860 0.000000
# 6 0.000000 0.000000 0.000000 0.000000 0.000000 1.695519
#
#
# Mechanical properties :
#
#
# Convention : Reuss Voigt Hill
#
# Bulk Modulus (GPa) = 21.83103 25.20466 23.51785
# Shear Modulus (GPa) = 2.37391 21.89827 12.13609
#
# Velocity S-wave (km/s) = 1.01799 3.09182 2.30170
# Velocity P-wave (km/s) = 3.30329 4.87325 4.16295
#
# Compressibility (1/GPa) = 0.04580635
#
# Stress axis : x y z
#
# Youngs Moduli (GPa) = 74.86559 52.24692 95.80040
#
# Poissons Ratio (x) = -0.11705 0.17475
# Poissons Ratio (y) = -0.16772 -0.09764
# Poissons Ratio (z) = 0.13656 -0.05325
#
# Static dielectric constant tensor:
#      x y z
#    x 2.007940 0.000000 0.000000 
#    y 0.000000 1.875880 0.000000 
#    z 0.000000 0.000000 1.865970 
# 
# From -- ./inp_files/24753.got.cif
#   From: 2010.05.17/outbox.cif.g08.bks.cpg/sg59_13_cif.got.tgz:24753.got - 2010.06.03 14:40:33.
