data_PCOD9448345
_publ_section_title
;
Structure prediction by ZEFSAII (Michael W. Deem and Ramdas Pophale) SiO2 
 PCOD9448345
Probable space group: P M M N
;
_chemical_formula_sum "Si O2"
_cell_formula_units_Z 56
_cell_length_a 20.245973
_cell_length_b 8.738987
_cell_length_c 17.789072
_cell_angle_alpha 90.000000
_cell_angle_beta 90.000000
_cell_angle_gamma 90.000000
_cell_volume 3147.407965
_symmetry_space_group_name_H-M "P M M N"
_symmetry_group_IT_number 59
_space_group.IT_coordinate_system_code '2'
_symmetry_cell_setting 'orthorhombic'
loop_
_space_group_symop_operation_xyz
x,y,z
1/2-x,1/2-y,z
1/2+x,-y,-z
-x,1/2+y,-z
-x,-y,-z
1/2+x,1/2+y,-z
1/2-x,y,z
x,1/2-y,z
loop_
_atom_site_type_symbol
_atom_site_label
_atom_site_fract_x
_atom_site_fract_y
_atom_site_fract_z
Si Si1 0.825589 0.565659 0.888523
Si Si2 0.049271 0.065903 0.395706
Si Si3 0.175323 0.065672 0.678091
Si Si4 0.826253 0.066811 0.053734
Si Si5 0.096774 0.932522 0.545035
Si Si6 0.583121 0.933745 0.183705
Si Si7 0.058031 0.435051 0.223435
O O1 0.750000 0.527423 0.866967
O O2 0.829205 0.750000 0.897245
O O3 0.879208 0.519496 0.826619
O O4 0.839198 0.489742 0.969053
O O5 0.054037 0.250000 0.399836
O O6 0.063972 0.016951 0.310667
O O7 0.973874 0.023065 0.417361
O O8 0.094719 0.994695 0.460351
O O9 0.250000 0.018216 0.696567
O O10 0.173376 0.250000 0.675482
O O11 0.124509 0.015054 0.742662
O O12 0.152536 0.001487 0.598179
O O13 0.750000 0.022948 0.072126
O O14 0.831065 0.250000 0.057204
O O15 0.877044 0.992691 0.111623
O O16 0.100864 0.750000 0.544586
O O17 0.581008 0.750000 0.182818
O O18 0.509570 0.998929 0.189895
O O19 0.053697 0.250000 0.222808
#
# Coordination Sequence:
#
# PCOD9448345 Si02
#       7
#     8   8   8   8   8   8   8
#     4   9  19  37  60  82 105 138 180 226 276 328
#     4   9  18  33  53  77 108 141 176 220 268 319
#     4  10  21  36  53  76 109 146 182 224 274 326
#     4  10  21  37  57  80 109 146 184 222 269 327
#     4  10  19  32  53  78 105 140 181 222 265 317
#     4  11  22  35  55  82 112 144 184 228 273 326
#     4  10  20  36  57  82 112 143 181 229 276 325
#
# _framework density 17.792418000000001
#
# number of rings (size 3 to 8) (size 9 to 14) (size 15 to 20)
#    0.000    2.143    1.429    1.714    0.000    4.571 
#    0.000    0.714    0.000    2.571    0.000    0.000 
#    0.000    0.000    0.000    0.000    0.000    0.000 
#
# Total GULP energy -312588.280315 kJ/mol
# GULP energy per Si atom -5581.933577 kJ/mol
# Density = 1.775192 g / cm^3
# Si number density = 17.792418 Si / 1000 Ang^3
#
#
#
# Elastic Constant Matrix: (Units=GPa)
#
#
# Indices 1 2 3 4 5 6 
#
# 1 117.1543 30.7664 89.7258 0.0000 0.0000 0.0000
# 2 30.7664 14.2219 30.8369 0.0000 0.0000 0.0000
# 3 89.7258 30.8369 142.7838 0.0000 0.0000 0.0000
# 4 0.0000 0.0000 0.0000 22.6672 0.0000 0.0000
# 5 0.0000 0.0000 0.0000 0.0000 29.0904 0.0000
# 6 0.0000 0.0000 0.0000 0.0000 0.0000 19.9531
#
#
#
# Elastic Compliance Matrix: (Units=1/GPa)
#
#
# Indices 1 2 3 4 5 6 
#
# 1 0.022925 -0.034525 -0.006950 0.000000 0.000000 0.000000
# 2 -0.034525 0.184233 -0.018093 0.000000 0.000000 0.000000
# 3 -0.006950 -0.018093 0.015278 0.000000 0.000000 0.000000
# 4 0.000000 0.000000 0.000000 0.044117 0.000000 0.000000
# 5 0.000000 0.000000 0.000000 0.000000 0.034376 0.000000
# 6 0.000000 0.000000 0.000000 0.000000 0.000000 0.050118
#
#
# Mechanical properties :
#
#
# Convention : Reuss Voigt Hill
#
# Bulk Modulus (GPa) = 9.68049 64.09089 36.88569
# Shear Modulus (GPa) = 9.90852 22.53088 16.21970
#
# Velocity S-wave (km/s) = 2.36242 3.56240 3.02256
# Velocity P-wave (km/s) = 3.59082 7.28152 5.74084
#
# Compressibility (1/GPa) = 0.10330054
#
# Stress axis : x y z
#
# Youngs Moduli (GPa) = 43.61970 5.42792 65.45146
#
# Poissons Ratio (x) = 0.18740 0.45489
# Poissons Ratio (y) = 1.50598 1.18420
# Poissons Ratio (z) = 0.30316 0.09821
#
# Static dielectric constant tensor:
#      x y z
#    x 1.595010 0.000000 0.000000 
#    y 0.000000 1.595290 0.000000 
#    z 0.000000 0.000000 1.591510 
# 
# From -- ./inp_files/20935.got.cif
#   From: 2010.05.17/outbox.cif.g08.bks.cpg/sg59_11_cif.got.tgz:20935.got - 2010.06.03 14:40:33.
