data_PCOD9448129
_publ_section_title
;
Structure prediction by ZEFSAII (Michael W. Deem and Ramdas Pophale) SiO2 
 PCOD9448129
Probable space group: P M M N
;
_chemical_formula_sum "Si O2"
_cell_formula_units_Z 64
_cell_length_a 8.436554
_cell_length_b 25.183156
_cell_length_c 16.704294
_cell_angle_alpha 90.000000
_cell_angle_beta 90.000000
_cell_angle_gamma 90.000000
_cell_volume 3548.978526
_symmetry_space_group_name_H-M "P M M N"
_symmetry_group_IT_number 59
_space_group.IT_coordinate_system_code '2'
_symmetry_cell_setting 'orthorhombic'
loop_
_space_group_symop_operation_xyz
x,y,z
1/2-x,1/2-y,z
1/2+x,-y,-z
-x,1/2+y,-z
-x,-y,-z
1/2+x,1/2+y,-z
1/2-x,y,z
x,1/2-y,z
loop_
_atom_site_type_symbol
_atom_site_label
_atom_site_fract_x
_atom_site_fract_y
_atom_site_fract_z
Si Si1 0.938843 0.556788 0.970407
Si Si2 0.941571 0.112267 0.612133
Si Si3 0.057892 0.083012 0.209080
Si Si4 0.058500 0.309193 0.293061
Si Si5 0.058333 0.689932 0.525353
Si Si6 0.557383 0.190923 0.754627
Si Si7 0.561503 0.974238 0.271801
Si Si8 0.560115 0.101902 0.870747
O O1 0.750000 0.554586 0.966383
O O2 0.997420 0.571952 0.881958
O O3 0.000000 0.500000 0.000000
O O4 0.991172 0.595173 0.041540
O O5 0.750000 0.107625 0.610777
O O6 0.994020 0.140383 0.529758
O O7 0.987903 0.155829 0.678787
O O8 0.006818 0.057278 0.648308
O O9 0.250000 0.082314 0.209263
O O10 0.004605 0.140421 0.241224
O O11 0.999975 0.034266 0.263795
O O12 0.250000 0.309497 0.292451
O O13 0.006634 0.250000 0.265964
O O14 0.001726 0.315689 0.384356
O O15 0.250000 0.689435 0.524457
O O16 0.011299 0.750000 0.496876
O O17 0.750000 0.193123 0.753167
O O18 0.494610 0.250000 0.751736
O O19 0.512392 0.157942 0.832618
O O20 0.750000 0.973568 0.268215
O O21 0.496013 0.942335 0.193760
O O22 0.750000 0.097807 0.874134
#
# Coordination Sequence:
#
# PCOD9448129 Si02
#       8
#     8   8   8   8   8   8   8   8
#     4  11  21  33  53  78 103 132 172 218 260 307
#     4   9  17  30  50  75 106 140 174 212 257 309
#     4  10  21  37  56  76 102 136 173 212 261 318
#     4   9  19  37  59  80 103 135 173 214 262 313
#     4   9  17  31  54  82 108 137 176 220 262 307
#     4   8  14  26  46  70  97 134 174 205 240 296
#     4  11  21  32  50  76 106 137 172 215 259 307
#     4  10  19  32  50  73 104 137 170 212 259 307
#
# _framework density 18.033356999999999
#
# number of rings (size 3 to 8) (size 9 to 14) (size 15 to 20)
#    0.000    2.375    1.250    3.000    0.000    3.000 
#    0.000    1.250    0.000   13.125    0.000    0.000 
#    0.000    0.000    0.000    0.000    0.000    0.000 
#
# Total GULP energy -356737.916853 kJ/mol
# GULP energy per Si atom -5574.029951 kJ/mol
# Density = 1.799231 g / cm^3
# Si number density = 18.033357 Si / 1000 Ang^3
#
#
#
# Elastic Constant Matrix: (Units=GPa)
#
#
# Indices 1 2 3 4 5 6 
#
# 1 26.9183 20.5746 16.2691 0.0000 0.0000 0.0000
# 2 20.5746 137.5877 64.6225 0.0000 0.0000 0.0000
# 3 16.2691 64.6225 87.0687 0.0000 0.0000 0.0000
# 4 0.0000 0.0000 0.0000 26.2117 0.0000 0.0000
# 5 0.0000 0.0000 0.0000 0.0000 24.9886 0.0000
# 6 0.0000 0.0000 0.0000 0.0000 0.0000 9.1749
#
#
#
# Elastic Compliance Matrix: (Units=1/GPa)
#
#
# Indices 1 2 3 4 5 6 
#
# 1 0.043342 -0.004110 -0.005048 0.000000 0.000000 0.000000
# 2 -0.004110 0.011547 -0.007802 0.000000 0.000000 0.000000
# 3 -0.005048 -0.007802 0.018219 0.000000 0.000000 0.000000
# 4 0.000000 0.000000 0.000000 0.038151 0.000000 0.000000
# 5 0.000000 0.000000 0.000000 0.000000 0.040018 0.000000
# 6 0.000000 0.000000 0.000000 0.000000 0.000000 0.108993
#
#
# Mechanical properties :
#
#
# Convention : Reuss Voigt Hill
#
# Bulk Modulus (GPa) = 25.51840 50.50079 38.00960
# Shear Modulus (GPa) = 16.27313 22.08228 19.17771
#
# Velocity S-wave (km/s) = 3.00724 3.50312 3.26461
# Velocity P-wave (km/s) = 5.12244 6.66538 5.94419
#
# Compressibility (1/GPa) = 0.03918741
#
# Stress axis : x y z
#
# Youngs Moduli (GPa) = 23.07226 86.59936 54.88653
#
# Poissons Ratio (x) = 0.35596 0.27706
# Poissons Ratio (y) = 0.09484 0.42825
# Poissons Ratio (z) = 0.11647 0.67569
#
# Static dielectric constant tensor:
#      x y z
#    x 1.617540 0.000000 0.000000 
#    y 0.000000 1.648370 0.000000 
#    z 0.000000 0.000000 1.614720 
# 
# From -- ./inp_files/21480.got.cif
#   From: 2010.05.17/outbox.cif.g08.bks.cpg/sg59_11_cif.got.tgz:21480.got - 2010.06.03 14:40:33.
