data_PCOD9448532
_publ_section_title
;
Structure prediction by ZEFSAII (Michael W. Deem and Ramdas Pophale) SiO2 
 PCOD9448532
Probable space group: P M M N
;
_chemical_formula_sum "Si O2"
_cell_formula_units_Z 48
_cell_length_a 15.059330
_cell_length_b 8.965848
_cell_length_c 20.284896
_cell_angle_alpha 90.000000
_cell_angle_beta 90.000000
_cell_angle_gamma 90.000000
_cell_volume 2738.859837
_symmetry_space_group_name_H-M "P M M N"
_symmetry_group_IT_number 59
_space_group.IT_coordinate_system_code '2'
_symmetry_cell_setting 'orthorhombic'
loop_
_space_group_symop_operation_xyz
x,y,z
1/2-x,1/2-y,z
1/2+x,-y,-z
-x,1/2+y,-z
-x,-y,-z
1/2+x,1/2+y,-z
1/2-x,y,z
x,1/2-y,z
loop_
_atom_site_type_symbol
_atom_site_label
_atom_site_fract_x
_atom_site_fract_y
_atom_site_fract_z
Si Si1 0.565155 0.070615 0.704206
Si Si2 0.567762 0.570520 0.183549
Si Si3 0.944566 0.429773 0.940485
Si Si4 0.750000 0.430939 0.979119
Si Si5 0.250000 0.570720 0.865703
Si Si6 0.067363 0.928077 0.449313
Si Si7 0.250000 0.079279 0.446849
Si Si8 0.250000 0.079887 0.286886
O O1 0.574676 0.250000 0.707568
O O2 0.481006 0.027827 0.748565
O O3 0.551664 0.029413 0.627507
O O4 0.657751 0.001521 0.730338
O O5 0.581204 0.750000 0.183260
O O6 0.496529 0.533710 0.126338
O O7 0.660874 0.492601 0.167763
O O8 0.945023 0.250000 0.947215
O O9 0.841997 0.480354 0.945493
O O10 0.000000 0.500000 0.000000
O O11 0.750000 0.250000 0.977115
O O12 0.750000 0.473607 0.056554
O O13 0.250000 0.750000 0.862838
O O14 0.064612 0.750000 0.453061
O O15 0.163411 0.990943 0.467616
O O16 0.000000 0.000000 0.500000
O O17 0.250000 0.250000 0.469850
O O18 0.250000 0.081350 0.366967
O O19 0.250000 0.250000 0.263290
#
# Coordination Sequence:
#
# PCOD9448532 Si02
#       8
#     8   8   8   4   4   8   4   4
#     4   9  19  35  54  78 108 142 176 216 264 316
#     4  10  21  36  56  79 103 136 180 221 259 311
#     4  10  19  33  53  76 102 132 170 213 255 304
#     4   9  18  32  50  75 105 135 166 206 258 308
#     4  11  21  35  55  75 104 142 175 214 266 319
#     4  10  19  33  54  79 108 141 179 220 266 317
#     4   9  17  31  51  77 106 138 175 214 263 316
#     4   9  17  30  52  79 107 137 170 212 259 315
#
# _framework density 17.525542000000002
#
# number of rings (size 3 to 8) (size 9 to 14) (size 15 to 20)
#    0.000    2.333    1.667    1.250    0.000    4.000 
#    0.000    3.750    0.000    2.000    0.000    0.000 
#    0.000    0.000    0.000    0.000    0.000    0.000 
#
# Total GULP energy -267677.562518 kJ/mol
# GULP energy per Si atom -5576.615886 kJ/mol
# Density = 1.748565 g / cm^3
# Si number density = 17.525542 Si / 1000 Ang^3
#
#
#
# Elastic Constant Matrix: (Units=GPa)
#
#
# Indices 1 2 3 4 5 6 
#
# 1 196.6431 51.4660 80.9694 0.0000 0.0000 0.0000
# 2 51.4660 38.9401 40.0919 0.0000 0.0000 0.0000
# 3 80.9694 40.0919 82.4327 0.0000 0.0000 0.0000
# 4 0.0000 0.0000 0.0000 20.0179 0.0000 0.0000
# 5 0.0000 0.0000 0.0000 0.0000 32.1974 0.0000
# 6 0.0000 0.0000 0.0000 0.0000 0.0000 31.7160
#
#
#
# Elastic Compliance Matrix: (Units=1/GPa)
#
#
# Indices 1 2 3 4 5 6 
#
# 1 0.009124 -0.005672 -0.006204 0.000000 0.000000 0.000000
# 2 -0.005672 0.054964 -0.021161 0.000000 0.000000 0.000000
# 3 -0.006204 -0.021161 0.028516 0.000000 0.000000 0.000000
# 4 0.000000 0.000000 0.000000 0.049955 0.000000 0.000000
# 5 0.000000 0.000000 0.000000 0.000000 0.031058 0.000000
# 6 0.000000 0.000000 0.000000 0.000000 0.000000 0.031530
#
#
# Mechanical properties :
#
#
# Convention : Reuss Voigt Hill
#
# Bulk Modulus (GPa) = 37.69111 73.67452 55.68281
# Shear Modulus (GPa) = 17.85303 26.48550 22.16926
#
# Velocity S-wave (km/s) = 3.19515 3.89170 3.56050
# Velocity P-wave (km/s) = 5.93001 7.89452 6.98171
#
# Compressibility (1/GPa) = 0.02653146
#
# Stress axis : x y z
#
# Youngs Moduli (GPa) = 109.59773 18.19380 35.06776
#
# Poissons Ratio (x) = 0.10320 0.21755
# Poissons Ratio (y) = 0.62166 0.74206
# Poissons Ratio (z) = 0.67990 0.38499
#
# Static dielectric constant tensor:
#      x y z
#    x 1.573340 0.000000 0.000000 
#    y 0.000000 1.587880 0.000000 
#    z 0.000000 0.000000 1.597320 
# 
# From -- ./inp_files/27522.got.cif
#   From: 2010.05.17/outbox.cif.g08.bks.cpg/sg59_14_cif.got.tgz:27522.got - 2010.06.03 14:40:33.
