data_PCOD9448826
_publ_section_title
;
Structure prediction by ZEFSAII (Michael W. Deem and Ramdas Pophale) SiO2 
 PCOD9448826
Probable space group: P M M N
;
_chemical_formula_sum "Si O2"
_cell_formula_units_Z 48
_cell_length_a 15.103795
_cell_length_b 7.557666
_cell_length_c 20.438012
_cell_angle_alpha 90.000000
_cell_angle_beta 90.000000
_cell_angle_gamma 90.000000
_cell_volume 2332.987582
_symmetry_space_group_name_H-M "P M M N"
_symmetry_group_IT_number 59
_space_group.IT_coordinate_system_code '2'
_symmetry_cell_setting 'orthorhombic'
loop_
_space_group_symop_operation_xyz
x,y,z
1/2-x,1/2-y,z
1/2+x,-y,-z
-x,1/2+y,-z
-x,-y,-z
1/2+x,1/2+y,-z
1/2-x,y,z
x,1/2-y,z
loop_
_atom_site_type_symbol
_atom_site_label
_atom_site_fract_x
_atom_site_fract_y
_atom_site_fract_z
Si Si1 0.650334 0.460836 0.409447
Si Si2 0.750000 0.466851 0.021971
Si Si3 0.350995 0.462860 0.443423
Si Si4 0.942569 0.037482 0.064755
Si Si5 0.058447 0.039920 0.185451
Si Si6 0.015792 0.467521 0.330744
Si Si7 0.250000 0.960972 0.128963
O O1 0.750000 0.534178 0.404326
O O2 0.656004 0.250000 0.400684
O O3 0.617553 0.490671 0.483612
O O4 0.579757 0.526389 0.357067
O O5 0.750000 0.250000 0.022193
O O6 0.658219 0.525678 0.055053
O O7 0.750000 0.525397 0.946141
O O8 0.250000 0.528318 0.437120
O O9 0.348857 0.250000 0.439974
O O10 0.412746 0.525381 0.384791
O O11 0.937833 0.250000 0.070470
O O12 0.995110 0.967855 0.128011
O O13 0.000000 0.000000 0.000000
O O14 0.042235 0.250000 0.188144
O O15 0.038393 0.971022 0.257916
O O16 0.160298 0.015925 0.164976
O O17 0.016917 0.250000 0.330672
O O18 0.250000 0.750000 0.126066
#
# Coordination Sequence:
#
# PCOD9448826 Si02
#       7
#     8   4   8   8   8   8   4
#     4   9  17  31  50  71  98 128 163 209 254 292
#     4   9  18  33  53  75 103 134 163 206 260 301
#     4   9  17  29  48  71  94 126 166 204 248 298
#     4  10  19  34  54  77 103 134 172 212 253 300
#     4  10  21  35  54  78 104 135 175 212 246 305
#     4   9  18  32  49  72 100 132 165 203 251 297
#     4  11  21  35  55  77 107 138 163 204 266 313
#
# _framework density 20.574477000000002
#
# number of rings (size 3 to 8) (size 9 to 14) (size 15 to 20)
#    0.000    2.500    1.667    0.750    1.167    0.000 
#    1.500    2.083    0.000    0.000    0.000    0.000 
#    0.000    0.000    0.000    0.000    0.000    0.000 
#
# Total GULP energy -267983.292151 kJ/mol
# GULP energy per Si atom -5582.985253 kJ/mol
# Density = 2.052765 g / cm^3
# Si number density = 20.574477 Si / 1000 Ang^3
#
#
#
# Elastic Constant Matrix: (Units=GPa)
#
#
# Indices 1 2 3 4 5 6 
#
# 1 177.2220 -1.0118 123.6636 0.0000 0.0000 0.0000
# 2 -1.0118 47.8869 -0.4489 0.0000 0.0000 0.0000
# 3 123.6636 -0.4489 190.1964 0.0000 0.0000 0.0000
# 4 0.0000 0.0000 0.0000 5.3082 0.0000 0.0000
# 5 0.0000 0.0000 0.0000 0.0000 13.5636 0.0000
# 6 0.0000 0.0000 0.0000 0.0000 0.0000 3.1459
#
#
#
# Elastic Compliance Matrix: (Units=1/GPa)
#
#
# Indices 1 2 3 4 5 6 
#
# 1 0.010330 0.000155 -0.006716 0.000000 0.000000 0.000000
# 2 0.000155 0.020885 -0.000052 0.000000 0.000000 0.000000
# 3 -0.006716 -0.000052 0.009624 0.000000 0.000000 0.000000
# 4 0.000000 0.000000 0.000000 0.188389 0.000000 0.000000
# 5 0.000000 0.000000 0.000000 0.000000 0.073727 0.000000
# 6 0.000000 0.000000 0.000000 0.000000 0.000000 0.317872
#
#
# Mechanical properties :
#
#
# Convention : Reuss Voigt Hill
#
# Bulk Modulus (GPa) = 36.21258 73.30123 54.75690
# Shear Modulus (GPa) = 7.77294 23.94371 15.85832
#
# Velocity S-wave (km/s) = 1.94580 3.41509 2.77930
# Velocity P-wave (km/s) = 4.76310 7.15926 6.08039
#
# Compressibility (1/GPa) = 0.02761472
#
# Stress axis : x y z
#
# Youngs Moduli (GPa) = 96.80651 47.88049 103.90395
#
# Poissons Ratio (x) = -0.00744 0.69782
# Poissons Ratio (y) = -0.01503 0.00537
# Poissons Ratio (z) = 0.65015 0.00247
#
# Static dielectric constant tensor:
#      x y z
#    x 1.719130 0.000000 0.000000 
#    y 0.000000 1.773800 0.000000 
#    z 0.000000 0.000000 1.702170 
# 
# From -- ./inp_files/27411.got.cif
#   From: 2010.05.17/outbox.cif.g08.bks.cpg/sg59_14_cif.got.tgz:27411.got - 2010.06.03 14:40:33.
