data_PCOD9448462
_publ_section_title
;
Structure prediction by ZEFSAII (Michael W. Deem and Ramdas Pophale) SiO2 
 PCOD9448462
Probable space group: P M M N
;
_chemical_formula_sum "Si O2"
_cell_formula_units_Z 40
_cell_length_a 27.666465
_cell_length_b 13.480246
_cell_length_c 3.350973
_cell_angle_alpha 90.000000
_cell_angle_beta 90.000000
_cell_angle_gamma 90.000000
_cell_volume 1249.747907
_symmetry_space_group_name_H-M "P M M N"
_symmetry_group_IT_number 59
_space_group.IT_coordinate_system_code '2'
_symmetry_cell_setting 'orthorhombic'
loop_
_space_group_symop_operation_xyz
x,y,z
1/2-x,1/2-y,z
1/2+x,-y,-z
-x,1/2+y,-z
-x,-y,-z
1/2+x,1/2+y,-z
1/2-x,y,z
x,1/2-y,z
loop_
_atom_site_type_symbol
_atom_site_label
_atom_site_fract_x
_atom_site_fract_y
_atom_site_fract_z
Si Si1 0.403964 0.860164 0.717243
Si Si2 0.195582 0.088996 0.500872
Si Si3 0.009937 0.116187 0.015046
Si Si4 0.913454 0.903575 0.482288
Si Si5 0.696465 0.072090 0.999624
O O1 0.398314 0.750000 0.536496
O O2 0.454563 0.848912 0.958248
O O3 0.410024 0.974321 0.536678
O O4 0.355021 0.873390 0.977147
O O5 0.250000 0.135425 0.500818
O O6 0.141712 0.136078 0.508155
O O7 0.196423 0.957493 0.498003
O O8 0.195329 0.059281 0.000894
O O9 0.975567 0.861321 0.482309
O O10 0.073852 0.116903 0.018328
O O11 0.000000 0.000000 0.000000
O O12 0.750000 0.121167 0.000769
#
# Coordination Sequence:
#
# PCOD9448462 Si02
#       5
#     8   8   8   8   8
#     4  10  20  33  50  72  96 128 170 205 235 284
#     4   9  16  29  49  70  92 121 159 196 229 277
#     4  10  19  33  49  67  94 128 161 197 247 291
#     4  10  19  34  50  69  97 129 157 197 250 288
#     4   9  18  31  45  65  95 128 159 194 233 269
#
# _framework density 32.006452000000003
#
# number of rings (size 3 to 8) (size 9 to 14) (size 15 to 20)
#    0.000    2.400    0.000    6.000    0.000    2.000 
#    0.000   25.000    0.000    9.600    0.000    0.000 
#    0.000    4.800    0.000    3.000    0.000    4.600 
#
# Total GULP energy -223051.830036 kJ/mol
# GULP energy per Si atom -5576.295751 kJ/mol
# Density = 3.193360 g / cm^3
# Si number density = 32.006452 Si / 1000 Ang^3
#
#
#
# Elastic Constant Matrix: (Units=GPa)
#
#
# Indices 1 2 3 4 5 6 
#
# 1 423.3776 64.8436 111.4720 0.0000 0.0000 0.0000
# 2 64.8436 164.1672 40.0883 0.0000 0.0000 0.0000
# 3 111.4720 40.0883 322.1962 0.0000 0.0000 0.0000
# 4 0.0000 0.0000 0.0000 8.4477 0.0000 0.0000
# 5 0.0000 0.0000 0.0000 0.0000 137.8364 0.0000
# 6 0.0000 0.0000 0.0000 0.0000 0.0000 -20.4654
#
#
#
# Elastic Compliance Matrix: (Units=1/GPa)
#
#
# Indices 1 2 3 4 5 6 
#
# 1 0.002714 -0.000869 -0.000831 0.000000 0.000000 0.000000
# 2 -0.000869 0.006561 -0.000516 0.000000 0.000000 0.000000
# 3 -0.000831 -0.000516 0.003455 0.000000 0.000000 0.000000
# 4 0.000000 0.000000 0.000000 0.118375 0.000000 0.000000
# 5 0.000000 0.000000 0.000000 0.000000 0.007255 0.000000
# 6 0.000000 0.000000 0.000000 0.000000 0.000000 -0.048863
#
#
# Mechanical properties :
#
#
# Convention : Reuss Voigt Hill
#
# Bulk Modulus (GPa) = 120.50019 149.17209 134.83614
# Shear Modulus (GPa) = 51.70955 71.38623 61.54789
#
# Velocity S-wave (km/s) = 4.02381 4.72780 4.38994
# Velocity P-wave (km/s) = 7.70185 8.74705 8.24104
#
# Compressibility (1/GPa) = 0.00829874
#
# Stress axis : x y z
#
# Youngs Moduli (GPa) = 368.48764 152.42711 289.41209
#
# Poissons Ratio (x) = 0.13247 0.24044
# Poissons Ratio (y) = 0.32023 0.14922
# Poissons Ratio (z) = 0.30613 0.07859
#
# Static dielectric constant tensor:
#      x y z
#    x 2.195270 0.000000 0.000000 
#    y 0.000000 2.240490 0.000000 
#    z 0.000000 0.000000 2.928290 
# 
# From -- ./inp_files/4217.got.cif
#   From: 2010.05.17/outbox.cif.g08.bks.cpg/sg59_3_cif.got.tgz:4217.got - 2010.06.03 14:40:33.
