data_PCOD9448551
_publ_section_title
;
Structure prediction by ZEFSAII (Michael W. Deem and Ramdas Pophale) SiO2 
 PCOD9448551
Probable space group: P M M N
;
_chemical_formula_sum "Si O2"
_cell_formula_units_Z 48
_cell_length_a 12.533521
_cell_length_b 13.772283
_cell_length_c 15.045571
_cell_angle_alpha 90.000000
_cell_angle_beta 90.000000
_cell_angle_gamma 90.000000
_cell_volume 2597.094220
_symmetry_space_group_name_H-M "P M M N"
_symmetry_group_IT_number 59
_space_group.IT_coordinate_system_code '2'
_symmetry_cell_setting 'orthorhombic'
loop_
_space_group_symop_operation_xyz
x,y,z
1/2-x,1/2-y,z
1/2+x,-y,-z
-x,1/2+y,-z
-x,-y,-z
1/2+x,1/2+y,-z
1/2-x,y,z
x,1/2-y,z
loop_
_atom_site_type_symbol
_atom_site_label
_atom_site_fract_x
_atom_site_fract_y
_atom_site_fract_z
Si Si1 0.375932 0.472244 0.901473
Si Si2 0.453365 0.133661 0.526923
Si Si3 0.375696 0.050830 0.706169
Si Si4 0.750000 0.632665 0.793276
Si Si5 0.946380 0.866404 0.921698
Si Si6 0.250000 0.368336 0.410657
Si Si7 0.125059 0.859466 0.613947
O O1 0.250000 0.495632 0.899803
O O2 0.402518 0.423245 0.806593
O O3 0.447764 0.568838 0.909592
O O4 0.400241 0.400741 0.983042
O O5 0.449719 0.250000 0.531148
O O6 0.442234 0.096902 0.626726
O O7 0.353475 0.101555 0.466423
O O8 0.558364 0.107561 0.471508
O O9 0.250000 0.073324 0.690137
O O10 0.390075 0.935108 0.693064
O O11 0.750000 0.750000 0.790134
O O12 0.643380 0.606184 0.848050
O O13 0.750000 0.597261 0.691380
O O14 0.963320 0.750000 0.918632
O O15 0.250000 0.250000 0.407797
O O16 0.250000 0.858547 0.592525
O O17 0.090980 0.750000 0.637887
#
# Coordination Sequence:
#
# PCOD9448551 Si02
#       7
#     8   8   8   4   8   4   8
#     4  10  22  38  58  86 114 143 185 233 280 337
#     4  10  19  33  53  77 110 143 180 226 266 317
#     4  10  20  34  53  79 110 142 177 218 269 325
#     4   9  18  34  57  81 106 141 187 231 279 330
#     4  10  21  39  61  83 112 147 185 233 284 334
#     4   9  18  30  49  81 108 135 179 229 275 316
#     4   9  19  34  50  70 102 145 186 223 264 314
#
# _framework density 18.482194
#
# number of rings (size 3 to 8) (size 9 to 14) (size 15 to 20)
#    0.000    2.333    1.667    0.500    2.333    1.667 
#    0.000    3.333    0.000    0.000    0.000    2.333 
#    0.000    0.000    0.000    0.000    0.000    0.000 
#
# Total GULP energy -267742.577305 kJ/mol
# GULP energy per Si atom -5577.970361 kJ/mol
# Density = 1.844013 g / cm^3
# Si number density = 18.482194 Si / 1000 Ang^3
#
#
#
# Elastic Constant Matrix: (Units=GPa)
#
#
# Indices 1 2 3 4 5 6 
#
# 1 38.8340 11.8168 27.8718 0.0000 0.0000 0.0000
# 2 11.8168 32.7865 8.2653 0.0000 0.0000 0.0000
# 3 27.8718 8.2653 129.6854 0.0000 0.0000 0.0000
# 4 0.0000 0.0000 0.0000 17.1151 0.0000 0.0000
# 5 0.0000 0.0000 0.0000 0.0000 17.9376 0.0000
# 6 0.0000 0.0000 0.0000 0.0000 0.0000 18.7540
#
#
#
# Elastic Compliance Matrix: (Units=1/GPa)
#
#
# Indices 1 2 3 4 5 6 
#
# 1 0.033649 -0.010473 -0.006564 0.000000 0.000000 0.000000
# 2 -0.010473 0.034258 0.000067 0.000000 0.000000 0.000000
# 3 -0.006564 0.000067 0.009117 0.000000 0.000000 0.000000
# 4 0.000000 0.000000 0.000000 0.058428 0.000000 0.000000
# 5 0.000000 0.000000 0.000000 0.000000 0.055749 0.000000
# 6 0.000000 0.000000 0.000000 0.000000 0.000000 0.053322
#
#
# Mechanical properties :
#
#
# Convention : Reuss Voigt Hill
#
# Bulk Modulus (GPa) = 23.20998 33.02374 28.11686
# Shear Modulus (GPa) = 17.07513 20.98480 19.02996
#
# Velocity S-wave (km/s) = 3.04282 3.37323 3.21228
# Velocity P-wave (km/s) = 4.99302 5.75137 5.38556
#
# Compressibility (1/GPa) = 0.04308491
#
# Stress axis : x y z
#
# Youngs Moduli (GPa) = 29.71882 29.19030 109.67965
#
# Poissons Ratio (x) = 0.30570 0.71997
# Poissons Ratio (y) = 0.31124 -0.00739
# Poissons Ratio (z) = 0.19508 -0.00197
#
# Static dielectric constant tensor:
#      x y z
#    x 1.642830 0.000000 0.000000 
#    y 0.000000 1.662270 0.000000 
#    z 0.000000 0.000000 1.627790 
# 
# From -- ./inp_files/22430.got.cif
#   From: 2010.05.17/outbox.cif.g08.bks.cpg/sg59_12_cif.got.tgz:22430.got - 2010.06.03 14:40:33.
