data_PCOD9448235
_publ_section_title
;
Structure prediction by ZEFSAII (Michael W. Deem and Ramdas Pophale) SiO2 
 PCOD9448235
Probable space group: P M M N
;
_chemical_formula_sum "Si O2"
_cell_formula_units_Z 64
_cell_length_a 18.047480
_cell_length_b 8.540316
_cell_length_c 21.263179
_cell_angle_alpha 90.000000
_cell_angle_beta 90.000000
_cell_angle_gamma 90.000000
_cell_volume 3277.318917
_symmetry_space_group_name_H-M "P M M N"
_symmetry_group_IT_number 59
_space_group.IT_coordinate_system_code '2'
_symmetry_cell_setting 'orthorhombic'
loop_
_space_group_symop_operation_xyz
x,y,z
1/2-x,1/2-y,z
1/2+x,-y,-z
-x,1/2+y,-z
-x,-y,-z
1/2+x,1/2+y,-z
1/2-x,y,z
x,1/2-y,z
loop_
_atom_site_type_symbol
_atom_site_label
_atom_site_fract_x
_atom_site_fract_y
_atom_site_fract_z
Si Si1 0.450061 0.439349 0.114559
Si Si2 0.956927 0.564758 0.610523
Si Si3 0.168524 0.563466 0.479893
Si Si4 0.628598 0.565729 0.249506
Si Si5 0.122377 0.936841 0.883170
Si Si6 0.536603 0.937063 0.749145
Si Si7 0.876534 0.562745 0.388026
Si Si8 0.168957 0.438804 0.015485
O O1 0.450612 0.250000 0.109121
O O2 0.535860 0.489687 0.111039
O O3 0.423148 0.475997 0.185573
O O4 0.397128 0.500273 0.059757
O O5 0.970869 0.750000 0.603824
O O6 0.898174 0.511279 0.559238
O O7 0.927036 0.535299 0.681562
O O8 0.036064 0.479112 0.606103
O O9 0.250000 0.513443 0.456668
O O10 0.162786 0.750000 0.474621
O O11 0.161638 0.515590 0.552608
O O12 0.643073 0.750000 0.245967
O O13 0.654114 0.489373 0.184333
O O14 0.540404 0.530633 0.250633
O O15 0.652388 0.509634 0.319077
O O16 0.123736 0.750000 0.884939
O O17 0.161557 0.003806 0.944312
O O18 0.518407 0.750000 0.752013
O O19 0.867861 0.750000 0.391125
O O20 0.250000 0.483850 0.040464
O O21 0.164997 0.250000 0.015013
#
# Coordination Sequence:
#
# PCOD9448235 Si02
#       8
#     8   8   8   8   8   8   8   8
#     4   8  15  30  51  75 100 127 163 204 248 294
#     4  10  19  33  56  82 108 137 170 211 256 306
#     4  11  24  39  53  72 103 141 178 217 259 303
#     4   9  17  30  51  79 105 128 160 205 254 302
#     4  10  19  32  52  74  99 131 166 207 248 294
#     4   8  15  29  50  77 105 131 163 206 251 296
#     4  10  20  35  57  82 106 133 168 211 257 308
#     4  10  20  33  49  70  99 133 167 206 250 296
#
# _framework density 19.528158000000001
#
# number of rings (size 3 to 8) (size 9 to 14) (size 15 to 20)
#    0.000    2.500    0.000    3.375    0.000    3.250 
#    0.000    3.750    0.000    3.000    0.000    0.000 
#    0.000    0.000    0.000    0.000    0.000    0.000 
#
# Total GULP energy -356833.687402 kJ/mol
# GULP energy per Si atom -5575.526366 kJ/mol
# Density = 1.948371 g / cm^3
# Si number density = 19.528158 Si / 1000 Ang^3
#
#
#
# Elastic Constant Matrix: (Units=GPa)
#
#
# Indices 1 2 3 4 5 6 
#
# 1 47.4681 2.0858 23.4538 0.0000 0.0000 0.0000
# 2 2.0858 10.6109 0.4980 0.0000 0.0000 0.0000
# 3 23.4538 0.4980 90.0753 0.0000 0.0000 0.0000
# 4 0.0000 0.0000 0.0000 22.2103 0.0000 0.0000
# 5 0.0000 0.0000 0.0000 0.0000 -17.9833 0.0000
# 6 0.0000 0.0000 0.0000 0.0000 0.0000 8.7365
#
#
#
# Elastic Compliance Matrix: (Units=1/GPa)
#
#
# Indices 1 2 3 4 5 6 
#
# 1 0.024390 -0.004497 -0.006326 0.000000 0.000000 0.000000
# 2 -0.004497 0.095097 0.000645 0.000000 0.000000 0.000000
# 3 -0.006326 0.000645 0.012745 0.000000 0.000000 0.000000
# 4 0.000000 0.000000 0.000000 0.045024 0.000000 0.000000
# 5 0.000000 0.000000 0.000000 0.000000 -0.055607 0.000000
# 6 0.000000 0.000000 0.000000 0.000000 0.000000 0.114463
#
#
# Mechanical properties :
#
#
# Convention : Reuss Voigt Hill
#
# Bulk Modulus (GPa) = 8.93845 22.24774 15.59309
# Shear Modulus (GPa) = 17.02070 10.73381 13.87725
#
# Velocity S-wave (km/s) = 2.95549 2.34702 2.66865
# Velocity P-wave (km/s) = 4.02910 4.33152 4.18305
#
# Compressibility (1/GPa) = 0.11187621
#
# Stress axis : x y z
#
# Youngs Moduli (GPa) = 41.00049 10.51559 78.45992
#
# Poissons Ratio (x) = 0.04729 0.49632
# Poissons Ratio (y) = 0.18440 -0.05063
# Poissons Ratio (z) = 0.25936 -0.00679
#
# Static dielectric constant tensor:
#      x y z
#    x 1.677540 0.000000 0.000000 
#    y 0.000000 1.655420 0.000000 
#    z 0.000000 0.000000 1.717080 
# 
# From -- ./inp_files/30801.got.cif
#   From: 2010.05.17/outbox.cif.g08.bks.cpg/sg59_16_cif.got.tgz:30801.got - 2010.06.03 14:40:33.
