data_PCOD9448247
_publ_section_title
;
Structure prediction by ZEFSAII (Michael W. Deem and Ramdas Pophale) SiO2 
 PCOD9448247
Probable space group: P M M N
;
_chemical_formula_sum "Si O2"
_cell_formula_units_Z 40
_cell_length_a 17.478069
_cell_length_b 16.773957
_cell_length_c 7.918841
_cell_angle_alpha 90.000000
_cell_angle_beta 90.000000
_cell_angle_gamma 90.000000
_cell_volume 2321.617121
_symmetry_space_group_name_H-M "P M M N"
_symmetry_group_IT_number 59
_space_group.IT_coordinate_system_code '2'
_symmetry_cell_setting 'orthorhombic'
loop_
_space_group_symop_operation_xyz
x,y,z
1/2-x,1/2-y,z
1/2+x,-y,-z
-x,1/2+y,-z
-x,-y,-z
1/2+x,1/2+y,-z
1/2-x,y,z
x,1/2-y,z
loop_
_atom_site_type_symbol
_atom_site_label
_atom_site_fract_x
_atom_site_fract_y
_atom_site_fract_z
Si Si1 0.997650 0.845047 0.608222
Si Si2 0.558164 0.429985 0.060167
Si Si3 0.333528 0.344021 0.259767
Si Si4 0.483905 0.344309 0.764167
Si Si5 0.836812 0.933077 0.098343
O O1 0.010945 0.750000 0.632139
O O2 0.906522 0.859676 0.625648
O O3 0.018676 0.867548 0.417385
O O4 0.035982 0.893752 0.759119
O O5 0.638613 0.474943 0.075034
O O6 0.500000 0.500000 0.000000
O O7 0.542023 0.365147 0.915536
O O8 0.250000 0.360756 0.336062
O O9 0.336108 0.250000 0.216728
O O10 0.340645 0.392305 0.086347
O O11 0.468331 0.250000 0.761336
O O12 0.403589 0.389909 0.795201
O O13 0.750000 0.923887 0.161518
#
# Coordination Sequence:
#
# PCOD9448247 Si02
#       5
#     8   8   8   8   8
#     4  10  19  32  52  76 100 131 172 212 251 296
#     4  10  19  33  51  73 104 136 167 210 252 303
#     4   9  16  28  46  69 102 136 162 196 246 301
#     4  10  20  33  55  79  99 132 173 212 254 300
#     4  10  20  33  50  75 105 136 166 202 253 309
#
# _framework density 17.229369999999999
#
# number of rings (size 3 to 8) (size 9 to 14) (size 15 to 20)
#    0.000    2.200    4.000    1.200    0.000    5.200 
#    0.000    2.000    0.000    2.400    0.000    2.800 
#    0.000    0.000    0.000    0.000    0.000    0.000 
#
# Total GULP energy -222785.014094 kJ/mol
# GULP energy per Si atom -5569.625352 kJ/mol
# Density = 1.719016 g / cm^3
# Si number density = 17.229370 Si / 1000 Ang^3
#
#
#
# Elastic Constant Matrix: (Units=GPa)
#
#
# Indices 1 2 3 4 5 6 
#
# 1 20.0816 21.8049 25.6040 0.0000 0.0000 0.0000
# 2 21.8049 41.1750 35.2976 0.0000 0.0000 0.0000
# 3 25.6040 35.2976 107.0683 0.0000 0.0000 0.0000
# 4 0.0000 0.0000 0.0000 -18.2422 0.0000 0.0000
# 5 0.0000 0.0000 0.0000 0.0000 8.2132 0.0000
# 6 0.0000 0.0000 0.0000 0.0000 0.0000 24.9686
#
#
#
# Elastic Compliance Matrix: (Units=1/GPa)
#
#
# Indices 1 2 3 4 5 6 
#
# 1 0.126382 -0.057179 -0.011372 0.000000 0.000000 0.000000
# 2 -0.057179 0.059724 -0.006016 0.000000 0.000000 0.000000
# 3 -0.011372 -0.006016 0.014043 0.000000 0.000000 0.000000
# 4 0.000000 0.000000 0.000000 -0.054818 0.000000 0.000000
# 5 0.000000 0.000000 0.000000 0.000000 0.121755 0.000000
# 6 0.000000 0.000000 0.000000 0.000000 0.000000 0.040050
#
#
# Mechanical properties :
#
#
# Convention : Reuss Voigt Hill
#
# Bulk Modulus (GPa) = 19.60224 37.08201 28.34212
# Shear Modulus (GPa) = 10.56468 8.69580 9.63024
#
# Velocity S-wave (km/s) = 2.47893 2.24901 2.36676
# Velocity P-wave (km/s) = 4.42667 5.32103 4.89432
#
# Compressibility (1/GPa) = 0.05101459
#
# Stress axis : x y z
#
# Youngs Moduli (GPa) = 7.91251 16.74376 71.21190
#
# Poissons Ratio (x) = 0.95739 0.80984
# Poissons Ratio (y) = 0.45243 0.42839
# Poissons Ratio (z) = 0.08998 0.10073
#
# Static dielectric constant tensor:
#      x y z
#    x 1.592440 0.000000 0.000000 
#    y 0.000000 1.607550 0.000000 
#    z 0.000000 0.000000 1.605010 
# 
# From -- ./inp_files/8804.got.cif
#   From: 2010.05.17/outbox.cif.g08.bks.cpg/sg59_5_cif.got.tgz:8804.got - 2010.06.03 14:40:33.
