data_PCOD9448599
_publ_section_title
;
Structure prediction by ZEFSAII (Michael W. Deem and Ramdas Pophale) SiO2 
 PCOD9448599
Probable space group: P M M N
;
_chemical_formula_sum "Si O2"
_cell_formula_units_Z 56
_cell_length_a 14.637753
_cell_length_b 33.152542
_cell_length_c 6.706430
_cell_angle_alpha 90.000000
_cell_angle_beta 90.000000
_cell_angle_gamma 90.000000
_cell_volume 3254.487774
_symmetry_space_group_name_H-M "P M M N"
_symmetry_group_IT_number 59
_space_group.IT_coordinate_system_code '2'
_symmetry_cell_setting 'orthorhombic'
loop_
_space_group_symop_operation_xyz
x,y,z
1/2-x,1/2-y,z
1/2+x,-y,-z
-x,1/2+y,-z
-x,-y,-z
1/2+x,1/2+y,-z
1/2-x,y,z
x,1/2-y,z
loop_
_atom_site_type_symbol
_atom_site_label
_atom_site_fract_x
_atom_site_fract_y
_atom_site_fract_z
Si Si1 0.008810 0.703528 0.851063
Si Si2 0.648306 0.433016 0.885950
Si Si3 0.014333 0.152229 0.540687
Si Si4 0.937827 0.011518 0.189698
Si Si5 0.013642 0.057954 0.568031
Si Si6 0.856952 0.160036 0.861226
Si Si7 0.644001 0.796748 0.185020
O O1 0.017470 0.750000 0.784147
O O2 0.999306 0.672420 0.672075
O O3 0.094880 0.690614 0.986787
O O4 0.918452 0.700242 0.988318
O O5 0.750000 0.437884 0.804042
O O6 0.575687 0.442949 0.712526
O O7 0.635884 0.385971 0.942131
O O8 0.636409 0.460645 0.081342
O O9 0.035643 0.104697 0.538113
O O10 0.095823 0.174992 0.654213
O O11 0.920740 0.159434 0.665331
O O12 0.990811 0.037781 0.356009
O O13 0.915339 0.970385 0.310053
O O14 0.000000 0.000000 0.000000
O O15 0.750000 0.168641 0.825600
O O16 0.750000 0.806599 0.150240
O O17 0.638898 0.750000 0.251758
#
# Coordination Sequence:
#
# PCOD9448599 Si02
#       7
#     8   8   8   8   8   8   8
#     4  10  20  33  51  76 104 136 174 212 253 303
#     4   9  17  30  50  73  94 123 164 206 248 295
#     4  10  19  33  54  77 103 135 171 211 255 304
#     4   9  17  31  50  70  94 128 163 197 242 293
#     4   9  18  31  49  73 100 128 163 204 247 297
#     4   9  19  34  50  73 105 136 169 210 253 299
#     4   9  19  36  56  77 100 128 168 217 264 310
#
# _framework density 17.207007999999998
#
# number of rings (size 3 to 8) (size 9 to 14) (size 15 to 20)
#    0.000    2.714    0.000    1.286    0.000    3.714 
#    0.000    5.000    0.000    3.429    0.000    0.000 
#    0.000    0.000    0.000    0.000    0.000    0.000 
#
# Total GULP energy -311781.183537 kJ/mol
# GULP energy per Si atom -5567.521135 kJ/mol
# Density = 1.716784 g / cm^3
# Si number density = 17.207008 Si / 1000 Ang^3
#
#
#
# Elastic Constant Matrix: (Units=GPa)
#
#
# Indices 1 2 3 4 5 6 
#
# 1 88.2834 36.9957 14.4446 0.0000 0.0000 0.0000
# 2 36.9957 100.4758 51.4074 0.0000 0.0000 0.0000
# 3 14.4446 51.4074 73.3288 0.0000 0.0000 0.0000
# 4 0.0000 0.0000 0.0000 32.1363 0.0000 0.0000
# 5 0.0000 0.0000 0.0000 0.0000 7.2581 0.0000
# 6 0.0000 0.0000 0.0000 0.0000 0.0000 20.6919
#
#
#
# Elastic Compliance Matrix: (Units=1/GPa)
#
#
# Indices 1 2 3 4 5 6 
#
# 1 0.013471 -0.005617 0.001284 0.000000 0.000000 0.000000
# 2 -0.005617 0.017861 -0.011415 0.000000 0.000000 0.000000
# 3 0.001284 -0.011415 0.021387 0.000000 0.000000 0.000000
# 4 0.000000 0.000000 0.000000 0.031117 0.000000 0.000000
# 5 0.000000 0.000000 0.000000 0.000000 0.137778 0.000000
# 6 0.000000 0.000000 0.000000 0.000000 0.000000 0.048328
#
#
# Mechanical properties :
#
#
# Convention : Reuss Voigt Hill
#
# Bulk Modulus (GPa) = 47.11854 51.97593 49.54724
# Shear Modulus (GPa) = 16.20675 22.63329 19.42002
#
# Velocity S-wave (km/s) = 3.07232 3.63071 3.36313
# Velocity P-wave (km/s) = 6.32679 6.91722 6.62858
#
# Compressibility (1/GPa) = 0.02122307
#
# Stress axis : x y z
#
# Youngs Moduli (GPa) = 74.23394 55.98644 46.75749
#
# Poissons Ratio (x) = 0.31449 -0.06006
# Poissons Ratio (y) = 0.41699 0.53375
# Poissons Ratio (z) = -0.09535 0.63910
#
# Static dielectric constant tensor:
#      x y z
#    x 1.575030 0.000000 0.000000 
#    y 0.000000 1.612040 0.000000 
#    z 0.000000 0.000000 1.567440 
# 
# From -- ./inp_files/2335.got.cif
#   From: 2010.05.17/outbox.cif.g08.bks.cpg/sg59_2_cif.got.tgz:2335.got - 2010.06.03 14:40:33.
