data_PCOD9448313
_publ_section_title
;
Structure prediction by ZEFSAII (Michael W. Deem and Ramdas Pophale) SiO2 
 PCOD9448313
Probable space group: P M M N
;
_chemical_formula_sum "Si O2"
_cell_formula_units_Z 52
_cell_length_a 11.345917
_cell_length_b 8.151473
_cell_length_c 30.571898
_cell_angle_alpha 90.000000
_cell_angle_beta 90.000000
_cell_angle_gamma 90.000000
_cell_volume 2827.470604
_symmetry_space_group_name_H-M "P M M N"
_symmetry_group_IT_number 59
_space_group.IT_coordinate_system_code '2'
_symmetry_cell_setting 'orthorhombic'
loop_
_space_group_symop_operation_xyz
x,y,z
1/2-x,1/2-y,z
1/2+x,-y,-z
-x,1/2+y,-z
-x,-y,-z
1/2+x,1/2+y,-z
1/2-x,y,z
x,1/2-y,z
loop_
_atom_site_type_symbol
_atom_site_label
_atom_site_fract_x
_atom_site_fract_y
_atom_site_fract_z
Si Si1 0.374785 0.558427 0.482464
Si Si2 0.386134 0.933502 0.288447
Si Si3 0.038553 0.750000 0.729293
Si Si4 0.036949 0.564966 0.387511
Si Si5 0.385650 0.947344 0.971721
Si Si6 0.890363 0.569465 0.127411
Si Si7 0.616328 0.250000 0.370186
Si Si8 0.885934 0.250000 0.174281
O O1 0.500000 0.500000 0.500000
O O2 0.250000 0.482240 0.497594
O O3 0.370508 0.750000 0.493473
O O4 0.382850 0.543902 0.429957
O O5 0.250000 0.948052 0.275842
O O6 0.429109 0.750000 0.276165
O O7 0.395712 0.943216 0.341344
O O8 0.460414 0.084964 0.270689
O O9 0.105915 0.750000 0.682891
O O10 0.111720 0.750000 0.773611
O O11 0.984638 0.750000 0.390306
O O12 0.946265 0.414976 0.386699
O O13 0.250000 0.990289 0.987067
O O14 0.387907 0.750000 0.967570
O O15 0.399927 0.027002 0.923833
O O16 0.500000 0.000000 0.000000
O O17 0.750000 0.578606 0.137057
O O18 0.940911 0.750000 0.136603
O O19 0.940135 0.416982 0.154943
O O20 0.750000 0.250000 0.384165
O O21 0.750000 0.250000 0.158680
#
# Coordination Sequence:
#
# PCOD9448313 Si02
#       8
#     8   8   4   8   8   8   4   4
#     4  10  22  39  57  80 111 144 181 227 275 328
#     4   9  17  32  55  78 100 128 168 219 269 321
#     4  10  20  32  50  78 108 136 170 218 271 325
#     4   9  19  36  56  78 104 137 178 222 269 318
#     4  10  19  32  52  80 113 145 184 235 286 335
#     4   9  17  31  51  74 101 137 180 224 268 318
#     4  10  21  35  53  80 111 143 179 219 272 332
#     4  10  19  33  51  72 105 143 180 217 261 319
#
# _framework density 18.390995
#
# number of rings (size 3 to 8) (size 9 to 14) (size 15 to 20)
#    0.000    2.462    0.769    1.385    1.077    4.615 
#    0.000    2.308    0.000    4.615    0.000    2.154 
#    0.000    0.000    0.000    0.000    0.000    0.000 
#
# Total GULP energy -289602.990699 kJ/mol
# GULP energy per Si atom -5569.288283 kJ/mol
# Density = 1.834914 g / cm^3
# Si number density = 18.390995 Si / 1000 Ang^3
#
#
#
# Elastic Constant Matrix: (Units=GPa)
#
#
# Indices 1 2 3 4 5 6 
#
# 1 95.9193 54.0730 16.1009 0.0000 0.0000 0.0000
# 2 54.0730 139.1154 27.8103 0.0000 0.0000 0.0000
# 3 16.1009 27.8103 38.5030 0.0000 0.0000 0.0000
# 4 0.0000 0.0000 0.0000 18.2574 0.0000 0.0000
# 5 0.0000 0.0000 0.0000 0.0000 1865.1828 0.0000
# 6 0.0000 0.0000 0.0000 0.0000 0.0000 10.7416
#
#
#
# Elastic Compliance Matrix: (Units=1/GPa)
#
#
# Indices 1 2 3 4 5 6 
#
# 1 0.013504 -0.004815 -0.002169 0.000000 0.000000 0.000000
# 2 -0.004815 0.010118 -0.005295 0.000000 0.000000 0.000000
# 3 -0.002169 -0.005295 0.030703 0.000000 0.000000 0.000000
# 4 0.000000 0.000000 0.000000 0.054772 0.000000 0.000000
# 5 0.000000 0.000000 0.000000 0.000000 0.000536 0.000000
# 6 0.000000 0.000000 0.000000 0.000000 0.000000 0.093096
#
#
# Mechanical properties :
#
#
# Convention : Reuss Voigt Hill
#
# Bulk Modulus (GPa) = 33.59345 52.16734 42.88039
# Shear Modulus (GPa) = 21.07827 390.53991 205.80909
#
# Velocity S-wave (km/s) = 3.38911 14.58818 10.59011
# Velocity P-wave (km/s) = 5.79833 17.66863 13.14917
#
# Compressibility (1/GPa) = 0.02976771
#
# Stress axis : x y z
#
# Youngs Moduli (GPa) = 74.05165 98.82953 32.56968
#
# Poissons Ratio (x) = 0.47590 0.07064
# Poissons Ratio (y) = 0.35658 0.17245
# Poissons Ratio (z) = 0.16062 0.52328
#
# Static dielectric constant tensor:
#      x y z
#    x 1.650740 0.000000 0.000000 
#    y 0.000000 1.676420 0.000000 
#    z 0.000000 0.000000 1.624330 
# 
# From -- ./inp_files/32647.got.cif
#   From: 2010.05.17/outbox.cif.g08.bks.cpg/sg59_17_cif.got.tgz:32647.got - 2010.06.03 14:40:33.
