data_PCOD9448085
_publ_section_title
;
Structure prediction by ZEFSAII (Michael W. Deem and Ramdas Pophale) SiO2 
 PCOD9448085
Probable space group: P M M N
;
_chemical_formula_sum "Si O2"
_cell_formula_units_Z 64
_cell_length_a 30.515791
_cell_length_b 8.916957
_cell_length_c 15.256508
_cell_angle_alpha 90.000000
_cell_angle_beta 90.000000
_cell_angle_gamma 90.000000
_cell_volume 4151.417820
_symmetry_space_group_name_H-M "P M M N"
_symmetry_group_IT_number 59
_space_group.IT_coordinate_system_code '2'
_symmetry_cell_setting 'orthorhombic'
loop_
_space_group_symop_operation_xyz
x,y,z
1/2-x,1/2-y,z
1/2+x,-y,-z
-x,1/2+y,-z
-x,-y,-z
1/2+x,1/2+y,-z
1/2-x,y,z
x,1/2-y,z
loop_
_atom_site_type_symbol
_atom_site_label
_atom_site_fract_x
_atom_site_fract_y
_atom_site_fract_z
Si Si1 0.383611 0.929029 0.708723
Si Si2 0.467955 0.427631 0.372016
Si Si3 0.798754 0.567893 0.005997
Si Si4 0.063443 0.928743 0.543388
Si Si5 0.539332 0.429605 0.818253
Si Si6 0.800242 0.571430 0.211706
Si Si7 0.893741 0.568529 0.953298
Si Si8 0.059203 0.069538 0.863893
O O1 0.387098 0.750000 0.713827
O O2 0.399204 0.974514 0.611785
O O3 0.335292 0.983709 0.731881
O O4 0.415611 0.998709 0.781860
O O5 0.463129 0.250000 0.359568
O O6 0.437969 0.485777 0.451623
O O7 0.517578 0.457102 0.405659
O O8 0.459934 0.511121 0.281057
O O9 0.750000 0.515965 0.977859
O O10 0.798010 0.750000 0.002166
O O11 0.804473 0.529951 0.108873
O O12 0.842764 0.519304 0.956500
O O13 0.065763 0.750000 0.526961
O O14 0.542147 0.250000 0.819059
O O15 0.578175 0.499231 0.875349
O O16 0.491971 0.472941 0.859576
O O17 0.750000 0.544435 0.237396
O O18 0.808797 0.750000 0.217305
O O19 0.894760 0.750000 0.947414
O O20 0.917061 0.526669 0.045483
O O21 0.062108 0.250000 0.856515
#
# Coordination Sequence:
#
# PCOD9448085 Si02
#       8
#     8   8   8   8   8   8   8   8
#     4  11  20  30  48  73 102 130 159 200 245 292
#     4  10  19  33  51  70  93 124 162 201 238 283
#     4   8  14  27  48  70  91 120 159 202 243 280
#     4   9  19  33  48  70  97 125 157 196 242 285
#     4  11  22  33  47  68  98 132 166 206 245 287
#     4   9  17  31  50  70  96 130 166 201 238 287
#     4  10  19  32  49  68  94 129 168 205 238 286
#     4  10  20  33  47  66  95 134 173 201 232 281
#
# _framework density 15.416418999999999
#
# number of rings (size 3 to 8) (size 9 to 14) (size 15 to 20)
#    0.000    2.250    2.500    2.250    0.000    2.750 
#    0.000    0.000    0.000    0.375    0.000    0.875 
#    0.000    5.000    0.000    0.000    0.000    0.000 
#
# Total GULP energy -356899.238764 kJ/mol
# GULP energy per Si atom -5576.550606 kJ/mol
# Density = 1.538133 g / cm^3
# Si number density = 15.416419 Si / 1000 Ang^3
#
#
#
# Elastic Constant Matrix: (Units=GPa)
#
#
# Indices 1 2 3 4 5 6 
#
# 1 105.1580 31.1611 51.6801 0.0000 0.0000 0.0000
# 2 31.1611 18.8685 26.1382 0.0000 0.0000 0.0000
# 3 51.6801 26.1382 74.1683 0.0000 0.0000 0.0000
# 4 0.0000 0.0000 0.0000 24.4900 0.0000 0.0000
# 5 0.0000 0.0000 0.0000 0.0000 21.6311 0.0000
# 6 0.0000 0.0000 0.0000 0.0000 0.0000 21.4931
#
#
#
# Elastic Compliance Matrix: (Units=1/GPa)
#
#
# Indices 1 2 3 4 5 6 
#
# 1 0.019310 -0.025891 -0.004331 0.000000 0.000000 0.000000
# 2 -0.025891 0.138268 -0.030687 0.000000 0.000000 0.000000
# 3 -0.004331 -0.030687 0.027315 0.000000 0.000000 0.000000
# 4 0.000000 0.000000 0.000000 0.040833 0.000000 0.000000
# 5 0.000000 0.000000 0.000000 0.000000 0.046230 0.000000
# 6 0.000000 0.000000 0.000000 0.000000 0.000000 0.046527
#
#
# Mechanical properties :
#
#
# Convention : Reuss Voigt Hill
#
# Bulk Modulus (GPa) = 15.85415 46.23927 31.04671
# Shear Modulus (GPa) = 10.83835 19.47051 15.15443
#
# Velocity S-wave (km/s) = 2.65436 3.55769 3.13869
# Velocity P-wave (km/s) = 4.43852 6.85090 5.77214
#
# Compressibility (1/GPa) = 0.06307495
#
# Stress axis : x y z
#
# Youngs Moduli (GPa) = 51.78664 7.23235 36.60971
#
# Poissons Ratio (x) = 0.18725 0.15854
# Poissons Ratio (y) = 1.34081 1.12345
# Poissons Ratio (z) = 0.22427 0.22194
#
# Static dielectric constant tensor:
#      x y z
#    x 1.524210 0.000000 0.000000 
#    y 0.000000 1.512570 0.000000 
#    z 0.000000 0.000000 1.486140 
# 
# From -- ./inp_files/25005.got.cif
#   From: 2010.05.17/outbox.cif.g08.bks.cpg/sg59_13_cif.got.tgz:25005.got - 2010.06.03 14:40:33.
