data_PCOD9448910
_publ_section_title
;
Structure prediction by ZEFSAII (Michael W. Deem and Ramdas Pophale) SiO2 
 PCOD9448910
Probable space group: P M M N
;
_chemical_formula_sum "Si O2"
_cell_formula_units_Z 48
_cell_length_a 9.051760
_cell_length_b 15.596233
_cell_length_c 19.029281
_cell_angle_alpha 90.000000
_cell_angle_beta 90.000000
_cell_angle_gamma 90.000000
_cell_volume 2686.427499
_symmetry_space_group_name_H-M "P M M N"
_symmetry_group_IT_number 59
_space_group.IT_coordinate_system_code '2'
_symmetry_cell_setting 'orthorhombic'
loop_
_space_group_symop_operation_xyz
x,y,z
1/2-x,1/2-y,z
1/2+x,-y,-z
-x,1/2+y,-z
-x,-y,-z
1/2+x,1/2+y,-z
1/2-x,y,z
x,1/2-y,z
loop_
_atom_site_type_symbol
_atom_site_label
_atom_site_fract_x
_atom_site_fract_y
_atom_site_fract_z
Si Si1 0.576834 0.250000 0.429526
Si Si2 0.914656 0.043355 0.698004
Si Si3 0.929597 0.562897 0.557915
Si Si4 0.926355 0.990812 0.075740
Si Si5 0.585046 0.899596 0.816133
Si Si6 0.919761 0.250000 0.261228
Si Si7 0.572405 0.848044 0.191145
O O1 0.750000 0.250000 0.452481
O O2 0.496941 0.340542 0.449064
O O3 0.574786 0.250000 0.344932
O O4 0.750000 0.076210 0.680050
O O5 0.013542 0.116715 0.733750
O O6 0.966142 0.985259 0.632136
O O7 0.901820 0.978768 0.763161
O O8 0.750000 0.567892 0.553151
O O9 0.000000 0.500000 0.500000
O O10 0.750000 0.989760 0.069122
O O11 0.983671 0.071742 0.119993
O O12 0.970420 0.908541 0.124531
O O13 0.000000 0.000000 0.000000
O O14 0.750000 0.874164 0.838785
O O15 0.505012 0.829390 0.770387
O O16 0.750000 0.250000 0.239207
O O17 0.750000 0.851168 0.193869
O O18 0.524395 0.750000 0.180439
#
# Coordination Sequence:
#
# PCOD9448910 Si02
#       7
#     4   8   8   8   8   4   8
#     4  11  23  39  63  91 119 156 199 246 303 363
#     4   9  19  35  57  83 111 144 185 232 283 338
#     4  11  23  41  62  88 122 160 201 247 300 361
#     4  10  20  36  56  79 112 149 189 236 289 346
#     4  10  19  34  56  81 109 145 186 228 282 338
#     4  11  21  33  55  87 117 142 183 236 283 337
#     4   9  19  36  58  82 108 144 192 239 286 344
#
# _framework density 17.867597
#
# number of rings (size 3 to 8) (size 9 to 14) (size 15 to 20)
#    0.000    2.000    1.667    2.000    0.000    3.667 
#    3.000    0.000    0.000    0.000    0.000    0.000 
#    0.000    0.000    0.000    0.000    0.000    0.000 
#
# Total GULP energy -267259.467826 kJ/mol
# GULP energy per Si atom -5567.905580 kJ/mol
# Density = 1.782693 g / cm^3
# Si number density = 17.867597 Si / 1000 Ang^3
#
#
#
# Elastic Constant Matrix: (Units=GPa)
#
#
# Indices 1 2 3 4 5 6 
#
# 1 84.7106 60.6859 39.9902 0.0000 0.0000 0.0000
# 2 60.6859 110.1986 37.6980 0.0000 0.0000 0.0000
# 3 39.9902 37.6980 95.3019 0.0000 0.0000 0.0000
# 4 0.0000 0.0000 0.0000 36.9802 0.0000 0.0000
# 5 0.0000 0.0000 0.0000 0.0000 29.2256 0.0000
# 6 0.0000 0.0000 0.0000 0.0000 0.0000 52.2036
#
#
#
# Elastic Compliance Matrix: (Units=1/GPa)
#
#
# Indices 1 2 3 4 5 6 
#
# 1 0.021366 -0.010060 -0.004986 0.000000 0.000000 0.000000
# 2 -0.010060 0.015232 -0.001804 0.000000 0.000000 0.000000
# 3 -0.004986 -0.001804 0.013299 0.000000 0.000000 0.000000
# 4 0.000000 0.000000 0.000000 0.027041 0.000000 0.000000
# 5 0.000000 0.000000 0.000000 0.000000 0.034217 0.000000
# 6 0.000000 0.000000 0.000000 0.000000 0.000000 0.019156
#
#
# Mechanical properties :
#
#
# Convention : Reuss Voigt Hill
#
# Bulk Modulus (GPa) = 61.74260 62.99548 62.36904
# Shear Modulus (GPa) = 29.51443 33.80437 31.65940
#
# Velocity S-wave (km/s) = 4.06869 4.35436 4.21395
# Velocity P-wave (km/s) = 7.53014 7.78550 7.65888
#
# Compressibility (1/GPa) = 0.01619627
#
# Stress axis : x y z
#
# Youngs Moduli (GPa) = 46.80362 65.65229 75.19602
#
# Poissons Ratio (x) = 0.66049 0.37492
# Poissons Ratio (y) = 0.47087 0.13562
# Poissons Ratio (z) = 0.23336 0.11841
#
# Static dielectric constant tensor:
#      x y z
#    x 1.638470 0.000000 0.000000 
#    y 0.000000 1.609940 0.000000 
#    z 0.000000 0.000000 1.596040 
# 
# From -- ./inp_files/25553.got.cif
#   From: 2010.05.17/outbox.cif.g08.bks.cpg/sg59_13_cif.got.tgz:25553.got - 2010.06.03 14:40:33.
