data_PCOD9448279
_publ_section_title
;
Structure prediction by ZEFSAII (Michael W. Deem and Ramdas Pophale) SiO2 
 PCOD9448279
Probable space group: P M M N
;
_chemical_formula_sum "Si O2"
_cell_formula_units_Z 48
_cell_length_a 10.004447
_cell_length_b 33.789069
_cell_length_c 7.671232
_cell_angle_alpha 90.000000
_cell_angle_beta 90.000000
_cell_angle_gamma 90.000000
_cell_volume 2593.190553
_symmetry_space_group_name_H-M "P M M N"
_symmetry_group_IT_number 59
_space_group.IT_coordinate_system_code '2'
_symmetry_cell_setting 'orthorhombic'
loop_
_space_group_symop_operation_xyz
x,y,z
1/2-x,1/2-y,z
1/2+x,-y,-z
-x,1/2+y,-z
-x,-y,-z
1/2+x,1/2+y,-z
1/2-x,y,z
x,1/2-y,z
loop_
_atom_site_type_symbol
_atom_site_label
_atom_site_fract_x
_atom_site_fract_y
_atom_site_fract_z
Si Si1 0.590889 0.853236 0.836218
Si Si2 0.590798 0.642990 0.435967
Si Si3 0.899692 0.429451 0.665670
Si Si4 0.912124 0.705036 0.134618
Si Si5 0.012998 0.937412 0.960471
Si Si6 0.397605 0.489902 0.750715
O O1 0.750000 0.855119 0.862336
O O2 0.567574 0.844280 0.634376
O O3 0.537788 0.896605 0.883011
O O4 0.539103 0.819659 0.967174
O O5 0.750000 0.632787 0.415069
O O6 0.496106 0.605815 0.395298
O O7 0.559029 0.678289 0.303001
O O8 0.750000 0.428956 0.592825
O O9 0.983577 0.469895 0.640495
O O10 0.892072 0.427118 0.876703
O O11 0.750000 0.707239 0.124185
O O12 0.962041 0.750000 0.143178
O O13 0.904638 0.964072 0.067297
O O14 0.073334 0.965683 0.812951
O O15 0.250000 0.485628 0.674431
#
# Coordination Sequence:
#
# PCOD9448279 Si02
#       6
#     8   8   8   8   8   8
#     4  10  19  32  52  82 111 143 179 220 268 324
#     4  10  20  34  55  81 110 142 180 220 269 322
#     4  10  19  32  52  77 107 143 184 223 270 317
#     4   9  17  32  55  84 114 139 169 218 273 321
#     4   9  18  28  52  75 107 139 184 220 274 312
#     4   9  17  30  53  78 104 141 188 230 272 316
#
# _framework density 18.510014999999999
#
# number of rings (size 3 to 8) (size 9 to 14) (size 15 to 20)
#    1.000    1.500    1.667    1.500    0.000    1.333 
#    0.000    5.833    0.000    0.500    0.000    0.000 
#    0.000    0.000    0.000    0.000    0.000    0.000 
#
# Total GULP energy -267256.198387 kJ/mol
# GULP energy per Si atom -5567.837466 kJ/mol
# Density = 1.846789 g / cm^3
# Si number density = 18.510015 Si / 1000 Ang^3
#
#
#
# Elastic Constant Matrix: (Units=GPa)
#
#
# Indices 1 2 3 4 5 6 
#
# 1 68.4554 39.7705 42.6883 0.0000 0.0000 0.0000
# 2 39.7705 127.6335 78.9922 0.0000 0.0000 0.0000
# 3 42.6883 78.9922 85.8290 0.0000 0.0000 0.0000
# 4 0.0000 0.0000 0.0000 10.3942 0.0000 0.0000
# 5 0.0000 0.0000 0.0000 0.0000 10.6763 0.0000
# 6 0.0000 0.0000 0.0000 0.0000 0.0000 27.1255
#
#
#
# Elastic Compliance Matrix: (Units=1/GPa)
#
#
# Indices 1 2 3 4 5 6 
#
# 1 0.021178 -0.000186 -0.010362 0.000000 0.000000 0.000000
# 2 -0.000186 0.018205 -0.016663 0.000000 0.000000 0.000000
# 3 -0.010362 -0.016663 0.032140 0.000000 0.000000 0.000000
# 4 0.000000 0.000000 0.000000 0.096208 0.000000 0.000000
# 5 0.000000 0.000000 0.000000 0.000000 0.093665 0.000000
# 6 0.000000 0.000000 0.000000 0.000000 0.000000 0.036866
#
#
# Mechanical properties :
#
#
# Convention : Reuss Voigt Hill
#
# Bulk Modulus (GPa) = 58.47243 67.20220 62.83732
# Shear Modulus (GPa) = 13.95153 17.67033 15.81093
#
# Velocity S-wave (km/s) = 2.74839 3.09307 2.92581
# Velocity P-wave (km/s) = 6.45986 7.01005 6.74057
#
# Compressibility (1/GPa) = 0.01710208
#
# Stress axis : x y z
#
# Youngs Moduli (GPa) = 47.21953 54.92859 31.11376
#
# Poissons Ratio (x) = 0.01022 0.32239
# Poissons Ratio (y) = 0.00879 0.51844
# Poissons Ratio (z) = 0.48928 0.91526
#
# Static dielectric constant tensor:
#      x y z
#    x 1.647970 0.000000 0.000000 
#    y 0.000000 1.620970 0.000000 
#    z 0.000000 0.000000 1.676460 
# 
# From -- ./inp_files/7675.got.cif
#   From: 2010.05.17/outbox.cif.g08.bks.cpg/sg59_4_cif.got.tgz:7675.got - 2010.06.03 14:40:33.
