data_PCOD9448028
_publ_section_title
;
Structure prediction by ZEFSAII (Michael W. Deem and Ramdas Pophale) SiO2 
 PCOD9448028
Probable space group: P M M N
;
_chemical_formula_sum "Si O2"
_cell_formula_units_Z 64
_cell_length_a 8.631943
_cell_length_b 27.338101
_cell_length_c 12.618044
_cell_angle_alpha 90.000000
_cell_angle_beta 90.000000
_cell_angle_gamma 90.000000
_cell_volume 2977.617752
_symmetry_space_group_name_H-M "P M M N"
_symmetry_group_IT_number 59
_space_group.IT_coordinate_system_code '2'
_symmetry_cell_setting 'orthorhombic'
loop_
_space_group_symop_operation_xyz
x,y,z
1/2-x,1/2-y,z
1/2+x,-y,-z
-x,1/2+y,-z
-x,-y,-z
1/2+x,1/2+y,-z
1/2-x,y,z
x,1/2-y,z
loop_
_atom_site_type_symbol
_atom_site_label
_atom_site_fract_x
_atom_site_fract_y
_atom_site_fract_z
Si Si1 0.064220 0.092637 0.239105
Si Si2 0.573680 0.837136 0.266681
Si Si3 0.427121 0.449000 0.810354
Si Si4 0.434433 0.588046 0.979729
Si Si5 0.935846 0.484594 0.385748
Si Si6 0.065560 0.303155 0.291070
Si Si7 0.074116 0.807546 0.481160
Si Si8 0.435855 0.696305 0.052101
O O1 0.250000 0.091309 0.245184
O O2 0.006385 0.148753 0.233779
O O3 0.007414 0.069281 0.129504
O O4 0.994611 0.067528 0.343280
O O5 0.750000 0.818744 0.273838
O O6 0.577577 0.893318 0.231044
O O7 0.493266 0.834232 0.379901
O O8 0.482719 0.808282 0.175462
O O9 0.250000 0.465086 0.832357
O O10 0.488562 0.480164 0.711154
O O11 0.519235 0.444928 0.919837
O O12 0.250000 0.589276 0.969802
O O13 0.491494 0.644486 0.002293
O O14 0.750000 0.485995 0.390394
O O15 0.000000 0.500000 0.500000
O O16 0.250000 0.301259 0.275294
O O17 0.998491 0.250000 0.261706
O O18 0.029869 0.311657 0.414676
O O19 0.250000 0.823021 0.505338
O O20 0.076815 0.750000 0.453827
O O21 0.250000 0.696122 0.042735
O O22 0.492369 0.750000 0.012390
#
# Coordination Sequence:
#
# PCOD9448028 Si02
#       8
#     8   8   8   8   8   8   8   8
#     4  11  24  42  65  92 125 162 203 253 307 365
#     4  10  19  31  51  79 112 153 199 246 297 356
#     4   9  21  41  62  86 120 159 200 248 301 358
#     4  10  21  38  62  91 121 159 208 255 306 364
#     4  11  25  45  68  96 127 161 203 252 309 371
#     4   9  20  39  60  83 115 158 205 249 296 355
#     4  10  20  32  48  75 111 151 196 246 301 359
#     4   9  18  33  52  79 118 159 200 249 303 359
#
# _framework density 21.493691999999999
#
# number of rings (size 3 to 8) (size 9 to 14) (size 15 to 20)
#    0.000    2.125    0.000    2.250    1.750    6.500 
#    0.000    0.000    0.000    0.000    0.000    0.000 
#    0.000    0.000    0.000    0.000    0.000    0.000 
#
# Total GULP energy -357320.896795 kJ/mol
# GULP energy per Si atom -5583.139012 kJ/mol
# Density = 2.144477 g / cm^3
# Si number density = 21.493692 Si / 1000 Ang^3
#
#
#
# Elastic Constant Matrix: (Units=GPa)
#
#
# Indices 1 2 3 4 5 6 
#
# 1 21.6294 19.1611 14.2172 0.0000 0.0000 0.0000
# 2 19.1611 78.6768 49.7422 0.0000 0.0000 0.0000
# 3 14.2172 49.7422 113.9021 0.0000 0.0000 0.0000
# 4 0.0000 0.0000 0.0000 11.9527 0.0000 0.0000
# 5 0.0000 0.0000 0.0000 0.0000 27.5729 0.0000
# 6 0.0000 0.0000 0.0000 0.0000 0.0000 21.3046
#
#
#
# Elastic Compliance Matrix: (Units=1/GPa)
#
#
# Indices 1 2 3 4 5 6 
#
# 1 0.059139 -0.013449 -0.001508 0.000000 0.000000 0.000000
# 2 -0.013449 0.020617 -0.007325 0.000000 0.000000 0.000000
# 3 -0.001508 -0.007325 0.012167 0.000000 0.000000 0.000000
# 4 0.000000 0.000000 0.000000 0.083663 0.000000 0.000000
# 5 0.000000 0.000000 0.000000 0.000000 0.036267 0.000000
# 6 0.000000 0.000000 0.000000 0.000000 0.000000 0.046938
#
#
# Mechanical properties :
#
#
# Convention : Reuss Voigt Hill
#
# Bulk Modulus (GPa) = 21.11589 42.27213 31.69401
# Shear Modulus (GPa) = 15.66701 20.90523 18.28612
#
# Velocity S-wave (km/s) = 2.70277 3.12207 2.91996
# Velocity P-wave (km/s) = 4.42555 5.71895 5.11331
#
# Compressibility (1/GPa) = 0.04735771
#
# Stress axis : x y z
#
# Youngs Moduli (GPa) = 16.90927 48.50449 82.19268
#
# Poissons Ratio (x) = 0.65235 0.12397
# Poissons Ratio (y) = 0.22742 0.60204
# Poissons Ratio (z) = 0.02550 0.35528
#
# Static dielectric constant tensor:
#      x y z
#    x 1.724640 0.000000 0.000000 
#    y 0.000000 1.863080 0.000000 
#    z 0.000000 0.000000 1.730580 
# 
# From -- ./inp_files/14872.got.cif
#   From: 2010.05.17/outbox.cif.g08.bks.cpg/sg59_8_cif.got.tgz:14872.got - 2010.06.03 14:40:33.
