data_PCOD9448449
_publ_section_title
;
Structure prediction by ZEFSAII (Michael W. Deem and Ramdas Pophale) SiO2 
 PCOD9448449
Probable space group: P M M N
;
_chemical_formula_sum "Si O2"
_cell_formula_units_Z 56
_cell_length_a 16.190498
_cell_length_b 19.914609
_cell_length_c 9.248917
_cell_angle_alpha 90.000000
_cell_angle_beta 90.000000
_cell_angle_gamma 90.000000
_cell_volume 2982.104605
_symmetry_space_group_name_H-M "P M M N"
_symmetry_group_IT_number 59
_space_group.IT_coordinate_system_code '2'
_symmetry_cell_setting 'orthorhombic'
loop_
_space_group_symop_operation_xyz
x,y,z
1/2-x,1/2-y,z
1/2+x,-y,-z
-x,1/2+y,-z
-x,-y,-z
1/2+x,1/2+y,-z
1/2-x,y,z
x,1/2-y,z
loop_
_atom_site_type_symbol
_atom_site_label
_atom_site_fract_x
_atom_site_fract_y
_atom_site_fract_z
Si Si1 0.016730 0.570112 0.264327
Si Si2 0.606403 0.674896 0.772928
Si Si3 0.158346 0.027965 0.173150
Si Si4 0.975692 0.325096 0.479244
Si Si5 0.156801 0.012570 0.826375
Si Si6 0.343476 0.645683 0.764521
Si Si7 0.037454 0.823174 0.013710
O O1 0.082720 0.509388 0.253122
O O2 0.026912 0.615638 0.405490
O O3 0.921864 0.546726 0.248229
O O4 0.035301 0.617540 0.127281
O O5 0.644551 0.750000 0.780937
O O6 0.657407 0.607117 0.791495
O O7 0.556370 0.670468 0.622757
O O8 0.538778 0.671343 0.901973
O O9 0.250000 0.000400 0.209278
O O10 0.146399 0.018882 0.000178
O O11 0.974154 0.250000 0.543980
O O12 0.899869 0.332200 0.368275
O O13 0.250000 0.038370 0.792179
O O14 0.154033 0.934833 0.781318
O O15 0.250000 0.667243 0.745230
O O16 0.382694 0.672704 0.912247
O O17 0.032883 0.750000 0.084447
#
# Coordination Sequence:
#
# PCOD9448449 Si02
#       7
#     8   8   8   8   8   8   8
#     4  12  21  37  61  86 121 158 190 249 309 344
#     4   9  19  38  59  81 111 153 198 238 287 355
#     4  11  22  36  59  92 122 151 196 252 301 351
#     4  10  23  39  57  84 119 160 202 242 296 358
#     4  10  21  37  61  91 117 148 197 253 306 355
#     4  10  20  37  58  82 115 156 202 247 290 352
#     4  10  19  32  56  83 107 149 202 240 287 349
#
# _framework density 18.778683000000001
#
# number of rings (size 3 to 8) (size 9 to 14) (size 15 to 20)
#    0.000    1.714    2.857    3.857    0.000    4.286 
#    0.000    2.143    0.000    5.143    0.000    0.000 
#    0.000    0.000    0.000    0.000    0.000    0.000 
#
# Total GULP energy -312501.217006 kJ/mol
# GULP energy per Si atom -5580.378875 kJ/mol
# Density = 1.873594 g / cm^3
# Si number density = 18.778683 Si / 1000 Ang^3
#
#
#
# Elastic Constant Matrix: (Units=GPa)
#
#
# Indices 1 2 3 4 5 6 
#
# 1 104.6707 41.9286 20.1981 0.0000 0.0000 0.0000
# 2 41.9286 116.6647 32.3309 0.0000 0.0000 0.0000
# 3 20.1981 32.3309 56.9539 0.0000 0.0000 0.0000
# 4 0.0000 0.0000 0.0000 88.1651 0.0000 0.0000
# 5 0.0000 0.0000 0.0000 0.0000 4.9776 0.0000
# 6 0.0000 0.0000 0.0000 0.0000 0.0000 9.6488
#
#
#
# Elastic Compliance Matrix: (Units=1/GPa)
#
#
# Indices 1 2 3 4 5 6 
#
# 1 0.011355 -0.003518 -0.002030 0.000000 0.000000 0.000000
# 2 -0.003518 0.011262 -0.005145 0.000000 0.000000 0.000000
# 3 -0.002030 -0.005145 0.021199 0.000000 0.000000 0.000000
# 4 0.000000 0.000000 0.000000 0.011342 0.000000 0.000000
# 5 0.000000 0.000000 0.000000 0.000000 0.200899 0.000000
# 6 0.000000 0.000000 0.000000 0.000000 0.000000 0.103640
#
#
# Mechanical properties :
#
#
# Convention : Reuss Voigt Hill
#
# Bulk Modulus (GPa) = 44.58538 51.91161 48.24850
# Shear Modulus (GPa) = 12.86805 32.81375 22.84090
#
# Velocity S-wave (km/s) = 2.62056 4.18472 3.49136
# Velocity P-wave (km/s) = 5.74026 7.14514 6.48088
#
# Compressibility (1/GPa) = 0.02242888
#
# Stress axis : x y z
#
# Youngs Moduli (GPa) = 88.06849 88.79448 47.17276
#
# Poissons Ratio (x) = 0.31241 0.09574
# Poissons Ratio (y) = 0.30986 0.24272
# Poissons Ratio (z) = 0.17874 0.45687
#
# Static dielectric constant tensor:
#      x y z
#    x 1.655260 0.000000 0.000000 
#    y 0.000000 1.754020 0.000000 
#    z 0.000000 0.000000 1.613260 
# 
# From -- ./inp_files/9346.got.cif
#   From: 2010.05.17/outbox.cif.g08.bks.cpg/sg59_5_cif.got.tgz:9346.got - 2010.06.03 14:40:33.
