data_PCOD9448552
_publ_section_title
;
Structure prediction by ZEFSAII (Michael W. Deem and Ramdas Pophale) SiO2 
 PCOD9448552
Probable space group: P M M N
;
_chemical_formula_sum "Si O2"
_cell_formula_units_Z 64
_cell_length_a 20.361717
_cell_length_b 7.681492
_cell_length_c 19.236346
_cell_angle_alpha 90.000000
_cell_angle_beta 90.000000
_cell_angle_gamma 90.000000
_cell_volume 3008.725450
_symmetry_space_group_name_H-M "P M M N"
_symmetry_group_IT_number 59
_space_group.IT_coordinate_system_code '2'
_symmetry_cell_setting 'orthorhombic'
loop_
_space_group_symop_operation_xyz
x,y,z
1/2-x,1/2-y,z
1/2+x,-y,-z
-x,1/2+y,-z
-x,-y,-z
1/2+x,1/2+y,-z
1/2-x,y,z
x,1/2-y,z
loop_
_atom_site_type_symbol
_atom_site_label
_atom_site_fract_x
_atom_site_fract_y
_atom_site_fract_z
Si Si1 0.820394 0.960590 0.671753
Si Si2 0.321779 0.544587 0.028329
Si Si3 0.056940 0.960078 0.944205
Si Si4 0.366215 0.040288 0.181657
Si Si5 0.984957 0.460336 0.207388
Si Si6 0.929546 0.049012 0.568354
Si Si7 0.437763 0.043917 0.638419
Si Si8 0.825639 0.044869 0.456656
O O1 0.750000 0.013305 0.640266
O O2 0.825826 0.750000 0.666132
O O3 0.821866 0.005737 0.752815
O O4 0.883450 0.041524 0.636011
O O5 0.250000 0.466586 0.020074
O O6 0.318116 0.750000 0.012867
O O7 0.343821 0.529263 0.108027
O O8 0.376733 0.469500 0.978127
O O9 0.059256 0.750000 0.940371
O O10 0.046262 0.022070 0.865426
O O11 0.000000 0.000000 0.000000
O O12 0.366287 0.250000 0.175530
O O13 0.439423 0.983500 0.201479
O O14 0.984202 0.250000 0.207302
O O15 0.953827 0.513370 0.280663
O O16 0.941184 0.250000 0.548282
O O17 0.879182 0.968122 0.511652
O O18 0.000722 0.974084 0.590773
O O19 0.436348 0.250000 0.627518
O O20 0.367095 0.972704 0.614498
O O21 0.750000 0.976739 0.456393
O O22 0.820205 0.250000 0.473115
#
# Coordination Sequence:
#
# PCOD9448552 Si02
#       8
#     8   8   8   8   8   8   8   8
#     4  10  20  32  48  75 112 152 188 225 273 329
#     4  10  21  35  52  78 111 144 180 229 286 340
#     4  10  20  35  56  80 108 144 188 234 280 331
#     4  10  19  33  53  77 110 149 188 229 273 332
#     4  10  20  36  58  83 111 148 192 235 281 336
#     4  10  21  37  58  85 115 148 186 227 278 336
#     4  11  23  38  60  89 118 149 187 237 287 333
#     4  10  22  41  63  85 112 150 192 233 282 341
#
# _framework density 21.271467000000001
#
# number of rings (size 3 to 8) (size 9 to 14) (size 15 to 20)
#    0.000    1.875    2.500    1.500    0.000    4.250 
#    0.000    0.625    0.000    2.250    0.000    0.000 
#    0.000    0.000    0.000    0.000    0.000    0.000 
#
# Total GULP energy -357165.373483 kJ/mol
# GULP energy per Si atom -5580.708961 kJ/mol
# Density = 2.122305 g / cm^3
# Si number density = 21.271467 Si / 1000 Ang^3
#
#
#
# Elastic Constant Matrix: (Units=GPa)
#
#
# Indices 1 2 3 4 5 6 
#
# 1 159.5658 7.1504 87.2464 0.0000 0.0000 0.0000
# 2 7.1504 41.5575 5.7681 0.0000 0.0000 0.0000
# 3 87.2464 5.7681 117.0754 0.0000 0.0000 0.0000
# 4 0.0000 0.0000 0.0000 18.6319 0.0000 0.0000
# 5 0.0000 0.0000 0.0000 0.0000 24.9215 0.0000
# 6 0.0000 0.0000 0.0000 0.0000 0.0000 10.3818
#
#
#
# Elastic Compliance Matrix: (Units=1/GPa)
#
#
# Indices 1 2 3 4 5 6 
#
# 1 0.010599 -0.000732 -0.007862 0.000000 0.000000 0.000000
# 2 -0.000732 0.024279 -0.000650 0.000000 0.000000 0.000000
# 3 -0.007862 -0.000650 0.014433 0.000000 0.000000 0.000000
# 4 0.000000 0.000000 0.000000 0.053671 0.000000 0.000000
# 5 0.000000 0.000000 0.000000 0.000000 0.040126 0.000000
# 6 0.000000 0.000000 0.000000 0.000000 0.000000 0.096322
#
#
# Mechanical properties :
#
#
# Convention : Reuss Voigt Hill
#
# Bulk Modulus (GPa) = 32.44588 57.61430 45.03009
# Shear Modulus (GPa) = 18.64324 25.32262 21.98293
#
# Velocity S-wave (km/s) = 2.96369 3.45403 3.21821
# Velocity P-wave (km/s) = 5.19593 6.56134 5.91814
#
# Compressibility (1/GPa) = 0.03082055
#
# Stress axis : x y z
#
# Youngs Moduli (GPa) = 94.35129 41.18734 69.28757
#
# Poissons Ratio (x) = 0.03016 0.54475
# Poissons Ratio (y) = 0.06910 0.04507
# Poissons Ratio (z) = 0.74181 0.02679
#
# Static dielectric constant tensor:
#      x y z
#    x 1.796530 0.000000 0.000000 
#    y 0.000000 1.793510 0.000000 
#    z 0.000000 0.000000 1.780150 
# 
# From -- ./inp_files/28170.got.cif
#   From: 2010.05.17/outbox.cif.g08.bks.cpg/sg59_15_cif.got.tgz:28170.got - 2010.06.03 14:40:33.
