data_PCOD9448590
_publ_section_title
;
Structure prediction by ZEFSAII (Michael W. Deem and Ramdas Pophale) SiO2 
 PCOD9448590
Probable space group: P M M N
;
_chemical_formula_sum "Si O2"
_cell_formula_units_Z 64
_cell_length_a 23.768360
_cell_length_b 8.973679
_cell_length_c 17.413087
_cell_angle_alpha 90.000000
_cell_angle_beta 90.000000
_cell_angle_gamma 90.000000
_cell_volume 3714.030936
_symmetry_space_group_name_H-M "P M M N"
_symmetry_group_IT_number 59
_space_group.IT_coordinate_system_code '2'
_symmetry_cell_setting 'orthorhombic'
loop_
_space_group_symop_operation_xyz
x,y,z
1/2-x,1/2-y,z
1/2+x,-y,-z
-x,1/2+y,-z
-x,-y,-z
1/2+x,1/2+y,-z
1/2-x,y,z
x,1/2-y,z
loop_
_atom_site_type_symbol
_atom_site_label
_atom_site_fract_x
_atom_site_fract_y
_atom_site_fract_z
Si Si1 0.992952 0.929842 0.916715
Si Si2 0.103413 0.420432 0.192676
Si Si3 0.186665 0.570317 0.562528
Si Si4 0.101807 0.570432 0.432983
Si Si5 0.012408 0.421707 0.332478
Si Si6 0.432045 0.428550 0.783687
Si Si7 0.312880 0.928030 0.295306
Si Si8 0.811942 0.928601 0.269721
O O1 0.996865 0.750000 0.918222
O O2 0.931910 0.969594 0.881008
O O3 0.037637 0.994499 0.855719
O O4 0.000000 0.000000 0.000000
O O5 0.121281 0.250000 0.182674
O O6 0.058366 0.423293 0.263053
O O7 0.155452 0.517372 0.219546
O O8 0.250000 0.530276 0.532215
O O9 0.185208 0.750000 0.564780
O O10 0.133549 0.523203 0.510732
O O11 0.182592 0.504836 0.647401
O O12 0.093801 0.750000 0.433710
O O13 0.044169 0.493432 0.405353
O O14 0.148141 0.532786 0.367638
O O15 0.996704 0.250000 0.347451
O O16 0.961161 0.512652 0.295009
O O17 0.439310 0.250000 0.788269
O O18 0.366147 0.467058 0.780408
O O19 0.250000 0.988442 0.302283
O O20 0.310221 0.750000 0.294667
O O21 0.750000 0.967857 0.238269
O O22 0.813426 0.750000 0.280736
#
# Coordination Sequence:
#
# PCOD9448590 Si02
#       8
#     8   8   8   8   8   8   8   8
#     4  10  20  34  54  80 105 125 150 186 229 278
#     4   8  16  29  43  63  92 122 151 185 223 266
#     4   9  17  29  46  68  94 126 166 213 260 301
#     4   9  16  27  43  64  93 127 164 206 251 295
#     4   9  17  29  45  67  95 125 160 201 243 287
#     4  10  19  33  54  76  99 128 161 196 239 291
#     4   9  16  25  40  63  90 123 161 196 230 271
#     4   9  19  35  53  73  97 126 162 204 248 294
#
# _framework density 17.231952
#
# number of rings (size 3 to 8) (size 9 to 14) (size 15 to 20)
#    0.000    2.875    0.000    2.250    0.000    6.750 
#    0.000    0.625    0.000    3.000    0.000    1.750 
#    0.000    0.000    0.000    0.000    0.000    0.000 
#
# Total GULP energy -356491.736737 kJ/mol
# GULP energy per Si atom -5570.183387 kJ/mol
# Density = 1.719273 g / cm^3
# Si number density = 17.231952 Si / 1000 Ang^3
#
#
#
# Elastic Constant Matrix: (Units=GPa)
#
#
# Indices 1 2 3 4 5 6 
#
# 1 77.6128 27.4155 20.2284 0.0000 0.0000 0.0000
# 2 27.4155 28.2999 13.8839 0.0000 0.0000 0.0000
# 3 20.2284 13.8839 42.1847 0.0000 0.0000 0.0000
# 4 0.0000 0.0000 0.0000 23.0254 0.0000 0.0000
# 5 0.0000 0.0000 0.0000 0.0000 15.9520 0.0000
# 6 0.0000 0.0000 0.0000 0.0000 0.0000 18.9627
#
#
#
# Elastic Compliance Matrix: (Units=1/GPa)
#
#
# Indices 1 2 3 4 5 6 
#
# 1 0.020098 -0.017581 -0.003851 0.000000 0.000000 0.000000
# 2 -0.017581 0.057519 -0.010500 0.000000 0.000000 0.000000
# 3 -0.003851 -0.010500 0.029008 0.000000 0.000000 0.000000
# 4 0.000000 0.000000 0.000000 0.043430 0.000000 0.000000
# 5 0.000000 0.000000 0.000000 0.000000 0.062688 0.000000
# 6 0.000000 0.000000 0.000000 0.000000 0.000000 0.052735
#
#
# Mechanical properties :
#
#
# Convention : Reuss Voigt Hill
#
# Bulk Modulus (GPa) = 23.38629 30.12811 26.75720
# Shear Modulus (GPa) = 14.55195 17.35933 15.95564
#
# Velocity S-wave (km/s) = 2.90914 3.17739 3.04622
# Velocity P-wave (km/s) = 4.98849 5.56623 5.28526
#
# Compressibility (1/GPa) = 0.04276009
#
# Stress axis : x y z
#
# Youngs Moduli (GPa) = 49.75510 17.38569 34.47331
#
# Poissons Ratio (x) = 0.30566 0.13277
# Poissons Ratio (y) = 0.87474 0.36198
# Poissons Ratio (z) = 0.19163 0.18255
#
# Static dielectric constant tensor:
#      x y z
#    x 1.624580 0.000000 0.000000 
#    y 0.000000 1.580620 0.000000 
#    z 0.000000 0.000000 1.571890 
# 
# From -- ./inp_files/24802.got.cif
#   From: 2010.05.17/outbox.cif.g08.bks.cpg/sg59_13_cif.got.tgz:24802.got - 2010.06.03 14:40:33.
