data_PCOD9448654
_publ_section_title
;
Structure prediction by ZEFSAII (Michael W. Deem and Ramdas Pophale) SiO2 
 PCOD9448654
Probable space group: P M M N
;
_chemical_formula_sum "Si O2"
_cell_formula_units_Z 58
_cell_length_a 24.307257
_cell_length_b 7.746060
_cell_length_c 17.234976
_cell_angle_alpha 90.000000
_cell_angle_beta 90.000000
_cell_angle_gamma 90.000000
_cell_volume 3245.095577
_symmetry_space_group_name_H-M "P M M N"
_symmetry_group_IT_number 59
_space_group.IT_coordinate_system_code '2'
_symmetry_cell_setting 'orthorhombic'
loop_
_space_group_symop_operation_xyz
x,y,z
1/2-x,1/2-y,z
1/2+x,-y,-z
-x,1/2+y,-z
-x,-y,-z
1/2+x,1/2+y,-z
1/2-x,y,z
x,1/2-y,z
loop_
_atom_site_type_symbol
_atom_site_label
_atom_site_fract_x
_atom_site_fract_y
_atom_site_fract_z
Si Si1 0.087071 0.049720 0.456774
Si Si2 0.656645 0.952850 0.963142
Si Si3 0.508910 0.541570 0.223940
Si Si4 0.617975 0.039216 0.791609
Si Si5 0.312034 0.545265 0.355918
Si Si6 0.750000 0.250000 0.975672
Si Si7 0.029095 0.546132 0.606587
Si Si8 0.049069 0.043745 0.941481
O O1 0.088861 0.250000 0.436220
O O2 0.031894 0.974147 0.415748
O O3 0.144320 0.977579 0.425428
O O4 0.073787 0.030075 0.547709
O O5 0.671532 0.750000 0.977694
O O6 0.635912 0.966977 0.874324
O O7 0.702936 0.096023 0.973325
O O8 0.606344 0.004850 0.019503
O O9 0.509261 0.750000 0.222946
O O10 0.444856 0.487683 0.225807
O O11 0.537816 0.484830 0.302995
O O12 0.536169 0.475735 0.144541
O O13 0.619754 0.250000 0.795656
O O14 0.658143 0.980025 0.722387
O O15 0.250000 0.475995 0.367689
O O16 0.306837 0.750000 0.344809
O O17 0.028279 0.750000 0.591125
O O18 0.050126 0.250000 0.934919
O O19 0.000000 0.000000 0.000000
#
# Coordination Sequence:
#
# PCOD9448654 Si02
#       8
#     8   8   8   8   8   2   8   8
#     4  10  20  34  52  74 108 143 183 231 284 335
#     4  11  24  40  60  87 117 160 209 254 301 362
#     4  10  19  33  55  83 118 153 186 233 298 354
#     4  10  19  33  54  81 120 159 194 234 284 346
#     4  10  21  34  52  77 111 153 192 229 272 332
#     4  12  26  44  64  78 120 160 216 254 304 358
#     4  10  20  33  52  80 108 139 182 234 285 342
#     4  10  21  35  56  87 121 155 195 244 303 361
#
# _framework density 17.873125999999999
#
# number of rings (size 3 to 8) (size 9 to 14) (size 15 to 20)
#    0.000    1.793    3.448    1.034    1.931    3.034 
#    0.000    0.000    0.000    0.000    1.793    0.000 
#    0.000    0.000    0.000    0.000    0.000    0.000 
#
# Total GULP energy -323060.088100 kJ/mol
# GULP energy per Si atom -5570.001519 kJ/mol
# Density = 1.783245 g / cm^3
# Si number density = 17.873126 Si / 1000 Ang^3
#
#
#
# Elastic Constant Matrix: (Units=GPa)
#
#
# Indices 1 2 3 4 5 6 
#
# 1 115.7693 25.6792 71.8770 0.0000 0.0000 0.0000
# 2 25.6792 50.1744 7.7045 0.0000 0.0000 0.0000
# 3 71.8770 7.7045 134.1944 0.0000 0.0000 0.0000
# 4 0.0000 0.0000 0.0000 21.2572 0.0000 0.0000
# 5 0.0000 0.0000 0.0000 0.0000 -6.2529 0.0000
# 6 0.0000 0.0000 0.0000 0.0000 0.0000 14.0905
#
#
#
# Elastic Compliance Matrix: (Units=1/GPa)
#
#
# Indices 1 2 3 4 5 6 
#
# 1 0.014721 -0.006380 -0.007519 0.000000 0.000000 0.000000
# 2 -0.006380 0.022873 0.002104 0.000000 0.000000 0.000000
# 3 -0.007519 0.002104 0.011358 0.000000 0.000000 0.000000
# 4 0.000000 0.000000 0.000000 0.047043 0.000000 0.000000
# 5 0.000000 0.000000 0.000000 0.000000 -0.159927 0.000000
# 6 0.000000 0.000000 0.000000 0.000000 0.000000 0.070970
#
#
# Mechanical properties :
#
#
# Convention : Reuss Voigt Hill
#
# Bulk Modulus (GPa) = 39.42753 56.73995 48.08374
# Shear Modulus (GPa) = 127.94096 18.81080 73.37588
#
# Velocity S-wave (km/s) = 8.46984 3.24769 6.41427
# Velocity P-wave (km/s) = 10.85166 6.77334 9.04535
#
# Compressibility (1/GPa) = 0.02536299
#
# Stress axis : x y z
#
# Youngs Moduli (GPa) = 67.93048 43.72061 88.04256
#
# Poissons Ratio (x) = 0.27892 0.66195
# Poissons Ratio (y) = 0.43337 -0.18523
# Poissons Ratio (z) = 0.51074 -0.09198
#
# Static dielectric constant tensor:
#      x y z
#    x 1.599660 0.000000 0.000000 
#    y 0.000000 1.651710 0.000000 
#    z 0.000000 0.000000 1.613450 
# 
# From -- ./inp_files/24631.got.cif
#   From: 2010.05.17/outbox.cif.g08.bks.cpg/sg59_13_cif.got.tgz:24631.got - 2010.06.03 14:40:33.
