data_PCOD9448777
_publ_section_title
;
Structure prediction by ZEFSAII (Michael W. Deem and Ramdas Pophale) SiO2 
 PCOD9448777
Probable space group: P M M N
;
_chemical_formula_sum "Si O2"
_cell_formula_units_Z 58
_cell_length_a 12.008634
_cell_length_b 25.411938
_cell_length_c 8.432752
_cell_angle_alpha 90.000000
_cell_angle_beta 90.000000
_cell_angle_gamma 90.000000
_cell_volume 2573.361054
_symmetry_space_group_name_H-M "P M M N"
_symmetry_group_IT_number 59
_space_group.IT_coordinate_system_code '2'
_symmetry_cell_setting 'orthorhombic'
loop_
_space_group_symop_operation_xyz
x,y,z
1/2-x,1/2-y,z
1/2+x,-y,-z
-x,1/2+y,-z
-x,-y,-z
1/2+x,1/2+y,-z
1/2-x,y,z
x,1/2-y,z
loop_
_atom_site_type_symbol
_atom_site_label
_atom_site_fract_x
_atom_site_fract_y
_atom_site_fract_z
Si Si1 0.957354 0.955819 0.221880
Si Si2 0.582463 0.151964 0.266107
Si Si3 0.377846 0.159274 0.820391
Si Si4 0.128480 0.187333 0.448284
Si Si5 0.368596 0.592976 0.415185
Si Si6 0.121508 0.810207 0.166273
Si Si7 0.622624 0.054062 0.065130
Si Si8 0.250000 0.750000 0.776781
O O1 0.886495 0.904260 0.175646
O O2 0.023725 0.942472 0.382008
O O3 0.894122 0.010416 0.202046
O O4 0.053942 0.959803 0.090133
O O5 0.460786 0.165648 0.327614
O O6 0.630986 0.119604 0.414588
O O7 0.586521 0.111117 0.123642
O O8 0.652926 0.203817 0.232816
O O9 0.250000 0.175176 0.868730
O O10 0.390260 0.174241 0.633734
O O11 0.492331 0.183058 0.898836
O O12 0.250000 0.166450 0.406992
O O13 0.126953 0.250000 0.437546
O O14 0.250000 0.565225 0.390802
O O15 0.374119 0.642186 0.291742
O O16 0.250000 0.811871 0.089803
O O17 0.120082 0.750000 0.231147
O O18 0.750000 0.056297 0.021807
#
# Coordination Sequence:
#
# PCOD9448777 Si02
#       8
#     8   8   8   8   8   8   8   2
#     4  10  22  41  64  84 121 168 217 264 324 382
#     4  12  22  38  64  97 130 165 216 257 329 390
#     4  10  19  34  57  88 119 157 207 264 319 382
#     4  10  20  35  58  89 128 168 207 257 318 390
#     4  10  19  33  57  93 125 158 206 272 316 376
#     4   9  17  26  46  80 121 157 198 245 305 369
#     4  11  24  43  64  91 125 173 217 271 329 396
#     4  12  24  36  70  98 140 176 208 268 326 420
#
# _framework density 22.538616000000001
#
# number of rings (size 3 to 8) (size 9 to 14) (size 15 to 20)
#    0.000    1.655    4.828    1.241    0.966    1.931 
#    0.000    4.138    7.586    0.828    0.000    0.000 
#    0.000    0.000    0.000    0.000    0.000    0.000 
#
# Total GULP energy -323038.790042 kJ/mol
# GULP energy per Si atom -5569.634311 kJ/mol
# Density = 2.248732 g / cm^3
# Si number density = 22.538616 Si / 1000 Ang^3
#
#
#
# Elastic Constant Matrix: (Units=GPa)
#
#
# Indices 1 2 3 4 5 6 
#
# 1 187.8738 30.4921 24.8594 0.0000 0.0000 0.0000
# 2 30.4921 85.3961 4.5357 0.0000 0.0000 0.0000
# 3 24.8594 4.5357 27.9667 0.0000 0.0000 0.0000
# 4 0.0000 0.0000 0.0000 -36.3006 0.0000 0.0000
# 5 0.0000 0.0000 0.0000 0.0000 14.3309 0.0000
# 6 0.0000 0.0000 0.0000 0.0000 0.0000 17.3475
#
#
#
# Elastic Compliance Matrix: (Units=1/GPa)
#
#
# Indices 1 2 3 4 5 6 
#
# 1 0.006349 -0.001984 -0.005322 0.000000 0.000000 0.000000
# 2 -0.001984 0.012432 -0.000252 0.000000 0.000000 0.000000
# 3 -0.005322 -0.000252 0.040528 0.000000 0.000000 0.000000
# 4 0.000000 0.000000 0.000000 -0.027548 0.000000 0.000000
# 5 0.000000 0.000000 0.000000 0.000000 0.069779 0.000000
# 6 0.000000 0.000000 0.000000 0.000000 0.000000 0.057645
#
#
# Mechanical properties :
#
#
# Convention : Reuss Voigt Hill
#
# Bulk Modulus (GPa) = 22.62836 46.77900 34.70368
# Shear Modulus (GPa) = 26.45033 15.16553 20.80793
#
# Velocity S-wave (km/s) = 3.42944 2.59679 3.04174
# Velocity P-wave (km/s) = 5.07376 5.45813 5.26945
#
# Compressibility (1/GPa) = 0.04419234
#
# Stress axis : x y z
#
# Youngs Moduli (GPa) = 157.50632 80.43703 24.67416
#
# Poissons Ratio (x) = 0.15961 0.13131
# Poissons Ratio (y) = 0.31255 0.00623
# Poissons Ratio (z) = 0.83821 0.02030
#
# Static dielectric constant tensor:
#      x y z
#    x 1.949550 0.000000 0.000000 
#    y 0.000000 1.818610 0.000000 
#    z 0.000000 0.000000 1.895620 
# 
# From -- ./inp_files/7851.got.cif
#   From: 2010.05.17/outbox.cif.g08.bks.cpg/sg59_4_cif.got.tgz:7851.got - 2010.06.03 14:40:33.
