data_PCOD9448106
_publ_section_title
;
Structure prediction by ZEFSAII (Michael W. Deem and Ramdas Pophale) SiO2 
 PCOD9448106
Probable space group: P M M N
;
_chemical_formula_sum "Si O2"
_cell_formula_units_Z 64
_cell_length_a 30.306845
_cell_length_b 8.609562
_cell_length_c 13.453546
_cell_angle_alpha 90.000000
_cell_angle_beta 90.000000
_cell_angle_gamma 90.000000
_cell_volume 3510.415744
_symmetry_space_group_name_H-M "P M M N"
_symmetry_group_IT_number 59
_space_group.IT_coordinate_system_code '2'
_symmetry_cell_setting 'orthorhombic'
loop_
_space_group_symop_operation_xyz
x,y,z
1/2-x,1/2-y,z
1/2+x,-y,-z
-x,1/2+y,-z
-x,-y,-z
1/2+x,1/2+y,-z
1/2-x,y,z
x,1/2-y,z
loop_
_atom_site_type_symbol
_atom_site_label
_atom_site_fract_x
_atom_site_fract_y
_atom_site_fract_z
Si Si1 0.135906 0.066556 0.411254
Si Si2 0.124533 0.937421 0.191839
Si Si3 0.972667 0.070929 0.784982
Si Si4 0.539721 0.937109 0.068117
Si Si5 0.138148 0.063394 0.984045
Si Si6 0.302105 0.563333 0.582517
Si Si7 0.542113 0.072385 0.551829
Si Si8 0.301984 0.937257 0.806728
O O1 0.138206 0.250000 0.398563
O O2 0.087949 0.018930 0.454392
O O3 0.140451 0.990745 0.301098
O O4 0.171265 0.010453 0.492053
O O5 0.123930 0.750000 0.192498
O O6 0.073835 0.001675 0.180928
O O7 0.149168 0.996939 0.093609
O O8 0.950670 0.250000 0.519556
O O9 0.019482 0.013959 0.825222
O O10 0.969988 0.071405 0.667786
O O11 0.470221 0.750000 0.180432
O O12 0.588563 0.994734 0.044073
O O13 0.500000 0.000000 0.000000
O O14 0.138330 0.250000 0.989384
O O15 0.170330 0.009887 0.896071
O O16 0.250000 0.529017 0.573768
O O17 0.307228 0.750000 0.577406
O O18 0.316151 0.514264 0.694574
O O19 0.542583 0.750000 0.059196
O O20 0.500000 0.000000 0.500000
O O21 0.250000 0.975013 0.816641
O O22 0.305893 0.750000 0.811314
#
# Coordination Sequence:
#
# PCOD9448106 Si02
#       8
#     8   8   8   8   8   8   8   8
#     4  11  22  36  57  85 116 147 185 235 288 345
#     4  10  19  35  57  77 107 153 195 230 273 332
#     4   8  16  31  50  70 100 141 181 220 265 316
#     4  10  19  32  49  75 107 141 182 225 267 318
#     4  11  22  33  53  86 120 150 185 236 290 341
#     4   9  19  39  65  89 114 145 186 235 285 343
#     4  10  20  35  53  76 108 149 191 231 277 331
#     4   9  20  40  63  84 109 146 189 231 279 340
#
# _framework density 18.231459000000001
#
# number of rings (size 3 to 8) (size 9 to 14) (size 15 to 20)
#    0.000    2.250    1.250    3.750    0.000    2.500 
#    0.000    3.750    0.000    3.750    0.000    0.000 
#    0.000    0.000    0.000    0.000    0.000    0.000 
#
# Total GULP energy -356526.484415 kJ/mol
# GULP energy per Si atom -5570.726319 kJ/mol
# Density = 1.818996 g / cm^3
# Si number density = 18.231459 Si / 1000 Ang^3
#
#
#
# Elastic Constant Matrix: (Units=GPa)
#
#
# Indices 1 2 3 4 5 6 
#
# 1 74.8227 36.6495 72.4965 0.0000 0.0000 0.0000
# 2 36.6495 61.0633 50.3097 0.0000 0.0000 0.0000
# 3 72.4965 50.3097 129.1325 0.0000 0.0000 0.0000
# 4 0.0000 0.0000 0.0000 25.8766 0.0000 0.0000
# 5 0.0000 0.0000 0.0000 0.0000 36.3568 0.0000
# 6 0.0000 0.0000 0.0000 0.0000 0.0000 25.7609
#
#
#
# Elastic Compliance Matrix: (Units=1/GPa)
#
#
# Indices 1 2 3 4 5 6 
#
# 1 0.030847 -0.006253 -0.014882 0.000000 0.000000 0.000000
# 2 -0.006253 0.025386 -0.006380 0.000000 0.000000 0.000000
# 3 -0.014882 -0.006380 0.018584 0.000000 0.000000 0.000000
# 4 0.000000 0.000000 0.000000 0.038645 0.000000 0.000000
# 5 0.000000 0.000000 0.000000 0.000000 0.027505 0.000000
# 6 0.000000 0.000000 0.000000 0.000000 0.000000 0.038818
#
#
# Mechanical properties :
#
#
# Convention : Reuss Voigt Hill
#
# Bulk Modulus (GPa) = 50.53559 64.88110 57.70835
# Shear Modulus (GPa) = 20.71171 24.63638 22.67405
#
# Velocity S-wave (km/s) = 3.37418 3.68001 3.53041
# Velocity P-wave (km/s) = 6.55433 7.32948 6.95271
#
# Compressibility (1/GPa) = 0.01978804
#
# Stress axis : x y z
#
# Youngs Moduli (GPa) = 32.41850 39.39238 53.80926
#
# Poissons Ratio (x) = 0.24632 0.80076
# Poissons Ratio (y) = 0.20271 0.34329
# Poissons Ratio (z) = 0.48244 0.25131
#
# Static dielectric constant tensor:
#      x y z
#    x 1.636630 0.000000 0.000000 
#    y 0.000000 1.639870 0.000000 
#    z 0.000000 0.000000 1.678760 
# 
# From -- ./inp_files/19390.got.cif
#   From: 2010.05.17/outbox.cif.g08.bks.cpg/sg59_10_cif.got.tgz:19390.got - 2010.06.03 14:40:33.
