data_PCOD9448056
_publ_section_title
;
Structure prediction by ZEFSAII (Michael W. Deem and Ramdas Pophale) SiO2 
 PCOD9448056
Probable space group: P M M N
;
_chemical_formula_sum "Si O2"
_cell_formula_units_Z 64
_cell_length_a 9.056601
_cell_length_b 20.073234
_cell_length_c 20.548363
_cell_angle_alpha 90.000000
_cell_angle_beta 90.000000
_cell_angle_gamma 90.000000
_cell_volume 3735.595223
_symmetry_space_group_name_H-M "P M M N"
_symmetry_group_IT_number 59
_space_group.IT_coordinate_system_code '2'
_symmetry_cell_setting 'orthorhombic'
loop_
_space_group_symop_operation_xyz
x,y,z
1/2-x,1/2-y,z
1/2+x,-y,-z
-x,1/2+y,-z
-x,-y,-z
1/2+x,1/2+y,-z
1/2-x,y,z
x,1/2-y,z
loop_
_atom_site_type_symbol
_atom_site_label
_atom_site_fract_x
_atom_site_fract_y
_atom_site_fract_z
Si Si1 0.074808 0.939461 0.414392
Si Si2 0.072990 0.827689 0.662042
Si Si3 0.927247 0.328000 0.826532
Si Si4 0.426923 0.426261 0.723654
Si Si5 0.074351 0.438212 0.085021
Si Si6 0.427235 0.573302 0.778194
Si Si7 0.573813 0.409098 0.953400
Si Si8 0.575030 0.906329 0.546723
O O1 0.250000 0.927921 0.411684
O O2 0.997954 0.919277 0.347402
O O3 0.004344 0.903769 0.476975
O O4 0.050093 0.018718 0.425693
O O5 0.250000 0.835619 0.653412
O O6 0.041547 0.750000 0.672520
O O7 0.029841 0.872475 0.724075
O O8 0.992536 0.855570 0.598415
O O9 0.750000 0.337133 0.818961
O O10 0.960508 0.250000 0.821088
O O11 0.966224 0.356338 0.897904
O O12 0.009636 0.371511 0.772692
O O13 0.250000 0.422114 0.719441
O O14 0.465556 0.499705 0.751448
O O15 0.250000 0.431107 0.087191
O O16 0.039779 0.516981 0.074471
O O17 0.003078 0.415941 0.152536
O O18 0.008725 0.402029 0.021709
O O19 0.250000 0.575859 0.786261
O O20 0.750000 0.406116 0.964614
O O21 0.750000 0.896962 0.539247
#
# Coordination Sequence:
#
# PCOD9448056 Si02
#       8
#     8   8   8   8   8   8   8   8
#     4  10  20  34  56  83 112 144 182 226 273 326
#     4  10  21  38  58  80 111 151 190 227 273 333
#     4  10  21  38  58  80 110 148 186 225 276 339
#     4  11  21  34  56  84 114 145 183 233 280 324
#     4  10  19  31  53  81 107 137 177 227 275 318
#     4  10  20  34  54  81 111 145 184 228 275 326
#     4   9  18  33  52  77 107 138 177 223 270 326
#     4  10  20  34  55  83 113 143 179 228 278 325
#
# _framework density 17.132477000000002
#
# number of rings (size 3 to 8) (size 9 to 14) (size 15 to 20)
#    0.000    2.000    2.500    1.500    0.000    3.500 
#    0.000    1.250    0.000    7.500    0.000    0.000 
#    0.000    0.000    0.000    0.000    0.000    0.000 
#
# Total GULP energy -357300.283241 kJ/mol
# GULP energy per Si atom -5582.816926 kJ/mol
# Density = 1.709348 g / cm^3
# Si number density = 17.132477 Si / 1000 Ang^3
#
#
#
# Elastic Constant Matrix: (Units=GPa)
#
#
# Indices 1 2 3 4 5 6 
#
# 1 46.8547 54.7631 72.4337 0.0000 0.0000 0.0000
# 2 54.7631 101.2525 81.2096 0.0000 0.0000 0.0000
# 3 72.4337 81.2096 185.5454 0.0000 0.0000 0.0000
# 4 0.0000 0.0000 0.0000 25.6870 0.0000 0.0000
# 5 0.0000 0.0000 0.0000 0.0000 34.8824 0.0000
# 6 0.0000 0.0000 0.0000 0.0000 0.0000 21.5299
#
#
#
# Elastic Compliance Matrix: (Units=1/GPa)
#
#
# Indices 1 2 3 4 5 6 
#
# 1 0.095375 -0.033472 -0.022583 0.000000 0.000000 0.000000
# 2 -0.033472 0.026966 0.001265 0.000000 0.000000 0.000000
# 3 -0.022583 0.001265 0.013652 0.000000 0.000000 0.000000
# 4 0.000000 0.000000 0.000000 0.038930 0.000000 0.000000
# 5 0.000000 0.000000 0.000000 0.000000 0.028668 0.000000
# 6 0.000000 0.000000 0.000000 0.000000 0.000000 0.046447
#
#
# Mechanical properties :
#
#
# Convention : Reuss Voigt Hill
#
# Bulk Modulus (GPa) = 37.86080 83.38505 60.62293
# Shear Modulus (GPa) = 13.57137 24.76961 19.17049
#
# Velocity S-wave (km/s) = 2.81756 3.80645 3.34871
# Velocity P-wave (km/s) = 5.72116 8.25198 7.10024
#
# Compressibility (1/GPa) = 0.02641254
#
# Stress axis : x y z
#
# Youngs Moduli (GPa) = 10.48488 37.08433 73.24905
#
# Poissons Ratio (x) = 1.24128 1.65418
# Poissons Ratio (y) = 0.35095 -0.09262
# Poissons Ratio (z) = 0.23678 -0.04689
#
# Static dielectric constant tensor:
#      x y z
#    x 1.568050 0.000000 0.000000 
#    y 0.000000 1.566560 0.000000 
#    z 0.000000 0.000000 1.553790 
# 
# From -- ./inp_files/26223.got.cif
#   From: 2010.05.17/outbox.cif.g08.bks.cpg/sg59_14_cif.got.tgz:26223.got - 2010.06.03 14:40:33.
