data_PCOD9448473
_publ_section_title
;
Structure prediction by ZEFSAII (Michael W. Deem and Ramdas Pophale) SiO2 
 PCOD9448473
Probable space group: P M M N
;
_chemical_formula_sum "Si O2"
_cell_formula_units_Z 64
_cell_length_a 9.138261
_cell_length_b 28.847301
_cell_length_c 15.824584
_cell_angle_alpha 90.000000
_cell_angle_beta 90.000000
_cell_angle_gamma 90.000000
_cell_volume 4171.584508
_symmetry_space_group_name_H-M "P M M N"
_symmetry_group_IT_number 59
_space_group.IT_coordinate_system_code '2'
_symmetry_cell_setting 'orthorhombic'
loop_
_space_group_symop_operation_xyz
x,y,z
1/2-x,1/2-y,z
1/2+x,-y,-z
-x,1/2+y,-z
-x,-y,-z
1/2+x,1/2+y,-z
1/2-x,y,z
x,1/2-y,z
loop_
_atom_site_type_symbol
_atom_site_label
_atom_site_fract_x
_atom_site_fract_y
_atom_site_fract_z
Si Si1 0.581882 0.306222 0.502743
Si Si2 0.923419 0.046244 0.900459
Si Si3 0.577006 0.450039 0.101614
Si Si4 0.424728 0.141631 0.159499
Si Si5 0.575742 0.804657 0.326599
Si Si6 0.573879 0.305006 0.312489
Si Si7 0.574624 0.145814 0.829826
Si Si8 0.422597 0.694650 0.993349
O O1 0.750000 0.320972 0.516008
O O2 0.581875 0.250000 0.500852
O O3 0.484545 0.320279 0.582075
O O4 0.534882 0.319962 0.408276
O O5 0.750000 0.036946 0.889665
O O6 0.962458 0.092336 0.849019
O O7 0.945598 0.056327 0.000382
O O8 0.015540 0.000932 0.877731
O O9 0.750000 0.446703 0.117971
O O10 0.490215 0.409759 0.148842
O O11 0.250000 0.140822 0.161155
O O12 0.489898 0.166199 0.242264
O O13 0.482941 0.170604 0.078912
O O14 0.750000 0.808465 0.324490
O O15 0.536965 0.750000 0.316316
O O16 0.504484 0.833271 0.250976
O O17 0.750000 0.310213 0.303207
O O18 0.542493 0.250000 0.302942
O O19 0.750000 0.148971 0.818296
O O20 0.538763 0.174908 0.914430
O O21 0.250000 0.683577 0.978472
O O22 0.438953 0.750000 0.991248
#
# Coordination Sequence:
#
# PCOD9448473 Si02
#       8
#     8   8   8   8   8   8   8   8
#     4   8  15  30  51  71  91 122 164 204 242 286
#     4   9  18  33  52  73  94 118 158 207 251 288
#     4  10  19  34  53  70  93 124 161 202 247 292
#     4  12  23  32  46  70 100 131 164 200 242 289
#     4  10  20  31  45  70 103 133 162 201 244 284
#     4   9  18  33  52  72  96 128 166 205 243 288
#     4  10  19  33  51  70  94 128 166 201 238 287
#     4  10  20  34  49  65  92 132 172 203 235 280
#
# _framework density 15.341893000000001
#
# number of rings (size 3 to 8) (size 9 to 14) (size 15 to 20)
#    0.000    2.250    1.250    3.375    0.000    5.250 
#    0.000    1.250    0.000    0.000    0.000    0.875 
#    0.000    0.000    0.000    0.000    0.000    0.000 
#
# Total GULP energy -357045.094000 kJ/mol
# GULP energy per Si atom -5578.829594 kJ/mol
# Density = 1.530697 g / cm^3
# Si number density = 15.341893 Si / 1000 Ang^3
#
#
#
# Elastic Constant Matrix: (Units=GPa)
#
#
# Indices 1 2 3 4 5 6 
#
# 1 73.1579 61.6524 73.5814 0.0000 0.0000 0.0000
# 2 61.6524 89.3995 67.8342 0.0000 0.0000 0.0000
# 3 73.5814 67.8342 129.7378 0.0000 0.0000 0.0000
# 4 0.0000 0.0000 0.0000 4.9783 0.0000 0.0000
# 5 0.0000 0.0000 0.0000 0.0000 8.8804 0.0000
# 6 0.0000 0.0000 0.0000 0.0000 0.0000 24.9922
#
#
#
# Elastic Compliance Matrix: (Units=1/GPa)
#
#
# Indices 1 2 3 4 5 6 
#
# 1 0.046591 -0.020025 -0.015954 0.000000 0.000000 0.000000
# 2 -0.020025 0.027149 -0.002838 0.000000 0.000000 0.000000
# 3 -0.015954 -0.002838 0.018240 0.000000 0.000000 0.000000
# 4 0.000000 0.000000 0.000000 0.200874 0.000000 0.000000
# 5 0.000000 0.000000 0.000000 0.000000 0.112608 0.000000
# 6 0.000000 0.000000 0.000000 0.000000 0.000000 0.040013
#
#
# Mechanical properties :
#
#
# Convention : Reuss Voigt Hill
#
# Bulk Modulus (GPa) = 69.70427 77.60346 73.65387
# Shear Modulus (GPa) = 9.47167 13.71864 11.59515
#
# Velocity S-wave (km/s) = 2.48739 2.99355 2.75213
# Velocity P-wave (km/s) = 7.33363 7.91461 7.62965
#
# Compressibility (1/GPa) = 0.01434632
#
# Stress axis : x y z
#
# Youngs Moduli (GPa) = 21.46316 36.83431 54.82433
#
# Poissons Ratio (x) = 0.73761 0.87469
# Poissons Ratio (y) = 0.42980 0.15557
# Poissons Ratio (z) = 0.34243 0.10452
#
# Static dielectric constant tensor:
#      x y z
#    x 1.507220 0.000000 0.000000 
#    y 0.000000 1.495690 0.000000 
#    z 0.000000 0.000000 1.496890 
# 
# From -- ./inp_files/21850.got.cif
#   From: 2010.05.17/outbox.cif.g08.bks.cpg/sg59_11_cif.got.tgz:21850.got - 2010.06.03 14:40:33.
