data_PCOD9448783
_publ_section_title
;
Structure prediction by ZEFSAII (Michael W. Deem and Ramdas Pophale) SiO2 
 PCOD9448783
Probable space group: P M M N
;
_chemical_formula_sum "Si O2"
_cell_formula_units_Z 64
_cell_length_a 16.670917
_cell_length_b 18.578303
_cell_length_c 11.312777
_cell_angle_alpha 90.000000
_cell_angle_beta 90.000000
_cell_angle_gamma 90.000000
_cell_volume 3503.763283
_symmetry_space_group_name_H-M "P M M N"
_symmetry_group_IT_number 59
_space_group.IT_coordinate_system_code '2'
_symmetry_cell_setting 'orthorhombic'
loop_
_space_group_symop_operation_xyz
x,y,z
1/2-x,1/2-y,z
1/2+x,-y,-z
-x,1/2+y,-z
-x,-y,-z
1/2+x,1/2+y,-z
1/2-x,y,z
x,1/2-y,z
loop_
_atom_site_type_symbol
_atom_site_label
_atom_site_fract_x
_atom_site_fract_y
_atom_site_fract_z
Si Si1 0.980447 0.834572 0.073125
Si Si2 0.080900 0.446867 0.317738
Si Si3 0.998258 0.395089 0.667057
Si Si4 0.659117 0.084529 0.280661
Si Si5 0.044762 0.832652 0.574827
Si Si6 0.662596 0.555986 0.440421
Si Si7 0.157262 0.419210 0.064381
Si Si8 0.578214 0.047807 0.038905
O O1 0.978862 0.750000 0.053184
O O2 0.993437 0.853549 0.210384
O O3 0.898853 0.870490 0.020740
O O4 0.054462 0.874192 0.008348
O O5 0.147030 0.452141 0.420635
O O6 0.118070 0.421482 0.194431
O O7 0.038556 0.525257 0.310529
O O8 0.018209 0.387767 0.365439
O O9 0.087966 0.402319 0.615123
O O10 0.948694 0.356673 0.562249
O O11 0.750000 0.094506 0.236896
O O12 0.624138 0.153277 0.348316
O O13 0.601356 0.057650 0.175163
O O14 0.659964 0.021487 0.378121
O O15 0.019097 0.750000 0.580925
O O16 0.750000 0.588488 0.417146
O O17 0.250000 0.396958 0.065511
O O18 0.149012 0.501430 0.018323
O O19 0.500000 0.000000 0.000000
#
# Coordination Sequence:
#
# PCOD9448783 Si02
#       8
#     8   8   8   8   8   8   8   8
#     4  11  24  40  62  88 119 160 203 253 304 358
#     4  11  20  38  62  87 115 156 206 249 291 361
#     4  11  20  39  63  86 115 156 205 250 288 364
#     4  11  21  34  56  87 119 152 192 243 301 356
#     4  11  22  37  59  88 120 155 196 245 303 365
#     4  10  19  33  58  91 120 146 188 247 303 350
#     4  11  23  38  61  89 121 159 202 251 301 358
#     4  10  20  36  59  85 116 154 206 248 289 353
#
# _framework density 18.266074
#
# number of rings (size 3 to 8) (size 9 to 14) (size 15 to 20)
#    0.000    1.250    3.750    4.875    0.000    4.000 
#    0.000    0.000    0.000   13.125    0.000    0.000 
#    0.000    0.000    0.000    0.000    0.000    0.000 
#
# Total GULP energy -356955.578517 kJ/mol
# GULP energy per Si atom -5577.430914 kJ/mol
# Density = 1.822450 g / cm^3
# Si number density = 18.266074 Si / 1000 Ang^3
#
#
#
# Elastic Constant Matrix: (Units=GPa)
#
#
# Indices 1 2 3 4 5 6 
#
# 1 60.0393 32.9828 30.5647 0.0000 0.0000 0.0000
# 2 32.9828 106.5089 39.3051 0.0000 0.0000 0.0000
# 3 30.5647 39.3051 130.9310 0.0000 0.0000 0.0000
# 4 0.0000 0.0000 0.0000 15.0289 0.0000 0.0000
# 5 0.0000 0.0000 0.0000 0.0000 19.2714 0.0000
# 6 0.0000 0.0000 0.0000 0.0000 0.0000 11.9743
#
#
#
# Elastic Compliance Matrix: (Units=1/GPa)
#
#
# Indices 1 2 3 4 5 6 
#
# 1 0.021313 -0.005357 -0.003367 0.000000 0.000000 0.000000
# 2 -0.005357 0.011905 -0.002323 0.000000 0.000000 0.000000
# 3 -0.003367 -0.002323 0.009121 0.000000 0.000000 0.000000
# 4 0.000000 0.000000 0.000000 0.066538 0.000000 0.000000
# 5 0.000000 0.000000 0.000000 0.000000 0.051890 0.000000
# 6 0.000000 0.000000 0.000000 0.000000 0.000000 0.083512
#
#
# Mechanical properties :
#
#
# Convention : Reuss Voigt Hill
#
# Bulk Modulus (GPa) = 49.39796 55.90939 52.65368
# Shear Modulus (GPa) = 18.30674 22.23005 20.26839
#
# Velocity S-wave (km/s) = 3.16923 3.49236 3.33471
# Velocity P-wave (km/s) = 6.36351 6.85105 6.61177
#
# Compressibility (1/GPa) = 0.02024375
#
# Stress axis : x y z
#
# Youngs Moduli (GPa) = 46.91976 83.99614 109.63647
#
# Poissons Ratio (x) = 0.45001 0.36915
# Poissons Ratio (y) = 0.25137 0.25472
# Poissons Ratio (z) = 0.15798 0.19515
#
# Static dielectric constant tensor:
#      x y z
#    x 1.665750 0.000000 0.000000 
#    y 0.000000 1.619890 0.000000 
#    z 0.000000 0.000000 1.648780 
# 
# From -- ./inp_files/17945.got.cif
#   From: 2010.05.17/outbox.cif.g08.bks.cpg/sg59_9_cif.got.tgz:17945.got - 2010.06.03 14:40:33.
