data_PCOD9448854
_publ_section_title
;
Structure prediction by ZEFSAII (Michael W. Deem and Ramdas Pophale) SiO2 
 PCOD9448854
Probable space group: P M M N
;
_chemical_formula_sum "Si O2"
_cell_formula_units_Z 64
_cell_length_a 8.974533
_cell_length_b 19.481045
_cell_length_c 20.948090
_cell_angle_alpha 90.000000
_cell_angle_beta 90.000000
_cell_angle_gamma 90.000000
_cell_volume 3662.423310
_symmetry_space_group_name_H-M "P M M N"
_symmetry_group_IT_number 59
_space_group.IT_coordinate_system_code '2'
_symmetry_cell_setting 'orthorhombic'
loop_
_space_group_symop_operation_xyz
x,y,z
1/2-x,1/2-y,z
1/2+x,-y,-z
-x,1/2+y,-z
-x,-y,-z
1/2+x,1/2+y,-z
1/2-x,y,z
x,1/2-y,z
loop_
_atom_site_type_symbol
_atom_site_label
_atom_site_fract_x
_atom_site_fract_y
_atom_site_fract_z
Si Si1 0.429887 0.439729 0.822650
Si Si2 0.572547 0.331525 0.320791
Si Si3 0.078964 0.333518 0.453604
Si Si4 0.931158 0.828064 0.921240
Si Si5 0.429211 0.086458 0.204518
Si Si6 0.570766 0.829635 0.283720
Si Si7 0.429861 0.068343 0.970222
Si Si8 0.921687 0.166399 0.583550
O O1 0.250000 0.447364 0.820205
O O2 0.505268 0.510384 0.801290
O O3 0.471581 0.378448 0.774782
O O4 0.471304 0.424615 0.896102
O O5 0.750000 0.340656 0.317447
O O6 0.540362 0.250000 0.312489
O O7 0.512954 0.352452 0.390621
O O8 0.492177 0.374365 0.265935
O O9 0.250000 0.355850 0.448395
O O10 0.078458 0.250000 0.455571
O O11 0.006097 0.357256 0.519861
O O12 0.750000 0.826026 0.920970
O O13 0.985375 0.750000 0.918599
O O14 0.975298 0.871323 0.858978
O O15 0.976236 0.868158 0.985152
O O16 0.250000 0.084319 0.206797
O O17 0.750000 0.831360 0.290283
O O18 0.527793 0.750000 0.272659
O O19 0.499357 0.853678 0.350314
O O20 0.250000 0.062951 0.973563
O O21 0.500000 0.000000 0.000000
O O22 0.750000 0.144984 0.582207
O O23 0.925181 0.250000 0.582469
#
# Coordination Sequence:
#
# PCOD9448854 Si02
#       8
#     8   8   8   8   8   8   8   8
#     4  10  21  35  54  78 105 138 176 220 267 320
#     4  10  20  33  50  75 108 142 177 222 270 313
#     4   9  16  27  46  73 104 139 178 218 261 312
#     4   9  18  32  52  79 106 134 173 219 264 310
#     4  11  21  34  53  75 104 143 182 220 261 317
#     4   9  18  33  52  76 105 136 173 219 269 319
#     4  10  19  34  55  77 103 136 173 216 263 315
#     4   9  16  27  46  73 104 137 173 216 265 315
#
# _framework density 17.474768999999998
#
# number of rings (size 3 to 8) (size 9 to 14) (size 15 to 20)
#    0.000    2.375    1.250    1.875    0.000    5.250 
#    0.000    2.500    0.000    1.875    0.000    1.750 
#    0.000    0.000    0.000    0.000    0.000    0.000 
#
# Total GULP energy -356986.069912 kJ/mol
# GULP energy per Si atom -5577.907342 kJ/mol
# Density = 1.743500 g / cm^3
# Si number density = 17.474769 Si / 1000 Ang^3
#
#
#
# Elastic Constant Matrix: (Units=GPa)
#
#
# Indices 1 2 3 4 5 6 
#
# 1 44.1607 35.1944 57.7555 0.0000 0.0000 0.0000
# 2 35.1944 90.9528 77.4871 0.0000 0.0000 0.0000
# 3 57.7555 77.4871 190.3909 0.0000 0.0000 0.0000
# 4 0.0000 0.0000 0.0000 12.6760 0.0000 0.0000
# 5 0.0000 0.0000 0.0000 0.0000 22.2548 0.0000
# 6 0.0000 0.0000 0.0000 0.0000 0.0000 19.9021
#
#
#
# Elastic Compliance Matrix: (Units=1/GPa)
#
#
# Indices 1 2 3 4 5 6 
#
# 1 0.041083 -0.008082 -0.009173 0.000000 0.000000 0.000000
# 2 -0.008082 0.018420 -0.005045 0.000000 0.000000 0.000000
# 3 -0.009173 -0.005045 0.010088 0.000000 0.000000 0.000000
# 4 0.000000 0.000000 0.000000 0.078889 0.000000 0.000000
# 5 0.000000 0.000000 0.000000 0.000000 0.044934 0.000000
# 6 0.000000 0.000000 0.000000 0.000000 0.000000 0.050246
#
#
# Mechanical properties :
#
#
# Convention : Reuss Voigt Hill
#
# Bulk Modulus (GPa) = 40.01484 74.04203 57.02844
# Shear Modulus (GPa) = 16.85816 21.30439 19.08127
#
# Velocity S-wave (km/s) = 3.10935 3.49542 3.30803
# Velocity P-wave (km/s) = 5.98658 7.66508 6.87723
#
# Compressibility (1/GPa) = 0.02499073
#
# Stress axis : x y z
#
# Youngs Moduli (GPa) = 24.34104 54.28803 99.12337
#
# Poissons Ratio (x) = 0.43875 0.90929
# Poissons Ratio (y) = 0.19672 0.50010
# Poissons Ratio (z) = 0.22329 0.27389
#
# Static dielectric constant tensor:
#      x y z
#    x 1.584990 0.000000 0.000000 
#    y 0.000000 1.576330 0.000000 
#    z 0.000000 0.000000 1.581780 
# 
# From -- ./inp_files/29568.got.cif
#   From: 2010.05.17/outbox.cif.g08.bks.cpg/sg59_15_cif.got.tgz:29568.got - 2010.06.03 14:40:33.
