data_PCOD9448487
_publ_section_title
;
Structure prediction by ZEFSAII (Michael W. Deem and Ramdas Pophale) SiO2 
 PCOD9448487
Probable space group: P M M N
;
_chemical_formula_sum "Si O2"
_cell_formula_units_Z 64
_cell_length_a 8.980980
_cell_length_b 30.046863
_cell_length_c 15.151137
_cell_angle_alpha 90.000000
_cell_angle_beta 90.000000
_cell_angle_gamma 90.000000
_cell_volume 4088.538496
_symmetry_space_group_name_H-M "P M M N"
_symmetry_group_IT_number 59
_space_group.IT_coordinate_system_code '2'
_symmetry_cell_setting 'orthorhombic'
loop_
_space_group_symop_operation_xyz
x,y,z
1/2-x,1/2-y,z
1/2+x,-y,-z
-x,1/2+y,-z
-x,-y,-z
1/2+x,1/2+y,-z
1/2-x,y,z
x,1/2-y,z
loop_
_atom_site_type_symbol
_atom_site_label
_atom_site_fract_x
_atom_site_fract_y
_atom_site_fract_z
Si Si1 0.074261 0.066523 0.949621
Si Si2 0.571752 0.300774 0.511235
Si Si3 0.426708 0.533498 0.879041
Si Si4 0.928452 0.561584 0.357930
Si Si5 0.423671 0.301642 0.704027
Si Si6 0.072234 0.389481 0.456770
Si Si7 0.928958 0.459863 0.326547
Si Si8 0.927121 0.381234 0.797821
O O1 0.250000 0.075346 0.946865
O O2 0.986052 0.101893 0.891591
O O3 0.048069 0.018307 0.903672
O O4 0.016443 0.061782 0.049294
O O5 0.750000 0.305237 0.515406
O O6 0.537088 0.250000 0.481715
O O7 0.503007 0.305787 0.609179
O O8 0.502376 0.340872 0.455420
O O9 0.250000 0.541636 0.889721
O O10 0.466574 0.541596 0.777419
O O11 0.750000 0.564317 0.341985
O O12 0.962355 0.587130 0.448762
O O13 0.967508 0.509374 0.361527
O O14 0.011353 0.585148 0.277209
O O15 0.250000 0.314305 0.694233
O O16 0.431417 0.250000 0.730114
O O17 0.503967 0.333873 0.771886
O O18 0.250000 0.385337 0.450642
O O19 0.009841 0.421955 0.381849
O O20 0.750000 0.454807 0.334873
O O21 0.750000 0.380210 0.795290
#
# Coordination Sequence:
#
# PCOD9448487 Si02
#       8
#     8   8   8   8   8   8   8   8
#     4  10  19  33  52  72 100 132 165 209 253 298
#     4  10  20  34  52  74  99 129 168 211 255 302
#     4   9  18  33  51  73  98 130 169 211 254 296
#     4  10  20  35  49  68 101 141 177 211 249 293
#     4  10  20  34  52  73 100 133 167 207 255 304
#     4  11  22  33  50  74 102 137 176 212 251 304
#     4  10  20  35  52  69 101 140 175 216 255 295
#     4  12  22  31  50  76 103 136 172 209 248 303
#
# _framework density 15.653516
#
# number of rings (size 3 to 8) (size 9 to 14) (size 15 to 20)
#    0.000    1.750    2.500    3.000    0.000    3.500 
#    0.000    0.000    0.000    0.000    0.000    0.875 
#    0.000    1.000    0.000    0.000    0.000    0.000 
#
# Total GULP energy -357320.449192 kJ/mol
# GULP energy per Si atom -5583.132019 kJ/mol
# Density = 1.561789 g / cm^3
# Si number density = 15.653516 Si / 1000 Ang^3
#
#
#
# Elastic Constant Matrix: (Units=GPa)
#
#
# Indices 1 2 3 4 5 6 
#
# 1 62.4060 54.4805 39.5199 0.0000 0.0000 0.0000
# 2 54.4805 109.5098 48.9440 0.0000 0.0000 0.0000
# 3 39.5199 48.9440 66.0228 0.0000 0.0000 0.0000
# 4 0.0000 0.0000 0.0000 21.5011 0.0000 0.0000
# 5 0.0000 0.0000 0.0000 0.0000 25.9282 0.0000
# 6 0.0000 0.0000 0.0000 0.0000 0.0000 25.2864
#
#
#
# Elastic Compliance Matrix: (Units=1/GPa)
#
#
# Indices 1 2 3 4 5 6 
#
# 1 0.033235 -0.011430 -0.011420 0.000000 0.000000 0.000000
# 2 -0.011430 0.017587 -0.006196 0.000000 0.000000 0.000000
# 3 -0.011420 -0.006196 0.026575 0.000000 0.000000 0.000000
# 4 0.000000 0.000000 0.000000 0.046509 0.000000 0.000000
# 5 0.000000 0.000000 0.000000 0.000000 0.038568 0.000000
# 6 0.000000 0.000000 0.000000 0.000000 0.000000 0.039547
#
#
# Mechanical properties :
#
#
# Convention : Reuss Voigt Hill
#
# Bulk Modulus (GPa) = 51.80070 58.20305 55.00187
# Shear Modulus (GPa) = 18.75830 20.87609 19.81720
#
# Velocity S-wave (km/s) = 3.46547 3.65586 3.56194
# Velocity P-wave (km/s) = 7.01260 7.42181 7.22010
#
# Compressibility (1/GPa) = 0.01930476
#
# Stress axis : x y z
#
# Youngs Moduli (GPa) = 30.08918 56.85981 37.62869
#
# Poissons Ratio (x) = 0.64990 0.42973
# Poissons Ratio (y) = 0.34391 0.23315
# Poissons Ratio (z) = 0.34363 0.35230
#
# Static dielectric constant tensor:
#      x y z
#    x 1.520760 0.000000 0.000000 
#    y 0.000000 1.524120 0.000000 
#    z 0.000000 0.000000 1.497590 
# 
# From -- ./inp_files/21945.got.cif
#   From: 2010.05.17/outbox.cif.g08.bks.cpg/sg59_11_cif.got.tgz:21945.got - 2010.06.03 14:40:33.
