data_PCOD9448735
_publ_section_title
;
Structure prediction by ZEFSAII (Michael W. Deem and Ramdas Pophale) SiO2 
 PCOD9448735
Probable space group: P M M N
;
_chemical_formula_sum "Si O2"
_cell_formula_units_Z 56
_cell_length_a 17.241437
_cell_length_b 19.686311
_cell_length_c 8.231004
_cell_angle_alpha 90.000000
_cell_angle_beta 90.000000
_cell_angle_gamma 90.000000
_cell_volume 2793.769772
_symmetry_space_group_name_H-M "P M M N"
_symmetry_group_IT_number 59
_space_group.IT_coordinate_system_code '2'
_symmetry_cell_setting 'orthorhombic'
loop_
_space_group_symop_operation_xyz
x,y,z
1/2-x,1/2-y,z
1/2+x,-y,-z
-x,1/2+y,-z
-x,-y,-z
1/2+x,1/2+y,-z
1/2-x,y,z
x,1/2-y,z
loop_
_atom_site_type_symbol
_atom_site_label
_atom_site_fract_x
_atom_site_fract_y
_atom_site_fract_z
Si Si1 0.130955 0.170477 0.906005
Si Si2 0.960572 0.174254 0.417854
Si Si3 0.631807 0.671616 0.456380
Si Si4 0.005480 0.540830 0.787536
Si Si5 0.660251 0.328179 0.694150
Si Si6 0.023204 0.596680 0.135305
Si Si7 0.332879 0.414936 0.224426
O O1 0.146345 0.250000 0.923842
O O2 0.157185 0.149551 0.724088
O O3 0.038799 0.155229 0.903539
O O4 0.163242 0.131019 0.061554
O O5 0.965775 0.250000 0.335859
O O6 0.881504 0.172690 0.518896
O O7 0.037307 0.171899 0.532183
O O8 0.966448 0.104444 0.318554
O O9 0.655603 0.750000 0.476628
O O10 0.660646 0.629232 0.610511
O O11 0.019789 0.461238 0.754178
O O12 0.911694 0.542944 0.782010
O O13 0.037252 0.559274 0.964711
O O14 0.750000 0.349016 0.689556
O O15 0.657070 0.250000 0.754195
O O16 0.602659 0.374862 0.796557
O O17 0.250000 0.451502 0.225768
#
# Coordination Sequence:
#
# PCOD9448735 Si02
#       7
#     8   8   8   8   8   8   8
#     4  10  19  33  56  80 105 145 187 227 277 325
#     4   9  17  34  55  80 111 140 181 232 275 331
#     4   9  17  31  51  76 104 139 178 219 269 323
#     4   9  21  36  57  81 104 150 190 225 278 330
#     4  10  20  34  56  85 114 144 179 231 294 340
#     4  10  19  36  57  81 110 140 190 233 270 336
#     4  10  21  35  50  76 113 144 178 228 279 329
#
# _framework density 20.044601
#
# number of rings (size 3 to 8) (size 9 to 14) (size 15 to 20)
#    0.000    2.429    1.429    0.857    0.000    6.857 
#    0.000    2.143    0.000    5.143    0.000    0.000 
#    0.000    0.000    0.000    0.000    0.000    0.000 
#
# Total GULP energy -311897.826252 kJ/mol
# GULP energy per Si atom -5569.604040 kJ/mol
# Density = 1.999898 g / cm^3
# Si number density = 20.044601 Si / 1000 Ang^3
#
#
#
# Elastic Constant Matrix: (Units=GPa)
#
#
# Indices 1 2 3 4 5 6 
#
# 1 112.4835 18.4069 7.2568 0.0000 0.0000 0.0000
# 2 18.4069 57.9069 13.6384 0.0000 0.0000 0.0000
# 3 7.2568 13.6384 67.2680 0.0000 0.0000 0.0000
# 4 0.0000 0.0000 0.0000 28.4257 0.0000 0.0000
# 5 0.0000 0.0000 0.0000 0.0000 3.7472 0.0000
# 6 0.0000 0.0000 0.0000 0.0000 0.0000 11.9343
#
#
#
# Elastic Compliance Matrix: (Units=1/GPa)
#
#
# Indices 1 2 3 4 5 6 
#
# 1 0.009390 -0.002884 -0.000428 0.000000 0.000000 0.000000
# 2 -0.002884 0.019021 -0.003545 0.000000 0.000000 0.000000
# 3 -0.000428 -0.003545 0.015631 0.000000 0.000000 0.000000
# 4 0.000000 0.000000 0.000000 0.035179 0.000000 0.000000
# 5 0.000000 0.000000 0.000000 0.000000 0.266867 0.000000
# 6 0.000000 0.000000 0.000000 0.000000 0.000000 0.083792
#
#
# Mechanical properties :
#
#
# Convention : Reuss Voigt Hill
#
# Bulk Modulus (GPa) = 32.97437 35.14030 34.05733
# Shear Modulus (GPa) = 11.02042 22.04519 16.53280
#
# Velocity S-wave (km/s) = 2.34731 3.31993 2.87505
# Velocity P-wave (km/s) = 4.88188 5.68023 5.29612
#
# Compressibility (1/GPa) = 0.03032658
#
# Stress axis : x y z
#
# Youngs Moduli (GPa) = 106.49919 52.57407 63.97580
#
# Poissons Ratio (x) = 0.15162 0.02740
# Poissons Ratio (y) = 0.30713 0.22681
# Poissons Ratio (z) = 0.04561 0.18639
#
# Static dielectric constant tensor:
#      x y z
#    x 1.708580 0.000000 0.000000 
#    y 0.000000 1.755850 0.000000 
#    z 0.000000 0.000000 1.748240 
# 
# From -- ./inp_files/10619.got.cif
#   From: 2010.05.17/outbox.cif.g08.bks.cpg/sg59_6_cif.got.tgz:10619.got - 2010.06.03 14:40:33.
