data_PCOD9448323
_publ_section_title
;
Structure prediction by ZEFSAII (Michael W. Deem and Ramdas Pophale) SiO2 
 PCOD9448323
Probable space group: P M M N
;
_chemical_formula_sum "Si O2"
_cell_formula_units_Z 56
_cell_length_a 14.927763
_cell_length_b 7.660674
_cell_length_c 23.244481
_cell_angle_alpha 90.000000
_cell_angle_beta 90.000000
_cell_angle_gamma 90.000000
_cell_volume 2658.162742
_symmetry_space_group_name_H-M "P M M N"
_symmetry_group_IT_number 59
_space_group.IT_coordinate_system_code '2'
_symmetry_cell_setting 'orthorhombic'
loop_
_space_group_symop_operation_xyz
x,y,z
1/2-x,1/2-y,z
1/2+x,-y,-z
-x,1/2+y,-z
-x,-y,-z
1/2+x,1/2+y,-z
1/2-x,y,z
x,1/2-y,z
loop_
_atom_site_type_symbol
_atom_site_label
_atom_site_fract_x
_atom_site_fract_y
_atom_site_fract_z
Si Si1 0.351127 0.536359 0.595700
Si Si2 0.646714 0.462369 0.968440
Si Si3 0.350698 0.955714 0.248152
Si Si4 0.536921 0.040890 0.859571
Si Si5 0.968856 0.951346 0.644705
Si Si6 0.352979 0.539188 0.463456
Si Si7 0.350301 0.540207 0.901442
O O1 0.250000 0.482399 0.610758
O O2 0.352255 0.750000 0.596007
O O3 0.431539 0.473677 0.635914
O O4 0.369383 0.484618 0.529359
O O5 0.750000 0.507059 0.954653
O O6 0.642076 0.250000 0.969418
O O7 0.580815 0.526960 0.918910
O O8 0.627944 0.523216 0.033480
O O9 0.250000 0.029396 0.252329
O O10 0.341225 0.750000 0.236639
O O11 0.409032 0.028695 0.195336
O O12 0.405160 0.969403 0.307238
O O13 0.547288 0.250000 0.860485
O O14 0.431392 0.006092 0.859979
O O15 0.978695 0.750000 0.660910
O O16 0.920272 0.964133 0.583043
O O17 0.250000 0.492446 0.449190
O O18 0.359374 0.750000 0.461197
O O19 0.250000 0.478458 0.886360
O O20 0.346490 0.750000 0.904106
#
# Coordination Sequence:
#
# PCOD9448323 Si02
#       7
#     8   8   8   8   8   8   8
#     4   8  16  32  52  74 100 130 164 200 242 296
#     4   8  14  27  49  76 103 130 162 201 247 301
#     4  10  22  39  55  71  96 132 169 202 242 295
#     4  10  19  32  53  76  96 126 171 216 248 279
#     4  11  21  32  51  77 102 130 166 209 249 284
#     4   9  17  31  52  75 101 134 165 195 241 301
#     4   9  18  32  50  74 105 136 161 192 245 309
#
# _framework density 21.067183
#
# number of rings (size 3 to 8) (size 9 to 14) (size 15 to 20)
#    0.000    2.714    0.000    3.857    0.000    4.857 
#    0.000    1.429    0.000    8.143    0.000    0.000 
#    0.000    0.000    0.000    0.000    0.000    0.000 
#
# Total GULP energy -312540.752362 kJ/mol
# GULP energy per Si atom -5581.084864 kJ/mol
# Density = 2.101923 g / cm^3
# Si number density = 21.067183 Si / 1000 Ang^3
#
#
#
# Elastic Constant Matrix: (Units=GPa)
#
#
# Indices 1 2 3 4 5 6 
#
# 1 183.2926 3.4454 96.3334 0.0000 0.0000 0.0000
# 2 3.4454 36.4071 4.2009 0.0000 0.0000 0.0000
# 3 96.3334 4.2009 68.9273 0.0000 0.0000 0.0000
# 4 0.0000 0.0000 0.0000 -9.3505 0.0000 0.0000
# 5 0.0000 0.0000 0.0000 0.0000 28.5729 0.0000
# 6 0.0000 0.0000 0.0000 0.0000 0.0000 16.4428
#
#
#
# Elastic Compliance Matrix: (Units=1/GPa)
#
#
# Indices 1 2 3 4 5 6 
#
# 1 0.020621 0.001384 -0.028905 0.000000 0.000000 0.000000
# 2 0.001384 0.027755 -0.003626 0.000000 0.000000 0.000000
# 3 -0.028905 -0.003626 0.055127 0.000000 0.000000 0.000000
# 4 0.000000 0.000000 0.000000 -0.106947 0.000000 0.000000
# 5 0.000000 0.000000 0.000000 0.000000 0.034998 0.000000
# 6 0.000000 0.000000 0.000000 0.000000 0.000000 0.060817
#
#
# Mechanical properties :
#
#
# Convention : Reuss Voigt Hill
#
# Bulk Modulus (GPa) = 24.26640 55.17627 39.72134
# Shear Modulus (GPa) = 29.69111 19.44288 24.56699
#
# Velocity S-wave (km/s) = 3.75821 3.04122 3.41856
# Velocity P-wave (km/s) = 5.51142 6.21124 5.87177
#
# Compressibility (1/GPa) = 0.04120924
#
# Stress axis : x y z
#
# Youngs Moduli (GPa) = 48.49354 36.03014 18.14005
#
# Poissons Ratio (x) = -0.04986 0.52434
# Poissons Ratio (y) = -0.06711 0.06577
# Poissons Ratio (z) = 1.40170 0.13063
#
# Static dielectric constant tensor:
#      x y z
#    x 1.773580 0.000000 0.000000 
#    y 0.000000 1.795970 0.000000 
#    z 0.000000 0.000000 1.729410 
# 
# From -- ./inp_files/29040.got.cif
#   From: 2010.05.17/outbox.cif.g08.bks.cpg/sg59_15_cif.got.tgz:29040.got - 2010.06.03 14:40:33.
