data_PCOD9448042
_publ_section_title
;
Structure prediction by ZEFSAII (Michael W. Deem and Ramdas Pophale) SiO2 
 PCOD9448042
Probable space group: P M M N
;
_chemical_formula_sum "Si O2"
_cell_formula_units_Z 40
_cell_length_a 23.204650
_cell_length_b 8.979516
_cell_length_c 11.269539
_cell_angle_alpha 90.000000
_cell_angle_beta 90.000000
_cell_angle_gamma 90.000000
_cell_volume 2348.194690
_symmetry_space_group_name_H-M "P M M N"
_symmetry_group_IT_number 59
_space_group.IT_coordinate_system_code '2'
_symmetry_cell_setting 'orthorhombic'
loop_
_space_group_symop_operation_xyz
x,y,z
1/2-x,1/2-y,z
1/2+x,-y,-z
-x,1/2+y,-z
-x,-y,-z
1/2+x,1/2+y,-z
1/2-x,y,z
x,1/2-y,z
loop_
_atom_site_type_symbol
_atom_site_label
_atom_site_fract_x
_atom_site_fract_y
_atom_site_fract_z
Si Si1 0.907306 0.426633 0.783614
Si Si2 0.983961 0.072056 0.126551
Si Si3 0.139416 0.925395 0.948241
Si Si4 0.750000 0.427632 0.412674
Si Si5 0.750000 0.574567 0.155785
Si Si6 0.814226 0.925959 0.613973
O O1 0.911830 0.250000 0.764887
O O2 0.881156 0.449508 0.916144
O O3 0.863781 0.500120 0.690891
O O4 0.970625 0.500650 0.783208
O O5 0.991933 0.250000 0.121142
O O6 0.915664 0.043726 0.136658
O O7 0.000000 0.000000 0.000000
O O8 0.154002 0.750000 0.936444
O O9 0.193427 0.024519 0.915299
O O10 0.750000 0.250000 0.416319
O O11 0.750000 0.488241 0.280551
O O12 0.696030 0.493732 0.487617
O O13 0.750000 0.750000 0.176673
O O14 0.750000 0.944215 0.672030
O O15 0.823901 0.750000 0.598866
#
# Coordination Sequence:
#
# PCOD9448042 Si02
#       6
#     8   8   8   4   4   8
#     4  10  19  31  52  79 108 139 170 207 254 304
#     4   9  17  31  50  72 102 138 172 207 250 303
#     4   9  20  35  50  73 105 140 173 205 247 302
#     4  10  20  37  56  71  96 133 171 211 259 310
#     4  12  24  35  52  75 100 133 171 215 255 298
#     4   9  19  33  51  76 104 131 167 212 253 298
#
# _framework density 17.034362000000002
#
# number of rings (size 3 to 8) (size 9 to 14) (size 15 to 20)
#    0.600    1.800    0.000    4.500    1.400    4.800 
#    0.000    0.000    0.000    1.200    0.000    0.000 
#    0.000    0.000    0.000    0.000    0.000    0.000 
#
# Total GULP energy -222795.178967 kJ/mol
# GULP energy per Si atom -5569.879474 kJ/mol
# Density = 1.699559 g / cm^3
# Si number density = 17.034362 Si / 1000 Ang^3
#
#
#
# Elastic Constant Matrix: (Units=GPa)
#
#
# Indices 1 2 3 4 5 6 
#
# 1 74.9031 54.4289 5.8058 0.0000 0.0000 0.0000
# 2 54.4289 109.5465 24.8169 0.0000 0.0000 0.0000
# 3 5.8058 24.8169 22.2848 0.0000 0.0000 0.0000
# 4 0.0000 0.0000 0.0000 25.8054 0.0000 0.0000
# 5 0.0000 0.0000 0.0000 0.0000 -12.9292 0.0000
# 6 0.0000 0.0000 0.0000 0.0000 0.0000 29.2383
#
#
#
# Elastic Compliance Matrix: (Units=1/GPa)
#
#
# Indices 1 2 3 4 5 6 
#
# 1 0.022073 -0.012925 0.008643 0.000000 0.000000 0.000000
# 2 -0.012925 0.019777 -0.018657 0.000000 0.000000 0.000000
# 3 0.008643 -0.018657 0.063399 0.000000 0.000000 0.000000
# 4 0.000000 0.000000 0.000000 0.038752 0.000000 0.000000
# 5 0.000000 0.000000 0.000000 0.000000 -0.077344 0.000000
# 6 0.000000 0.000000 0.000000 0.000000 0.000000 0.034202
#
#
# Mechanical properties :
#
#
# Convention : Reuss Voigt Hill
#
# Bulk Modulus (GPa) = 16.84328 41.87082 29.35705
# Shear Modulus (GPa) = 30.02548 16.53509 23.28029
#
# Velocity S-wave (km/s) = 4.20294 3.11897 3.70086
# Velocity P-wave (km/s) = 5.78465 6.13223 5.96097
#
# Compressibility (1/GPa) = 0.05937085
#
# Stress axis : x y z
#
# Youngs Moduli (GPa) = 45.30486 50.56385 15.77320
#
# Poissons Ratio (x) = 0.65354 -0.13633
# Poissons Ratio (y) = 0.58556 0.29428
# Poissons Ratio (z) = -0.39157 0.94336
#
# Static dielectric constant tensor:
#      x y z
#    x 1.596170 0.000000 0.000000 
#    y 0.000000 1.559820 0.000000 
#    z 0.000000 0.000000 1.558820 
# 
# From -- ./inp_files/18151.got.cif
#   From: 2010.05.17/outbox.cif.g08.bks.cpg/sg59_10_cif.got.tgz:18151.got - 2010.06.03 14:40:33.
