data_PCOD9448248
_publ_section_title
;
Structure prediction by ZEFSAII (Michael W. Deem and Ramdas Pophale) SiO2 
 PCOD9448248
Probable space group: P M M N
;
_chemical_formula_sum "Si O2"
_cell_formula_units_Z 56
_cell_length_a 19.121239
_cell_length_b 8.261005
_cell_length_c 19.826624
_cell_angle_alpha 90.000000
_cell_angle_beta 90.000000
_cell_angle_gamma 90.000000
_cell_volume 3131.826434
_symmetry_space_group_name_H-M "P M M N"
_symmetry_group_IT_number 59
_space_group.IT_coordinate_system_code '2'
_symmetry_cell_setting 'orthorhombic'
loop_
_space_group_symop_operation_xyz
x,y,z
1/2-x,1/2-y,z
1/2+x,-y,-z
-x,1/2+y,-z
-x,-y,-z
1/2+x,1/2+y,-z
1/2-x,y,z
x,1/2-y,z
loop_
_atom_site_type_symbol
_atom_site_label
_atom_site_fract_x
_atom_site_fract_y
_atom_site_fract_z
Si Si1 0.975987 0.058121 0.072655
Si Si2 0.861936 0.064395 0.254342
Si Si3 0.402828 0.554137 0.602857
Si Si4 0.174736 0.060450 0.886294
Si Si5 0.830046 0.945329 0.534368
Si Si6 0.525510 0.935929 0.788054
Si Si7 0.440965 0.448661 0.355154
O O1 0.984496 0.250000 0.076002
O O2 0.019440 0.988872 0.137237
O O3 0.894346 0.020511 0.084211
O O4 0.000000 0.000000 0.000000
O O5 0.836223 0.250000 0.251202
O O6 0.859272 0.002111 0.330668
O O7 0.944717 0.070579 0.236727
O O8 0.828586 0.963764 0.194475
O O9 0.402543 0.750000 0.603745
O O10 0.368366 0.494522 0.534545
O O11 0.483808 0.502701 0.613159
O O12 0.250000 0.995968 0.910042
O O13 0.171059 0.250000 0.901760
O O14 0.750000 0.004451 0.536377
O O15 0.828325 0.750000 0.536968
O O16 0.877904 0.000697 0.596956
O O17 0.550480 0.750000 0.795446
O O18 0.563891 0.007362 0.722526
O O19 0.441822 0.250000 0.352752
#
# Coordination Sequence:
#
# PCOD9448248 Si02
#       7
#     8   8   8   8   8   8   8
#     4  10  19  32  52  76 101 129 160 195 237 283
#     4   8  15  28  45  65  87 114 151 190 229 277
#     4   9  17  30  48  66  85 117 160 198 232 277
#     4  10  20  32  47  70 100 131 161 194 234 283
#     4  10  20  30  41  62  91 119 148 190 244 289
#     4   7  12  25  46  68  86 109 145 188 227 265
#     4   8  14  28  48  65  84 114 155 197 231 271
#
# _framework density 17.880941
#
# number of rings (size 3 to 8) (size 9 to 14) (size 15 to 20)
#    0.000    3.143    0.000    3.857    0.000    2.571 
#    0.000    2.857    0.000    5.143    0.000    4.000 
#    0.000    0.000    0.000    0.000    0.000    0.000 
#
# Total GULP energy -311755.073445 kJ/mol
# GULP energy per Si atom -5567.054883 kJ/mol
# Density = 1.784024 g / cm^3
# Si number density = 17.880941 Si / 1000 Ang^3
#
#
#
# Elastic Constant Matrix: (Units=GPa)
#
#
# Indices 1 2 3 4 5 6 
#
# 1 84.8475 9.5699 73.7908 0.0000 0.0000 0.0000
# 2 9.5699 9.7301 12.4962 0.0000 0.0000 0.0000
# 3 73.7908 12.4962 173.0889 0.0000 0.0000 0.0000
# 4 0.0000 0.0000 0.0000 20.8589 0.0000 0.0000
# 5 0.0000 0.0000 0.0000 0.0000 6.5726 0.0000
# 6 0.0000 0.0000 0.0000 0.0000 0.0000 14.5528
#
#
#
# Elastic Compliance Matrix: (Units=1/GPa)
#
#
# Indices 1 2 3 4 5 6 
#
# 1 0.019474 -0.009359 -0.007626 0.000000 0.000000 0.000000
# 2 -0.009359 0.117774 -0.004513 0.000000 0.000000 0.000000
# 3 -0.007626 -0.004513 0.009354 0.000000 0.000000 0.000000
# 4 0.000000 0.000000 0.000000 0.047941 0.000000 0.000000
# 5 0.000000 0.000000 0.000000 0.000000 0.152146 0.000000
# 6 0.000000 0.000000 0.000000 0.000000 0.000000 0.068715
#
#
# Mechanical properties :
#
#
# Convention : Reuss Voigt Hill
#
# Bulk Modulus (GPa) = 9.65193 51.04226 30.34709
# Shear Modulus (GPa) = 10.14329 19.85085 14.99707
#
# Velocity S-wave (km/s) = 2.38432 3.33553 2.89920
# Velocity P-wave (km/s) = 3.60411 6.59105 5.31185
#
# Compressibility (1/GPa) = 0.10360623
#
# Stress axis : x y z
#
# Youngs Moduli (GPa) = 51.35033 8.49084 106.90059
#
# Poissons Ratio (x) = 0.07946 0.81527
# Poissons Ratio (y) = 0.48058 0.48243
# Poissons Ratio (z) = 0.39162 0.03832
#
# Static dielectric constant tensor:
#      x y z
#    x 1.618850 0.000000 0.000000 
#    y 0.000000 1.608440 0.000000 
#    z 0.000000 0.000000 1.646560 
# 
# From -- ./inp_files/30589.got.cif
#   From: 2010.05.17/outbox.cif.g08.bks.cpg/sg59_16_cif.got.tgz:30589.got - 2010.06.03 14:40:33.
