data_PCOD9448103
_publ_section_title
;
Structure prediction by ZEFSAII (Michael W. Deem and Ramdas Pophale) SiO2 
 PCOD9448103
Probable space group: P M M N
;
_chemical_formula_sum "Si O2"
_cell_formula_units_Z 64
_cell_length_a 7.846808
_cell_length_b 23.355577
_cell_length_c 18.317690
_cell_angle_alpha 90.000000
_cell_angle_beta 90.000000
_cell_angle_gamma 90.000000
_cell_volume 3357.023119
_symmetry_space_group_name_H-M "P M M N"
_symmetry_group_IT_number 59
_space_group.IT_coordinate_system_code '2'
_symmetry_cell_setting 'orthorhombic'
loop_
_space_group_symop_operation_xyz
x,y,z
1/2-x,1/2-y,z
1/2+x,-y,-z
-x,1/2+y,-z
-x,-y,-z
1/2+x,1/2+y,-z
1/2-x,y,z
x,1/2-y,z
loop_
_atom_site_type_symbol
_atom_site_label
_atom_site_fract_x
_atom_site_fract_y
_atom_site_fract_z
Si Si1 0.951731 0.919643 0.646935
Si Si2 0.954769 0.566558 0.488932
Si Si3 0.043697 0.355410 0.096992
Si Si4 0.041417 0.314970 0.936719
Si Si5 0.949559 0.907474 0.178237
Si Si6 0.549054 0.312747 0.253875
Si Si7 0.954005 0.986120 0.916586
Si Si8 0.954279 0.948683 0.330651
O O1 0.750000 0.927639 0.641412
O O2 0.017214 0.905388 0.564590
O O3 0.982778 0.867750 0.702133
O O4 0.018302 0.982383 0.670603
O O5 0.750000 0.573765 0.486304
O O6 0.020428 0.577803 0.407059
O O7 0.000000 0.500000 0.500000
O O8 0.250000 0.353389 0.097508
O O9 0.991337 0.421778 0.102005
O O10 0.981982 0.322124 0.167843
O O11 0.986073 0.331749 0.018541
O O12 0.250000 0.318229 0.937865
O O13 0.993436 0.250000 0.920485
O O14 0.977923 0.359143 0.875610
O O15 0.750000 0.893241 0.187719
O O16 0.024943 0.918543 0.258239
O O17 0.963183 0.967069 0.135151
O O18 0.750000 0.311642 0.266781
O O19 0.477555 0.250000 0.274966
O O20 0.750000 0.989436 0.908358
O O21 0.000000 0.000000 0.000000
O O22 0.750000 0.941386 0.330262
#
# Coordination Sequence:
#
# PCOD9448103 Si02
#       8
#     8   8   8   8   8   8   8   8
#     4  10  19  32  52  75 102 132 167 205 246 302
#     4   8  15  28  47  74 102 129 157 190 236 291
#     4  10  20  35  54  73  95 126 166 207 248 297
#     4   9  17  31  50  69  91 123 164 203 236 279
#     4  10  19  32  49  73 101 130 163 199 245 294
#     4  11  24  38  51  71 100 133 172 215 257 302
#     4  11  21  33  50  73 100 128 161 202 248 299
#     4   9  17  30  51  77 107 134 159 200 254 304
#
# _framework density 19.064509999999999
#
# number of rings (size 3 to 8) (size 9 to 14) (size 15 to 20)
#    0.000    2.250    1.250    2.250    0.000    5.500 
#    0.000    0.000    0.000    1.125    0.000    3.500 
#    0.000    0.000    0.000    0.000    0.000    0.000 
#
# Total GULP energy -356869.285524 kJ/mol
# GULP energy per Si atom -5576.082586 kJ/mol
# Density = 1.902112 g / cm^3
# Si number density = 19.064510 Si / 1000 Ang^3
#
#
#
# Elastic Constant Matrix: (Units=GPa)
#
#
# Indices 1 2 3 4 5 6 
#
# 1 20.3813 0.2286 -0.3591 0.0000 0.0000 0.0000
# 2 0.2286 81.7883 45.8550 0.0000 0.0000 0.0000
# 3 -0.3591 45.8550 162.8449 0.0000 0.0000 0.0000
# 4 0.0000 0.0000 0.0000 11.6447 0.0000 0.0000
# 5 0.0000 0.0000 0.0000 0.0000 8.5019 0.0000
# 6 0.0000 0.0000 0.0000 0.0000 0.0000 9.2428
#
#
#
# Elastic Compliance Matrix: (Units=1/GPa)
#
#
# Indices 1 2 3 4 5 6 
#
# 1 0.049070 -0.000235 0.000174 0.000000 0.000000 0.000000
# 2 -0.000235 0.014520 -0.004089 0.000000 0.000000 0.000000
# 3 0.000174 -0.004089 0.007293 0.000000 0.000000 0.000000
# 4 0.000000 0.000000 0.000000 0.085876 0.000000 0.000000
# 5 0.000000 0.000000 0.000000 0.000000 0.117621 0.000000
# 6 0.000000 0.000000 0.000000 0.000000 0.000000 0.108193
#
#
# Mechanical properties :
#
#
# Convention : Reuss Voigt Hill
#
# Bulk Modulus (GPa) = 15.97863 39.60705 27.79284
# Shear Modulus (GPa) = 12.14379 20.49720 16.32049
#
# Velocity S-wave (km/s) = 2.52659 3.28250 2.92904
# Velocity P-wave (km/s) = 4.11231 5.93185 5.10382
#
# Compressibility (1/GPa) = 0.06258357
#
# Stress axis : x y z
#
# Youngs Moduli (GPa) = 20.37889 68.87075 137.12437
#
# Poissons Ratio (x) = 0.01618 -0.02391
# Poissons Ratio (y) = 0.00479 0.56072
# Poissons Ratio (z) = -0.00355 0.28162
#
# Static dielectric constant tensor:
#      x y z
#    x 1.701840 0.000000 0.000000 
#    y 0.000000 1.642660 0.000000 
#    z 0.000000 0.000000 1.711490 
# 
# From -- ./inp_files/26165.got.cif
#   From: 2010.05.17/outbox.cif.g08.bks.cpg/sg59_14_cif.got.tgz:26165.got - 2010.06.03 14:40:33.
