data_PCOD9448941
_publ_section_title
;
Structure prediction by ZEFSAII (Michael W. Deem and Ramdas Pophale) SiO2 
 PCOD9448941
Probable space group: P M M N
;
_chemical_formula_sum "Si O2"
_cell_formula_units_Z 64
_cell_length_a 30.466363
_cell_length_b 12.783689
_cell_length_c 8.606312
_cell_angle_alpha 90.000000
_cell_angle_beta 90.000000
_cell_angle_gamma 90.000000
_cell_volume 3351.921933
_symmetry_space_group_name_H-M "P M M N"
_symmetry_group_IT_number 59
_space_group.IT_coordinate_system_code '2'
_symmetry_cell_setting 'orthorhombic'
loop_
_space_group_symop_operation_xyz
x,y,z
1/2-x,1/2-y,z
1/2+x,-y,-z
-x,1/2+y,-z
-x,-y,-z
1/2+x,1/2+y,-z
1/2-x,y,z
x,1/2-y,z
loop_
_atom_site_type_symbol
_atom_site_label
_atom_site_fract_x
_atom_site_fract_y
_atom_site_fract_z
Si Si1 0.397629 0.866775 0.275044
Si Si2 0.412221 0.365166 0.067248
Si Si3 0.133398 0.014780 0.540735
Si Si4 0.022424 0.983722 0.167999
Si Si5 0.668961 0.023091 0.925922
Si Si6 0.201844 0.128841 0.326102
Si Si7 0.698419 0.124254 0.247640
Si Si8 0.944196 0.631424 0.285126
O O1 0.400404 0.750000 0.332835
O O2 0.393624 0.946087 0.417360
O O3 0.353753 0.885488 0.174584
O O4 0.440233 0.894173 0.171824
O O5 0.397746 0.250000 0.115407
O O6 0.447885 0.412443 0.186738
O O7 0.371956 0.444284 0.045839
O O8 0.434304 0.358669 0.898626
O O9 0.165202 0.937357 0.638208
O O10 0.164270 0.093189 0.443853
O O11 0.098648 0.079782 0.640459
O O12 0.985757 0.947068 0.289734
O O13 0.000000 0.000000 0.000000
O O14 0.699487 0.951532 0.817781
O O15 0.690020 0.071745 0.078898
O O16 0.250000 0.119246 0.400240
O O17 0.196620 0.250000 0.278815
O O18 0.750000 0.110528 0.289771
O O19 0.689786 0.250000 0.244829
O O20 0.952766 0.750000 0.343273
#
# Coordination Sequence:
#
# PCOD9448941 Si02
#       8
#     8   8   8   8   8   8   8   8
#     4  10  21  37  59  83 115 156 194 239 291 352
#     4   9  17  32  55  83 115 147 183 230 288 348
#     4  11  22  38  58  83 120 157 199 240 294 361
#     4   9  19  35  56  84 114 146 190 234 285 339
#     4  10  19  36  59  85 113 148 197 247 295 350
#     4  10  21  37  57  83 116 153 195 246 302 361
#     4  11  23  39  59  85 118 155 200 253 303 351
#     4  10  19  34  57  80 113 153 188 232 285 343
#
# _framework density 19.093523999999999
#
# number of rings (size 3 to 8) (size 9 to 14) (size 15 to 20)
#    0.000    2.000    1.250    2.625    0.000    1.000 
#    0.000    1.875    0.000    9.000    0.000    0.000 
#    0.000    0.000    0.000    0.000    0.000    0.000 
#
# Total GULP energy -356587.677648 kJ/mol
# GULP energy per Si atom -5571.682463 kJ/mol
# Density = 1.905007 g / cm^3
# Si number density = 19.093524 Si / 1000 Ang^3
#
#
#
# Elastic Constant Matrix: (Units=GPa)
#
#
# Indices 1 2 3 4 5 6 
#
# 1 93.4325 43.8286 28.8618 0.0000 0.0000 0.0000
# 2 43.8286 96.7901 28.9505 0.0000 0.0000 0.0000
# 3 28.8618 28.9505 59.5147 0.0000 0.0000 0.0000
# 4 0.0000 0.0000 0.0000 13.3801 0.0000 0.0000
# 5 0.0000 0.0000 0.0000 0.0000 17.3878 0.0000
# 6 0.0000 0.0000 0.0000 0.0000 0.0000 17.6995
#
#
#
# Elastic Compliance Matrix: (Units=1/GPa)
#
#
# Indices 1 2 3 4 5 6 
#
# 1 0.014555 -0.005242 -0.004508 0.000000 0.000000 0.000000
# 2 -0.005242 0.013979 -0.004258 0.000000 0.000000 0.000000
# 3 -0.004508 -0.004258 0.021060 0.000000 0.000000 0.000000
# 4 0.000000 0.000000 0.000000 0.074738 0.000000 0.000000
# 5 0.000000 0.000000 0.000000 0.000000 0.057511 0.000000
# 6 0.000000 0.000000 0.000000 0.000000 0.000000 0.056499
#
#
# Mechanical properties :
#
#
# Convention : Reuss Voigt Hill
#
# Bulk Modulus (GPa) = 46.34528 50.33544 48.34036
# Shear Modulus (GPa) = 18.27816 19.56658 18.92237
#
# Velocity S-wave (km/s) = 3.09738 3.20468 3.15149
# Velocity P-wave (km/s) = 6.09238 6.33349 6.21411
#
# Compressibility (1/GPa) = 0.02157717
#
# Stress axis : x y z
#
# Youngs Moduli (GPa) = 68.70673 71.53626 47.48334
#
# Poissons Ratio (x) = 0.37501 0.21407
# Poissons Ratio (y) = 0.36017 0.20217
# Poissons Ratio (z) = 0.30975 0.30458
#
# Static dielectric constant tensor:
#      x y z
#    x 1.689070 0.000000 0.000000 
#    y 0.000000 1.668740 0.000000 
#    z 0.000000 0.000000 1.656770 
# 
# From -- ./inp_files/13204.got.cif
#   From: 2010.05.17/outbox.cif.g08.bks.cpg/sg59_7_cif.got.tgz:13204.got - 2010.06.03 14:40:33.
