data_PCOD9448328
_publ_section_title
;
Structure prediction by ZEFSAII (Michael W. Deem and Ramdas Pophale) SiO2 
 PCOD9448328
Probable space group: P M M N
;
_chemical_formula_sum "Si O2"
_cell_formula_units_Z 64
_cell_length_a 14.440277
_cell_length_b 9.156768
_cell_length_c 26.436925
_cell_angle_alpha 90.000000
_cell_angle_beta 90.000000
_cell_angle_gamma 90.000000
_cell_volume 3495.655886
_symmetry_space_group_name_H-M "P M M N"
_symmetry_group_IT_number 59
_space_group.IT_coordinate_system_code '2'
_symmetry_cell_setting 'orthorhombic'
loop_
_space_group_symop_operation_xyz
x,y,z
1/2-x,1/2-y,z
1/2+x,-y,-z
-x,1/2+y,-z
-x,-y,-z
1/2+x,1/2+y,-z
1/2-x,y,z
x,1/2-y,z
loop_
_atom_site_type_symbol
_atom_site_label
_atom_site_fract_x
_atom_site_fract_y
_atom_site_fract_z
Si Si1 0.856851 0.924881 0.832082
Si Si2 0.147941 0.584130 0.862300
Si Si3 0.100730 0.583305 0.062268
Si Si4 0.640371 0.426940 0.328459
Si Si5 0.857915 0.425242 0.524586
Si Si6 0.617903 0.916074 0.036813
Si Si7 0.527274 0.072604 0.229272
Si Si8 0.448150 0.424991 0.573227
O O1 0.750000 0.956872 0.821923
O O2 0.867155 0.750000 0.840104
O O3 0.921762 0.965145 0.784419
O O4 0.885261 0.003938 0.884226
O O5 0.250000 0.590742 0.839084
O O6 0.117488 0.750000 0.874035
O O7 0.152608 0.498760 0.914038
O O8 0.081311 0.518968 0.820464
O O9 0.133739 0.750000 0.065240
O O10 0.992557 0.585643 0.047145
O O11 0.142907 0.496529 0.015028
O O12 0.750000 0.463051 0.323527
O O13 0.634811 0.250000 0.332797
O O14 0.579720 0.474616 0.279738
O O15 0.594638 0.500621 0.377325
O O16 0.750000 0.461184 0.537417
O O17 0.860734 0.250000 0.515187
O O18 0.891571 0.509931 0.474493
O O19 0.941524 0.456070 0.564439
O O20 0.648242 0.750000 0.034523
O O21 0.534374 0.250000 0.229618
O O22 0.437314 0.250000 0.575024
#
# Coordination Sequence:
#
# PCOD9448328 Si02
#       8
#     8   8   8   8   8   8   8   8
#     4  10  20  35  57  80 100 128 167 213 266 315
#     4  10  19  32  53  77  99 128 165 204 251 306
#     4  10  20  34  53  75 100 132 167 203 248 307
#     4  10  20  35  56  80 108 146 186 220 263 321
#     4   9  18  34  55  78 110 154 195 227 268 326
#     4  10  20  33  51  75 103 133 163 201 253 308
#     4   9  18  35  56  76 101 132 171 217 256 304
#     4  10  20  33  52  82 116 147 185 235 279 315
#
# _framework density 18.308437999999999
#
# number of rings (size 3 to 8) (size 9 to 14) (size 15 to 20)
#    0.000    2.250    1.250    1.875    0.000    6.000 
#    0.000    1.875    0.000    2.250    0.000    0.000 
#    0.000    0.000    0.000    0.000    0.000    0.000 
#
# Total GULP energy -356725.607067 kJ/mol
# GULP energy per Si atom -5573.837610 kJ/mol
# Density = 1.826677 g / cm^3
# Si number density = 18.308438 Si / 1000 Ang^3
#
#
#
# Elastic Constant Matrix: (Units=GPa)
#
#
# Indices 1 2 3 4 5 6 
#
# 1 149.8962 44.2133 72.1485 0.0000 0.0000 0.0000
# 2 44.2133 53.3040 45.4911 0.0000 0.0000 0.0000
# 3 72.1485 45.4911 132.0017 0.0000 0.0000 0.0000
# 4 0.0000 0.0000 0.0000 25.1574 0.0000 0.0000
# 5 0.0000 0.0000 0.0000 0.0000 10.5334 0.0000
# 6 0.0000 0.0000 0.0000 0.0000 0.0000 11.2024
#
#
#
# Elastic Compliance Matrix: (Units=1/GPa)
#
#
# Indices 1 2 3 4 5 6 
#
# 1 0.009949 -0.005116 -0.003675 0.000000 0.000000 0.000000
# 2 -0.005116 0.029208 -0.007269 0.000000 0.000000 0.000000
# 3 -0.003675 -0.007269 0.012089 0.000000 0.000000 0.000000
# 4 0.000000 0.000000 0.000000 0.039750 0.000000 0.000000
# 5 0.000000 0.000000 0.000000 0.000000 0.094936 0.000000
# 6 0.000000 0.000000 0.000000 0.000000 0.000000 0.089267
#
#
# Mechanical properties :
#
#
# Convention : Reuss Voigt Hill
#
# Bulk Modulus (GPa) = 52.28566 73.21195 62.74881
# Shear Modulus (GPa) = 15.93905 20.93523 18.43714
#
# Velocity S-wave (km/s) = 2.95377 3.38520 3.17682
# Velocity P-wave (km/s) = 6.34454 7.44005 6.91403
#
# Compressibility (1/GPa) = 0.01912570
#
# Stress axis : x y z
#
# Youngs Moduli (GPa) = 100.51182 34.23730 82.71720
#
# Poissons Ratio (x) = 0.17517 0.30396
# Poissons Ratio (y) = 0.51424 0.60131
# Poissons Ratio (z) = 0.36935 0.24889
#
# Static dielectric constant tensor:
#      x y z
#    x 1.697000 0.000000 0.000000 
#    y 0.000000 1.620090 0.000000 
#    z 0.000000 0.000000 1.593790 
# 
# From -- ./inp_files/32147.got.cif
#   From: 2010.05.17/outbox.cif.g08.bks.cpg/sg59_17_cif.got.tgz:32147.got - 2010.06.03 14:40:33.
