data_PCOD9448340
_publ_section_title
;
Structure prediction by ZEFSAII (Michael W. Deem and Ramdas Pophale) SiO2 
 PCOD9448340
Probable space group: P M M N
;
_chemical_formula_sum "Si O2"
_cell_formula_units_Z 64
_cell_length_a 8.929069
_cell_length_b 14.316158
_cell_length_c 26.693917
_cell_angle_alpha 90.000000
_cell_angle_beta 90.000000
_cell_angle_gamma 90.000000
_cell_volume 3412.282412
_symmetry_space_group_name_H-M "P M M N"
_symmetry_group_IT_number 59
_space_group.IT_coordinate_system_code '2'
_symmetry_cell_setting 'orthorhombic'
loop_
_space_group_symop_operation_xyz
x,y,z
1/2-x,1/2-y,z
1/2+x,-y,-z
-x,1/2+y,-z
-x,-y,-z
1/2+x,1/2+y,-z
1/2-x,y,z
x,1/2-y,z
loop_
_atom_site_type_symbol
_atom_site_label
_atom_site_fract_x
_atom_site_fract_y
_atom_site_fract_z
Si Si1 0.931240 0.859311 0.229155
Si Si2 0.071660 0.859404 0.631408
Si Si3 0.070604 0.531361 0.322131
Si Si4 0.569808 0.956328 0.126211
Si Si5 0.923391 0.137481 0.969178
Si Si6 0.432687 0.855802 0.918307
Si Si7 0.920616 0.636261 0.526303
Si Si8 0.071340 0.639668 0.423557
O O1 0.750000 0.865086 0.231907
O O2 0.972427 0.750000 0.230911
O O3 0.980993 0.905127 0.176595
O O4 0.001502 0.915347 0.275097
O O5 0.250000 0.869837 0.633724
O O6 0.034741 0.750000 0.639126
O O7 0.013870 0.886357 0.575878
O O8 0.992971 0.927502 0.670662
O O9 0.250000 0.530301 0.318738
O O10 0.028204 0.586412 0.373140
O O11 0.750000 0.954296 0.126563
O O12 0.514520 0.904673 0.076420
O O13 0.521720 0.064345 0.120414
O O14 0.750000 0.107204 0.965362
O O15 0.926021 0.250000 0.966032
O O16 0.979853 0.115253 0.025303
O O17 0.250000 0.853302 0.919716
O O18 0.483124 0.750000 0.907874
O O19 0.750000 0.603519 0.532046
O O20 0.919267 0.750000 0.523982
O O21 0.990982 0.604884 0.473860
O O22 0.250000 0.630931 0.430506
O O23 0.037951 0.750000 0.417358
#
# Coordination Sequence:
#
# PCOD9448340 Si02
#       8
#     8   8   8   8   8   8   8   8
#     4  10  22  39  56  77 108 140 172 218 272 323
#     4  10  21  38  59  81 108 142 177 215 262 318
#     4  11  23  38  58  81 104 136 180 228 274 319
#     4  10  19  32  53  78 104 139 183 226 265 309
#     4   9  17  29  47  74 108 143 177 216 266 322
#     4   8  15  29  49  75 108 143 177 215 262 316
#     4   9  17  30  51  80 111 142 176 214 258 310
#     4   9  18  33  52  76 107 140 175 216 264 320
#
# _framework density 18.755775
#
# number of rings (size 3 to 8) (size 9 to 14) (size 15 to 20)
#    0.000    2.500    0.000    3.000    0.000    5.750 
#    0.000    1.875    0.000    3.375    0.000    0.000 
#    0.000    0.000    0.000    0.000    0.000    0.000 
#
# Total GULP energy -357260.591904 kJ/mol
# GULP energy per Si atom -5582.196749 kJ/mol
# Density = 1.871309 g / cm^3
# Si number density = 18.755775 Si / 1000 Ang^3
#
#
#
# Elastic Constant Matrix: (Units=GPa)
#
#
# Indices 1 2 3 4 5 6 
#
# 1 24.6823 38.2188 37.7314 0.0000 0.0000 0.0000
# 2 38.2188 114.4812 89.0210 0.0000 0.0000 0.0000
# 3 37.7314 89.0210 119.5094 0.0000 0.0000 0.0000
# 4 0.0000 0.0000 0.0000 34.9667 0.0000 0.0000
# 5 0.0000 0.0000 0.0000 0.0000 22.5518 0.0000
# 6 0.0000 0.0000 0.0000 0.0000 0.0000 19.0449
#
#
#
# Elastic Compliance Matrix: (Units=1/GPa)
#
#
# Indices 1 2 3 4 5 6 
#
# 1 0.093927 -0.019719 -0.014966 0.000000 0.000000 0.000000
# 2 -0.019719 0.024900 -0.012322 0.000000 0.000000 0.000000
# 3 -0.014966 -0.012322 0.022271 0.000000 0.000000 0.000000
# 4 0.000000 0.000000 0.000000 0.028599 0.000000 0.000000
# 5 0.000000 0.000000 0.000000 0.000000 0.044342 0.000000
# 6 0.000000 0.000000 0.000000 0.000000 0.000000 0.052508
#
#
# Mechanical properties :
#
#
# Convention : Reuss Voigt Hill
#
# Bulk Modulus (GPa) = 21.23884 65.40172 43.32028
# Shear Modulus (GPa) = 13.28892 21.55946 17.42419
#
# Velocity S-wave (km/s) = 2.66470 3.39408 3.05126
# Velocity P-wave (km/s) = 4.56245 7.09264 5.96329
#
# Compressibility (1/GPa) = 0.04708355
#
# Stress axis : x y z
#
# Youngs Moduli (GPa) = 10.64660 40.16144 44.90215
#
# Poissons Ratio (x) = 0.79196 0.67199
# Poissons Ratio (y) = 0.20994 0.55326
# Poissons Ratio (z) = 0.15933 0.49485
#
# Static dielectric constant tensor:
#      x y z
#    x 1.631560 0.000000 0.000000 
#    y 0.000000 1.686360 0.000000 
#    z 0.000000 0.000000 1.617040 
# 
# From -- ./inp_files/31420.got.cif
#   From: 2010.05.17/outbox.cif.g08.bks.cpg/sg59_16_cif.got.tgz:31420.got - 2010.06.03 14:40:33.
