data_PCOD9448339
_publ_section_title
;
Structure prediction by ZEFSAII (Michael W. Deem and Ramdas Pophale) SiO2 
 PCOD9448339
Probable space group: P M M N
;
_chemical_formula_sum "Si O2"
_cell_formula_units_Z 64
_cell_length_a 18.366175
_cell_length_b 8.229691
_cell_length_c 22.371720
_cell_angle_alpha 90.000000
_cell_angle_beta 90.000000
_cell_angle_gamma 90.000000
_cell_volume 3381.439506
_symmetry_space_group_name_H-M "P M M N"
_symmetry_group_IT_number 59
_space_group.IT_coordinate_system_code '2'
_symmetry_cell_setting 'orthorhombic'
loop_
_space_group_symop_operation_xyz
x,y,z
1/2-x,1/2-y,z
1/2+x,-y,-z
-x,1/2+y,-z
-x,-y,-z
1/2+x,1/2+y,-z
1/2-x,y,z
x,1/2-y,z
loop_
_atom_site_type_symbol
_atom_site_label
_atom_site_fract_x
_atom_site_fract_y
_atom_site_fract_z
Si Si1 0.022460 0.556506 0.434669
Si Si2 0.169408 0.446206 0.375910
Si Si3 0.593619 0.943478 0.877441
Si Si4 0.070980 0.443135 0.888080
Si Si5 0.833348 0.948900 0.999028
Si Si6 0.403904 0.052911 0.254219
Si Si7 0.666234 0.056557 0.223476
Si Si8 0.947560 0.555536 0.314304
O O1 0.019295 0.750000 0.432902
O O2 0.970132 0.496294 0.380624
O O3 0.000000 0.500000 0.500000
O O4 0.104050 0.503766 0.417679
O O5 0.250000 0.503704 0.392386
O O6 0.169432 0.250000 0.376922
O O7 0.148943 0.496900 0.308160
O O8 0.606172 0.750000 0.876862
O O9 0.635790 0.007235 0.935368
O O10 0.616404 0.005726 0.811924
O O11 0.507594 0.974555 0.883665
O O12 0.059217 0.250000 0.892507
O O13 0.120123 0.478278 0.830180
O O14 0.114802 0.500064 0.946693
O O15 0.750000 0.999727 0.008253
O O16 0.834059 0.750000 0.998955
O O17 0.406213 0.250000 0.253438
O O18 0.484060 0.991911 0.272349
O O19 0.750000 0.000460 0.223372
O O20 0.665314 0.250000 0.214637
O O21 0.624540 0.016708 0.284924
O O22 0.941074 0.750000 0.315076
#
# Coordination Sequence:
#
# PCOD9448339 Si02
#       8
#     8   8   8   8   8   8   8   8
#     4  10  21  37  59  86 114 150 190 225 267 316
#     4   9  18  33  54  82 115 149 186 227 270 318
#     4  10  19  32  53  78 104 138 180 225 272 325
#     4  11  21  34  54  76 103 141 183 226 273 328
#     4   9  19  34  50  72 103 139 181 229 277 325
#     4   9  17  30  51  78 108 141 176 218 267 318
#     4  11  23  37  55  80 108 138 176 225 278 328
#     4  10  20  35  56  81 109 140 176 217 261 316
#
# _framework density 18.926849000000001
#
# number of rings (size 3 to 8) (size 9 to 14) (size 15 to 20)
#    0.000    2.125    1.250    2.250    0.000    3.750 
#    0.000    3.750    0.000    2.625    0.000    1.750 
#    0.000    0.000    0.000    0.000    0.000    0.000 
#
# Total GULP energy -357234.252691 kJ/mol
# GULP energy per Si atom -5581.785198 kJ/mol
# Density = 1.888377 g / cm^3
# Si number density = 18.926849 Si / 1000 Ang^3
#
#
#
# Elastic Constant Matrix: (Units=GPa)
#
#
# Indices 1 2 3 4 5 6 
#
# 1 45.2398 -11.8855 29.1364 0.0000 0.0000 0.0000
# 2 -11.8855 5.5623 0.7422 0.0000 0.0000 0.0000
# 3 29.1364 0.7422 133.2424 0.0000 0.0000 0.0000
# 4 0.0000 0.0000 0.0000 18.1912 0.0000 0.0000
# 5 0.0000 0.0000 0.0000 0.0000 17.9452 0.0000
# 6 0.0000 0.0000 0.0000 0.0000 0.0000 17.3724
#
#
#
# Elastic Compliance Matrix: (Units=1/GPa)
#
#
# Indices 1 2 3 4 5 6 
#
# 1 0.078406 0.169952 -0.018092 0.000000 0.000000 0.000000
# 2 0.169952 0.548297 -0.040218 0.000000 0.000000 0.000000
# 3 -0.018092 -0.040218 0.011685 0.000000 0.000000 0.000000
# 4 0.000000 0.000000 0.000000 0.054972 0.000000 0.000000
# 5 0.000000 0.000000 0.000000 0.000000 0.055725 0.000000
# 6 0.000000 0.000000 0.000000 0.000000 0.000000 0.057563
#
#
# Mechanical properties :
#
#
# Convention : Reuss Voigt Hill
#
# Bulk Modulus (GPa) = 1.16053 24.44784 12.80419
# Shear Modulus (GPa) = 5.74324 21.77187 13.75755
#
# Velocity S-wave (km/s) = 1.74385 3.39531 2.69900
# Velocity P-wave (km/s) = 2.16083 5.32127 4.06110
#
# Compressibility (1/GPa) = 0.86167311
#
# Stress axis : x y z
#
# Youngs Moduli (GPa) = 12.75406 1.82383 85.57746
#
# Poissons Ratio (x) = -0.30996 1.54826
# Poissons Ratio (y) = -2.16757 3.44172
# Poissons Ratio (z) = 0.23075 0.07335
#
# Static dielectric constant tensor:
#      x y z
#    x 1.637500 0.000000 0.000000 
#    y 0.000000 1.662140 0.000000 
#    z 0.000000 0.000000 1.676470 
# 
# From -- ./inp_files/30794.got.cif
#   From: 2010.05.17/outbox.cif.g08.bks.cpg/sg59_16_cif.got.tgz:30794.got - 2010.06.03 14:40:33.
