data_PCOD9448522
_publ_section_title
;
Structure prediction by ZEFSAII (Michael W. Deem and Ramdas Pophale) SiO2 
 PCOD9448522
Probable space group: P M M N
;
_chemical_formula_sum "Si O2"
_cell_formula_units_Z 64
_cell_length_a 8.950528
_cell_length_b 28.748916
_cell_length_c 15.830870
_cell_angle_alpha 90.000000
_cell_angle_beta 90.000000
_cell_angle_gamma 90.000000
_cell_volume 4073.567452
_symmetry_space_group_name_H-M "P M M N"
_symmetry_group_IT_number 59
_space_group.IT_coordinate_system_code '2'
_symmetry_cell_setting 'orthorhombic'
loop_
_space_group_symop_operation_xyz
x,y,z
1/2-x,1/2-y,z
1/2+x,-y,-z
-x,1/2+y,-z
-x,-y,-z
1/2+x,1/2+y,-z
1/2-x,y,z
x,1/2-y,z
loop_
_atom_site_type_symbol
_atom_site_label
_atom_site_fract_x
_atom_site_fract_y
_atom_site_fract_z
Si Si1 0.077883 0.193535 0.503122
Si Si2 0.927012 0.051953 0.899460
Si Si3 0.072904 0.446563 0.082181
Si Si4 0.428124 0.151157 0.161679
Si Si5 0.072209 0.805501 0.320602
Si Si6 0.572255 0.305571 0.327174
Si Si7 0.428117 0.141821 0.836557
Si Si8 0.073091 0.694651 0.004686
O O1 0.250000 0.178224 0.505464
O O2 0.077225 0.250000 0.502507
O O3 0.991104 0.179954 0.588025
O O4 0.997995 0.179215 0.416480
O O5 0.750000 0.060024 0.892487
O O6 0.014748 0.088916 0.843413
O O7 0.958485 0.997670 0.880876
O O8 0.979353 0.059217 0.996389
O O9 0.250000 0.445583 0.059554
O O10 0.044385 0.403441 0.143519
O O11 0.250000 0.158956 0.161654
O O12 0.498065 0.168458 0.248733
O O13 0.501758 0.178477 0.083417
O O14 0.250000 0.812621 0.316761
O O15 0.044484 0.750000 0.310404
O O16 0.991825 0.833004 0.246035
O O17 0.750000 0.312574 0.327871
O O18 0.545058 0.250000 0.317590
O O19 0.250000 0.143756 0.838351
O O20 0.494122 0.168070 0.918586
O O21 0.250000 0.684114 0.005166
O O22 0.054967 0.750000 0.014976
#
# Coordination Sequence:
#
# PCOD9448522 Si02
#       8
#     8   8   8   8   8   8   8   8
#     4   9  17  31  51  74  99 128 164 207 252 292
#     4  10  19  33  53  72  95 127 164 207 255 299
#     4   9  19  34  51  73  97 125 163 209 255 300
#     4  11  21  33  50  73 100 130 166 206 249 296
#     4  10  20  34  52  74 101 133 168 205 247 296
#     4  10  20  33  49  71 101 136 172 207 243 289
#     4  12  23  34  49  72 100 131 169 207 247 294
#     4  11  23  36  48  66  96 134 172 205 242 292
#
# _framework density 15.711045
#
# number of rings (size 3 to 8) (size 9 to 14) (size 15 to 20)
#    0.000    1.750    1.250    4.125    0.000    8.000 
#    0.000    0.000    0.000    0.000    0.000    0.875 
#    0.000    0.000    0.000    0.000    0.000    0.000 
#
# Total GULP energy -357340.051971 kJ/mol
# GULP energy per Si atom -5583.438312 kJ/mol
# Density = 1.567529 g / cm^3
# Si number density = 15.711045 Si / 1000 Ang^3
#
#
#
# Elastic Constant Matrix: (Units=GPa)
#
#
# Indices 1 2 3 4 5 6 
#
# 1 108.4360 59.8909 60.6757 0.0000 0.0000 0.0000
# 2 59.8909 70.0076 42.0747 0.0000 0.0000 0.0000
# 3 60.6757 42.0747 109.7471 0.0000 0.0000 0.0000
# 4 0.0000 0.0000 0.0000 5.7177 0.0000 0.0000
# 5 0.0000 0.0000 0.0000 0.0000 32.6693 0.0000
# 6 0.0000 0.0000 0.0000 0.0000 0.0000 22.7068
#
#
#
# Elastic Compliance Matrix: (Units=1/GPa)
#
#
# Indices 1 2 3 4 5 6 
#
# 1 0.020005 -0.013601 -0.005846 0.000000 0.000000 0.000000
# 2 -0.013601 0.027807 -0.003141 0.000000 0.000000 0.000000
# 3 -0.005846 -0.003141 0.013548 0.000000 0.000000 0.000000
# 4 0.000000 0.000000 0.000000 0.174895 0.000000 0.000000
# 5 0.000000 0.000000 0.000000 0.000000 0.030610 0.000000
# 6 0.000000 0.000000 0.000000 0.000000 0.000000 0.044040
#
#
# Mechanical properties :
#
#
# Convention : Reuss Voigt Hill
#
# Bulk Modulus (GPa) = 61.78694 68.16371 64.97532
# Shear Modulus (GPa) = 13.83216 20.58871 17.21044
#
# Velocity S-wave (km/s) = 2.97039 3.62396 3.31333
# Velocity P-wave (km/s) = 7.15379 7.80966 7.48891
#
# Compressibility (1/GPa) = 0.01618465
#
# Stress axis : x y z
#
# Youngs Moduli (GPa) = 49.98739 35.96158 73.81041
#
# Poissons Ratio (x) = 0.48910 0.43149
# Poissons Ratio (y) = 0.67987 0.23187
# Poissons Ratio (z) = 0.29222 0.11297
#
# Static dielectric constant tensor:
#      x y z
#    x 1.523820 0.000000 0.000000 
#    y 0.000000 1.525190 0.000000 
#    z 0.000000 0.000000 1.491980 
# 
# From -- ./inp_files/21847.got.cif
#   From: 2010.05.17/outbox.cif.g08.bks.cpg/sg59_11_cif.got.tgz:21847.got - 2010.06.03 14:40:33.
