data_PCOD9448566
_publ_section_title
;
Structure prediction by ZEFSAII (Michael W. Deem and Ramdas Pophale) SiO2 
 PCOD9448566
Probable space group: P M M N
;
_chemical_formula_sum "Si O2"
_cell_formula_units_Z 48
_cell_length_a 14.964612
_cell_length_b 8.157890
_cell_length_c 21.085732
_cell_angle_alpha 90.000000
_cell_angle_beta 90.000000
_cell_angle_gamma 90.000000
_cell_volume 2574.138964
_symmetry_space_group_name_H-M "P M M N"
_symmetry_group_IT_number 59
_space_group.IT_coordinate_system_code '2'
_symmetry_cell_setting 'orthorhombic'
loop_
_space_group_symop_operation_xyz
x,y,z
1/2-x,1/2-y,z
1/2+x,-y,-z
-x,1/2+y,-z
-x,-y,-z
1/2+x,1/2+y,-z
1/2-x,y,z
x,1/2-y,z
loop_
_atom_site_type_symbol
_atom_site_label
_atom_site_fract_x
_atom_site_fract_y
_atom_site_fract_z
Si Si1 0.057305 0.445717 0.939107
Si Si2 0.750000 0.054532 0.018791
Si Si3 0.059004 0.052205 0.320520
Si Si4 0.750000 0.448311 0.482128
Si Si5 0.442619 0.948183 0.560949
Si Si6 0.250000 0.447955 0.371157
Si Si7 0.750000 0.450329 0.872224
Si Si8 0.558642 0.447852 0.820648
O O1 0.055151 0.250000 0.937417
O O2 0.159166 0.500048 0.947585
O O3 0.008910 0.507089 0.875247
O O4 0.000000 0.500000 0.000000
O O5 0.750000 0.250000 0.015932
O O6 0.750000 0.994929 0.945576
O O7 0.060359 0.250000 0.323010
O O8 0.159118 0.993063 0.337915
O O9 0.991313 0.993844 0.375140
O O10 0.034315 0.000666 0.249900
O O11 0.750000 0.250000 0.481017
O O12 0.658880 0.505921 0.448954
O O13 0.750000 0.501937 0.555349
O O14 0.441505 0.750000 0.562614
O O15 0.500000 0.000000 0.500000
O O16 0.250000 0.250000 0.368620
O O17 0.750000 0.250000 0.872329
O O18 0.659108 0.504621 0.838194
O O19 0.559519 0.250000 0.822777
#
# Coordination Sequence:
#
# PCOD9448566 Si02
#       8
#     8   4   8   4   8   4   4   8
#     4  11  22  38  60  87 117 152 193 240 288 341
#     4  11  21  38  61  87 118 150 191 240 289 342
#     4  10  21  35  52  78 113 147 183 228 278 333
#     4  10  20  33  54  83 107 137 183 228 271 325
#     4  10  20  35  55  79 109 142 181 228 273 326
#     4  10  19  33  53  80 113 143 174 228 282 323
#     4   9  17  34  56  82 114 146 180 226 280 334
#     4  10  21  37  57  81 115 152 187 230 279 336
#
# _framework density 18.647010999999999
#
# number of rings (size 3 to 8) (size 9 to 14) (size 15 to 20)
#    0.000    1.833    3.333    1.250    0.000    2.667 
#    0.000    0.833    0.000    1.000    0.000    0.000 
#    0.000    0.000    0.000    0.000    0.000    0.000 
#
# Total GULP energy -268056.158782 kJ/mol
# GULP energy per Si atom -5584.503308 kJ/mol
# Density = 1.860457 g / cm^3
# Si number density = 18.647011 Si / 1000 Ang^3
#
#
#
# Elastic Constant Matrix: (Units=GPa)
#
#
# Indices 1 2 3 4 5 6 
#
# 1 168.4101 13.8930 99.1681 0.0000 0.0000 0.0000
# 2 13.8930 11.4809 9.0329 0.0000 0.0000 0.0000
# 3 99.1681 9.0329 186.1684 0.0000 0.0000 0.0000
# 4 0.0000 0.0000 0.0000 28.7042 0.0000 0.0000
# 5 0.0000 0.0000 0.0000 0.0000 26.9021 0.0000
# 6 0.0000 0.0000 0.0000 0.0000 0.0000 15.8239
#
#
#
# Elastic Compliance Matrix: (Units=1/GPa)
#
#
# Indices 1 2 3 4 5 6 
#
# 1 0.009249 -0.007606 -0.004558 0.000000 0.000000 0.000000
# 2 -0.007606 0.096814 -0.000646 0.000000 0.000000 0.000000
# 3 -0.004558 -0.000646 0.007831 0.000000 0.000000 0.000000
# 4 0.000000 0.000000 0.000000 0.034838 0.000000 0.000000
# 5 0.000000 0.000000 0.000000 0.000000 0.037172 0.000000
# 6 0.000000 0.000000 0.000000 0.000000 0.000000 0.063196
#
#
# Mechanical properties :
#
#
# Convention : Reuss Voigt Hill
#
# Bulk Modulus (GPa) = 11.32840 67.80527 39.56683
# Shear Modulus (GPa) = 16.43961 30.55040 23.49500
#
# Velocity S-wave (km/s) = 2.97243 4.05205 3.55348
# Velocity P-wave (km/s) = 4.22716 7.63764 6.17262
#
# Compressibility (1/GPa) = 0.08827375
#
# Stress axis : x y z
#
# Youngs Moduli (GPa) = 108.11686 10.32913 127.70313
#
# Poissons Ratio (x) = 0.07857 0.58205
# Poissons Ratio (y) = 0.82239 0.08244
# Poissons Ratio (z) = 0.49278 0.00667
#
# Static dielectric constant tensor:
#      x y z
#    x 1.640140 0.000000 0.000000 
#    y 0.000000 1.658390 0.000000 
#    z 0.000000 0.000000 1.618680 
# 
# From -- ./inp_files/25702.got.cif
#   From: 2010.05.17/outbox.cif.g08.bks.cpg/sg59_13_cif.got.tgz:25702.got - 2010.06.03 14:40:33.
