data_PCOD9448391
_publ_section_title
;
Structure prediction by ZEFSAII (Michael W. Deem and Ramdas Pophale) SiO2 
 PCOD9448391
Probable space group: P M M N
;
_chemical_formula_sum "Si O2"
_cell_formula_units_Z 48
_cell_length_a 31.574692
_cell_length_b 8.710935
_cell_length_c 9.941163
_cell_angle_alpha 90.000000
_cell_angle_beta 90.000000
_cell_angle_gamma 90.000000
_cell_volume 2734.268069
_symmetry_space_group_name_H-M "P M M N"
_symmetry_group_IT_number 59
_space_group.IT_coordinate_system_code '2'
_symmetry_cell_setting 'orthorhombic'
loop_
_space_group_symop_operation_xyz
x,y,z
1/2-x,1/2-y,z
1/2+x,-y,-z
-x,1/2+y,-z
-x,-y,-z
1/2+x,1/2+y,-z
1/2-x,y,z
x,1/2-y,z
loop_
_atom_site_type_symbol
_atom_site_label
_atom_site_fract_x
_atom_site_fract_y
_atom_site_fract_z
Si Si1 0.983348 0.565886 0.858465
Si Si2 0.390712 0.934091 0.199342
Si Si3 0.867886 0.434940 0.502136
Si Si4 0.430919 0.934402 0.729631
Si Si5 0.361619 0.066531 0.928150
Si Si6 0.201456 0.435335 0.694731
O O1 0.979760 0.750000 0.868565
O O2 0.938163 0.496252 0.822051
O O3 0.019978 0.527403 0.750008
O O4 0.000000 0.500000 0.000000
O O5 0.391863 0.750000 0.196764
O O6 0.373602 0.985494 0.344623
O O7 0.362982 0.993563 0.074904
O O8 0.865007 0.250000 0.500678
O O9 0.908680 0.477894 0.410560
O O10 0.827131 0.501501 0.426331
O O11 0.426864 0.750000 0.745293
O O12 0.403291 0.012102 0.846979
O O13 0.362213 0.250000 0.939584
O O14 0.322325 0.019890 0.833179
O O15 0.250000 0.487150 0.689934
O O16 0.200812 0.250000 0.688922
#
# Coordination Sequence:
#
# PCOD9448391 Si02
#       6
#     8   8   8   8   8   8
#     4  11  21  32  51  77 106 141 185 228 266 310
#     4  11  22  35  51  75 110 145 177 220 264 307
#     4   9  20  37  55  77 107 143 179 216 264 316
#     4   9  18  34  53  73 101 139 181 223 262 304
#     4  10  19  32  54  79 104 136 175 215 260 316
#     4   9  19  37  60  84 106 130 167 216 267 321
#
# _framework density 17.554973
#
# number of rings (size 3 to 8) (size 9 to 14) (size 15 to 20)
#    0.000    2.167    1.667    1.500    0.000    3.667 
#    0.000    0.833    0.000    3.000    0.000    0.000 
#    0.000    0.000    0.000    0.000    0.000    0.000 
#
# Total GULP energy -267843.335745 kJ/mol
# GULP energy per Si atom -5580.069495 kJ/mol
# Density = 1.751502 g / cm^3
# Si number density = 17.554973 Si / 1000 Ang^3
#
#
#
# Elastic Constant Matrix: (Units=GPa)
#
#
# Indices 1 2 3 4 5 6 
#
# 1 131.7269 27.9090 81.4841 0.0000 0.0000 0.0000
# 2 27.9090 27.1816 38.5623 0.0000 0.0000 0.0000
# 3 81.4841 38.5623 173.3881 0.0000 0.0000 0.0000
# 4 0.0000 0.0000 0.0000 23.3006 0.0000 0.0000
# 5 0.0000 0.0000 0.0000 0.0000 15.5375 0.0000
# 6 0.0000 0.0000 0.0000 0.0000 0.0000 25.2086
#
#
#
# Elastic Compliance Matrix: (Units=1/GPa)
#
#
# Indices 1 2 3 4 5 6 
#
# 1 0.011327 -0.005958 -0.003998 0.000000 0.000000 0.000000
# 2 -0.005958 0.056883 -0.009851 0.000000 0.000000 0.000000
# 3 -0.003998 -0.009851 0.009837 0.000000 0.000000 0.000000
# 4 0.000000 0.000000 0.000000 0.042917 0.000000 0.000000
# 5 0.000000 0.000000 0.000000 0.000000 0.064360 0.000000
# 6 0.000000 0.000000 0.000000 0.000000 0.000000 0.039669
#
#
# Mechanical properties :
#
#
# Convention : Reuss Voigt Hill
#
# Bulk Modulus (GPa) = 26.01953 69.80083 47.91018
# Shear Modulus (GPa) = 18.02332 25.09875 21.56103
#
# Velocity S-wave (km/s) = 3.20766 3.78527 3.50837
# Velocity P-wave (km/s) = 5.34534 7.67802 6.61531
#
# Compressibility (1/GPa) = 0.03843267
#
# Stress axis : x y z
#
# Youngs Moduli (GPa) = 88.28546 17.58003 101.65523
#
# Poissons Ratio (x) = 0.10474 0.40642
# Poissons Ratio (y) = 0.52601 1.00140
# Poissons Ratio (z) = 0.35296 0.17318
#
# Static dielectric constant tensor:
#      x y z
#    x 1.581960 0.000000 0.000000 
#    y 0.000000 1.592540 0.000000 
#    z 0.000000 0.000000 1.596810 
# 
# From -- ./inp_files/6321.got.cif
#   From: 2010.05.17/outbox.cif.g08.bks.cpg/sg59_4_cif.got.tgz:6321.got - 2010.06.03 14:40:33.
