data_PCOD9448701
_publ_section_title
;
Structure prediction by ZEFSAII (Michael W. Deem and Ramdas Pophale) SiO2 
 PCOD9448701
Probable space group: P M M N
;
_chemical_formula_sum "Si O2"
_cell_formula_units_Z 48
_cell_length_a 32.072405
_cell_length_b 8.754199
_cell_length_c 9.275861
_cell_angle_alpha 90.000000
_cell_angle_beta 90.000000
_cell_angle_gamma 90.000000
_cell_volume 2604.366943
_symmetry_space_group_name_H-M "P M M N"
_symmetry_group_IT_number 59
_space_group.IT_coordinate_system_code '2'
_symmetry_cell_setting 'orthorhombic'
loop_
_space_group_symop_operation_xyz
x,y,z
1/2-x,1/2-y,z
1/2+x,-y,-z
-x,1/2+y,-z
-x,-y,-z
1/2+x,1/2+y,-z
1/2-x,y,z
x,1/2-y,z
loop_
_atom_site_type_symbol
_atom_site_label
_atom_site_fract_x
_atom_site_fract_y
_atom_site_fract_z
Si Si1 0.418430 0.565609 0.333497
Si Si2 0.659488 0.565543 0.837136
Si Si3 0.501797 0.932957 0.159992
Si Si4 0.250000 0.425866 0.829490
Si Si5 0.250000 0.073860 0.180564
Si Si6 0.579836 0.065983 0.331915
Si Si7 0.337478 0.567117 0.842019
O O1 0.414379 0.750000 0.326331
O O2 0.378364 0.491712 0.259056
O O3 0.460251 0.521966 0.247794
O O4 0.421876 0.521274 0.500724
O O5 0.660625 0.750000 0.842481
O O6 0.704831 0.508341 0.779601
O O7 0.654726 0.503824 0.999914
O O8 0.502908 0.750000 0.152263
O O9 0.542410 0.992373 0.242758
O O10 0.500000 0.000000 0.000000
O O11 0.250000 0.250000 0.783343
O O12 0.292881 0.507024 0.786497
O O13 0.250000 0.427283 0.005263
O O14 0.250000 0.250000 0.229285
O O15 0.575647 0.250000 0.323591
O O16 0.624235 0.025268 0.261394
O O17 0.335827 0.750000 0.855657
#
# Coordination Sequence:
#
# PCOD9448701 Si02
#       7
#     8   8   8   4   4   8   8
#     4  10  22  39  55  77 110 145 179 221 272 326
#     4  10  19  33  55  81 109 143 182 227 272 320
#     4  11  23  38  59  83 108 139 178 223 272 324
#     4   9  17  31  52  79 110 142 178 224 268 313
#     4   7  14  29  48  73 104 134 170 216 262 301
#     4  10  22  39  57  78 109 144 180 223 270 322
#     4  10  19  33  55  81 108 142 181 223 270 319
#
# _framework density 18.430582000000001
#
# number of rings (size 3 to 8) (size 9 to 14) (size 15 to 20)
#    0.000    2.167    0.000    4.250    0.000    7.333 
#    0.000    2.083    0.000    3.000    0.000    0.000 
#    0.000    0.000    0.000    0.000    0.000    0.000 
#
# Total GULP energy -267932.382481 kJ/mol
# GULP energy per Si atom -5581.924635 kJ/mol
# Density = 1.838863 g / cm^3
# Si number density = 18.430582 Si / 1000 Ang^3
#
#
#
# Elastic Constant Matrix: (Units=GPa)
#
#
# Indices 1 2 3 4 5 6 
#
# 1 219.9915 61.8365 109.9959 0.0000 0.0000 0.0000
# 2 61.8365 42.0109 43.6771 0.0000 0.0000 0.0000
# 3 109.9959 43.6771 134.3581 0.0000 0.0000 0.0000
# 4 0.0000 0.0000 0.0000 18.8377 0.0000 0.0000
# 5 0.0000 0.0000 0.0000 0.0000 -15.2511 0.0000
# 6 0.0000 0.0000 0.0000 0.0000 0.0000 35.2373
#
#
#
# Elastic Compliance Matrix: (Units=1/GPa)
#
#
# Indices 1 2 3 4 5 6 
#
# 1 0.009480 -0.008889 -0.004871 0.000000 0.000000 0.000000
# 2 -0.008889 0.044290 -0.007121 0.000000 0.000000 0.000000
# 3 -0.004871 -0.007121 0.013746 0.000000 0.000000 0.000000
# 4 0.000000 0.000000 0.000000 0.053085 0.000000 0.000000
# 5 0.000000 0.000000 0.000000 0.000000 -0.065569 0.000000
# 6 0.000000 0.000000 0.000000 0.000000 0.000000 0.028379
#
#
# Mechanical properties :
#
#
# Convention : Reuss Voigt Hill
#
# Bulk Modulus (GPa) = 38.82920 91.93106 65.38013
# Shear Modulus (GPa) = 37.38114 19.82152 28.60133
#
# Velocity S-wave (km/s) = 4.50845 3.28299 3.94361
# Velocity P-wave (km/s) = 6.94371 8.02238 7.50246
#
# Compressibility (1/GPa) = 0.02575382
#
# Stress axis : x y z
#
# Youngs Moduli (GPa) = 105.48662 22.57830 72.75068
#
# Poissons Ratio (x) = 0.20070 0.35439
# Poissons Ratio (y) = 0.93768 0.51803
# Poissons Ratio (z) = 0.51386 0.16077
#
# Static dielectric constant tensor:
#      x y z
#    x 1.638780 0.000000 0.000000 
#    y 0.000000 1.627550 0.000000 
#    z 0.000000 0.000000 1.600800 
# 
# From -- ./inp_files/13017.got.cif
#   From: 2010.05.17/outbox.cif.g08.bks.cpg/sg59_7_cif.got.tgz:13017.got - 2010.06.03 14:40:33.
