data_PCOD9448714
_publ_section_title
;
Structure prediction by ZEFSAII (Michael W. Deem and Ramdas Pophale) SiO2 
 PCOD9448714
Probable space group: P M M N
;
_chemical_formula_sum "Si O2"
_cell_formula_units_Z 64
_cell_length_a 9.028477
_cell_length_b 18.546259
_cell_length_c 20.239670
_cell_angle_alpha 90.000000
_cell_angle_beta 90.000000
_cell_angle_gamma 90.000000
_cell_volume 3389.020873
_symmetry_space_group_name_H-M "P M M N"
_symmetry_group_IT_number 59
_space_group.IT_coordinate_system_code '2'
_symmetry_cell_setting 'orthorhombic'
loop_
_space_group_symop_operation_xyz
x,y,z
1/2-x,1/2-y,z
1/2+x,-y,-z
-x,1/2+y,-z
-x,-y,-z
1/2+x,1/2+y,-z
1/2-x,y,z
x,1/2-y,z
loop_
_atom_site_type_symbol
_atom_site_label
_atom_site_fract_x
_atom_site_fract_y
_atom_site_fract_z
Si Si1 0.925909 0.398696 0.040210
Si Si2 0.926166 0.075022 0.521402
Si Si3 0.574759 0.670076 0.840663
Si Si4 0.928275 0.167135 0.647035
Si Si5 0.072734 0.432513 0.280472
Si Si6 0.072139 0.081080 0.757768
Si Si7 0.573684 0.165907 0.390865
Si Si8 0.927529 0.559976 0.090233
O O1 0.750000 0.394826 0.035051
O O2 0.965551 0.476833 0.072449
O O3 0.988094 0.341707 0.091858
O O4 0.997445 0.394680 0.967998
O O5 0.750000 0.062322 0.527113
O O6 0.977225 0.111059 0.590036
O O7 0.949270 0.133808 0.463826
O O8 0.000000 0.000000 0.500000
O O9 0.750000 0.663196 0.853859
O O10 0.547010 0.750000 0.813446
O O11 0.534612 0.611226 0.786208
O O12 0.750000 0.160596 0.653516
O O13 0.960232 0.250000 0.628312
O O14 0.005228 0.146152 0.715578
O O15 0.250000 0.441980 0.284201
O O16 0.992531 0.508864 0.275610
O O17 0.015653 0.384121 0.340590
O O18 0.250000 0.080821 0.754762
O O19 0.027887 0.079446 0.835205
O O20 0.750000 0.160525 0.376374
O O21 0.531684 0.250000 0.386609
O O22 0.750000 0.566740 0.085618
#
# Coordination Sequence:
#
# PCOD9448714 Si02
#       8
#     8   8   8   8   8   8   8   8
#     4  10  19  33  55  82 109 141 187 236 283 337
#     4  10  21  38  60  86 115 150 191 237 288 342
#     4  10  21  36  53  76 112 155 192 230 284 344
#     4  10  22  41  63  87 118 155 195 240 292 347
#     4  11  22  36  56  83 116 152 193 237 283 338
#     4  11  22  38  60  87 117 149 191 238 287 343
#     4  10  21  37  57  81 112 151 191 233 284 339
#     4   9  19  35  55  80 111 144 182 231 286 340
#
# _framework density 18.884511
#
# number of rings (size 3 to 8) (size 9 to 14) (size 15 to 20)
#    0.000    1.875    1.250    2.625    0.000    7.750 
#    0.000    0.625    0.000    3.000    0.000    0.000 
#    0.000    0.000    0.000    0.000    0.000    0.000 
#
# Total GULP energy -357391.745148 kJ/mol
# GULP energy per Si atom -5584.246018 kJ/mol
# Density = 1.884153 g / cm^3
# Si number density = 18.884511 Si / 1000 Ang^3
#
#
#
# Elastic Constant Matrix: (Units=GPa)
#
#
# Indices 1 2 3 4 5 6 
#
# 1 16.6572 22.5145 33.6275 0.0000 0.0000 0.0000
# 2 22.5145 61.2292 30.7147 0.0000 0.0000 0.0000
# 3 33.6275 30.7147 115.9235 0.0000 0.0000 0.0000
# 4 0.0000 0.0000 0.0000 19.2574 0.0000 0.0000
# 5 0.0000 0.0000 0.0000 0.0000 31.9521 0.0000
# 6 0.0000 0.0000 0.0000 0.0000 0.0000 19.0011
#
#
#
# Elastic Compliance Matrix: (Units=1/GPa)
#
#
# Indices 1 2 3 4 5 6 
#
# 1 0.292725 -0.075011 -0.065040 0.000000 0.000000 0.000000
# 2 -0.075011 0.038057 0.011676 0.000000 0.000000 0.000000
# 3 -0.065040 0.011676 0.024400 0.000000 0.000000 0.000000
# 4 0.000000 0.000000 0.000000 0.051928 0.000000 0.000000
# 5 0.000000 0.000000 0.000000 0.000000 0.031297 0.000000
# 6 0.000000 0.000000 0.000000 0.000000 0.000000 0.052629
#
#
# Mechanical properties :
#
#
# Convention : Reuss Voigt Hill
#
# Bulk Modulus (GPa) = 10.15936 40.83592 25.49764
# Shear Modulus (GPa) = 6.40536 21.17232 13.78884
#
# Velocity S-wave (km/s) = 1.84370 3.35199 2.70509
# Velocity P-wave (km/s) = 3.15019 6.05409 4.82575
#
# Compressibility (1/GPa) = 0.09843140
#
# Stress axis : x y z
#
# Youngs Moduli (GPa) = 3.41618 26.27623 40.98390
#
# Poissons Ratio (x) = 1.97101 2.66559
# Poissons Ratio (y) = 0.25625 -0.47853
# Poissons Ratio (z) = 0.22219 -0.30680
#
# Static dielectric constant tensor:
#      x y z
#    x 1.627970 0.000000 0.000000 
#    y 0.000000 1.652880 0.000000 
#    z 0.000000 0.000000 1.655190 
# 
# From -- ./inp_files/29512.got.cif
#   From: 2010.05.17/outbox.cif.g08.bks.cpg/sg59_15_cif.got.tgz:29512.got - 2010.06.03 14:40:33.
