data_PCOD9448463
_publ_section_title
;
Structure prediction by ZEFSAII (Michael W. Deem and Ramdas Pophale) SiO2 
 PCOD9448463
Probable space group: P M M N
;
_chemical_formula_sum "Si O2"
_cell_formula_units_Z 64
_cell_length_a 28.152640
_cell_length_b 8.794601
_cell_length_c 14.764235
_cell_angle_alpha 90.000000
_cell_angle_beta 90.000000
_cell_angle_gamma 90.000000
_cell_volume 3655.495191
_symmetry_space_group_name_H-M "P M M N"
_symmetry_group_IT_number 59
_space_group.IT_coordinate_system_code '2'
_symmetry_cell_setting 'orthorhombic'
loop_
_space_group_symop_operation_xyz
x,y,z
1/2-x,1/2-y,z
1/2+x,-y,-z
-x,1/2+y,-z
-x,-y,-z
1/2+x,1/2+y,-z
1/2-x,y,z
x,1/2-y,z
loop_
_atom_site_type_symbol
_atom_site_label
_atom_site_fract_x
_atom_site_fract_y
_atom_site_fract_z
Si Si1 0.112115 0.070341 0.855698
Si Si2 0.449141 0.573421 0.516456
Si Si3 0.630632 0.569795 0.606264
Si Si4 0.962252 0.073462 0.275428
Si Si5 0.051780 0.065452 0.026449
Si Si6 0.930781 0.565687 0.768335
Si Si7 0.194733 0.934000 0.737266
Si Si8 0.193159 0.922422 0.536004
O O1 0.120678 0.250000 0.858369
O O2 0.068512 0.030711 0.789298
O O3 0.158451 0.991472 0.813091
O O4 0.092098 0.020952 0.953727
O O5 0.500000 0.500000 0.500000
O O6 0.448244 0.750000 0.487906
O O7 0.411142 0.476434 0.462499
O O8 0.441562 0.568573 0.624030
O O9 0.635437 0.750000 0.612423
O O10 0.612058 0.511164 0.703974
O O11 0.675946 0.504227 0.554416
O O12 0.959701 0.250000 0.243545
O O13 0.017760 0.029053 0.274960
O O14 0.047972 0.250000 0.025280
O O15 0.066636 0.016102 0.127517
O O16 0.000000 0.000000 0.000000
O O17 0.927767 0.750000 0.768853
O O18 0.250000 0.978030 0.752895
O O19 0.193338 0.750000 0.734383
O O20 0.179827 0.987493 0.635482
O O21 0.250000 0.916739 0.537952
O O22 0.173986 0.750000 0.532117
#
# Coordination Sequence:
#
# PCOD9448463 Si02
#       8
#     8   8   8   8   8   8   8   8
#     4  11  22  32  50  82 108 129 166 221 272 305
#     4  11  21  32  46  68 100 137 173 206 249 301
#     4  11  21  34  52  76 103 136 178 214 256 307
#     4  10  19  33  50  67  97 143 179 201 245 308
#     4  10  20  35  53  73 101 137 177 216 258 304
#     4   9  18  34  51  68  98 140 177 210 248 302
#     4   9  19  37  59  79 102 138 176 204 248 321
#     4   9  19  37  58  80 106 137 174 213 257 311
#
# _framework density 17.507888999999999
#
# number of rings (size 3 to 8) (size 9 to 14) (size 15 to 20)
#    0.000    2.000    2.500    2.625    0.000    5.500 
#    0.000    2.500    0.000    0.750    0.000    5.250 
#    0.000    0.000    0.000    0.000    0.000    0.000 
#
# Total GULP energy -356830.950580 kJ/mol
# GULP energy per Si atom -5575.483603 kJ/mol
# Density = 1.746804 g / cm^3
# Si number density = 17.507889 Si / 1000 Ang^3
#
#
#
# Elastic Constant Matrix: (Units=GPa)
#
#
# Indices 1 2 3 4 5 6 
#
# 1 67.7265 14.8498 45.6224 0.0000 0.0000 0.0000
# 2 14.8498 16.3106 21.1097 0.0000 0.0000 0.0000
# 3 45.6224 21.1097 127.3809 0.0000 0.0000 0.0000
# 4 0.0000 0.0000 0.0000 19.8981 0.0000 0.0000
# 5 0.0000 0.0000 0.0000 0.0000 31.5166 0.0000
# 6 0.0000 0.0000 0.0000 0.0000 0.0000 27.7972
#
#
#
# Elastic Compliance Matrix: (Units=1/GPa)
#
#
# Indices 1 2 3 4 5 6 
#
# 1 0.021169 -0.012043 -0.005586 0.000000 0.000000 0.000000
# 2 -0.012043 0.084902 -0.009757 0.000000 0.000000 0.000000
# 3 -0.005586 -0.009757 0.011468 0.000000 0.000000 0.000000
# 4 0.000000 0.000000 0.000000 0.050256 0.000000 0.000000
# 5 0.000000 0.000000 0.000000 0.000000 0.031729 0.000000
# 6 0.000000 0.000000 0.000000 0.000000 0.000000 0.035975
#
#
# Mechanical properties :
#
#
# Convention : Reuss Voigt Hill
#
# Bulk Modulus (GPa) = 15.93198 41.62022 28.77610
# Shear Modulus (GPa) = 16.06719 24.49810 20.28264
#
# Velocity S-wave (km/s) = 3.03266 3.74473 3.40735
# Velocity P-wave (km/s) = 4.62411 6.52083 5.65259
#
# Compressibility (1/GPa) = 0.06276682
#
# Stress axis : x y z
#
# Youngs Moduli (GPa) = 47.23948 11.77829 87.19927
#
# Poissons Ratio (x) = 0.14185 0.48709
# Poissons Ratio (y) = 0.56893 0.85077
# Poissons Ratio (z) = 0.26387 0.11492
#
# Static dielectric constant tensor:
#      x y z
#    x 1.546230 0.000000 0.000000 
#    y 0.000000 1.614840 0.000000 
#    z 0.000000 0.000000 1.624760 
# 
# From -- ./inp_files/25019.got.cif
#   From: 2010.05.17/outbox.cif.g08.bks.cpg/sg59_13_cif.got.tgz:25019.got - 2010.06.03 14:40:33.
