data_PCOD9448768
_publ_section_title
;
Structure prediction by ZEFSAII (Michael W. Deem and Ramdas Pophale) SiO2 
 PCOD9448768
Probable space group: P M M N
;
_chemical_formula_sum "Si O2"
_cell_formula_units_Z 48
_cell_length_a 31.493419
_cell_length_b 8.650244
_cell_length_c 9.888987
_cell_angle_alpha 90.000000
_cell_angle_beta 90.000000
_cell_angle_gamma 90.000000
_cell_volume 2694.014787
_symmetry_space_group_name_H-M "P M M N"
_symmetry_group_IT_number 59
_space_group.IT_coordinate_system_code '2'
_symmetry_cell_setting 'orthorhombic'
loop_
_space_group_symop_operation_xyz
x,y,z
1/2-x,1/2-y,z
1/2+x,-y,-z
-x,1/2+y,-z
-x,-y,-z
1/2+x,1/2+y,-z
1/2-x,y,z
x,1/2-y,z
loop_
_atom_site_type_symbol
_atom_site_label
_atom_site_fract_x
_atom_site_fract_y
_atom_site_fract_z
Si Si1 0.863775 0.064391 0.917621
Si Si2 0.627814 0.435810 0.490730
Si Si3 0.487141 0.064801 0.853213
Si Si4 0.701969 0.062320 0.692769
Si Si5 0.433411 0.065575 0.287454
Si Si6 0.888931 0.935171 0.198134
O O1 0.868180 0.250000 0.914754
O O2 0.821881 0.021221 0.832158
O O3 0.903253 0.992155 0.835280
O O4 0.864552 0.003967 0.069465
O O5 0.625950 0.250000 0.491620
O O6 0.670224 0.485026 0.572414
O O7 0.588190 0.500147 0.577173
O O8 0.626945 0.498577 0.339744
O O9 0.490591 0.250000 0.856280
O O10 0.438650 0.022893 0.820537
O O11 0.519968 0.997970 0.744194
O O12 0.500000 0.000000 0.000000
O O13 0.750000 0.004241 0.682573
O O14 0.703522 0.250000 0.688999
O O15 0.433751 0.250000 0.290587
O O16 0.885751 0.750000 0.197322
#
# Coordination Sequence:
#
# PCOD9448768 Si02
#       6
#     8   8   8   8   8   8
#     4  10  19  33  57  83 109 142 182 226 270 325
#     4  10  21  37  58  82 110 147 186 228 277 332
#     4  11  22  35  54  79 108 147 193 236 278 322
#     4   8  16  34  60  87 109 134 177 228 274 327
#     4  11  21  35  55  79 110 148 186 230 275 323
#     4  11  23  37  54  79 113 149 183 228 281 327
#
# _framework density 17.817274999999999
#
# number of rings (size 3 to 8) (size 9 to 14) (size 15 to 20)
#    0.000    1.833    1.667    4.500    0.000    2.667 
#    0.000    0.833    0.000   23.000    0.000    0.000 
#    0.000    0.000    0.000    0.000    0.000    0.000 
#
# Total GULP energy -268074.886141 kJ/mol
# GULP energy per Si atom -5584.893461 kJ/mol
# Density = 1.777672 g / cm^3
# Si number density = 17.817275 Si / 1000 Ang^3
#
#
#
# Elastic Constant Matrix: (Units=GPa)
#
#
# Indices 1 2 3 4 5 6 
#
# 1 119.5339 41.5612 66.4072 0.0000 0.0000 0.0000
# 2 41.5612 65.1117 42.5376 0.0000 0.0000 0.0000
# 3 66.4072 42.5376 162.4271 0.0000 0.0000 0.0000
# 4 0.0000 0.0000 0.0000 33.3031 0.0000 0.0000
# 5 0.0000 0.0000 0.0000 0.0000 13.8653 0.0000
# 6 0.0000 0.0000 0.0000 0.0000 0.0000 16.1255
#
#
#
# Elastic Compliance Matrix: (Units=1/GPa)
#
#
# Indices 1 2 3 4 5 6 
#
# 1 0.012261 -0.005491 -0.003575 0.000000 0.000000 0.000000
# 2 -0.005491 0.020987 -0.003251 0.000000 0.000000 0.000000
# 3 -0.003575 -0.003251 0.008470 0.000000 0.000000 0.000000
# 4 0.000000 0.000000 0.000000 0.030027 0.000000 0.000000
# 5 0.000000 0.000000 0.000000 0.000000 0.072122 0.000000
# 6 0.000000 0.000000 0.000000 0.000000 0.000000 0.062014
#
#
# Mechanical properties :
#
#
# Convention : Reuss Voigt Hill
#
# Bulk Modulus (GPa) = 58.53524 72.00939 65.27231
# Shear Modulus (GPa) = 21.16763 25.76322 23.46543
#
# Velocity S-wave (km/s) = 3.45053 3.80671 3.63299
# Velocity P-wave (km/s) = 6.98565 7.73464 7.36967
#
# Compressibility (1/GPa) = 0.01708373
#
# Stress axis : x y z
#
# Youngs Moduli (GPa) = 81.55970 47.64809 118.06858
#
# Poissons Ratio (x) = 0.26163 0.42208
# Poissons Ratio (y) = 0.44783 0.38389
# Poissons Ratio (z) = 0.29156 0.15492
#
# Static dielectric constant tensor:
#      x y z
#    x 1.604290 0.000000 0.000000 
#    y 0.000000 1.598080 0.000000 
#    z 0.000000 0.000000 1.594030 
# 
# From -- ./inp_files/6241.got.cif
#   From: 2010.05.17/outbox.cif.g08.bks.cpg/sg59_4_cif.got.tgz:6241.got - 2010.06.03 14:40:33.
