data_PCOD9448409
_publ_section_title
;
Structure prediction by ZEFSAII (Michael W. Deem and Ramdas Pophale) SiO2 
 PCOD9448409
Probable space group: P M M N
;
_chemical_formula_sum "Si O2"
_cell_formula_units_Z 64
_cell_length_a 7.805852
_cell_length_b 16.030448
_cell_length_c 24.672117
_cell_angle_alpha 90.000000
_cell_angle_beta 90.000000
_cell_angle_gamma 90.000000
_cell_volume 3087.254187
_symmetry_space_group_name_H-M "P M M N"
_symmetry_group_IT_number 59
_space_group.IT_coordinate_system_code '2'
_symmetry_cell_setting 'orthorhombic'
loop_
_space_group_symop_operation_xyz
x,y,z
1/2-x,1/2-y,z
1/2+x,-y,-z
-x,1/2+y,-z
-x,-y,-z
1/2+x,1/2+y,-z
1/2-x,y,z
x,1/2-y,z
loop_
_atom_site_type_symbol
_atom_site_label
_atom_site_fract_x
_atom_site_fract_y
_atom_site_fract_z
Si Si1 0.540736 0.344613 0.058569
Si Si2 0.547122 0.597606 0.560000
Si Si3 0.047770 0.840220 0.674872
Si Si4 0.043792 0.502888 0.742685
Si Si5 0.043354 0.904982 0.441757
Si Si6 0.043350 0.841189 0.326052
Si Si7 0.954858 0.005597 0.134486
Si Si8 0.543219 0.156057 0.933996
O O1 0.750000 0.345791 0.058821
O O2 0.489617 0.250000 0.073710
O O3 0.478850 0.417338 0.098241
O O4 0.487524 0.359771 0.996215
O O5 0.750000 0.596064 0.568259
O O6 0.470213 0.645508 0.610667
O O7 0.510950 0.630764 0.499790
O O8 0.482848 0.501453 0.561095
O O9 0.250000 0.837620 0.687030
O O10 0.973116 0.750000 0.689601
O O11 0.976046 0.919732 0.706944
O O12 0.250000 0.509534 0.744628
O O13 0.977895 0.505202 0.804159
O O14 0.005450 0.416582 0.712731
O O15 0.250000 0.905695 0.441425
O O16 0.983643 0.859326 0.387552
O O17 0.250000 0.839752 0.327876
O O18 0.982765 0.750000 0.308060
O O19 0.750000 0.016633 0.137675
O O20 0.986777 0.917978 0.104862
O O21 0.750000 0.156795 0.934047
O O22 0.486110 0.250000 0.918687
#
# Coordination Sequence:
#
# PCOD9448409 Si02
#       8
#     8   8   8   8   8   8   8   8
#     4   8  15  30  53  80 109 139 173 214 259 309
#     4  10  19  32  54  82 109 136 168 210 262 317
#     4  10  21  37  56  76 102 139 178 216 262 315
#     4  10  22  38  54  76 107 138 175 222 266 308
#     4   9  18  33  53  79 109 137 167 208 260 316
#     4  10  21  38  59  79 101 136 180 219 259 311
#     4  10  20  33  53  80 106 137 176 219 265 308
#     4   9  18  33  53  78 108 142 177 212 255 310
#
# _framework density 20.730395999999999
#
# number of rings (size 3 to 8) (size 9 to 14) (size 15 to 20)
#    0.000    2.500    1.250    1.500    0.000    3.750 
#    0.000    6.250    0.000    1.125    0.000    1.750 
#    0.000    0.000    0.000    0.000    0.000    0.000 
#
# Total GULP energy -357241.755396 kJ/mol
# GULP energy per Si atom -5581.902428 kJ/mol
# Density = 2.068321 g / cm^3
# Si number density = 20.730396 Si / 1000 Ang^3
#
#
#
# Elastic Constant Matrix: (Units=GPa)
#
#
# Indices 1 2 3 4 5 6 
#
# 1 24.0534 3.7798 1.6682 0.0000 0.0000 0.0000
# 2 3.7798 167.3090 104.2959 0.0000 0.0000 0.0000
# 3 1.6682 104.2959 145.1287 0.0000 0.0000 0.0000
# 4 0.0000 0.0000 0.0000 -12.2192 0.0000 0.0000
# 5 0.0000 0.0000 0.0000 0.0000 7.9200 0.0000
# 6 0.0000 0.0000 0.0000 0.0000 0.0000 16.1286
#
#
#
# Elastic Compliance Matrix: (Units=1/GPa)
#
#
# Indices 1 2 3 4 5 6 
#
# 1 0.041733 -0.001166 0.000358 0.000000 0.000000 0.000000
# 2 -0.001166 0.010860 -0.007791 0.000000 0.000000 0.000000
# 3 0.000358 -0.007791 0.012485 0.000000 0.000000 0.000000
# 4 0.000000 0.000000 0.000000 -0.081839 0.000000 0.000000
# 5 0.000000 0.000000 0.000000 0.000000 0.126262 0.000000
# 6 0.000000 0.000000 0.000000 0.000000 0.000000 0.062002
#
#
# Mechanical properties :
#
#
# Convention : Reuss Voigt Hill
#
# Bulk Modulus (GPa) = 20.88550 61.77541 41.33046
# Shear Modulus (GPa) = 24.43059 17.48237 20.95648
#
# Velocity S-wave (km/s) = 3.43664 2.90715 3.18292
# Velocity P-wave (km/s) = 5.08370 6.41349 5.78692
#
# Compressibility (1/GPa) = 0.04788010
#
# Stress axis : x y z
#
# Youngs Moduli (GPa) = 23.96211 92.08025 80.09374
#
# Poissons Ratio (x) = 0.10738 -0.02870
# Poissons Ratio (y) = 0.02794 0.62402
# Poissons Ratio (z) = -0.00859 0.71741
#
# Static dielectric constant tensor:
#      x y z
#    x 1.771560 0.000000 0.000000 
#    y 0.000000 1.749160 0.000000 
#    z 0.000000 0.000000 1.718620 
# 
# From -- ./inp_files/31419.got.cif
#   From: 2010.05.17/outbox.cif.g08.bks.cpg/sg59_16_cif.got.tgz:31419.got - 2010.06.03 14:40:33.
