data_PCOD9448219
_publ_section_title
;
Structure prediction by ZEFSAII (Michael W. Deem and Ramdas Pophale) SiO2 
 PCOD9448219
Probable space group: P M M N
;
_chemical_formula_sum "Si O2"
_cell_formula_units_Z 58
_cell_length_a 23.593049
_cell_length_b 9.444138
_cell_length_c 14.851806
_cell_angle_alpha 90.000000
_cell_angle_beta 90.000000
_cell_angle_gamma 90.000000
_cell_volume 3309.220163
_symmetry_space_group_name_H-M "P M M N"
_symmetry_group_IT_number 59
_space_group.IT_coordinate_system_code '2'
_symmetry_cell_setting 'orthorhombic'
loop_
_space_group_symop_operation_xyz
x,y,z
1/2-x,1/2-y,z
1/2+x,-y,-z
-x,1/2+y,-z
-x,-y,-z
1/2+x,1/2+y,-z
1/2-x,y,z
x,1/2-y,z
loop_
_atom_site_type_symbol
_atom_site_label
_atom_site_fract_x
_atom_site_fract_y
_atom_site_fract_z
Si Si1 0.184050 0.419218 0.585256
Si Si2 0.146138 0.082434 0.381996
Si Si3 0.013600 0.081962 0.408676
Si Si4 0.851280 0.406610 0.785393
Si Si5 0.250000 0.750000 0.135879
Si Si6 0.433131 0.915730 0.909557
Si Si7 0.905399 0.420096 0.290967
Si Si8 0.069084 0.084659 0.089326
O O1 0.250000 0.451363 0.601988
O O2 0.175587 0.250000 0.595763
O O3 0.168923 0.452708 0.481319
O O4 0.142419 0.502040 0.651489
O O5 0.156124 0.250000 0.366474
O O6 0.078367 0.056172 0.380918
O O7 0.170878 0.986618 0.303037
O O8 0.008765 0.250000 0.425550
O O9 0.966777 0.044444 0.334000
O O10 0.000000 0.000000 0.500000
O O11 0.873861 0.250000 0.759140
O O12 0.800075 0.371046 0.852863
O O13 0.898130 0.500687 0.833726
O O14 0.420445 0.750000 0.929056
O O15 0.405325 0.956221 0.814646
O O16 0.501245 0.926276 0.898046
O O17 0.417032 0.012944 0.993486
O O18 0.898651 0.250000 0.297885
O O19 0.083943 0.250000 0.091082
#
# Coordination Sequence:
#
# PCOD9448219 Si02
#       8
#     8   8   8   8   2   8   8   8
#     4  10  22  37  54  75 105 146 192 236 276 316
#     4  10  20  35  56  81 108 147 186 232 282 335
#     4  10  19  32  51  78 112 143 179 222 276 333
#     4  10  21  37  56  78 112 146 186 231 280 328
#     4   8  24  40  54  80 112 150 194 236 282 332
#     4   9  19  35  58  87 118 147 178 220 282 343
#     4  10  20  35  55  80 112 147 181 226 273 326
#     4  10  19  35  60  90 117 143 177 225 280 348
#
# _framework density 17.526789000000001
#
# number of rings (size 3 to 8) (size 9 to 14) (size 15 to 20)
#    0.414    1.793    1.379    1.655    0.966    4.690 
#    0.000    2.414    1.517    0.000    0.000    0.000 
#    0.000    0.000    0.000    0.000    0.000    0.000 
#
# Total GULP energy -322895.250741 kJ/mol
# GULP energy per Si atom -5567.159496 kJ/mol
# Density = 1.748690 g / cm^3
# Si number density = 17.526789 Si / 1000 Ang^3
#
#
#
# Elastic Constant Matrix: (Units=GPa)
#
#
# Indices 1 2 3 4 5 6 
#
# 1 38.8358 15.0333 6.5924 0.0000 0.0000 0.0000
# 2 15.0333 55.3044 37.9383 0.0000 0.0000 0.0000
# 3 6.5924 37.9383 82.8790 0.0000 0.0000 0.0000
# 4 0.0000 0.0000 0.0000 30.1315 0.0000 0.0000
# 5 0.0000 0.0000 0.0000 0.0000 2.4448 0.0000
# 6 0.0000 0.0000 0.0000 0.0000 0.0000 21.2463
#
#
#
# Elastic Compliance Matrix: (Units=1/GPa)
#
#
# Indices 1 2 3 4 5 6 
#
# 1 0.028981 -0.009179 0.001896 0.000000 0.000000 0.000000
# 2 -0.009179 0.029266 -0.012666 0.000000 0.000000 0.000000
# 3 0.001896 -0.012666 0.017713 0.000000 0.000000 0.000000
# 4 0.000000 0.000000 0.000000 0.033188 0.000000 0.000000
# 5 0.000000 0.000000 0.000000 0.000000 0.409036 0.000000
# 6 0.000000 0.000000 0.000000 0.000000 0.000000 0.047067
#
#
# Mechanical properties :
#
#
# Convention : Reuss Voigt Hill
#
# Bulk Modulus (GPa) = 27.73001 32.90524 30.31763
# Shear Modulus (GPa) = 8.10152 18.59488 13.34820
#
# Velocity S-wave (km/s) = 2.15230 3.26074 2.76268
# Velocity P-wave (km/s) = 4.69387 5.74383 5.24519
#
# Compressibility (1/GPa) = 0.03606201
#
# Stress axis : x y z
#
# Youngs Moduli (GPa) = 34.50585 34.16953 56.45545
#
# Poissons Ratio (x) = 0.31363 -0.10706
# Poissons Ratio (y) = 0.31672 0.71509
# Poissons Ratio (z) = -0.06544 0.43281
#
# Static dielectric constant tensor:
#      x y z
#    x 1.593660 0.000000 0.000000 
#    y 0.000000 1.589230 0.000000 
#    z 0.000000 0.000000 1.594560 
# 
# From -- ./inp_files/24601.got.cif
#   From: 2010.05.17/outbox.cif.g08.bks.cpg/sg59_13_cif.got.tgz:24601.got - 2010.06.03 14:40:33.
