data_PCOD9448309
_publ_section_title
;
Structure prediction by ZEFSAII (Michael W. Deem and Ramdas Pophale) SiO2 
 PCOD9448309
Probable space group: P M M N
;
_chemical_formula_sum "Si O2"
_cell_formula_units_Z 48
_cell_length_a 23.316227
_cell_length_b 8.741933
_cell_length_c 13.208441
_cell_angle_alpha 90.000000
_cell_angle_beta 90.000000
_cell_angle_gamma 90.000000
_cell_volume 2692.261924
_symmetry_space_group_name_H-M "P M M N"
_symmetry_group_IT_number 59
_space_group.IT_coordinate_system_code '2'
_symmetry_cell_setting 'orthorhombic'
loop_
_space_group_symop_operation_xyz
x,y,z
1/2-x,1/2-y,z
1/2+x,-y,-z
-x,1/2+y,-z
-x,-y,-z
1/2+x,1/2+y,-z
1/2-x,y,z
x,1/2-y,z
loop_
_atom_site_type_symbol
_atom_site_label
_atom_site_fract_x
_atom_site_fract_y
_atom_site_fract_z
Si Si1 0.434761 0.066990 0.885931
Si Si2 0.511391 0.575452 0.606959
Si Si3 0.682950 0.932537 0.497252
Si Si4 0.621215 0.070186 0.692532
Si Si5 0.068432 0.564924 0.106439
Si Si6 0.115875 0.576640 0.693609
O O1 0.434658 0.250000 0.887774
O O2 0.502005 0.018207 0.868454
O O3 0.390677 0.010673 0.799970
O O4 0.419217 0.000736 0.995784
O O5 0.500000 0.500000 0.500000
O O6 0.534360 0.750000 0.600232
O O7 0.556284 0.463312 0.658384
O O8 0.450299 0.582857 0.659523
O O9 0.750000 0.972006 0.490063
O O10 0.676517 0.750000 0.493998
O O11 0.658870 0.990939 0.605488
O O12 0.649901 0.001614 0.400046
O O13 0.634385 0.250000 0.691012
O O14 0.615447 0.016200 0.809307
O O15 0.068904 0.750000 0.104212
O O16 0.136899 0.750000 0.708501
#
# Coordination Sequence:
#
# PCOD9448309 Si02
#       6
#     8   8   8   8   8   8
#     4  10  19  32  52  79 115 152 184 221 268 323
#     4  11  21  31  49  79 113 146 180 220 272 333
#     4  11  25  42  59  80 107 142 186 235 283 331
#     4  11  21  35  56  81 112 148 183 225 275 329
#     4   9  19  33  50  78 115 150 184 220 266 325
#     4  11  22  35  55  81 112 148 184 224 273 330
#
# _framework density 17.828873000000002
#
# number of rings (size 3 to 8) (size 9 to 14) (size 15 to 20)
#    0.000    1.500    3.333    2.500    0.000    4.667 
#    0.000    0.000    0.000    1.000    0.000    4.667 
#    0.000    0.000    0.000    0.000    0.000    0.000 
#
# Total GULP energy -267496.678182 kJ/mol
# GULP energy per Si atom -5572.847462 kJ/mol
# Density = 1.778829 g / cm^3
# Si number density = 17.828873 Si / 1000 Ang^3
#
#
#
# Elastic Constant Matrix: (Units=GPa)
#
#
# Indices 1 2 3 4 5 6 
#
# 1 66.9321 21.8408 41.7656 0.0000 0.0000 0.0000
# 2 21.8408 38.5937 42.1933 0.0000 0.0000 0.0000
# 3 41.7656 42.1933 152.9312 0.0000 0.0000 0.0000
# 4 0.0000 0.0000 0.0000 22.0033 0.0000 0.0000
# 5 0.0000 0.0000 0.0000 0.0000 8.3762 0.0000
# 6 0.0000 0.0000 0.0000 0.0000 0.0000 20.0175
#
#
#
# Elastic Compliance Matrix: (Units=1/GPa)
#
#
# Indices 1 2 3 4 5 6 
#
# 1 0.019389 -0.007422 -0.003247 0.000000 0.000000 0.000000
# 2 -0.007422 0.039943 -0.008993 0.000000 0.000000 0.000000
# 3 -0.003247 -0.008993 0.009907 0.000000 0.000000 0.000000
# 4 0.000000 0.000000 0.000000 0.045448 0.000000 0.000000
# 5 0.000000 0.000000 0.000000 0.000000 0.119385 0.000000
# 6 0.000000 0.000000 0.000000 0.000000 0.000000 0.049956
#
#
# Mechanical properties :
#
#
# Convention : Reuss Voigt Hill
#
# Bulk Modulus (GPa) = 33.42970 52.22848 42.82909
# Shear Modulus (GPa) = 15.00037 20.25657 17.62847
#
# Velocity S-wave (km/s) = 2.90375 3.37436 3.14787
# Velocity P-wave (km/s) = 5.48027 6.67381 6.10627
#
# Compressibility (1/GPa) = 0.02991352
#
# Stress axis : x y z
#
# Youngs Moduli (GPa) = 51.57611 25.03543 100.93926
#
# Poissons Ratio (x) = 0.18582 0.32778
# Poissons Ratio (y) = 0.38281 0.90777
# Poissons Ratio (z) = 0.16748 0.22515
#
# Static dielectric constant tensor:
#      x y z
#    x 1.602630 0.000000 0.000000 
#    y 0.000000 1.656180 0.000000 
#    z 0.000000 0.000000 1.661500 
# 
# From -- ./inp_files/14385.got.cif
#   From: 2010.05.17/outbox.cif.g08.bks.cpg/sg59_8_cif.got.tgz:14385.got - 2010.06.03 14:40:33.
