data_PCOD9448107
_publ_section_title
;
Structure prediction by ZEFSAII (Michael W. Deem and Ramdas Pophale) SiO2 
 PCOD9448107
Probable space group: P M M N
;
_chemical_formula_sum "Si O2"
_cell_formula_units_Z 56
_cell_length_a 14.756678
_cell_length_b 9.215899
_cell_length_c 19.247088
_cell_angle_alpha 90.000000
_cell_angle_beta 90.000000
_cell_angle_gamma 90.000000
_cell_volume 2617.528019
_symmetry_space_group_name_H-M "P M M N"
_symmetry_group_IT_number 59
_space_group.IT_coordinate_system_code '2'
_symmetry_cell_setting 'orthorhombic'
loop_
_space_group_symop_operation_xyz
x,y,z
1/2-x,1/2-y,z
1/2+x,-y,-z
-x,1/2+y,-z
-x,-y,-z
1/2+x,1/2+y,-z
1/2-x,y,z
x,1/2-y,z
loop_
_atom_site_type_symbol
_atom_site_label
_atom_site_fract_x
_atom_site_fract_y
_atom_site_fract_z
Si Si1 0.139243 0.418484 0.586480
Si Si2 0.609936 0.915832 0.138901
Si Si3 0.900489 0.426720 0.001917
Si Si4 0.107759 0.915611 0.147398
Si Si5 0.142495 0.911394 0.720541
Si Si6 0.860599 0.581963 0.566531
Si Si7 0.358615 0.913989 0.297858
O O1 0.250000 0.419269 0.587647
O O2 0.112334 0.250000 0.593318
O O3 0.106158 0.510837 0.651627
O O4 0.112131 0.473801 0.509915
O O5 0.642125 0.750000 0.135320
O O6 0.500459 0.910839 0.138790
O O7 0.632813 0.991887 0.211107
O O8 0.641194 0.008945 0.072324
O O9 0.905404 0.250000 0.004530
O O10 0.857563 0.469731 0.927352
O O11 0.000000 0.500000 0.000000
O O12 0.142267 0.750000 0.153872
O O13 0.125103 0.985898 0.222314
O O14 0.250000 0.897443 0.709407
O O15 0.103987 0.750000 0.730845
O O16 0.750000 0.579025 0.567388
O O17 0.887452 0.750000 0.571458
O O18 0.892188 0.495616 0.633899
O O19 0.250000 0.904567 0.304298
O O20 0.396703 0.750000 0.296704
#
# Coordination Sequence:
#
# PCOD9448107 Si02
#       7
#     8   8   8   8   8   8   8
#     4   8  14  26  44  64  88 120 153 182 218 268
#     4  10  19  32  50  68  90 122 157 192 230 276
#     4   9  16  29  48  68  91 119 156 198 233 270
#     4   8  16  30  47  68  92 120 154 189 226 268
#     4  10  20  32  47  70  97 119 145 188 236 278
#     4   8  14  25  41  63  91 120 150 184 221 262
#     4   9  16  27  45  68  93 120 150 184 223 267
#
# _framework density 21.394231000000001
#
# number of rings (size 3 to 8) (size 9 to 14) (size 15 to 20)
#    0.000    3.143    0.000    3.000    0.000    1.429 
#    0.000    7.857    0.000    3.429    0.000    0.000 
#    0.000    0.000    0.000    0.000    0.000    0.000 
#
# Total GULP energy -312050.982804 kJ/mol
# GULP energy per Si atom -5572.338979 kJ/mol
# Density = 2.134554 g / cm^3
# Si number density = 21.394231 Si / 1000 Ang^3
#
#
#
# Elastic Constant Matrix: (Units=GPa)
#
#
# Indices 1 2 3 4 5 6 
#
# 1 49.4222 5.0509 2.2642 0.0000 0.0000 0.0000
# 2 5.0509 100.2052 100.7663 0.0000 0.0000 0.0000
# 3 2.2642 100.7663 268.7170 0.0000 0.0000 0.0000
# 4 0.0000 0.0000 0.0000 33.2392 0.0000 0.0000
# 5 0.0000 0.0000 0.0000 0.0000 21.8957 0.0000
# 6 0.0000 0.0000 0.0000 0.0000 0.0000 3.1289
#
#
#
# Elastic Compliance Matrix: (Units=1/GPa)
#
#
# Indices 1 2 3 4 5 6 
#
# 1 0.020358 -0.001370 0.000342 0.000000 0.000000 0.000000
# 2 -0.001370 0.016113 -0.006031 0.000000 0.000000 0.000000
# 3 0.000342 -0.006031 0.005980 0.000000 0.000000 0.000000
# 4 0.000000 0.000000 0.000000 0.030085 0.000000 0.000000
# 5 0.000000 0.000000 0.000000 0.000000 0.045671 0.000000
# 6 0.000000 0.000000 0.000000 0.000000 0.000000 0.319600
#
#
# Mechanical properties :
#
#
# Convention : Reuss Voigt Hill
#
# Bulk Modulus (GPa) = 35.29371 70.50080 52.89725
# Shear Modulus (GPa) = 10.83729 32.33695 21.58712
#
# Velocity S-wave (km/s) = 2.25311 3.89199 3.17995
# Velocity P-wave (km/s) = 4.82715 7.29531 6.18558
#
# Compressibility (1/GPa) = 0.02833366
#
# Stress axis : x y z
#
# Youngs Moduli (GPa) = 49.12022 62.06140 167.22530
#
# Poissons Ratio (x) = 0.08505 -0.05725
# Poissons Ratio (y) = 0.06732 1.00849
# Poissons Ratio (z) = -0.01682 0.37427
#
# Static dielectric constant tensor:
#      x y z
#    x 1.861510 0.000000 0.000000 
#    y 0.000000 1.744220 0.000000 
#    z 0.000000 0.000000 1.817830 
# 
# From -- ./inp_files/28077.got.cif
#   From: 2010.05.17/outbox.cif.g08.bks.cpg/sg59_15_cif.got.tgz:28077.got - 2010.06.03 14:40:33.
