data_PCOD9448729
_publ_section_title
;
Structure prediction by ZEFSAII (Michael W. Deem and Ramdas Pophale) SiO2 
 PCOD9448729
Probable space group: P M M N
;
_chemical_formula_sum "Si O2"
_cell_formula_units_Z 48
_cell_length_a 7.451489
_cell_length_b 18.361744
_cell_length_c 18.030407
_cell_angle_alpha 90.000000
_cell_angle_beta 90.000000
_cell_angle_gamma 90.000000
_cell_volume 2466.962359
_symmetry_space_group_name_H-M "P M M N"
_symmetry_group_IT_number 59
_space_group.IT_coordinate_system_code '2'
_symmetry_cell_setting 'orthorhombic'
loop_
_space_group_symop_operation_xyz
x,y,z
1/2-x,1/2-y,z
1/2+x,-y,-z
-x,1/2+y,-z
-x,-y,-z
1/2+x,1/2+y,-z
1/2-x,y,z
x,1/2-y,z
loop_
_atom_site_type_symbol
_atom_site_label
_atom_site_fract_x
_atom_site_fract_y
_atom_site_fract_z
Si Si1 0.967559 0.926031 0.231424
Si Si2 0.031235 0.334442 0.910052
Si Si3 0.250000 0.838161 0.497525
Si Si4 0.032186 0.165627 0.074976
Si Si5 0.456307 0.404941 0.227207
Si Si6 0.537670 0.663526 0.377383
Si Si7 0.250000 0.837583 0.667245
O O1 0.750000 0.927870 0.229948
O O2 0.029174 0.884931 0.157061
O O3 0.018272 0.880736 0.304487
O O4 0.033299 0.008341 0.234108
O O5 0.250000 0.335258 0.909431
O O6 0.978740 0.250000 0.899105
O O7 0.972795 0.357665 0.992682
O O8 0.250000 0.750000 0.501426
O O9 0.422713 0.859059 0.448736
O O10 0.250000 0.863815 0.581999
O O11 0.250000 0.164065 0.073402
O O12 0.979051 0.250000 0.085655
O O13 0.976250 0.118596 0.145362
O O14 0.250000 0.380801 0.234358
O O15 0.578633 0.367766 0.288880
O O16 0.750000 0.652863 0.389428
O O17 0.508476 0.750000 0.364484
O O18 0.250000 0.750000 0.669046
#
# Coordination Sequence:
#
# PCOD9448729 Si02
#       7
#     8   8   4   8   8   8   4
#     4  10  19  33  55  83 121 155 190 233 279 340
#     4   8  14  27  52  84 114 151 198 240 279 329
#     4   9  20  38  62  89 113 140 183 237 289 338
#     4   8  15  30  52  79 109 146 196 242 282 331
#     4  11  23  38  58  84 117 155 191 233 287 340
#     4   9  18  34  59  87 115 150 190 230 280 340
#     4  11  24  44  66  87 110 140 189 243 286 340
#
# _framework density 19.457127
#
# number of rings (size 3 to 8) (size 9 to 14) (size 15 to 20)
#    0.000    2.667    0.833    2.000    1.167    4.333 
#    0.000    2.500    1.833    0.000    0.000    0.000 
#    0.000    0.000    0.000    0.000    0.000    0.000 
#
# Total GULP energy -267950.380768 kJ/mol
# GULP energy per Si atom -5582.299599 kJ/mol
# Density = 1.941284 g / cm^3
# Si number density = 19.457127 Si / 1000 Ang^3
#
#
#
# Elastic Constant Matrix: (Units=GPa)
#
#
# Indices 1 2 3 4 5 6 
#
# 1 80.8230 28.3500 59.9621 0.0000 0.0000 0.0000
# 2 28.3500 80.1988 83.3619 0.0000 0.0000 0.0000
# 3 59.9621 83.3619 207.6686 0.0000 0.0000 0.0000
# 4 0.0000 0.0000 0.0000 -7.6686 0.0000 0.0000
# 5 0.0000 0.0000 0.0000 0.0000 45.0925 0.0000
# 6 0.0000 0.0000 0.0000 0.0000 0.0000 -8.8919
#
#
#
# Elastic Compliance Matrix: (Units=1/GPa)
#
#
# Indices 1 2 3 4 5 6 
#
# 1 0.015843 -0.001451 -0.003992 0.000000 0.000000 0.000000
# 2 -0.001451 0.021530 -0.008223 0.000000 0.000000 0.000000
# 3 -0.003992 -0.008223 0.009269 0.000000 0.000000 0.000000
# 4 0.000000 0.000000 0.000000 -0.130402 0.000000 0.000000
# 5 0.000000 0.000000 0.000000 0.000000 0.022177 0.000000
# 6 0.000000 0.000000 0.000000 0.000000 0.000000 -0.112462
#
#
# Mechanical properties :
#
#
# Convention : Reuss Voigt Hill
#
# Bulk Modulus (GPa) = 51.78915 79.11536 65.45226
# Shear Modulus (GPa) = -35.64410 18.84083 -8.40163
#
# Velocity S-wave (km/s) = -4.28475 3.11517 -2.08024
# Velocity P-wave (km/s) = 1.48192 7.32726 5.28606
#
# Compressibility (1/GPa) = 0.01930906
#
# Stress axis : x y z
#
# Youngs Moduli (GPa) = 63.11754 46.44744 107.88518
#
# Poissons Ratio (x) = 0.06739 0.43070
# Poissons Ratio (y) = 0.09158 0.88719
# Poissons Ratio (z) = 0.25198 0.38196
#
# Static dielectric constant tensor:
#      x y z
#    x 1.735520 0.000000 0.000000 
#    y 0.000000 1.638000 0.000000 
#    z 0.000000 0.000000 1.662200 
# 
# From -- ./inp_files/20496.got.cif
#   From: 2010.05.17/outbox.cif.g08.bks.cpg/sg59_11_cif.got.tgz:20496.got - 2010.06.03 14:40:33.
