data_PCOD9448363
_publ_section_title
;
Structure prediction by ZEFSAII (Michael W. Deem and Ramdas Pophale) SiO2 
 PCOD9448363
Probable space group: P M M N
;
_chemical_formula_sum "Si O2"
_cell_formula_units_Z 64
_cell_length_a 32.223786
_cell_length_b 8.424843
_cell_length_c 12.670700
_cell_angle_alpha 90.000000
_cell_angle_beta 90.000000
_cell_angle_gamma 90.000000
_cell_volume 3439.845918
_symmetry_space_group_name_H-M "P M M N"
_symmetry_group_IT_number 59
_space_group.IT_coordinate_system_code '2'
_symmetry_cell_setting 'orthorhombic'
loop_
_space_group_symop_operation_xyz
x,y,z
1/2-x,1/2-y,z
1/2+x,-y,-z
-x,1/2+y,-z
-x,-y,-z
1/2+x,1/2+y,-z
1/2-x,y,z
x,1/2-y,z
loop_
_atom_site_type_symbol
_atom_site_label
_atom_site_fract_x
_atom_site_fract_y
_atom_site_fract_z
Si Si1 0.517371 0.433650 0.172260
Si Si2 0.887278 0.439370 0.182925
Si Si3 0.856636 0.938376 0.975231
Si Si4 0.296542 0.057174 0.203046
Si Si5 0.392660 0.937349 0.578837
Si Si6 0.929674 0.436288 0.830103
Si Si7 0.480345 0.068796 0.603943
Si Si8 0.872457 0.559559 0.646431
O O1 0.517386 0.250000 0.141586
O O2 0.564780 0.496618 0.161209
O O3 0.475462 0.513279 0.129491
O O4 0.510206 0.457098 0.297468
O O5 0.888293 0.250000 0.166618
O O6 0.857922 0.517605 0.097128
O O7 0.873619 0.464108 0.304483
O O8 0.861532 0.750000 0.961643
O O9 0.815801 0.987528 0.910392
O O10 0.895873 0.018953 0.918137
O O11 0.250000 0.997426 0.220337
O O12 0.294964 0.250000 0.206395
O O13 0.331329 0.010733 0.288276
O O14 0.405073 0.750000 0.577287
O O15 0.431768 0.053556 0.583182
O O16 0.371557 0.977546 0.467915
O O17 0.930218 0.250000 0.812251
O O18 0.911799 0.513916 0.721303
O O19 0.492783 0.250000 0.626043
O O20 0.500000 0.000000 0.500000
O O21 0.872715 0.750000 0.634219
#
# Coordination Sequence:
#
# PCOD9448363 Si02
#       8
#     8   8   8   8   8   8   8   8
#     4  10  20  34  48  66  95 132 177 222 261 301
#     4   9  20  36  52  70  98 138 178 216 256 299
#     4  10  20  34  55  79 102 131 169 214 258 304
#     4   8  16  33  57  84 109 130 156 198 253 307
#     4  10  20  34  50  70  99 136 173 208 250 299
#     4  11  21  33  50  72 102 138 174 216 265 311
#     4  11  20  30  44  64  92 128 172 217 258 299
#     4  10  19  32  53  80 106 133 167 209 256 306
#
# _framework density 18.605484000000001
#
# number of rings (size 3 to 8) (size 9 to 14) (size 15 to 20)
#    0.000    2.125    0.000    6.000    0.000    3.500 
#    0.000    0.000    0.000   14.250    0.000    5.250 
#    0.000    0.000    0.000    0.000    0.000    0.000 
#
# Total GULP energy -356716.143688 kJ/mol
# GULP energy per Si atom -5573.689745 kJ/mol
# Density = 1.856314 g / cm^3
# Si number density = 18.605484 Si / 1000 Ang^3
#
#
#
# Elastic Constant Matrix: (Units=GPa)
#
#
# Indices 1 2 3 4 5 6 
#
# 1 66.4226 10.6842 22.9119 0.0000 0.0000 0.0000
# 2 10.6842 51.0628 15.6113 0.0000 0.0000 0.0000
# 3 22.9119 15.6113 75.8442 0.0000 0.0000 0.0000
# 4 0.0000 0.0000 0.0000 28.4750 0.0000 0.0000
# 5 0.0000 0.0000 0.0000 0.0000 14.7258 0.0000
# 6 0.0000 0.0000 0.0000 0.0000 0.0000 9.9402
#
#
#
# Elastic Compliance Matrix: (Units=1/GPa)
#
#
# Indices 1 2 3 4 5 6 
#
# 1 0.017019 -0.002123 -0.004704 0.000000 0.000000 0.000000
# 2 -0.002123 0.021164 -0.003715 0.000000 0.000000 0.000000
# 3 -0.004704 -0.003715 0.015371 0.000000 0.000000 0.000000
# 4 0.000000 0.000000 0.000000 0.035118 0.000000 0.000000
# 5 0.000000 0.000000 0.000000 0.000000 0.067908 0.000000
# 6 0.000000 0.000000 0.000000 0.000000 0.000000 0.100602
#
#
# Mechanical properties :
#
#
# Convention : Reuss Voigt Hill
#
# Bulk Modulus (GPa) = 30.79820 32.41604 31.60712
# Shear Modulus (GPa) = 17.29571 20.23636 18.76603
#
# Velocity S-wave (km/s) = 3.05225 3.30154 3.17934
# Velocity P-wave (km/s) = 5.38617 5.65634 5.52291
#
# Compressibility (1/GPa) = 0.03246943
#
# Stress axis : x y z
#
# Youngs Moduli (GPa) = 58.75678 47.25079 65.05856
#
# Poissons Ratio (x) = 0.10030 0.30606
# Poissons Ratio (y) = 0.12473 0.24169
# Poissons Ratio (z) = 0.27642 0.17553
#
# Static dielectric constant tensor:
#      x y z
#    x 1.652250 0.000000 0.000000 
#    y 0.000000 1.638600 0.000000 
#    z 0.000000 0.000000 1.645390 
# 
# From -- ./inp_files/19360.got.cif
#   From: 2010.05.17/outbox.cif.g08.bks.cpg/sg59_10_cif.got.tgz:19360.got - 2010.06.03 14:40:33.
