data_PCOD9448128
_publ_section_title
;
Structure prediction by ZEFSAII (Michael W. Deem and Ramdas Pophale) SiO2 
 PCOD9448128
Probable space group: P M M N
;
_chemical_formula_sum "Si O2"
_cell_formula_units_Z 48
_cell_length_a 31.641998
_cell_length_b 8.648963
_cell_length_c 9.956814
_cell_angle_alpha 90.000000
_cell_angle_beta 90.000000
_cell_angle_gamma 90.000000
_cell_volume 2724.885967
_symmetry_space_group_name_H-M "P M M N"
_symmetry_group_IT_number 59
_space_group.IT_coordinate_system_code '2'
_symmetry_cell_setting 'orthorhombic'
loop_
_space_group_symop_operation_xyz
x,y,z
1/2-x,1/2-y,z
1/2+x,-y,-z
-x,1/2+y,-z
-x,-y,-z
1/2+x,1/2+y,-z
1/2-x,y,z
x,1/2-y,z
loop_
_atom_site_type_symbol
_atom_site_label
_atom_site_fract_x
_atom_site_fract_y
_atom_site_fract_z
Si Si1 0.431678 0.436007 0.207190
Si Si2 0.868911 0.435095 0.004730
Si Si3 0.014228 0.937027 0.644301
Si Si4 0.889876 0.436311 0.302235
Si Si5 0.360031 0.064666 0.423543
Si Si6 0.701654 0.936975 0.808846
O O1 0.429971 0.250000 0.191079
O O2 0.479019 0.483123 0.246012
O O3 0.401397 0.475219 0.334149
O O4 0.410299 0.512390 0.078250
O O5 0.866657 0.250000 0.002135
O O6 0.872274 0.488491 0.158531
O O7 0.828642 0.502271 0.926261
O O8 0.013834 0.750000 0.638161
O O9 0.061499 0.988908 0.679234
O O10 0.000000 0.000000 0.500000
O O11 0.890259 0.250000 0.301656
O O12 0.863784 0.492021 0.430613
O O13 0.359232 0.250000 0.436980
O O14 0.320310 0.016497 0.331923
O O15 0.750000 0.988656 0.819781
O O16 0.700761 0.750000 0.813088
#
# Coordination Sequence:
#
# PCOD9448128 Si02
#       6
#     8   8   8   8   8   8
#     4   9  18  33  51  73 101 137 181 222 254 294
#     4  10  21  35  51  76 109 141 172 209 258 312
#     4  10  19  32  50  73 103 139 181 223 259 298
#     4  10  21  34  49  74 109 142 171 211 261 305
#     4   9  17  31  53  78 101 128 167 211 255 303
#     4   9  19  38  61  81 101 128 166 212 259 311
#
# _framework density 17.615417000000001
#
# number of rings (size 3 to 8) (size 9 to 14) (size 15 to 20)
#    0.000    2.500    1.667    1.500    0.000    5.667 
#    0.000    0.833    0.000    3.000    0.000    0.000 
#    0.000    0.000    0.000    0.000    0.000    0.000 
#
# Total GULP energy -267721.469763 kJ/mol
# GULP energy per Si atom -5577.530620 kJ/mol
# Density = 1.757532 g / cm^3
# Si number density = 17.615417 Si / 1000 Ang^3
#
#
#
# Elastic Constant Matrix: (Units=GPa)
#
#
# Indices 1 2 3 4 5 6 
#
# 1 124.2508 21.9042 74.0711 0.0000 0.0000 0.0000
# 2 21.9042 6.8350 26.0766 0.0000 0.0000 0.0000
# 3 74.0711 26.0766 165.0125 0.0000 0.0000 0.0000
# 4 0.0000 0.0000 0.0000 29.3448 0.0000 0.0000
# 5 0.0000 0.0000 0.0000 0.0000 15.3536 0.0000
# 6 0.0000 0.0000 0.0000 0.0000 0.0000 19.0384
#
#
#
# Elastic Compliance Matrix: (Units=1/GPa)
#
#
# Indices 1 2 3 4 5 6 
#
# 1 0.018983 -0.071332 0.002751 0.000000 0.000000 0.000000
# 2 -0.071332 0.636473 -0.068561 0.000000 0.000000 0.000000
# 3 0.002751 -0.068561 0.015660 0.000000 0.000000 0.000000
# 4 0.000000 0.000000 0.000000 0.034078 0.000000 0.000000
# 5 0.000000 0.000000 0.000000 0.000000 0.065131 0.000000
# 6 0.000000 0.000000 0.000000 0.000000 0.000000 0.052525
#
#
# Mechanical properties :
#
#
# Convention : Reuss Voigt Hill
#
# Bulk Modulus (GPa) = 2.51996 60.02247 31.27121
# Shear Modulus (GPa) = 4.06699 24.35046 14.20872
#
# Velocity S-wave (km/s) = 1.52111 3.72201 2.84316
# Velocity P-wave (km/s) = 2.12572 7.25389 5.34498
#
# Compressibility (1/GPa) = 0.39683238
#
# Stress axis : x y z
#
# Youngs Moduli (GPa) = 52.67799 1.57116 63.85791
#
# Poissons Ratio (x) = 0.11207 -0.17569
# Poissons Ratio (y) = 3.75763 4.37817
# Poissons Ratio (z) = -0.14493 0.10772
#
# Static dielectric constant tensor:
#      x y z
#    x 1.599220 0.000000 0.000000 
#    y 0.000000 1.597670 0.000000 
#    z 0.000000 0.000000 1.583430 
# 
# From -- ./inp_files/6272.got.cif
#   From: 2010.05.17/outbox.cif.g08.bks.cpg/sg59_4_cif.got.tgz:6272.got - 2010.06.03 14:40:33.
