data_PCOD9448467
_publ_section_title
;
Structure prediction by ZEFSAII (Michael W. Deem and Ramdas Pophale) SiO2 
 PCOD9448467
Probable space group: P M M N
;
_chemical_formula_sum "Si O2"
_cell_formula_units_Z 64
_cell_length_a 23.210033
_cell_length_b 7.631814
_cell_length_c 18.410150
_cell_angle_alpha 90.000000
_cell_angle_beta 90.000000
_cell_angle_gamma 90.000000
_cell_volume 3261.075565
_symmetry_space_group_name_H-M "P M M N"
_symmetry_group_IT_number 59
_space_group.IT_coordinate_system_code '2'
_symmetry_cell_setting 'orthorhombic'
loop_
_space_group_symop_operation_xyz
x,y,z
1/2-x,1/2-y,z
1/2+x,-y,-z
-x,1/2+y,-z
-x,-y,-z
1/2+x,1/2+y,-z
1/2-x,y,z
x,1/2-y,z
loop_
_atom_site_type_symbol
_atom_site_label
_atom_site_fract_x
_atom_site_fract_y
_atom_site_fract_z
Si Si1 0.916267 0.035901 0.174994
Si Si2 0.545708 0.043566 0.327697
Si Si3 0.932835 0.957645 0.485439
Si Si4 0.416500 0.460119 0.358419
Si Si5 0.155305 0.548536 0.090454
Si Si6 0.186494 0.961315 0.248703
Si Si7 0.185453 0.535618 0.930485
Si Si8 0.524519 0.958651 0.920481
O O1 0.913272 0.250000 0.173497
O O2 0.920030 0.974643 0.258056
O O3 0.863363 0.974536 0.125345
O O4 0.976223 0.986020 0.136825
O O5 0.538425 0.250000 0.314260
O O6 0.480055 0.971577 0.334925
O O7 0.577943 0.025677 0.404578
O O8 0.925041 0.750000 0.481378
O O9 0.902893 0.024283 0.559371
O O10 0.000000 0.000000 0.500000
O O11 0.422563 0.250000 0.364335
O O12 0.366251 0.493346 0.301231
O O13 0.175768 0.750000 0.089656
O O14 0.176577 0.470862 0.166502
O O15 0.086131 0.544752 0.091086
O O16 0.174244 0.472211 0.012929
O O17 0.250000 0.018600 0.274342
O O18 0.186693 0.750000 0.244974
O O19 0.250000 0.488522 0.908117
O O20 0.181917 0.750000 0.932582
O O21 0.532582 0.750000 0.913931
O O22 0.500000 0.000000 0.000000
#
# Coordination Sequence:
#
# PCOD9448467 Si02
#       8
#     8   8   8   8   8   8   8   8
#     4   9  17  29  46  70  98 127 161 199 240 288
#     4   9  17  30  49  74 102 128 159 201 251 298
#     4   9  17  30  49  74 101 126 157 191 234 293
#     4   9  18  32  49  70  97 131 164 196 245 305
#     4  10  19  33  50  71  98 128 165 207 251 293
#     4  10  21  34  49  72 101 133 171 214 253 291
#     4   9  16  28  48  69  90 124 168 205 237 279
#     4  11  20  32  49  71  99 129 162 201 248 297
#
# _framework density 19.625427999999999
#
# number of rings (size 3 to 8) (size 9 to 14) (size 15 to 20)
#    0.000    2.500    1.250    2.625    0.000    5.750 
#    0.000    1.250    0.000    1.875    0.000    1.750 
#    0.000    0.000    0.000    0.000    0.000    0.000 
#
# Total GULP energy -356881.979631 kJ/mol
# GULP energy per Si atom -5576.280932 kJ/mol
# Density = 1.958076 g / cm^3
# Si number density = 19.625428 Si / 1000 Ang^3
#
#
#
# Elastic Constant Matrix: (Units=GPa)
#
#
# Indices 1 2 3 4 5 6 
#
# 1 93.1057 2.2905 54.2188 0.0000 0.0000 0.0000
# 2 2.2905 35.0315 1.5830 0.0000 0.0000 0.0000
# 3 54.2188 1.5830 169.7983 0.0000 0.0000 0.0000
# 4 0.0000 0.0000 0.0000 9.5702 0.0000 0.0000
# 5 0.0000 0.0000 0.0000 0.0000 11.0162 0.0000
# 6 0.0000 0.0000 0.0000 0.0000 0.0000 13.2521
#
#
#
# Elastic Compliance Matrix: (Units=1/GPa)
#
#
# Indices 1 2 3 4 5 6 
#
# 1 0.013210 -0.000673 -0.004212 0.000000 0.000000 0.000000
# 2 -0.000673 0.028592 -0.000052 0.000000 0.000000 0.000000
# 3 -0.004212 -0.000052 0.007235 0.000000 0.000000 0.000000
# 4 0.000000 0.000000 0.000000 0.104491 0.000000 0.000000
# 5 0.000000 0.000000 0.000000 0.000000 0.090775 0.000000
# 6 0.000000 0.000000 0.000000 0.000000 0.000000 0.075459
#
#
# Mechanical properties :
#
#
# Convention : Reuss Voigt Hill
#
# Bulk Modulus (GPa) = 25.53421 46.01333 35.77377
# Shear Modulus (GPa) = 14.59045 22.75726 18.67385
#
# Velocity S-wave (km/s) = 2.72958 3.40895 3.08801
# Velocity P-wave (km/s) = 4.79303 6.24430 5.56617
#
# Compressibility (1/GPa) = 0.03916315
#
# Stress axis : x y z
#
# Youngs Moduli (GPa) = 75.70195 34.97468 138.22296
#
# Poissons Ratio (x) = 0.02355 0.58216
# Poissons Ratio (y) = 0.05098 0.00712
# Poissons Ratio (z) = 0.31884 0.00180
#
# Static dielectric constant tensor:
#      x y z
#    x 1.647470 0.000000 0.000000 
#    y 0.000000 1.741960 0.000000 
#    z 0.000000 0.000000 1.721050 
# 
# From -- ./inp_files/28423.got.cif
#   From: 2010.05.17/outbox.cif.g08.bks.cpg/sg59_15_cif.got.tgz:28423.got - 2010.06.03 14:40:33.
