data_PCOD9448809
_publ_section_title
;
Structure prediction by ZEFSAII (Michael W. Deem and Ramdas Pophale) SiO2 
 PCOD9448809
Probable space group: P M M N
;
_chemical_formula_sum "Si O2"
_cell_formula_units_Z 64
_cell_length_a 7.717904
_cell_length_b 34.686040
_cell_length_c 11.030734
_cell_angle_alpha 90.000000
_cell_angle_beta 90.000000
_cell_angle_gamma 90.000000
_cell_volume 2952.966396
_symmetry_space_group_name_H-M "P M M N"
_symmetry_group_IT_number 59
_space_group.IT_coordinate_system_code '2'
_symmetry_cell_setting 'orthorhombic'
loop_
_space_group_symop_operation_xyz
x,y,z
1/2-x,1/2-y,z
1/2+x,-y,-z
-x,1/2+y,-z
-x,-y,-z
1/2+x,1/2+y,-z
1/2-x,y,z
x,1/2-y,z
loop_
_atom_site_type_symbol
_atom_site_label
_atom_site_fract_x
_atom_site_fract_y
_atom_site_fract_z
Si Si1 0.038068 0.293658 0.686671
Si Si2 0.040667 0.206515 0.407963
Si Si3 0.452093 0.057259 0.442593
Si Si4 0.548714 0.913879 0.948222
Si Si5 0.452503 0.627475 0.704552
Si Si6 0.049878 0.937534 0.291580
Si Si7 0.037483 0.484421 0.195500
Si Si8 0.051408 0.134412 0.831017
O O1 0.250000 0.295118 0.686528
O O2 0.988328 0.250000 0.719450
O O3 0.984480 0.300749 0.547302
O O4 0.973608 0.326566 0.777405
O O5 0.250000 0.206092 0.407059
O O6 0.985217 0.250000 0.374728
O O7 0.979054 0.172267 0.322548
O O8 0.250000 0.048663 0.456683
O O9 0.476066 0.102024 0.406706
O O10 0.539664 0.048632 0.569865
O O11 0.516437 0.034603 0.323949
O O12 0.750000 0.920515 0.980205
O O13 0.541244 0.888454 0.825844
O O14 0.474807 0.955699 0.909733
O O15 0.469619 0.888402 0.055633
O O16 0.250000 0.619187 0.716210
O O17 0.250000 0.930299 0.263321
O O18 0.950432 0.897821 0.273899
O O19 0.982474 0.971310 0.203406
O O20 0.250000 0.483932 0.193822
O O21 0.250000 0.143615 0.865489
#
# Coordination Sequence:
#
# PCOD9448809 Si02
#       8
#     8   8   8   8   8   8   8   8
#     4   8  15  30  53  79 103 127 160 205 252 296
#     4   9  17  31  53  79 107 139 172 207 254 316
#     4  10  19  34  54  74 101 135 172 213 258 315
#     4   9  19  37  55  71  98 139 183 218 251 304
#     4  11  21  33  52  77 104 134 169 214 270 319
#     4  11  21  32  49  76 107 135 169 215 265 313
#     4   8  17  33  51  71 100 138 174 213 259 307
#     4  10  20  34  54  77 101 135 178 218 257 304
#
# _framework density 21.673120000000001
#
# number of rings (size 3 to 8) (size 9 to 14) (size 15 to 20)
#    0.000    2.500    0.000    4.500    0.000    2.250 
#    0.000    6.250    0.000    3.375    0.000    0.000 
#    0.000    0.000    0.000    0.000    0.000    0.000 
#
# Total GULP energy -357289.723810 kJ/mol
# GULP energy per Si atom -5582.651935 kJ/mol
# Density = 2.162379 g / cm^3
# Si number density = 21.673120 Si / 1000 Ang^3
#
#
#
# Elastic Constant Matrix: (Units=GPa)
#
#
# Indices 1 2 3 4 5 6 
#
# 1 49.9620 -0.2695 3.8464 0.0000 0.0000 0.0000
# 2 -0.2695 92.6111 3.8373 0.0000 0.0000 0.0000
# 3 3.8464 3.8373 48.8701 0.0000 0.0000 0.0000
# 4 0.0000 0.0000 0.0000 27.0471 0.0000 0.0000
# 5 0.0000 0.0000 0.0000 0.0000 7.9061 0.0000
# 6 0.0000 0.0000 0.0000 0.0000 0.0000 1.2533
#
#
#
# Elastic Compliance Matrix: (Units=1/GPa)
#
#
# Indices 1 2 3 4 5 6 
#
# 1 0.020139 0.000125 -0.001595 0.000000 0.000000 0.000000
# 2 0.000125 0.010834 -0.000860 0.000000 0.000000 0.000000
# 3 -0.001595 -0.000860 0.020656 0.000000 0.000000 0.000000
# 4 0.000000 0.000000 0.000000 0.036972 0.000000 0.000000
# 5 0.000000 0.000000 0.000000 0.000000 0.126484 0.000000
# 6 0.000000 0.000000 0.000000 0.000000 0.000000 0.797903
#
#
# Mechanical properties :
#
#
# Convention : Reuss Voigt Hill
#
# Bulk Modulus (GPa) = 21.29166 22.91907 22.10537
# Shear Modulus (GPa) = 4.83885 19.50991 12.17438
#
# Velocity S-wave (km/s) = 1.49583 3.00357 2.37265
# Velocity P-wave (km/s) = 3.58171 4.75672 4.21041
#
# Compressibility (1/GPa) = 0.04696674
#
# Stress axis : x y z
#
# Youngs Moduli (GPa) = 49.65571 92.30326 48.41324
#
# Poissons Ratio (x) = -0.01151 0.07721
# Poissons Ratio (y) = -0.00619 0.04166
# Poissons Ratio (z) = 0.07919 0.07943
#
# Static dielectric constant tensor:
#      x y z
#    x 1.814520 0.000000 0.000000 
#    y 0.000000 1.800260 0.000000 
#    z 0.000000 0.000000 1.798580 
# 
# From -- ./inp_files/14914.got.cif
#   From: 2010.05.17/outbox.cif.g08.bks.cpg/sg59_8_cif.got.tgz:14914.got - 2010.06.03 14:40:33.
