data_PCOD9448769
_publ_section_title
;
Structure prediction by ZEFSAII (Michael W. Deem and Ramdas Pophale) SiO2 
 PCOD9448769
Probable space group: P M M N
;
_chemical_formula_sum "Si O2"
_cell_formula_units_Z 40
_cell_length_a 10.713836
_cell_length_b 26.158135
_cell_length_c 6.366769
_cell_angle_alpha 90.000000
_cell_angle_beta 90.000000
_cell_angle_gamma 90.000000
_cell_volume 1784.312278
_symmetry_space_group_name_H-M "P M M N"
_symmetry_group_IT_number 59
_space_group.IT_coordinate_system_code '2'
_symmetry_cell_setting 'orthorhombic'
loop_
_space_group_symop_operation_xyz
x,y,z
1/2-x,1/2-y,z
1/2+x,-y,-z
-x,1/2+y,-z
-x,-y,-z
1/2+x,1/2+y,-z
1/2-x,y,z
x,1/2-y,z
loop_
_atom_site_type_symbol
_atom_site_label
_atom_site_fract_x
_atom_site_fract_y
_atom_site_fract_z
Si Si1 0.030360 0.379257 0.373708
Si Si2 0.890054 0.136734 0.754928
Si Si3 0.605009 0.047977 0.046289
Si Si4 0.390470 0.029036 0.624852
Si Si5 0.388266 0.189071 0.014188
O O1 0.104409 0.412596 0.546469
O O2 0.100129 0.335917 0.245085
O O3 0.915915 0.357862 0.508934
O O4 0.981086 0.418825 0.199637
O O5 0.750000 0.153325 0.809616
O O6 0.901454 0.076445 0.821204
O O7 0.997534 0.166924 0.878407
O O8 0.750000 0.058945 0.101716
O O9 0.594087 0.988843 0.129234
O O10 0.250000 0.011656 0.562331
O O11 0.500000 0.000000 0.500000
O O12 0.250000 0.175299 0.929863
O O13 0.397090 0.250000 0.023786
#
# Coordination Sequence:
#
# PCOD9448769 Si02
#       5
#     8   8   8   8   8
#     4  10  19  33  57  84 111 145 188 232 278 334
#     4  10  21  37  59  86 114 147 188 233 282 338
#     4   8  16  32  51  77 115 150 180 221 272 322
#     4   9  17  30  51  79 112 150 190 230 274 329
#     4  10  23  42  60  80 110 146 184 233 291 344
#
# _framework density 22.4176
#
# number of rings (size 3 to 8) (size 9 to 14) (size 15 to 20)
#    0.000    2.600    0.000    1.200    0.000    5.200 
#    0.000    2.000    0.000    9.600    0.000    0.000 
#    0.000    0.000    0.000    0.000    0.000    0.000 
#
# Total GULP energy -222829.112120 kJ/mol
# GULP energy per Si atom -5570.727803 kJ/mol
# Density = 2.236658 g / cm^3
# Si number density = 22.417600 Si / 1000 Ang^3
#
#
#
# Elastic Constant Matrix: (Units=GPa)
#
#
# Indices 1 2 3 4 5 6 
#
# 1 94.5124 35.2319 20.5234 0.0000 0.0000 0.0000
# 2 35.2319 80.4914 22.9194 0.0000 0.0000 0.0000
# 3 20.5234 22.9194 85.4390 0.0000 0.0000 0.0000
# 4 0.0000 0.0000 0.0000 22.3656 0.0000 0.0000
# 5 0.0000 0.0000 0.0000 0.0000 -18.4151 0.0000
# 6 0.0000 0.0000 0.0000 0.0000 0.0000 20.9245
#
#
#
# Elastic Compliance Matrix: (Units=1/GPa)
#
#
# Indices 1 2 3 4 5 6 
#
# 1 0.012871 -0.005146 -0.001711 0.000000 0.000000 0.000000
# 2 -0.005146 0.015509 -0.002924 0.000000 0.000000 0.000000
# 3 -0.001711 -0.002924 0.012900 0.000000 0.000000 0.000000
# 4 0.000000 0.000000 0.000000 0.044711 0.000000 0.000000
# 5 0.000000 0.000000 0.000000 0.000000 -0.054303 0.000000
# 6 0.000000 0.000000 0.000000 0.000000 0.000000 0.047791
#
#
# Mechanical properties :
#
#
# Convention : Reuss Voigt Hill
#
# Bulk Modulus (GPa) = 46.04897 46.42134 46.23515
# Shear Modulus (GPa) = 47.04545 17.09289 32.06917
#
# Velocity S-wave (km/s) = 4.58601 2.76429 3.78635
# Velocity P-wave (km/s) = 6.97338 5.56246 6.30749
#
# Compressibility (1/GPa) = 0.02171601
#
# Stress axis : x y z
#
# Youngs Moduli (GPa) = 77.69625 64.47895 77.52120
#
# Poissons Ratio (x) = 0.33183 0.13265
# Poissons Ratio (y) = 0.39985 0.22668
# Poissons Ratio (z) = 0.13295 0.18854
#
# Static dielectric constant tensor:
#      x y z
#    x 1.953820 0.000000 0.000000 
#    y 0.000000 1.847640 0.000000 
#    z 0.000000 0.000000 1.877720 
# 
# From -- ./inp_files/1505.got.cif
#   From: 2010.05.17/outbox.cif.g08.bks.cpg/sg59_1_cif.got.tgz:1505.got - 2010.06.03 14:40:33.
