data_PCOD9448667
_publ_section_title
;
Structure prediction by ZEFSAII (Michael W. Deem and Ramdas Pophale) SiO2 
 PCOD9448667
Probable space group: P M M N
;
_chemical_formula_sum "Si O2"
_cell_formula_units_Z 64
_cell_length_a 14.770045
_cell_length_b 7.866651
_cell_length_c 26.615313
_cell_angle_alpha 90.000000
_cell_angle_beta 90.000000
_cell_angle_gamma 90.000000
_cell_volume 3092.454224
_symmetry_space_group_name_H-M "P M M N"
_symmetry_group_IT_number 59
_space_group.IT_coordinate_system_code '2'
_symmetry_cell_setting 'orthorhombic'
loop_
_space_group_symop_operation_xyz
x,y,z
1/2-x,1/2-y,z
1/2+x,-y,-z
-x,1/2+y,-z
-x,-y,-z
1/2+x,1/2+y,-z
1/2-x,y,z
x,1/2-y,z
loop_
_atom_site_type_symbol
_atom_site_label
_atom_site_fract_x
_atom_site_fract_y
_atom_site_fract_z
Si Si1 0.146604 0.046324 0.829089
Si Si2 0.535738 0.955388 0.074604
Si Si3 0.145565 0.957567 0.630086
Si Si4 0.146548 0.459051 0.306963
Si Si5 0.853833 0.566358 0.586402
Si Si6 0.597934 0.050791 0.480670
Si Si7 0.354185 0.454257 0.024168
Si Si8 0.039998 0.544598 0.729058
O O1 0.250000 0.980243 0.831020
O O2 0.152183 0.250000 0.835029
O O3 0.082882 0.982687 0.874356
O O4 0.099051 0.010906 0.776178
O O5 0.537870 0.750000 0.074134
O O6 0.430998 0.004989 0.065678
O O7 0.598183 0.015196 0.027696
O O8 0.250000 0.002220 0.638768
O O9 0.139911 0.750000 0.629069
O O10 0.118830 0.022562 0.574260
O O11 0.085424 0.014843 0.676825
O O12 0.250000 0.513493 0.295548
O O13 0.147367 0.250000 0.309388
O O14 0.113015 0.521021 0.362705
O O15 0.065622 0.508699 0.269856
O O16 0.750000 0.587862 0.601208
O O17 0.901556 0.750000 0.582406
O O18 0.848431 0.495749 0.530769
O O19 0.607240 0.250000 0.474886
O O20 0.500000 0.000000 0.500000
O O21 0.250000 0.516195 0.030743
O O22 0.348588 0.250000 0.021188
O O23 0.041239 0.750000 0.728159
#
# Coordination Sequence:
#
# PCOD9448667 Si02
#       8
#     8   8   8   8   8   8   8   8
#     4  10  21  37  55  75 103 138 172 209 258 310
#     4   9  18  33  53  77 107 145 183 214 252 307
#     4   9  18  32  49  69  94 125 160 200 250 304
#     4   8  15  30  52  75  99 129 163 200 249 309
#     4   9  17  31  51  72  93 118 151 192 240 298
#     4  11  21  32  47  67  94 126 159 196 243 301
#     4   9  17  31  53  81 112 144 179 219 259 298
#     4  10  19  33  55  77  96 125 171 219 253 289
#
# _framework density 20.695537999999999
#
# number of rings (size 3 to 8) (size 9 to 14) (size 15 to 20)
#    0.000    2.625    0.000    3.000    0.000    5.750 
#    0.000    3.750    0.000    8.625    0.000    0.000 
#    0.000    0.000    0.000    0.000    0.000    0.000 
#
# Total GULP energy -356366.118233 kJ/mol
# GULP energy per Si atom -5568.220597 kJ/mol
# Density = 2.064843 g / cm^3
# Si number density = 20.695538 Si / 1000 Ang^3
#
#
#
# Elastic Constant Matrix: (Units=GPa)
#
#
# Indices 1 2 3 4 5 6 
#
# 1 189.3104 4.7272 85.0241 0.0000 0.0000 0.0000
# 2 4.7272 17.1043 2.2241 0.0000 0.0000 0.0000
# 3 85.0241 2.2241 106.7454 0.0000 0.0000 0.0000
# 4 0.0000 0.0000 0.0000 17.9423 0.0000 0.0000
# 5 0.0000 0.0000 0.0000 0.0000 32.7213 0.0000
# 6 0.0000 0.0000 0.0000 0.0000 0.0000 4.7708
#
#
#
# Elastic Compliance Matrix: (Units=1/GPa)
#
#
# Indices 1 2 3 4 5 6 
#
# 1 0.008259 -0.001431 -0.006549 0.000000 0.000000 0.000000
# 2 -0.001431 0.058872 -0.000087 0.000000 0.000000 0.000000
# 3 -0.006549 -0.000087 0.014586 0.000000 0.000000 0.000000
# 4 0.000000 0.000000 0.000000 0.055734 0.000000 0.000000
# 5 0.000000 0.000000 0.000000 0.000000 0.030561 0.000000
# 6 0.000000 0.000000 0.000000 0.000000 0.000000 0.209610
#
#
# Mechanical properties :
#
#
# Convention : Reuss Voigt Hill
#
# Bulk Modulus (GPa) = 15.24766 55.23453 35.24110
# Shear Modulus (GPa) = 12.03031 25.83253 18.93142
#
# Velocity S-wave (km/s) = 2.41363 3.53684 3.02778
# Velocity P-wave (km/s) = 3.89244 6.58985 5.41189
#
# Compressibility (1/GPa) = 0.06558382
#
# Stress axis : x y z
#
# Youngs Moduli (GPa) = 121.07544 16.98609 68.55831
#
# Poissons Ratio (x) = 0.02431 0.44898
# Poissons Ratio (y) = 0.17327 0.00594
# Poissons Ratio (z) = 0.79290 0.00147
#
# Static dielectric constant tensor:
#      x y z
#    x 1.732870 0.000000 0.000000 
#    y 0.000000 1.779560 0.000000 
#    z 0.000000 0.000000 1.794820 
# 
# From -- ./inp_files/32130.got.cif
#   From: 2010.05.17/outbox.cif.g08.bks.cpg/sg59_17_cif.got.tgz:32130.got - 2010.06.03 14:40:33.
