data_PCOD9448514
_publ_section_title
;
Structure prediction by ZEFSAII (Michael W. Deem and Ramdas Pophale) SiO2 
 PCOD9448514
Probable space group: P M M N
;
_chemical_formula_sum "Si O2"
_cell_formula_units_Z 56
_cell_length_a 23.402119
_cell_length_b 7.533227
_cell_length_c 15.138938
_cell_angle_alpha 90.000000
_cell_angle_beta 90.000000
_cell_angle_gamma 90.000000
_cell_volume 2668.895983
_symmetry_space_group_name_H-M "P M M N"
_symmetry_group_IT_number 59
_space_group.IT_coordinate_system_code '2'
_symmetry_cell_setting 'orthorhombic'
loop_
_space_group_symop_operation_xyz
x,y,z
1/2-x,1/2-y,z
1/2+x,-y,-z
-x,1/2+y,-z
-x,-y,-z
1/2+x,1/2+y,-z
1/2-x,y,z
x,1/2-y,z
loop_
_atom_site_type_symbol
_atom_site_label
_atom_site_fract_x
_atom_site_fract_y
_atom_site_fract_z
Si Si1 0.871563 0.533301 0.868412
Si Si2 0.424519 0.539195 0.427911
Si Si3 0.998677 0.961455 0.895899
Si Si4 0.046383 0.457655 0.626125
Si Si5 0.685991 0.536577 0.688659
Si Si6 0.184114 0.467264 0.947769
Si Si7 0.609199 0.548958 0.209181
O O1 0.870589 0.750000 0.869134
O O2 0.833657 0.473794 0.785861
O O3 0.937426 0.479760 0.858614
O O4 0.848436 0.474651 0.963635
O O5 0.431790 0.750000 0.434586
O O6 0.481521 0.468707 0.377754
O O7 0.428427 0.469613 0.527795
O O8 0.365211 0.504413 0.378835
O O9 0.004159 0.750000 0.882933
O O10 0.088940 0.963546 0.699044
O O11 0.051334 0.052462 0.848340
O O12 0.040993 0.250000 0.650185
O O13 0.750000 0.472181 0.666254
O O14 0.688882 0.750000 0.692861
O O15 0.250000 0.516253 0.953365
O O16 0.180536 0.250000 0.946886
O O17 0.155046 0.532797 0.857659
O O18 0.629564 0.750000 0.228041
O O19 0.500000 0.500000 0.000000
#
# Coordination Sequence:
#
# PCOD9448514 Si02
#       7
#     8   8   8   8   8   8   8
#     4   9  17  30  49  75 103 133 173 214 255 305
#     4  10  20  35  55  78 105 138 173 215 268 323
#     4  11  20  31  49  75 106 139 173 215 264 313
#     4   9  19  35  56  80 107 137 170 216 270 322
#     4  10  20  34  54  79 106 138 177 222 266 312
#     4   9  16  28  48  72  99 132 170 209 246 294
#     4  10  19  33  52  77 106 134 170 215 262 309
#
# _framework density 20.982458999999999
#
# number of rings (size 3 to 8) (size 9 to 14) (size 15 to 20)
#    0.000    2.286    1.429    2.143    0.000    3.143 
#    0.000    1.429    0.000    3.000    0.000    0.000 
#    0.000    0.000    0.000    0.000    0.000    0.000 
#
# Total GULP energy -312643.166131 kJ/mol
# GULP energy per Si atom -5582.913681 kJ/mol
# Density = 2.093470 g / cm^3
# Si number density = 20.982459 Si / 1000 Ang^3
#
#
#
# Elastic Constant Matrix: (Units=GPa)
#
#
# Indices 1 2 3 4 5 6 
#
# 1 81.8384 -9.7185 13.1497 0.0000 0.0000 0.0000
# 2 -9.7185 58.3098 -13.5151 0.0000 0.0000 0.0000
# 3 13.1497 -13.5151 73.1189 0.0000 0.0000 0.0000
# 4 0.0000 0.0000 0.0000 4.2444 0.0000 0.0000
# 5 0.0000 0.0000 0.0000 0.0000 31.0570 0.0000
# 6 0.0000 0.0000 0.0000 0.0000 0.0000 15.2293
#
#
#
# Elastic Compliance Matrix: (Units=1/GPa)
#
#
# Indices 1 2 3 4 5 6 
#
# 1 0.012735 0.001663 -0.001983 0.000000 0.000000 0.000000
# 2 0.001663 0.018135 0.003053 0.000000 0.000000 0.000000
# 3 -0.001983 0.003053 0.014597 0.000000 0.000000 0.000000
# 4 0.000000 0.000000 0.000000 0.235606 0.000000 0.000000
# 5 0.000000 0.000000 0.000000 0.000000 0.032199 0.000000
# 6 0.000000 0.000000 0.000000 0.000000 0.000000 0.065663
#
#
# Mechanical properties :
#
#
# Convention : Reuss Voigt Hill
#
# Bulk Modulus (GPa) = 19.63366 21.45548 20.54457
# Shear Modulus (GPa) = 12.80585 24.99619 18.90102
#
# Velocity S-wave (km/s) = 2.47313 3.45525 3.00459
# Velocity P-wave (km/s) = 4.18720 5.11527 4.67433
#
# Compressibility (1/GPa) = 0.05093294
#
# Stress axis : x y z
#
# Youngs Moduli (GPa) = 78.52187 55.14335 68.50604
#
# Poissons Ratio (x) = -0.09170 0.13584
# Poissons Ratio (y) = -0.13058 -0.20914
# Poissons Ratio (z) = 0.15570 -0.16835
#
# Static dielectric constant tensor:
#      x y z
#    x 1.741660 0.000000 0.000000 
#    y 0.000000 1.833500 0.000000 
#    z 0.000000 0.000000 1.744590 
# 
# From -- ./inp_files/21025.got.cif
#   From: 2010.05.17/outbox.cif.g08.bks.cpg/sg59_11_cif.got.tgz:21025.got - 2010.06.03 14:40:33.
