data_PCOD9448873
_publ_section_title
;
Structure prediction by ZEFSAII (Michael W. Deem and Ramdas Pophale) SiO2 
 PCOD9448873
Probable space group: P M M N
;
_chemical_formula_sum "Si O2"
_cell_formula_units_Z 56
_cell_length_a 7.775278
_cell_length_b 23.567307
_cell_length_c 14.278004
_cell_angle_alpha 90.000000
_cell_angle_beta 90.000000
_cell_angle_gamma 90.000000
_cell_volume 2616.335201
_symmetry_space_group_name_H-M "P M M N"
_symmetry_group_IT_number 59
_space_group.IT_coordinate_system_code '2'
_symmetry_cell_setting 'orthorhombic'
loop_
_space_group_symop_operation_xyz
x,y,z
1/2-x,1/2-y,z
1/2+x,-y,-z
-x,1/2+y,-z
-x,-y,-z
1/2+x,1/2+y,-z
1/2-x,y,z
x,1/2-y,z
loop_
_atom_site_type_symbol
_atom_site_label
_atom_site_fract_x
_atom_site_fract_y
_atom_site_fract_z
Si Si1 0.550867 0.313778 0.826062
Si Si2 0.045801 0.935296 0.524817
Si Si3 0.960249 0.516054 0.177492
Si Si4 0.453398 0.110821 0.672083
Si Si5 0.954740 0.685515 0.876272
Si Si6 0.555078 0.598362 0.026797
Si Si7 0.458458 0.900435 0.730335
O O1 0.750000 0.317811 0.855555
O O2 0.490927 0.250000 0.838414
O O3 0.537787 0.334760 0.719668
O O4 0.442030 0.356903 0.887471
O O5 0.250000 0.933014 0.531872
O O6 0.978667 0.914601 0.625554
O O7 0.990497 0.898567 0.436064
O O8 0.000000 0.000000 0.500000
O O9 0.750000 0.516451 0.173072
O O10 0.010817 0.556534 0.264893
O O11 0.024186 0.543892 0.080184
O O12 0.015312 0.452696 0.202723
O O13 0.250000 0.115228 0.684161
O O14 0.750000 0.688050 0.895359
O O15 0.021376 0.750000 0.887579
O O16 0.982298 0.658860 0.773961
O O17 0.028905 0.636948 0.945945
O O18 0.750000 0.583757 0.998210
O O19 0.250000 0.900691 0.729897
#
# Coordination Sequence:
#
# PCOD9448873 Si02
#       7
#     8   8   8   8   8   8   8
#     4  10  20  33  51  80 115 146 183 232 279 329
#     4  11  21  35  57  84 113 145 182 225 277 339
#     4   8  15  31  53  81 113 139 169 218 275 331
#     4  10  19  34  55  80 112 146 183 225 274 334
#     4  10  22  39  56  78 109 147 196 243 276 318
#     4   9  18  34  58  81 108 147 186 227 280 336
#     4  10  21  37  56  81 113 146 183 228 280 334
#
# _framework density 21.403986
#
# number of rings (size 3 to 8) (size 9 to 14) (size 15 to 20)
#    0.000    2.286    1.429    2.571    0.000    4.286 
#    0.000    1.429    0.000    0.857    0.000    0.000 
#    0.000    0.000    0.000    0.000    0.000    0.000 
#
# Total GULP energy -312489.437487 kJ/mol
# GULP energy per Si atom -5580.168527 kJ/mol
# Density = 2.135527 g / cm^3
# Si number density = 21.403986 Si / 1000 Ang^3
#
#
#
# Elastic Constant Matrix: (Units=GPa)
#
#
# Indices 1 2 3 4 5 6 
#
# 1 40.5411 1.6921 -0.0304 0.0000 0.0000 0.0000
# 2 1.6921 56.2769 52.2670 0.0000 0.0000 0.0000
# 3 -0.0304 52.2670 128.6412 0.0000 0.0000 0.0000
# 4 0.0000 0.0000 0.0000 22.3614 0.0000 0.0000
# 5 0.0000 0.0000 0.0000 0.0000 19.5991 0.0000
# 6 0.0000 0.0000 0.0000 0.0000 0.0000 16.0275
#
#
#
# Elastic Compliance Matrix: (Units=1/GPa)
#
#
# Indices 1 2 3 4 5 6 
#
# 1 0.024717 -0.001202 0.000494 0.000000 0.000000 0.000000
# 2 -0.001202 0.028597 -0.011619 0.000000 0.000000 0.000000
# 3 0.000494 -0.011619 0.012495 0.000000 0.000000 0.000000
# 4 0.000000 0.000000 0.000000 0.044720 0.000000 0.000000
# 5 0.000000 0.000000 0.000000 0.000000 0.051023 0.000000
# 6 0.000000 0.000000 0.000000 0.000000 0.000000 0.062393
#
#
# Mechanical properties :
#
#
# Convention : Reuss Voigt Hill
#
# Bulk Modulus (GPa) = 24.29904 37.03519 30.66711
# Shear Modulus (GPa) = 19.06100 23.03297 21.04698
#
# Velocity S-wave (km/s) = 2.98742 3.28396 3.13920
# Velocity P-wave (km/s) = 4.82460 5.63203 5.24388
#
# Compressibility (1/GPa) = 0.04115389
#
# Stress axis : x y z
#
# Youngs Moduli (GPa) = 40.45823 34.96906 80.03492
#
# Poissons Ratio (x) = 0.04204 -0.03956
# Poissons Ratio (y) = 0.04864 0.92994
# Poissons Ratio (z) = -0.02000 0.40631
#
# Static dielectric constant tensor:
#      x y z
#    x 1.795530 0.000000 0.000000 
#    y 0.000000 1.777500 0.000000 
#    z 0.000000 0.000000 1.818430 
# 
# From -- ./inp_files/21049.got.cif
#   From: 2010.05.17/outbox.cif.g08.bks.cpg/sg59_11_cif.got.tgz:21049.got - 2010.06.03 14:40:33.
