data_PCOD9448534
_publ_section_title
;
Structure prediction by ZEFSAII (Michael W. Deem and Ramdas Pophale) SiO2 
 PCOD9448534
Probable space group: P M M N
;
_chemical_formula_sum "Si O2"
_cell_formula_units_Z 40
_cell_length_a 9.085484
_cell_length_b 14.936137
_cell_length_c 15.458607
_cell_angle_alpha 90.000000
_cell_angle_beta 90.000000
_cell_angle_gamma 90.000000
_cell_volume 2097.764409
_symmetry_space_group_name_H-M "P M M N"
_symmetry_group_IT_number 59
_space_group.IT_coordinate_system_code '2'
_symmetry_cell_setting 'orthorhombic'
loop_
_space_group_symop_operation_xyz
x,y,z
1/2-x,1/2-y,z
1/2+x,-y,-z
-x,1/2+y,-z
-x,-y,-z
1/2+x,1/2+y,-z
1/2-x,y,z
x,1/2-y,z
loop_
_atom_site_type_symbol
_atom_site_label
_atom_site_fract_x
_atom_site_fract_y
_atom_site_fract_z
Si Si1 0.081334 0.389247 0.582000
Si Si2 0.071687 0.403037 0.773105
Si Si3 0.570934 0.750000 0.094754
Si Si4 0.418222 0.892390 0.589554
Si Si5 0.571149 0.750000 0.897660
Si Si6 0.926586 0.596554 0.765544
O O1 0.250000 0.361511 0.567982
O O2 0.033713 0.362725 0.678515
O O3 0.079657 0.498400 0.584880
O O4 0.983689 0.360299 0.501357
O O5 0.250000 0.413917 0.772807
O O6 0.028261 0.337045 0.850062
O O7 0.996021 0.499117 0.780634
O O8 0.750000 0.750000 0.092990
O O9 0.517626 0.750000 0.996229
O O10 0.250000 0.864538 0.601073
O O11 0.513894 0.868631 0.673204
O O12 0.750000 0.750000 0.900665
O O13 0.528447 0.836724 0.842216
O O14 0.750000 0.590854 0.762079
#
# Coordination Sequence:
#
# PCOD9448534 Si02
#       6
#     8   8   4   8   4   8
#     4   8  14  25  43  71 104 134 166 203 246 298
#     4   9  18  33  55  80 104 135 172 209 254 306
#     4   9  18  36  58  77 102 134 171 215 258 309
#     4   9  16  27  46  73 103 136 172 206 247 300
#     4   9  20  36  54  77 102 134 175 215 260 309
#     4  10  19  33  53  76 105 138 172 213 256 301
#
# _framework density 19.067919
#
# number of rings (size 3 to 8) (size 9 to 14) (size 15 to 20)
#    0.000    3.000    0.000    2.400    0.000    5.600 
#    0.000    3.500    0.000    7.200    0.000    0.000 
#    0.000    0.000    0.000    0.000    0.000    0.000 
#
# Total GULP energy -223136.492528 kJ/mol
# GULP energy per Si atom -5578.412313 kJ/mol
# Density = 1.902452 g / cm^3
# Si number density = 19.067919 Si / 1000 Ang^3
#
#
#
# Elastic Constant Matrix: (Units=GPa)
#
#
# Indices 1 2 3 4 5 6 
#
# 1 51.8956 32.9642 61.2943 0.0000 0.0000 0.0000
# 2 32.9642 89.8997 75.3970 0.0000 0.0000 0.0000
# 3 61.2943 75.3970 209.5715 0.0000 0.0000 0.0000
# 4 0.0000 0.0000 0.0000 36.7177 0.0000 0.0000
# 5 0.0000 0.0000 0.0000 0.0000 21.4860 0.0000
# 6 0.0000 0.0000 0.0000 0.0000 0.0000 10.0614
#
#
#
# Elastic Compliance Matrix: (Units=1/GPa)
#
#
# Indices 1 2 3 4 5 6 
#
# 1 0.031180 -0.005420 -0.007169 0.000000 0.000000 0.000000
# 2 -0.005420 0.016872 -0.004485 0.000000 0.000000 0.000000
# 3 -0.007169 -0.004485 0.008482 0.000000 0.000000 0.000000
# 4 0.000000 0.000000 0.000000 0.027235 0.000000 0.000000
# 5 0.000000 0.000000 0.000000 0.000000 0.046542 0.000000
# 6 0.000000 0.000000 0.000000 0.000000 0.000000 0.099390
#
#
# Mechanical properties :
#
#
# Convention : Reuss Voigt Hill
#
# Bulk Modulus (GPa) = 44.67159 76.74199 60.70679
# Shear Modulus (GPa) = 18.42896 25.76710 22.09803
#
# Velocity S-wave (km/s) = 3.11222 3.68004 3.40797
# Velocity P-wave (km/s) = 6.03266 7.64139 6.88418
#
# Compressibility (1/GPa) = 0.02238559
#
# Stress axis : x y z
#
# Youngs Moduli (GPa) = 32.07158 59.26857 117.89683
#
# Poissons Ratio (x) = 0.32125 0.84525
# Poissons Ratio (y) = 0.17384 0.52875
# Poissons Ratio (z) = 0.22993 0.26581
#
# Static dielectric constant tensor:
#      x y z
#    x 1.634450 0.000000 0.000000 
#    y 0.000000 1.690290 0.000000 
#    z 0.000000 0.000000 1.660970 
# 
# From -- ./inp_files/19977.got.cif
#   From: 2010.05.17/outbox.cif.g08.bks.cpg/sg59_10_cif.got.tgz:19977.got - 2010.06.03 14:40:33.
