data_PCOD9448912
_publ_section_title
;
Structure prediction by ZEFSAII (Michael W. Deem and Ramdas Pophale) SiO2 
 PCOD9448912
Probable space group: P M M N
;
_chemical_formula_sum "Si O2"
_cell_formula_units_Z 64
_cell_length_a 15.006334
_cell_length_b 18.210275
_cell_length_c 12.497045
_cell_angle_alpha 90.000000
_cell_angle_beta 90.000000
_cell_angle_gamma 90.000000
_cell_volume 3415.060850
_symmetry_space_group_name_H-M "P M M N"
_symmetry_group_IT_number 59
_space_group.IT_coordinate_system_code '2'
_symmetry_cell_setting 'orthorhombic'
loop_
_space_group_symop_operation_xyz
x,y,z
1/2-x,1/2-y,z
1/2+x,-y,-z
-x,1/2+y,-z
-x,-y,-z
1/2+x,1/2+y,-z
1/2-x,y,z
x,1/2-y,z
loop_
_atom_site_type_symbol
_atom_site_label
_atom_site_fract_x
_atom_site_fract_y
_atom_site_fract_z
Si Si1 0.146522 0.161718 0.082289
Si Si2 0.351666 0.589419 0.609543
Si Si3 0.855283 0.165310 0.178260
Si Si4 0.356217 0.424293 0.293317
Si Si5 0.644487 0.090152 0.781359
Si Si6 0.528457 0.163298 0.964262
Si Si7 0.947364 0.335798 0.588450
Si Si8 0.079792 0.055470 0.527899
O O1 0.250000 0.138797 0.061893
O O2 0.145171 0.250000 0.088042
O O3 0.116978 0.129678 0.197417
O O4 0.072689 0.140320 0.994070
O O5 0.250000 0.615009 0.602337
O O6 0.383369 0.609770 0.728201
O O7 0.407043 0.635144 0.522994
O O8 0.354413 0.502652 0.582885
O O9 0.750000 0.154112 0.153645
O O10 0.864748 0.250000 0.216412
O O11 0.914333 0.157414 0.073065
O O12 0.250000 0.418778 0.300521
O O13 0.376889 0.507335 0.256267
O O14 0.390395 0.412694 0.413531
O O15 0.750000 0.094295 0.808604
O O16 0.580071 0.116384 0.875927
O O17 0.621603 0.141120 0.680213
O O18 0.527898 0.250000 0.932862
O O19 0.962442 0.250000 0.587515
O O20 0.039162 0.381292 0.601667
O O21 0.000000 0.000000 0.500000
#
# Coordination Sequence:
#
# PCOD9448912 Si02
#       8
#     8   8   8   8   8   8   8   8
#     4   9  20  38  60  85 110 143 196 252 296 342
#     4  10  19  34  56  81 110 149 191 233 290 349
#     4   9  18  31  49  80 120 154 186 230 288 353
#     4  10  20  37  60  85 115 152 192 240 297 349
#     4  11  22  37  58  87 121 157 196 239 288 356
#     4  10  21  35  56  83 116 155 190 232 295 351
#     4  11  23  35  54  85 116 152 196 240 287 342
#     4  10  20  34  53  79 114 150 188 230 288 346
#
# _framework density 18.740514000000001
#
# number of rings (size 3 to 8) (size 9 to 14) (size 15 to 20)
#    0.000    2.000    2.500    1.875    3.500    3.750 
#    0.000    0.000    0.000    4.125    0.000    0.000 
#    0.000    0.000    0.000    0.000    0.000    0.000 
#
# Total GULP energy -356856.211225 kJ/mol
# GULP energy per Si atom -5575.878300 kJ/mol
# Density = 1.869786 g / cm^3
# Si number density = 18.740514 Si / 1000 Ang^3
#
#
#
# Elastic Constant Matrix: (Units=GPa)
#
#
# Indices 1 2 3 4 5 6 
#
# 1 67.7508 20.5258 26.3346 0.0000 0.0000 0.0000
# 2 20.5258 51.3085 9.2426 0.0000 0.0000 0.0000
# 3 26.3346 9.2426 35.5179 0.0000 0.0000 0.0000
# 4 0.0000 0.0000 0.0000 -18.3902 0.0000 0.0000
# 5 0.0000 0.0000 0.0000 0.0000 35.8108 0.0000
# 6 0.0000 0.0000 0.0000 0.0000 0.0000 18.5320
#
#
#
# Elastic Compliance Matrix: (Units=1/GPa)
#
#
# Indices 1 2 3 4 5 6 
#
# 1 0.022521 -0.006297 -0.015060 0.000000 0.000000 0.000000
# 2 -0.006297 0.022209 -0.001111 0.000000 0.000000 0.000000
# 3 -0.015060 -0.001111 0.039610 0.000000 0.000000 0.000000
# 4 0.000000 0.000000 0.000000 -0.054377 0.000000 0.000000
# 5 0.000000 0.000000 0.000000 0.000000 0.027925 0.000000
# 6 0.000000 0.000000 0.000000 0.000000 0.000000 0.053961
#
#
# Mechanical properties :
#
#
# Convention : Reuss Voigt Hill
#
# Bulk Modulus (GPa) = 25.37693 29.64257 27.50975
# Shear Modulus (GPa) = 29.42594 13.75548 21.59071
#
# Velocity S-wave (km/s) = 3.96685 2.71218 3.39792
# Velocity P-wave (km/s) = 5.87807 5.06553 5.48686
#
# Compressibility (1/GPa) = 0.03940587
#
# Stress axis : x y z
#
# Youngs Moduli (GPa) = 44.40234 45.02680 25.24629
#
# Poissons Ratio (x) = 0.28352 0.38020
# Poissons Ratio (y) = 0.27959 0.02804
# Poissons Ratio (z) = 0.66869 0.05001
#
# Static dielectric constant tensor:
#      x y z
#    x 1.685590 0.000000 0.000000 
#    y 0.000000 1.660430 0.000000 
#    z 0.000000 0.000000 1.658370 
# 
# From -- ./inp_files/17202.got.cif
#   From: 2010.05.17/outbox.cif.g08.bks.cpg/sg59_9_cif.got.tgz:17202.got - 2010.06.03 14:40:33.
