data_PCOD9448533
_publ_section_title
;
Structure prediction by ZEFSAII (Michael W. Deem and Ramdas Pophale) SiO2 
 PCOD9448533
Probable space group: P M M N
;
_chemical_formula_sum "Si O2"
_cell_formula_units_Z 32
_cell_length_a 25.570730
_cell_length_b 14.150362
_cell_length_c 5.094984
_cell_angle_alpha 90.000000
_cell_angle_beta 90.000000
_cell_angle_gamma 90.000000
_cell_volume 1843.543974
_symmetry_space_group_name_H-M "P M M N"
_symmetry_group_IT_number 59
_space_group.IT_coordinate_system_code '2'
_symmetry_cell_setting 'orthorhombic'
loop_
_space_group_symop_operation_xyz
x,y,z
1/2-x,1/2-y,z
1/2+x,-y,-z
-x,1/2+y,-z
-x,-y,-z
1/2+x,1/2+y,-z
1/2-x,y,z
x,1/2-y,z
loop_
_atom_site_type_symbol
_atom_site_label
_atom_site_fract_x
_atom_site_fract_y
_atom_site_fract_z
Si Si1 0.966005 0.854481 0.410219
Si Si2 0.952174 0.025989 0.809905
Si Si3 0.626973 0.578695 0.080084
Si Si4 0.811658 0.639934 0.565919
O O1 0.962915 0.750000 0.526812
O O2 0.025309 0.879723 0.323232
O O3 0.923776 0.861309 0.174608
O O4 0.949833 0.940805 0.599324
O O5 0.100898 0.981279 0.024783
O O6 0.000000 0.000000 0.000000
O O7 0.663900 0.577250 0.333757
O O8 0.658618 0.622633 0.838608
O O9 0.750000 0.623217 0.597480
O O10 0.819021 0.750000 0.488481
#
# Coordination Sequence:
#
# PCOD9448533 Si02
#       4
#     8   8   8   8
#     4  10  19  33  53  76 103 142 178 213 260 311
#     4   9  20  33  49  75 106 137 176 216 250 312
#     4  11  20  34  52  70 105 142 173 208 258 297
#     4  11  22  33  48  73 102 137 181 217 247 298
#
# _framework density 17.357870999999999
#
# number of rings (size 3 to 8) (size 9 to 14) (size 15 to 20)
#    0.000    1.750    2.500    3.000    0.000    7.000 
#    0.000    0.000    0.000    0.000    0.000    0.000 
#    0.000    6.000    0.000    0.000    0.000    0.000 
#
# Total GULP energy -178210.084900 kJ/mol
# GULP energy per Si atom -5569.065153 kJ/mol
# Density = 1.731836 g / cm^3
# Si number density = 17.357871 Si / 1000 Ang^3
#
#
#
# Elastic Constant Matrix: (Units=GPa)
#
#
# Indices 1 2 3 4 5 6 
#
# 1 113.1220 33.6349 49.3106 0.0000 0.0000 0.0000
# 2 33.6349 38.4962 16.5395 0.0000 0.0000 0.0000
# 3 49.3106 16.5395 102.6238 0.0000 0.0000 0.0000
# 4 0.0000 0.0000 0.0000 14.9379 0.0000 0.0000
# 5 0.0000 0.0000 0.0000 0.0000 33.8486 0.0000
# 6 0.0000 0.0000 0.0000 0.0000 0.0000 13.9176
#
#
#
# Elastic Compliance Matrix: (Units=1/GPa)
#
#
# Indices 1 2 3 4 5 6 
#
# 1 0.014082 -0.010096 -0.005139 0.000000 0.000000 0.000000
# 2 -0.010096 0.035147 -0.000813 0.000000 0.000000 0.000000
# 3 -0.005139 -0.000813 0.012345 0.000000 0.000000 0.000000
# 4 0.000000 0.000000 0.000000 0.066944 0.000000 0.000000
# 5 0.000000 0.000000 0.000000 0.000000 0.029543 0.000000
# 6 0.000000 0.000000 0.000000 0.000000 0.000000 0.071851
#
#
# Mechanical properties :
#
#
# Convention : Reuss Voigt Hill
#
# Bulk Modulus (GPa) = 33.92501 50.35687 42.14094
# Shear Modulus (GPa) = 18.39348 22.85795 20.62572
#
# Velocity S-wave (km/s) = 3.25878 3.63280 3.45086
# Velocity P-wave (km/s) = 5.80916 6.83156 6.34100
#
# Compressibility (1/GPa) = 0.02947678
#
# Stress axis : x y z
#
# Youngs Moduli (GPa) = 71.01219 28.45193 81.00526
#
# Poissons Ratio (x) = 0.28724 0.41631
# Poissons Ratio (y) = 0.71692 0.06590
# Poissons Ratio (z) = 0.36495 0.02315
#
# Static dielectric constant tensor:
#      x y z
#    x 1.627600 0.000000 0.000000 
#    y 0.000000 1.619900 0.000000 
#    z 0.000000 0.000000 1.687990 
# 
# From -- ./inp_files/1972.got.cif
#   From: 2010.05.17/outbox.cif.g08.bks.cpg/sg59_1_cif.got.tgz:1972.got - 2010.06.03 14:40:33.
