data_PCOD9448911
_publ_section_title
;
Structure prediction by ZEFSAII (Michael W. Deem and Ramdas Pophale) SiO2 
 PCOD9448911
Probable space group: P M M N
;
_chemical_formula_sum "Si O2"
_cell_formula_units_Z 48
_cell_length_a 19.094526
_cell_length_b 9.259638
_cell_length_c 15.161709
_cell_angle_alpha 90.000000
_cell_angle_beta 90.000000
_cell_angle_gamma 90.000000
_cell_volume 2680.717487
_symmetry_space_group_name_H-M "P M M N"
_symmetry_group_IT_number 59
_space_group.IT_coordinate_system_code '2'
_symmetry_cell_setting 'orthorhombic'
loop_
_space_group_symop_operation_xyz
x,y,z
1/2-x,1/2-y,z
1/2+x,-y,-z
-x,1/2+y,-z
-x,-y,-z
1/2+x,1/2+y,-z
1/2-x,y,z
x,1/2-y,z
loop_
_atom_site_type_symbol
_atom_site_label
_atom_site_fract_x
_atom_site_fract_y
_atom_site_fract_z
Si Si1 0.331485 0.580373 0.789037
Si Si2 0.441713 0.580173 0.116341
Si Si3 0.602606 0.580759 0.053612
Si Si4 0.424821 0.923166 0.321033
Si Si5 0.416986 0.076370 0.636077
Si Si6 0.331293 0.076532 0.460408
O O1 0.250000 0.564190 0.765492
O O2 0.348490 0.750000 0.792982
O O3 0.346423 0.507129 0.882949
O O4 0.378589 0.501410 0.716566
O O5 0.424885 0.750000 0.104556
O O6 0.524604 0.564951 0.095855
O O7 0.426741 0.539611 0.217279
O O8 0.402016 0.485452 0.043918
O O9 0.619629 0.750000 0.052032
O O10 0.416601 0.750000 0.327555
O O11 0.500894 0.960767 0.361834
O O12 0.364836 0.001902 0.375473
O O13 0.411564 0.250000 0.648283
O O14 0.377851 0.037071 0.545690
O O15 0.250000 0.036550 0.473371
O O16 0.334790 0.250000 0.451170
#
# Coordination Sequence:
#
# PCOD9448911 Si02
#       6
#     8   8   8   8   8   8
#     4  11  23  36  53  82 118 152 188 233 285 339
#     4   9  18  34  55  82 112 140 180 230 277 327
#     4  10  19  34  56  81 110 146 185 225 274 334
#     4  10  20  36  59  86 113 144 187 235 281 334
#     4  10  20  38  60  83 111 146 189 235 285 339
#     4  10  22  38  56  81 114 151 189 231 281 336
#
# _framework density 17.905653999999998
#
# number of rings (size 3 to 8) (size 9 to 14) (size 15 to 20)
#    0.000    2.000    1.667    2.000    0.000    5.000 
#    0.000    0.833    0.000    1.000    0.000    0.000 
#    0.000    0.000    0.000    0.000    0.000    0.000 
#
# Total GULP energy -268019.049805 kJ/mol
# GULP energy per Si atom -5583.730204 kJ/mol
# Density = 1.786490 g / cm^3
# Si number density = 17.905654 Si / 1000 Ang^3
#
#
#
# Elastic Constant Matrix: (Units=GPa)
#
#
# Indices 1 2 3 4 5 6 
#
# 1 39.0855 13.9562 32.1411 0.0000 0.0000 0.0000
# 2 13.9562 22.1471 24.6337 0.0000 0.0000 0.0000
# 3 32.1411 24.6337 113.2263 0.0000 0.0000 0.0000
# 4 0.0000 0.0000 0.0000 35.5930 0.0000 0.0000
# 5 0.0000 0.0000 0.0000 0.0000 18.9387 0.0000
# 6 0.0000 0.0000 0.0000 0.0000 0.0000 23.7596
#
#
#
# Elastic Compliance Matrix: (Units=1/GPa)
#
#
# Indices 1 2 3 4 5 6 
#
# 1 0.036937 -0.015321 -0.007152 0.000000 0.000000 0.000000
# 2 -0.015321 0.065922 -0.009993 0.000000 0.000000 0.000000
# 3 -0.007152 -0.009993 0.013036 0.000000 0.000000 0.000000
# 4 0.000000 0.000000 0.000000 0.028095 0.000000 0.000000
# 5 0.000000 0.000000 0.000000 0.000000 0.052802 0.000000
# 6 0.000000 0.000000 0.000000 0.000000 0.000000 0.042088
#
#
# Mechanical properties :
#
#
# Convention : Reuss Voigt Hill
#
# Bulk Modulus (GPa) = 19.62202 35.10234 27.36218
# Shear Modulus (GPa) = 15.58600 22.57346 19.07973
#
# Velocity S-wave (km/s) = 2.95354 3.55447 3.26785
# Velocity P-wave (km/s) = 4.75537 6.04088 5.43626
#
# Compressibility (1/GPa) = 0.05096315
#
# Stress axis : x y z
#
# Youngs Moduli (GPa) = 27.07325 15.16934 76.71001
#
# Poissons Ratio (x) = 0.23241 0.54861
# Poissons Ratio (y) = 0.41480 0.76656
# Poissons Ratio (z) = 0.19362 0.15159
#
# Static dielectric constant tensor:
#      x y z
#    x 1.597340 0.000000 0.000000 
#    y 0.000000 1.594980 0.000000 
#    z 0.000000 0.000000 1.595060 
# 
# From -- ./inp_files/20298.got.cif
#   From: 2010.05.17/outbox.cif.g08.bks.cpg/sg59_11_cif.got.tgz:20298.got - 2010.06.03 14:40:33.
