data_PCOD9448641
_publ_section_title
;
Structure prediction by ZEFSAII (Michael W. Deem and Ramdas Pophale) SiO2 
 PCOD9448641
Probable space group: P M M N
;
_chemical_formula_sum "Si O2"
_cell_formula_units_Z 64
_cell_length_a 24.795674
_cell_length_b 7.462037
_cell_length_c 15.298158
_cell_angle_alpha 90.000000
_cell_angle_beta 90.000000
_cell_angle_gamma 90.000000
_cell_volume 2830.560605
_symmetry_space_group_name_H-M "P M M N"
_symmetry_group_IT_number 59
_space_group.IT_coordinate_system_code '2'
_symmetry_cell_setting 'orthorhombic'
loop_
_space_group_symop_operation_xyz
x,y,z
1/2-x,1/2-y,z
1/2+x,-y,-z
-x,1/2+y,-z
-x,-y,-z
1/2+x,1/2+y,-z
1/2-x,y,z
x,1/2-y,z
loop_
_atom_site_type_symbol
_atom_site_label
_atom_site_fract_x
_atom_site_fract_y
_atom_site_fract_z
Si Si1 0.188838 0.966429 0.000261
Si Si2 0.123587 0.530042 0.167531
Si Si3 0.191137 0.463731 0.703625
Si Si4 0.993457 0.035593 0.897296
Si Si5 0.621290 0.464973 0.449137
Si Si6 0.391973 0.461441 0.841942
Si Si7 0.606708 0.044138 0.644099
Si Si8 0.990314 0.461950 0.396978
O O1 0.250000 0.029068 0.981276
O O2 0.189934 0.750000 0.999293
O O3 0.167568 0.023423 0.095766
O O4 0.143843 0.020936 0.929687
O O5 0.123276 0.750000 0.168987
O O6 0.131033 0.467278 0.267156
O O7 0.064261 0.469571 0.135934
O O8 0.250000 0.536164 0.724624
O O9 0.192718 0.250000 0.717778
O O10 0.174820 0.495288 0.603707
O O11 0.145026 0.540493 0.765852
O O12 0.992551 0.250000 0.885453
O O13 0.047783 0.963581 0.851835
O O14 0.000000 0.000000 0.000000
O O15 0.613785 0.250000 0.454962
O O16 0.618941 0.535929 0.548380
O O17 0.570747 0.531392 0.389767
O O18 0.398769 0.250000 0.825551
O O19 0.624748 0.250000 0.639551
O O20 0.541247 0.043165 0.652608
O O21 0.992365 0.250000 0.380465
O O22 0.000000 0.500000 0.500000
#
# Coordination Sequence:
#
# PCOD9448641 Si02
#       8
#     8   8   8   8   8   8   8   8
#     4  10  20  35  56  79 104 140 182 221 263 312
#     4   9  18  33  53  79 111 142 176 217 258 315
#     4  10  22  38  55  76 102 136 180 224 266 322
#     4  10  19  33  54  80 110 142 175 214 268 322
#     4   9  19  34  51  76 105 133 171 218 264 308
#     4  10  21  36  56  81 106 137 177 220 271 324
#     4   9  18  33  54  77 106 141 176 215 262 311
#     4   9  17  30  48  74 104 133 169 211 255 308
#
# _framework density 22.61036
#
# number of rings (size 3 to 8) (size 9 to 14) (size 15 to 20)
#    0.000    2.500    1.250    1.500    1.750    4.000 
#    0.000    1.875    0.000    2.250    0.000    0.000 
#    0.000    0.000    0.000    0.000    0.000    0.000 
#
# Total GULP energy -357250.677310 kJ/mol
# GULP energy per Si atom -5582.041833 kJ/mol
# Density = 2.255890 g / cm^3
# Si number density = 22.610360 Si / 1000 Ang^3
#
#
#
# Elastic Constant Matrix: (Units=GPa)
#
#
# Indices 1 2 3 4 5 6 
#
# 1 80.0824 0.5353 4.4960 0.0000 0.0000 0.0000
# 2 0.5353 73.7773 -6.3352 0.0000 0.0000 0.0000
# 3 4.4960 -6.3352 78.4470 0.0000 0.0000 0.0000
# 4 0.0000 0.0000 0.0000 12.4948 0.0000 0.0000
# 5 0.0000 0.0000 0.0000 0.0000 22.9437 0.0000
# 6 0.0000 0.0000 0.0000 0.0000 0.0000 7.6961
#
#
#
# Elastic Compliance Matrix: (Units=1/GPa)
#
#
# Indices 1 2 3 4 5 6 
#
# 1 0.012529 -0.000154 -0.000730 0.000000 0.000000 0.000000
# 2 -0.000154 0.013651 0.001111 0.000000 0.000000 0.000000
# 3 -0.000730 0.001111 0.012879 0.000000 0.000000 0.000000
# 4 0.000000 0.000000 0.000000 0.080034 0.000000 0.000000
# 5 0.000000 0.000000 0.000000 0.000000 0.043585 0.000000
# 6 0.000000 0.000000 0.000000 0.000000 0.000000 0.129937
#
#
# Mechanical properties :
#
#
# Convention : Reuss Voigt Hill
#
# Bulk Modulus (GPa) = 25.30795 25.52210 25.41502
# Shear Modulus (GPa) = 16.37566 24.20095 20.28831
#
# Velocity S-wave (km/s) = 2.69412 3.27517 2.99875
# Velocity P-wave (km/s) = 4.57111 5.06108 4.82233
#
# Compressibility (1/GPa) = 0.03951328
#
# Stress axis : x y z
#
# Youngs Moduli (GPa) = 79.81374 73.25554 77.64534
#
# Poissons Ratio (x) = 0.01125 0.05672
# Poissons Ratio (y) = 0.01226 -0.08628
# Poissons Ratio (z) = 0.05830 -0.08140
#
# Static dielectric constant tensor:
#      x y z
#    x 1.853280 0.000000 0.000000 
#    y 0.000000 1.851240 0.000000 
#    z 0.000000 0.000000 1.843810 
# 
# From -- ./inp_files/24665.got.cif
#   From: 2010.05.17/outbox.cif.g08.bks.cpg/sg59_13_cif.got.tgz:24665.got - 2010.06.03 14:40:33.
