data_PCOD9448491
_publ_section_title
;
Structure prediction by ZEFSAII (Michael W. Deem and Ramdas Pophale) SiO2 
 PCOD9448491
Probable space group: P M M N
;
_chemical_formula_sum "Si O2"
_cell_formula_units_Z 64
_cell_length_a 9.154811
_cell_length_b 19.435191
_cell_length_c 21.037758
_cell_angle_alpha 90.000000
_cell_angle_beta 90.000000
_cell_angle_gamma 90.000000
_cell_volume 3743.153618
_symmetry_space_group_name_H-M "P M M N"
_symmetry_group_IT_number 59
_space_group.IT_coordinate_system_code '2'
_symmetry_cell_setting 'orthorhombic'
loop_
_space_group_symop_operation_xyz
x,y,z
1/2-x,1/2-y,z
1/2+x,-y,-z
-x,1/2+y,-z
-x,-y,-z
1/2+x,1/2+y,-z
1/2-x,y,z
x,1/2-y,z
loop_
_atom_site_type_symbol
_atom_site_label
_atom_site_fract_x
_atom_site_fract_y
_atom_site_fract_z
Si Si1 0.574586 0.170182 0.916412
Si Si2 0.418099 0.166189 0.414614
Si Si3 0.918170 0.333837 0.542070
Si Si4 0.073980 0.932104 0.971414
Si Si5 0.073640 0.409553 0.800488
Si Si6 0.424952 0.330989 0.672083
Si Si7 0.927332 0.066496 0.174060
Si Si8 0.925870 0.169311 0.284231
O O1 0.750000 0.166256 0.907810
O O2 0.532445 0.250000 0.918463
O O3 0.497008 0.131774 0.858438
O O4 0.539418 0.130971 0.981906
O O5 0.250000 0.144217 0.413745
O O6 0.420061 0.250000 0.415883
O O7 0.498276 0.142728 0.478764
O O8 0.501111 0.146363 0.350219
O O9 0.750000 0.355537 0.541012
O O10 0.920819 0.250000 0.541094
O O11 0.996676 0.353897 0.607471
O O12 0.250000 0.941489 0.971382
O O13 0.026275 0.920974 0.898620
O O14 0.000000 0.000000 0.000000
O O15 0.250000 0.405752 0.805886
O O16 0.032480 0.375039 0.733536
O O17 0.030298 0.489426 0.805535
O O18 0.250000 0.336193 0.663608
O O19 0.458639 0.250000 0.683198
O O20 0.750000 0.068835 0.174092
O O21 0.975654 0.122857 0.225215
O O22 0.750000 0.163857 0.290426
O O23 0.960023 0.250000 0.273780
#
# Coordination Sequence:
#
# PCOD9448491 Si02
#       8
#     8   8   8   8   8   8   8   8
#     4  10  21  34  50  76 106 133 165 209 257 300
#     4   9  16  27  45  69  98 129 160 200 248 296
#     4   9  16  26  43  68  96 127 162 200 244 293
#     4  10  19  34  54  74  99 132 169 208 251 300
#     4  10  19  33  52  72  98 134 173 208 246 299
#     4   9  17  28  43  66  95 126 161 202 246 290
#     4   9  18  32  52  75  98 128 167 208 248 296
#     4   9  17  30  49  73  99 127 162 205 252 301
#
# _framework density 17.097881000000001
#
# number of rings (size 3 to 8) (size 9 to 14) (size 15 to 20)
#    0.000    2.625    1.250    1.125    0.000    4.750 
#    0.000    5.000    0.000    0.750    0.000    1.750 
#    0.000    0.000    0.000    0.000    0.000    0.000 
#
# Total GULP energy -356791.598526 kJ/mol
# GULP energy per Si atom -5574.868727 kJ/mol
# Density = 1.705897 g / cm^3
# Si number density = 17.097881 Si / 1000 Ang^3
#
#
#
# Elastic Constant Matrix: (Units=GPa)
#
#
# Indices 1 2 3 4 5 6 
#
# 1 35.9472 34.5758 61.1412 0.0000 0.0000 0.0000
# 2 34.5758 86.6137 84.9394 0.0000 0.0000 0.0000
# 3 61.1412 84.9394 213.4576 0.0000 0.0000 0.0000
# 4 0.0000 0.0000 0.0000 13.9256 0.0000 0.0000
# 5 0.0000 0.0000 0.0000 0.0000 28.2802 0.0000
# 6 0.0000 0.0000 0.0000 0.0000 0.0000 13.1068
#
#
#
# Elastic Compliance Matrix: (Units=1/GPa)
#
#
# Indices 1 2 3 4 5 6 
#
# 1 0.060803 -0.011796 -0.012722 0.000000 0.000000 0.000000
# 2 -0.011796 0.021223 -0.005066 0.000000 0.000000 0.000000
# 3 -0.012722 -0.005066 0.010345 0.000000 0.000000 0.000000
# 4 0.000000 0.000000 0.000000 0.071810 0.000000 0.000000
# 5 0.000000 0.000000 0.000000 0.000000 0.035360 0.000000
# 6 0.000000 0.000000 0.000000 0.000000 0.000000 0.076296
#
#
# Mechanical properties :
#
#
# Convention : Reuss Voigt Hill
#
# Bulk Modulus (GPa) = 30.11886 77.48126 53.80006
# Shear Modulus (GPa) = 14.44780 21.42001 17.93390
#
# Velocity S-wave (km/s) = 2.91005 3.54331 3.24218
# Velocity P-wave (km/s) = 5.38006 7.88383 6.74906
#
# Compressibility (1/GPa) = 0.03320178
#
# Stress axis : x y z
#
# Youngs Moduli (GPa) = 16.44648 47.11922 96.66779
#
# Poissons Ratio (x) = 0.55583 1.22981
# Poissons Ratio (y) = 0.19401 0.48973
# Poissons Ratio (z) = 0.20923 0.23871
#
# Static dielectric constant tensor:
#      x y z
#    x 1.574090 0.000000 0.000000 
#    y 0.000000 1.564970 0.000000 
#    z 0.000000 0.000000 1.564350 
# 
# From -- ./inp_files/29504.got.cif
#   From: 2010.05.17/outbox.cif.g08.bks.cpg/sg59_15_cif.got.tgz:29504.got - 2010.06.03 14:40:33.
