data_PCOD9448135
_publ_section_title
;
Structure prediction by ZEFSAII (Michael W. Deem and Ramdas Pophale) SiO2 
 PCOD9448135
Probable space group: P M M N
;
_chemical_formula_sum "Si O2"
_cell_formula_units_Z 64
_cell_length_a 25.068286
_cell_length_b 14.253285
_cell_length_c 9.494651
_cell_angle_alpha 90.000000
_cell_angle_beta 90.000000
_cell_angle_gamma 90.000000
_cell_volume 3392.490309
_symmetry_space_group_name_H-M "P M M N"
_symmetry_group_IT_number 59
_space_group.IT_coordinate_system_code '2'
_symmetry_cell_setting 'orthorhombic'
loop_
_space_group_symop_operation_xyz
x,y,z
1/2-x,1/2-y,z
1/2+x,-y,-z
-x,1/2+y,-z
-x,-y,-z
1/2+x,1/2+y,-z
1/2-x,y,z
x,1/2-y,z
loop_
_atom_site_type_symbol
_atom_site_label
_atom_site_fract_x
_atom_site_fract_y
_atom_site_fract_z
Si Si1 0.810866 0.977915 0.277930
Si Si2 0.191550 0.638331 0.516755
Si Si3 0.977888 0.639258 0.284150
Si Si4 0.581654 0.859732 0.797947
Si Si5 0.953968 0.358776 0.225894
Si Si6 0.908648 0.974556 0.071989
Si Si7 0.076818 0.636142 0.458922
Si Si8 0.877225 0.859298 0.489789
O O1 0.750000 0.953641 0.242808
O O2 0.853036 0.961890 0.154638
O O3 0.832713 0.919411 0.411387
O O4 0.812246 0.084614 0.334771
O O5 0.250000 0.614083 0.456132
O O6 0.189666 0.750000 0.537379
O O7 0.138384 0.613074 0.430431
O O8 0.983097 0.750000 0.251808
O O9 0.954582 0.585995 0.150609
O O10 0.932980 0.629389 0.405350
O O11 0.033282 0.601674 0.347774
O O12 0.593552 0.750000 0.836724
O O13 0.517835 0.864153 0.777145
O O14 0.610864 0.880967 0.651428
O O15 0.596367 0.933745 0.917365
O O16 0.938329 0.250000 0.214807
O O17 0.927918 0.419912 0.102523
O O18 0.935985 0.395070 0.380869
O O19 0.070811 0.750000 0.460508
O O20 0.862789 0.750000 0.479023
#
# Coordination Sequence:
#
# PCOD9448135 Si02
#       8
#     8   8   8   8   8   8   8   8
#     4  10  21  35  53  79 106 133 173 224 264 304
#     4   9  17  30  49  75 106 137 171 213 259 304
#     4   9  17  30  49  77 107 134 165 210 262 312
#     4  10  20  36  54  75 106 140 172 212 260 317
#     4  10  19  32  50  74 108 144 177 210 252 315
#     4  11  21  32  53  80 107 139 176 217 271 317
#     4   9  15  27  47  72 102 136 171 207 249 303
#     4   9  18  34  54  72  98 137 173 206 256 315
#
# _framework density 18.865197999999999
#
# number of rings (size 3 to 8) (size 9 to 14) (size 15 to 20)
#    0.000    2.375    2.500    0.750    0.000    2.250 
#    0.000    0.625    0.000    1.500    0.000    0.000 
#    0.000    4.000    0.000    0.500    0.000    0.000 
#
# Total GULP energy -357175.714439 kJ/mol
# GULP energy per Si atom -5580.870538 kJ/mol
# Density = 1.882226 g / cm^3
# Si number density = 18.865198 Si / 1000 Ang^3
#
#
#
# Elastic Constant Matrix: (Units=GPa)
#
#
# Indices 1 2 3 4 5 6 
#
# 1 108.3296 19.3962 7.5309 0.0000 0.0000 0.0000
# 2 19.3962 68.4032 23.1218 0.0000 0.0000 0.0000
# 3 7.5309 23.1218 37.8995 0.0000 0.0000 0.0000
# 4 0.0000 0.0000 0.0000 18.8961 0.0000 0.0000
# 5 0.0000 0.0000 0.0000 0.0000 10.4564 0.0000
# 6 0.0000 0.0000 0.0000 0.0000 0.0000 19.7141
#
#
#
# Elastic Compliance Matrix: (Units=1/GPa)
#
#
# Indices 1 2 3 4 5 6 
#
# 1 0.009728 -0.002652 -0.000315 0.000000 0.000000 0.000000
# 2 -0.002652 0.019140 -0.011150 0.000000 0.000000 0.000000
# 3 -0.000315 -0.011150 0.033251 0.000000 0.000000 0.000000
# 4 0.000000 0.000000 0.000000 0.052921 0.000000 0.000000
# 5 0.000000 0.000000 0.000000 0.000000 0.095635 0.000000
# 6 0.000000 0.000000 0.000000 0.000000 0.000000 0.050725
#
#
# Mechanical properties :
#
#
# Convention : Reuss Voigt Hill
#
# Bulk Modulus (GPa) = 29.51208 34.97000 32.24104
# Shear Modulus (GPa) = 16.61522 20.78555 18.70039
#
# Velocity S-wave (km/s) = 2.97094 3.32293 3.15185
# Velocity P-wave (km/s) = 5.23892 5.77057 5.51116
#
# Compressibility (1/GPa) = 0.03388443
#
# Stress axis : x y z
#
# Youngs Moduli (GPa) = 102.79812 52.24624 30.07455
#
# Poissons Ratio (x) = 0.13855 0.00948
# Poissons Ratio (y) = 0.27261 0.33533
# Poissons Ratio (z) = 0.03239 0.58255
#
# Static dielectric constant tensor:
#      x y z
#    x 1.664400 0.000000 0.000000 
#    y 0.000000 1.714510 0.000000 
#    z 0.000000 0.000000 1.630980 
# 
# From -- ./inp_files/12234.got.cif
#   From: 2010.05.17/outbox.cif.g08.bks.cpg/sg59_7_cif.got.tgz:12234.got - 2010.06.03 14:40:33.
