data_PCOD9448814
_publ_section_title
;
Structure prediction by ZEFSAII (Michael W. Deem and Ramdas Pophale) SiO2 
 PCOD9448814
Probable space group: P M M N
;
_chemical_formula_sum "Si O2"
_cell_formula_units_Z 48
_cell_length_a 31.537862
_cell_length_b 8.586392
_cell_length_c 9.959724
_cell_angle_alpha 90.000000
_cell_angle_beta 90.000000
_cell_angle_gamma 90.000000
_cell_volume 2697.057862
_symmetry_space_group_name_H-M "P M M N"
_symmetry_group_IT_number 59
_space_group.IT_coordinate_system_code '2'
_symmetry_cell_setting 'orthorhombic'
loop_
_space_group_symop_operation_xyz
x,y,z
1/2-x,1/2-y,z
1/2+x,-y,-z
-x,1/2+y,-z
-x,-y,-z
1/2+x,1/2+y,-z
1/2-x,y,z
x,1/2-y,z
loop_
_atom_site_type_symbol
_atom_site_label
_atom_site_fract_x
_atom_site_fract_y
_atom_site_fract_z
Si Si1 0.014050 0.936097 0.144825
Si Si2 0.611456 0.061325 0.806255
Si Si3 0.369790 0.939295 0.492609
Si Si4 0.701120 0.438556 0.297562
Si Si5 0.934068 0.436590 0.281123
Si Si6 0.137616 0.435132 0.915660
O O1 0.012802 0.750000 0.139680
O O2 0.062053 0.983888 0.177515
O O3 0.980068 0.994456 0.253284
O O4 0.000000 0.000000 0.000000
O O5 0.613743 0.250000 0.812834
O O6 0.627684 0.008781 0.660566
O O7 0.636557 0.991889 0.931633
O O8 0.370114 0.750000 0.490638
O O9 0.328168 0.986731 0.576132
O O10 0.410546 0.986478 0.581843
O O11 0.750000 0.484403 0.310767
O O12 0.699077 0.250000 0.289027
O O13 0.678554 0.507614 0.166344
O O14 0.936447 0.250000 0.278841
O O15 0.902720 0.490101 0.161443
O O16 0.134042 0.250000 0.908687
#
# Coordination Sequence:
#
# PCOD9448814 Si02
#       6
#     8   8   8   8   8   8
#     4  11  21  31  49  75 106 145 190 231 267 309
#     4  10  20  35  53  75 108 146 181 221 268 316
#     4   8  17  34  55  78 105 138 176 218 267 319
#     4   9  18  36  62  85 104 132 171 213 261 320
#     4  10  19  34  54  75 103 140 182 227 267 311
#     4  11  21  33  53  79 108 139 175 217 261 313
#
# _framework density 17.797170000000001
#
# number of rings (size 3 to 8) (size 9 to 14) (size 15 to 20)
#    0.000    2.167    1.667    3.500    0.000    1.667 
#    0.000    5.000    0.000    3.000    0.000    0.000 
#    0.000    0.000    0.000    0.000    0.000    0.000 
#
# Total GULP energy -267890.901449 kJ/mol
# GULP energy per Si atom -5581.060447 kJ/mol
# Density = 1.775666 g / cm^3
# Si number density = 17.797170 Si / 1000 Ang^3
#
#
#
# Elastic Constant Matrix: (Units=GPa)
#
#
# Indices 1 2 3 4 5 6 
#
# 1 117.6351 28.0453 67.6897 0.0000 0.0000 0.0000
# 2 28.0453 31.8643 25.2578 0.0000 0.0000 0.0000
# 3 67.6897 25.2578 161.7937 0.0000 0.0000 0.0000
# 4 0.0000 0.0000 0.0000 7.8473 0.0000 0.0000
# 5 0.0000 0.0000 0.0000 0.0000 15.3283 0.0000
# 6 0.0000 0.0000 0.0000 0.0000 0.0000 22.3811
#
#
#
# Elastic Compliance Matrix: (Units=1/GPa)
#
#
# Indices 1 2 3 4 5 6 
#
# 1 0.012759 -0.007987 -0.004091 0.000000 0.000000 0.000000
# 2 -0.007987 0.040815 -0.003030 0.000000 0.000000 0.000000
# 3 -0.004091 -0.003030 0.008365 0.000000 0.000000 0.000000
# 4 0.000000 0.000000 0.000000 0.127433 0.000000 0.000000
# 5 0.000000 0.000000 0.000000 0.000000 0.065239 0.000000
# 6 0.000000 0.000000 0.000000 0.000000 0.000000 0.044681
#
#
# Mechanical properties :
#
#
# Convention : Reuss Voigt Hill
#
# Bulk Modulus (GPa) = 31.52325 61.47541 46.49933
# Shear Modulus (GPa) = 14.70232 21.79803 18.25017
#
# Velocity S-wave (km/s) = 2.87732 3.50352 3.20574
# Velocity P-wave (km/s) = 5.36559 7.14027 6.31558
#
# Compressibility (1/GPa) = 0.03172261
#
# Stress axis : x y z
#
# Youngs Moduli (GPa) = 78.37482 24.50100 119.54025
#
# Poissons Ratio (x) = 0.19569 0.48906
# Poissons Ratio (y) = 0.62598 0.36222
# Poissons Ratio (z) = 0.32065 0.07424
#
# Static dielectric constant tensor:
#      x y z
#    x 1.596730 0.000000 0.000000 
#    y 0.000000 1.599440 0.000000 
#    z 0.000000 0.000000 1.607150 
# 
# From -- ./inp_files/6177.got.cif
#   From: 2010.05.17/outbox.cif.g08.bks.cpg/sg59_4_cif.got.tgz:6177.got - 2010.06.03 14:40:33.
