data_PCOD9448369
_publ_section_title
;
Structure prediction by ZEFSAII (Michael W. Deem and Ramdas Pophale) SiO2 
 PCOD9448369
Probable space group: P M M N
;
_chemical_formula_sum "Si O2"
_cell_formula_units_Z 64
_cell_length_a 29.060818
_cell_length_b 7.583167
_cell_length_c 13.349198
_cell_angle_alpha 90.000000
_cell_angle_beta 90.000000
_cell_angle_gamma 90.000000
_cell_volume 2941.803292
_symmetry_space_group_name_H-M "P M M N"
_symmetry_group_IT_number 59
_space_group.IT_coordinate_system_code '2'
_symmetry_cell_setting 'orthorhombic'
loop_
_space_group_symop_operation_xyz
x,y,z
1/2-x,1/2-y,z
1/2+x,-y,-z
-x,1/2+y,-z
-x,-y,-z
1/2+x,1/2+y,-z
1/2-x,y,z
x,1/2-y,z
loop_
_atom_site_type_symbol
_atom_site_label
_atom_site_fract_x
_atom_site_fract_y
_atom_site_fract_z
Si Si1 0.353716 0.543932 0.855017
Si Si2 0.865514 0.032540 0.924347
Si Si3 0.356107 0.044604 0.451183
Si Si4 0.303380 0.964034 0.655749
Si Si5 0.948803 0.538451 0.464269
Si Si6 0.049894 0.035753 0.762641
Si Si7 0.970288 0.460976 0.901197
Si Si8 0.801480 0.043421 0.745079
O O1 0.341152 0.750000 0.859194
O O2 0.326402 0.470341 0.759202
O O3 0.407733 0.527450 0.829702
O O4 0.347249 0.472947 0.966919
O O5 0.866432 0.250000 0.925995
O O6 0.918283 0.972694 0.909311
O O7 0.833728 0.971309 0.833193
O O8 0.359927 0.250000 0.426326
O O9 0.407584 0.969825 0.466052
O O10 0.330938 0.025856 0.558147
O O11 0.326325 0.966245 0.361974
O O12 0.250000 0.015802 0.650086
O O13 0.305512 0.750000 0.654918
O O14 0.943510 0.750000 0.460872
O O15 0.942980 0.473624 0.350638
O O16 0.000000 0.500000 0.500000
O O17 0.050699 0.250000 0.763615
O O18 0.001367 0.975781 0.808466
O O19 0.967030 0.250000 0.891897
O O20 0.000000 0.500000 0.000000
O O21 0.750000 0.967264 0.740767
O O22 0.796990 0.250000 0.768508
#
# Coordination Sequence:
#
# PCOD9448369 Si02
#       8
#     8   8   8   8   8   8   8   8
#     4  10  19  34  57  83 112 148 185 228 281 339
#     4   9  19  35  56  83 114 147 187 232 283 334
#     4  11  23  40  60  84 114 149 189 233 285 344
#     4  10  21  36  57  86 113 141 184 235 285 337
#     4  10  23  39  56  82 114 148 186 228 280 341
#     4  10  20  35  54  78 112 148 184 227 278 338
#     4  10  19  32  53  80 109 144 182 223 269 328
#     4  10  22  40  62  85 111 150 198 244 289 339
#
# _framework density 21.755364
#
# number of rings (size 3 to 8) (size 9 to 14) (size 15 to 20)
#    0.000    2.000    2.500    0.750    1.750    4.000 
#    0.000    3.750    0.000    0.000    0.000    1.750 
#    0.000    0.000    0.000    0.000    0.000    0.000 
#
# Total GULP energy -357527.885001 kJ/mol
# GULP energy per Si atom -5586.373203 kJ/mol
# Density = 2.170585 g / cm^3
# Si number density = 21.755364 Si / 1000 Ang^3
#
#
#
# Elastic Constant Matrix: (Units=GPa)
#
#
# Indices 1 2 3 4 5 6 
#
# 1 161.9723 -6.4122 79.9240 0.0000 0.0000 0.0000
# 2 -6.4122 45.2881 -9.1129 0.0000 0.0000 0.0000
# 3 79.9240 -9.1129 135.0878 0.0000 0.0000 0.0000
# 4 0.0000 0.0000 0.0000 -7.1249 0.0000 0.0000
# 5 0.0000 0.0000 0.0000 0.0000 28.0010 0.0000
# 6 0.0000 0.0000 0.0000 0.0000 0.0000 14.2602
#
#
#
# Elastic Compliance Matrix: (Units=1/GPa)
#
#
# Indices 1 2 3 4 5 6 
#
# 1 0.008721 0.000199 -0.005146 0.000000 0.000000 0.000000
# 2 0.000199 0.022389 0.001392 0.000000 0.000000 0.000000
# 3 -0.005146 0.001392 0.010541 0.000000 0.000000 0.000000
# 4 0.000000 0.000000 0.000000 -0.140352 0.000000 0.000000
# 5 0.000000 0.000000 0.000000 0.000000 0.035713 0.000000
# 6 0.000000 0.000000 0.000000 0.000000 0.000000 0.070125
#
#
# Mechanical properties :
#
#
# Convention : Reuss Voigt Hill
#
# Bulk Modulus (GPa) = 28.94987 52.34956 40.64972
# Shear Modulus (GPa) = 194.08956 25.55721 109.82338
#
# Velocity S-wave (km/s) = 9.45559 3.43119 7.11271
# Velocity P-wave (km/s) = 11.51290 6.30971 9.28330
#
# Compressibility (1/GPa) = 0.03454247
#
# Stress axis : x y z
#
# Youngs Moduli (GPa) = 114.66236 44.66425 94.86409
#
# Poissons Ratio (x) = -0.00890 0.48821
# Poissons Ratio (y) = -0.02285 -0.13209
# Poissons Ratio (z) = 0.59010 -0.06219
#
# Static dielectric constant tensor:
#      x y z
#    x 1.781130 0.000000 0.000000 
#    y 0.000000 1.786170 0.000000 
#    z 0.000000 0.000000 1.769460 
# 
# From -- ./inp_files/19275.got.cif
#   From: 2010.05.17/outbox.cif.g08.bks.cpg/sg59_10_cif.got.tgz:19275.got - 2010.06.03 14:40:33.
