data_PCOD9448856
_publ_section_title
;
Structure prediction by ZEFSAII (Michael W. Deem and Ramdas Pophale) SiO2 
 PCOD9448856
Probable space group: P M M N
;
_chemical_formula_sum "Si O2"
_cell_formula_units_Z 40
_cell_length_a 7.499170
_cell_length_b 10.339439
_cell_length_c 24.793340
_cell_angle_alpha 90.000000
_cell_angle_beta 90.000000
_cell_angle_gamma 90.000000
_cell_volume 1922.406429
_symmetry_space_group_name_H-M "P M M N"
_symmetry_group_IT_number 59
_space_group.IT_coordinate_system_code '2'
_symmetry_cell_setting 'orthorhombic'
loop_
_space_group_symop_operation_xyz
x,y,z
1/2-x,1/2-y,z
1/2+x,-y,-z
-x,1/2+y,-z
-x,-y,-z
1/2+x,1/2+y,-z
1/2-x,y,z
x,1/2-y,z
loop_
_atom_site_type_symbol
_atom_site_label
_atom_site_fract_x
_atom_site_fract_y
_atom_site_fract_z
Si Si1 0.039666 0.470518 0.624701
Si Si2 0.967579 0.398192 0.166951
Si Si3 0.968266 0.897520 0.256088
Si Si4 0.468520 0.250000 0.543994
Si Si5 0.463226 0.605207 0.954723
Si Si6 0.537354 0.750000 0.579171
O O1 0.250000 0.442935 0.627516
O O2 0.969397 0.436718 0.684010
O O3 0.971507 0.375734 0.577691
O O4 0.017105 0.619312 0.609222
O O5 0.750000 0.400535 0.167510
O O6 0.019868 0.250000 0.179135
O O7 0.028558 0.500801 0.211116
O O8 0.026262 0.428857 0.105750
O O9 0.750000 0.901036 0.256194
O O10 0.020297 0.750000 0.244467
O O11 0.250000 0.250000 0.541839
O O12 0.531198 0.250000 0.482411
O O13 0.250000 0.613492 0.950812
O O14 0.529600 0.750000 0.968296
O O15 0.500000 0.500000 0.000000
O O16 0.750000 0.750000 0.576853
#
# Coordination Sequence:
#
# PCOD9448856 Si02
#       6
#     8   8   8   4   8   4
#     4  10  19  34  55  78 100 127 167 212 252 294
#     4   8  15  27  44  70 103 130 156 200 254 297
#     4   9  16  27  47  75 101 123 155 205 258 299
#     4   9  18  35  55  75 103 131 162 209 256 296
#     4   9  18  32  49  73 105 137 168 204 245 292
#     4  11  23  35  49  73 105 139 168 199 246 304
#
# _framework density 20.807255999999999
#
# number of rings (size 3 to 8) (size 9 to 14) (size 15 to 20)
#    0.000    2.800    1.000    2.100    1.400    1.200 
#    0.000    3.500    0.000    1.200    0.000    0.000 
#    0.000    0.000    0.000    0.000    0.000    0.000 
#
# Total GULP energy -223285.741996 kJ/mol
# GULP energy per Si atom -5582.143550 kJ/mol
# Density = 2.075990 g / cm^3
# Si number density = 20.807256 Si / 1000 Ang^3
#
#
#
# Elastic Constant Matrix: (Units=GPa)
#
#
# Indices 1 2 3 4 5 6 
#
# 1 52.1798 -8.1637 4.0013 0.0000 0.0000 0.0000
# 2 -8.1637 174.1343 121.9639 0.0000 0.0000 0.0000
# 3 4.0013 121.9639 170.0521 0.0000 0.0000 0.0000
# 4 0.0000 0.0000 0.0000 48.8901 0.0000 0.0000
# 5 0.0000 0.0000 0.0000 0.0000 6.9138 0.0000
# 6 0.0000 0.0000 0.0000 0.0000 0.0000 -15.9568
#
#
#
# Elastic Compliance Matrix: (Units=1/GPa)
#
#
# Indices 1 2 3 4 5 6 
#
# 1 0.019731 0.002512 -0.002266 0.000000 0.000000 0.000000
# 2 0.002512 0.011859 -0.008565 0.000000 0.000000 0.000000
# 3 -0.002266 -0.008565 0.012077 0.000000 0.000000 0.000000
# 4 0.000000 0.000000 0.000000 0.020454 0.000000 0.000000
# 5 0.000000 0.000000 0.000000 0.000000 0.144638 0.000000
# 6 0.000000 0.000000 0.000000 0.000000 0.000000 -0.062669
#
#
# Mechanical properties :
#
#
# Convention : Reuss Voigt Hill
#
# Bulk Modulus (GPa) = 36.99599 70.21881 53.60740
# Shear Modulus (GPa) = 29.11426 26.54040 27.82733
#
# Velocity S-wave (km/s) = 3.74469 3.57534 3.66100
# Velocity P-wave (km/s) = 6.04284 7.13194 6.60986
#
# Compressibility (1/GPa) = 0.02702996
#
# Stress axis : x y z
#
# Youngs Moduli (GPa) = 50.68088 84.32267 82.80467
#
# Poissons Ratio (x) = -0.21183 0.18764
# Poissons Ratio (y) = -0.12732 0.70920
# Poissons Ratio (z) = 0.11485 0.72220
#
# Static dielectric constant tensor:
#      x y z
#    x 1.821680 0.000000 0.000000 
#    y 0.000000 1.681070 0.000000 
#    z 0.000000 0.000000 1.722990 
# 
# From -- ./inp_files/32415.got.cif
#   From: 2010.05.17/outbox.cif.g08.bks.cpg/sg59_17_cif.got.tgz:32415.got - 2010.06.03 14:40:33.
