data_PCOD9448778
_publ_section_title
;
Structure prediction by ZEFSAII (Michael W. Deem and Ramdas Pophale) SiO2 
 PCOD9448778
Probable space group: P M M N
;
_chemical_formula_sum "Si O2"
_cell_formula_units_Z 40
_cell_length_a 14.429669
_cell_length_b 16.135762
_cell_length_c 9.331000
_cell_angle_alpha 90.000000
_cell_angle_beta 90.000000
_cell_angle_gamma 90.000000
_cell_volume 2172.571299
_symmetry_space_group_name_H-M "P M M N"
_symmetry_group_IT_number 59
_space_group.IT_coordinate_system_code '2'
_symmetry_cell_setting 'orthorhombic'
loop_
_space_group_symop_operation_xyz
x,y,z
1/2-x,1/2-y,z
1/2+x,-y,-z
-x,1/2+y,-z
-x,-y,-z
1/2+x,1/2+y,-z
1/2-x,y,z
x,1/2-y,z
loop_
_atom_site_type_symbol
_atom_site_label
_atom_site_fract_x
_atom_site_fract_y
_atom_site_fract_z
Si Si1 0.850295 0.629113 0.960428
Si Si2 0.549566 0.344068 0.152789
Si Si3 0.144778 0.162408 0.708459
Si Si4 0.017186 0.007333 0.667767
Si Si5 0.141922 0.940669 0.107224
O O1 0.750000 0.647747 0.893388
O O2 0.852151 0.663910 0.119378
O O3 0.857505 0.529539 0.972731
O O4 0.939532 0.658985 0.877120
O O5 0.580254 0.250000 0.191643
O O6 0.555560 0.420885 0.264681
O O7 0.599193 0.374568 0.004893
O O8 0.250000 0.157720 0.655522
O O9 0.103041 0.250000 0.657715
O O10 0.090814 0.080451 0.675358
O O11 0.927682 0.040032 0.760004
O O12 0.000000 0.000000 0.500000
O O13 0.250000 0.921755 0.144324
#
# Coordination Sequence:
#
# PCOD9448778 Si02
#       5
#     8   8   8   8   8
#     4   9  16  31  57  85 110 136 178 243 300 337
#     4  11  21  36  58  86 116 152 200 247 294 348
#     4  10  19  33  58  87 112 145 189 240 296 345
#     4  11  23  39  58  85 124 161 193 239 301 367
#     4  10  20  37  58  82 112 152 201 245 291 345
#
# _framework density 18.411363000000001
#
# number of rings (size 3 to 8) (size 9 to 14) (size 15 to 20)
#    0.000    1.800    4.000    1.800    0.000    3.200 
#    0.000    0.000    0.000    0.000    0.000    2.800 
#    0.000    0.000    0.000    0.000    0.000    0.000 
#
# Total GULP energy -222689.746693 kJ/mol
# GULP energy per Si atom -5567.243667 kJ/mol
# Density = 1.836946 g / cm^3
# Si number density = 18.411363 Si / 1000 Ang^3
#
#
#
# Elastic Constant Matrix: (Units=GPa)
#
#
# Indices 1 2 3 4 5 6 
#
# 1 74.5385 61.6887 26.7522 0.0000 0.0000 0.0000
# 2 61.6887 174.7522 53.2148 0.0000 0.0000 0.0000
# 3 26.7522 53.2148 89.7082 0.0000 0.0000 0.0000
# 4 0.0000 0.0000 0.0000 -4.6210 0.0000 0.0000
# 5 0.0000 0.0000 0.0000 0.0000 6.4997 0.0000
# 6 0.0000 0.0000 0.0000 0.0000 0.0000 24.7750
#
#
#
# Elastic Compliance Matrix: (Units=1/GPa)
#
#
# Indices 1 2 3 4 5 6 
#
# 1 0.019268 -0.006166 -0.002088 0.000000 0.000000 0.000000
# 2 -0.006166 0.008957 -0.003475 0.000000 0.000000 0.000000
# 3 -0.002088 -0.003475 0.013831 0.000000 0.000000 0.000000
# 4 0.000000 0.000000 0.000000 -0.216404 0.000000 0.000000
# 5 0.000000 0.000000 0.000000 0.000000 0.153852 0.000000
# 6 0.000000 0.000000 0.000000 0.000000 0.000000 0.040363
#
#
# Mechanical properties :
#
#
# Convention : Reuss Voigt Hill
#
# Bulk Modulus (GPa) = 53.76709 69.14559 61.45634
# Shear Modulus (GPa) = 100.95858 18.48697 59.72277
#
# Velocity S-wave (km/s) = 7.41309 3.17220 5.70162
# Velocity P-wave (km/s) = 10.12613 7.14525 8.76337
#
# Compressibility (1/GPa) = 0.01859874
#
# Stress axis : x y z
#
# Youngs Moduli (GPa) = 51.89841 111.64387 72.30043
#
# Poissons Ratio (x) = 0.68839 0.15100
# Poissons Ratio (y) = 0.32000 0.25121
# Poissons Ratio (z) = 0.10839 0.38791
#
# Static dielectric constant tensor:
#      x y z
#    x 1.720370 0.000000 0.000000 
#    y 0.000000 1.675640 0.000000 
#    z 0.000000 0.000000 1.673180 
# 
# From -- ./inp_files/8600.got.cif
#   From: 2010.05.17/outbox.cif.g08.bks.cpg/sg59_5_cif.got.tgz:8600.got - 2010.06.03 14:40:33.
