data_PCOD9448286
_publ_section_title
;
Structure prediction by ZEFSAII (Michael W. Deem and Ramdas Pophale) SiO2 
 PCOD9448286
Probable space group: P M M N
;
_chemical_formula_sum "Si O2"
_cell_formula_units_Z 64
_cell_length_a 19.890760
_cell_length_b 7.522082
_cell_length_c 21.228384
_cell_angle_alpha 90.000000
_cell_angle_beta 90.000000
_cell_angle_gamma 90.000000
_cell_volume 3176.189281
_symmetry_space_group_name_H-M "P M M N"
_symmetry_group_IT_number 59
_space_group.IT_coordinate_system_code '2'
_symmetry_cell_setting 'orthorhombic'
loop_
_space_group_symop_operation_xyz
x,y,z
1/2-x,1/2-y,z
1/2+x,-y,-z
-x,1/2+y,-z
-x,-y,-z
1/2+x,1/2+y,-z
1/2-x,y,z
x,1/2-y,z
loop_
_atom_site_type_symbol
_atom_site_label
_atom_site_fract_x
_atom_site_fract_y
_atom_site_fract_z
Si Si1 0.073499 0.036722 0.789922
Si Si2 0.942540 0.960900 0.350204
Si Si3 0.578473 0.962963 0.485525
Si Si4 0.598751 0.534733 0.620661
Si Si5 0.826547 0.036295 0.099199
Si Si6 0.675042 0.535326 0.742708
Si Si7 0.921842 0.037008 0.986801
Si Si8 0.565836 0.460529 0.848420
O O1 0.065720 0.250000 0.784740
O O2 0.078040 0.967556 0.718231
O O3 0.005670 0.966840 0.823896
O O4 0.136144 0.002163 0.835152
O O5 0.928868 0.750000 0.349717
O O6 0.909452 0.033314 0.414891
O O7 0.022969 0.983990 0.358826
O O8 0.587903 0.750000 0.483131
O O9 0.613590 0.028783 0.549480
O O10 0.500000 0.000000 0.500000
O O11 0.600189 0.750000 0.619275
O O12 0.648988 0.472895 0.674665
O O13 0.750000 0.969768 0.096846
O O14 0.823786 0.250000 0.093585
O O15 0.873345 0.967481 0.041908
O O16 0.750000 0.471588 0.756622
O O17 0.676372 0.750000 0.740748
O O18 0.621427 0.484593 0.795302
O O19 0.912567 0.250000 0.986921
O O20 0.910243 0.968149 0.915960
O O21 0.000000 0.000000 0.000000
O O22 0.555319 0.250000 0.857666
#
# Coordination Sequence:
#
# PCOD9448286 Si02
#       8
#     8   8   8   8   8   8   8   8
#     4  10  19  32  52  78 105 132 164 205 253 300
#     4   9  16  27  45  70  99 125 157 204 249 292
#     4   8  14  24  40  64  92 122 155 197 245 289
#     4   9  16  27  44  65  93 128 166 204 246 294
#     4  10  22  38  55  77 103 133 168 204 246 297
#     4  10  21  34  47  68 100 136 172 211 254 300
#     4  10  20  35  56  79 103 131 166 206 246 294
#     4  10  20  34  53  77 101 130 168 207 250 301
#
# _framework density 20.149932
#
# number of rings (size 3 to 8) (size 9 to 14) (size 15 to 20)
#    0.000    2.500    2.500    0.000    0.000    2.500 
#    0.000    1.250    0.000    0.750    0.000    3.500 
#    0.000    0.000    0.000    0.000    0.000    0.000 
#
# Total GULP energy -356839.018693 kJ/mol
# GULP energy per Si atom -5575.609667 kJ/mol
# Density = 2.010407 g / cm^3
# Si number density = 20.149932 Si / 1000 Ang^3
#
#
#
# Elastic Constant Matrix: (Units=GPa)
#
#
# Indices 1 2 3 4 5 6 
#
# 1 103.3780 -9.7667 82.1302 0.0000 0.0000 0.0000
# 2 -9.7667 49.4352 10.8847 0.0000 0.0000 0.0000
# 3 82.1302 10.8847 210.9350 0.0000 0.0000 0.0000
# 4 0.0000 0.0000 0.0000 6.5735 0.0000 0.0000
# 5 0.0000 0.0000 0.0000 0.0000 19.5836 0.0000
# 6 0.0000 0.0000 0.0000 0.0000 0.0000 13.7706
#
#
#
# Elastic Compliance Matrix: (Units=1/GPa)
#
#
# Indices 1 2 3 4 5 6 
#
# 1 0.014840 0.004252 -0.005997 0.000000 0.000000 0.000000
# 2 0.004252 0.021680 -0.002774 0.000000 0.000000 0.000000
# 3 -0.005997 -0.002774 0.007219 0.000000 0.000000 0.000000
# 4 0.000000 0.000000 0.000000 0.152126 0.000000 0.000000
# 5 0.000000 0.000000 0.000000 0.000000 0.051063 0.000000
# 6 0.000000 0.000000 0.000000 0.000000 0.000000 0.072619
#
#
# Mechanical properties :
#
#
# Convention : Reuss Voigt Hill
#
# Bulk Modulus (GPa) = 28.81896 58.91607 43.86752
# Shear Modulus (GPa) = 14.69934 26.68555 20.69244
#
# Velocity S-wave (km/s) = 2.70385 3.64311 3.20804
# Velocity P-wave (km/s) = 4.90725 6.85556 5.96153
#
# Compressibility (1/GPa) = 0.03469938
#
# Stress axis : x y z
#
# Youngs Moduli (GPa) = 67.38645 46.12650 138.52028
#
# Poissons Ratio (x) = -0.19615 0.83077
# Poissons Ratio (y) = -0.28655 0.38431
# Poissons Ratio (z) = 0.40415 0.12797
#
# Static dielectric constant tensor:
#      x y z
#    x 1.666020 0.000000 0.000000 
#    y 0.000000 1.482160 0.000000 
#    z 0.000000 0.000000 1.774250 
# 
# From -- ./inp_files/30761.got.cif
#   From: 2010.05.17/outbox.cif.g08.bks.cpg/sg59_16_cif.got.tgz:30761.got - 2010.06.03 14:40:33.
