data_PCOD9448804
_publ_section_title
;
Structure prediction by ZEFSAII (Michael W. Deem and Ramdas Pophale) SiO2 
 PCOD9448804
Probable space group: P M M N
;
_chemical_formula_sum "Si O2"
_cell_formula_units_Z 64
_cell_length_a 12.136474
_cell_length_b 24.279991
_cell_length_c 11.943322
_cell_angle_alpha 90.000000
_cell_angle_beta 90.000000
_cell_angle_gamma 90.000000
_cell_volume 3519.380250
_symmetry_space_group_name_H-M "P M M N"
_symmetry_group_IT_number 59
_space_group.IT_coordinate_system_code '2'
_symmetry_cell_setting 'orthorhombic'
loop_
_space_group_symop_operation_xyz
x,y,z
1/2-x,1/2-y,z
1/2+x,-y,-z
-x,1/2+y,-z
-x,-y,-z
1/2+x,1/2+y,-z
1/2-x,y,z
x,1/2-y,z
loop_
_atom_site_type_symbol
_atom_site_label
_atom_site_fract_x
_atom_site_fract_y
_atom_site_fract_z
Si Si1 0.000993 0.405730 0.792105
Si Si2 0.127213 0.052290 0.584709
Si Si3 0.565201 0.187964 0.400462
Si Si4 0.377567 0.020346 0.206846
Si Si5 0.625158 0.686331 0.775240
Si Si6 0.121163 0.107662 0.023982
Si Si7 0.620584 0.187835 0.657378
Si Si8 0.544298 0.068683 0.388814
O O1 0.919814 0.458128 0.796850
O O2 0.936551 0.355068 0.738166
O O3 0.097168 0.423243 0.705701
O O4 0.050263 0.392010 0.912653
O O5 0.250000 0.067690 0.549239
O O6 0.033704 0.072258 0.498561
O O7 0.117052 0.985842 0.592939
O O8 0.611115 0.250000 0.370107
O O9 0.449304 0.184427 0.335182
O O10 0.565681 0.187858 0.534555
O O11 0.608992 0.126212 0.371261
O O12 0.250000 0.023464 0.244498
O O13 0.459398 0.053509 0.289115
O O14 0.384334 0.048692 0.085621
O O15 0.750000 0.667616 0.750741
O O16 0.627881 0.750000 0.810257
O O17 0.584144 0.650508 0.879763
O O18 0.250000 0.119442 0.999244
O O19 0.750000 0.174821 0.641089
O O20 0.612682 0.250000 0.701890
#
# Coordination Sequence:
#
# PCOD9448804 Si02
#       8
#     8   8   8   8   8   8   8   8
#     4  11  21  36  55  80 109 145 190 225 273 326
#     4  10  21  34  51  78 114 145 176 225 279 330
#     4  10  19  35  57  83 110 138 178 227 275 326
#     4  10  20  34  55  79 107 142 184 231 276 330
#     4   9  18  33  55  82 111 145 181 220 273 331
#     4  10  20  34  54  79 111 146 181 226 275 325
#     4  10  22  40  60  81 109 146 185 226 274 330
#     4  10  19  34  53  82 106 144 183 223 276 335
#
# _framework density 18.185020000000002
#
# number of rings (size 3 to 8) (size 9 to 14) (size 15 to 20)
#    0.000    2.000    2.500    1.500    0.000    1.500 
#    0.000    0.000    0.000    3.375    0.000    1.750 
#    0.000    0.000    0.000    0.000    0.000    0.000 
#
# Total GULP energy -356595.224240 kJ/mol
# GULP energy per Si atom -5571.800379 kJ/mol
# Density = 1.814363 g / cm^3
# Si number density = 18.185020 Si / 1000 Ang^3
#
#
#
# Elastic Constant Matrix: (Units=GPa)
#
#
# Indices 1 2 3 4 5 6 
#
# 1 57.4760 34.0188 40.3066 0.0000 0.0000 0.0000
# 2 34.0188 119.3841 34.1191 0.0000 0.0000 0.0000
# 3 40.3066 34.1191 97.4385 0.0000 0.0000 0.0000
# 4 0.0000 0.0000 0.0000 13.1178 0.0000 0.0000
# 5 0.0000 0.0000 0.0000 0.0000 0.8386 0.0000
# 6 0.0000 0.0000 0.0000 0.0000 0.0000 12.5693
#
#
#
# Elastic Compliance Matrix: (Units=1/GPa)
#
#
# Indices 1 2 3 4 5 6 
#
# 1 0.026943 -0.004992 -0.009397 0.000000 0.000000 0.000000
# 2 -0.004992 0.010233 -0.001518 0.000000 0.000000 0.000000
# 3 -0.009397 -0.001518 0.014682 0.000000 0.000000 0.000000
# 4 0.000000 0.000000 0.000000 0.076232 0.000000 0.000000
# 5 0.000000 0.000000 0.000000 0.000000 1.192488 0.000000
# 6 0.000000 0.000000 0.000000 0.000000 0.000000 0.079559
#
#
# Mechanical properties :
#
#
# Convention : Reuss Voigt Hill
#
# Bulk Modulus (GPa) = 49.89291 54.57639 52.23465
# Shear Modulus (GPa) = 3.47552 16.36209 9.91881
#
# Velocity S-wave (km/s) = 1.38396 3.00285 2.33800
# Velocity P-wave (km/s) = 5.48175 6.48843 6.00622
#
# Compressibility (1/GPa) = 0.02004293
#
# Stress axis : x y z
#
# Youngs Moduli (GPa) = 37.11487 97.72655 68.11131
#
# Poissons Ratio (x) = 0.48784 0.64008
# Poissons Ratio (y) = 0.18527 0.10340
# Poissons Ratio (z) = 0.34879 0.14836
#
# Static dielectric constant tensor:
#      x y z
#    x 1.621400 0.000000 0.000000 
#    y 0.000000 1.677200 0.000000 
#    z 0.000000 0.000000 1.596630 
# 
# From -- ./inp_files/16255.got.cif
#   From: 2010.05.17/outbox.cif.g08.bks.cpg/sg59_9_cif.got.tgz:16255.got - 2010.06.03 14:40:33.
