data_PCOD9448529
_publ_section_title
;
Structure prediction by ZEFSAII (Michael W. Deem and Ramdas Pophale) SiO2 
 PCOD9448529
Probable space group: P M M N
;
_chemical_formula_sum "Si O2"
_cell_formula_units_Z 48
_cell_length_a 7.511417
_cell_length_b 19.807268
_cell_length_c 15.608209
_cell_angle_alpha 90.000000
_cell_angle_beta 90.000000
_cell_angle_gamma 90.000000
_cell_volume 2322.199474
_symmetry_space_group_name_H-M "P M M N"
_symmetry_group_IT_number 59
_space_group.IT_coordinate_system_code '2'
_symmetry_cell_setting 'orthorhombic'
loop_
_space_group_symop_operation_xyz
x,y,z
1/2-x,1/2-y,z
1/2+x,-y,-z
-x,1/2+y,-z
-x,-y,-z
1/2+x,1/2+y,-z
1/2-x,y,z
x,1/2-y,z
loop_
_atom_site_type_symbol
_atom_site_label
_atom_site_fract_x
_atom_site_fract_y
_atom_site_fract_z
Si Si1 0.036457 0.326912 0.563718
Si Si2 0.965147 0.327123 0.888093
Si Si3 0.538742 0.585108 0.279889
Si Si4 0.968843 0.435859 0.230972
Si Si5 0.536854 0.425586 0.036608
Si Si6 0.963140 0.173454 0.368587
O O1 0.250000 0.323822 0.573435
O O2 0.968589 0.250000 0.575125
O O3 0.966392 0.377613 0.635801
O O4 0.999513 0.348009 0.466265
O O5 0.750000 0.325519 0.892150
O O6 0.028761 0.250000 0.886903
O O7 0.013049 0.366904 0.801922
O O8 0.030899 0.369859 0.969774
O O9 0.750000 0.576920 0.293059
O O10 0.469959 0.510420 0.259012
O O11 0.750000 0.436375 0.230250
O O12 0.028137 0.420886 0.134045
O O13 0.028099 0.379493 0.298482
O O14 0.750000 0.417775 0.039978
O O15 0.500000 0.500000 0.000000
O O16 0.750000 0.176580 0.359113
O O17 0.032641 0.250000 0.357928
#
# Coordination Sequence:
#
# PCOD9448529 Si02
#       6
#     8   8   8   8   8   8
#     4   9  18  32  49  70  98 132 167 206 254 303
#     4  10  21  34  50  77 108 134 166 210 255 298
#     4  10  19  33  53  75 101 135 172 207 249 304
#     4   9  18  32  52  76 100 129 168 212 251 296
#     4  10  19  34  54  74 101 136 169 206 252 299
#     4   9  18  33  52  73  98 131 170 210 253 302
#
# _framework density 20.670058999999998
#
# number of rings (size 3 to 8) (size 9 to 14) (size 15 to 20)
#    0.000    2.500    1.667    0.500    0.000    3.000 
#    0.000    6.667    0.000    0.000    0.000    2.333 
#    0.000    0.000    0.000    0.000    0.000    0.000 
#
# Total GULP energy -268023.095973 kJ/mol
# GULP energy per Si atom -5583.814499 kJ/mol
# Density = 2.062301 g / cm^3
# Si number density = 20.670059 Si / 1000 Ang^3
#
#
#
# Elastic Constant Matrix: (Units=GPa)
#
#
# Indices 1 2 3 4 5 6 
#
# 1 51.1802 -5.2822 -6.5455 0.0000 0.0000 0.0000
# 2 -5.2822 160.7537 132.3173 0.0000 0.0000 0.0000
# 3 -6.5455 132.3173 223.2963 0.0000 0.0000 0.0000
# 4 0.0000 0.0000 0.0000 38.0854 0.0000 0.0000
# 5 0.0000 0.0000 0.0000 0.0000 12.4617 0.0000
# 6 0.0000 0.0000 0.0000 0.0000 0.0000 3.6873
#
#
#
# Elastic Compliance Matrix: (Units=1/GPa)
#
#
# Indices 1 2 3 4 5 6 
#
# 1 0.019622 0.000334 0.000377 0.000000 0.000000 0.000000
# 2 0.000334 0.012149 -0.007189 0.000000 0.000000 0.000000
# 3 0.000377 -0.007189 0.008750 0.000000 0.000000 0.000000
# 4 0.000000 0.000000 0.000000 0.026257 0.000000 0.000000
# 5 0.000000 0.000000 0.000000 0.000000 0.080246 0.000000
# 6 0.000000 0.000000 0.000000 0.000000 0.000000 0.271205
#
#
# Mechanical properties :
#
#
# Convention : Reuss Voigt Hill
#
# Bulk Modulus (GPa) = 36.27862 75.13438 55.70650
# Shear Modulus (GPa) = 11.35403 31.82958 21.59181
#
# Velocity S-wave (km/s) = 2.34625 3.92840 3.23552
# Velocity P-wave (km/s) = 4.99292 7.55015 6.40055
#
# Compressibility (1/GPa) = 0.02756445
#
# Stress axis : x y z
#
# Youngs Moduli (GPa) = 50.96444 82.30855 114.29042
#
# Poissons Ratio (x) = -0.02753 -0.04309
# Poissons Ratio (y) = -0.01704 0.82169
# Poissons Ratio (z) = -0.01921 0.59176
#
# Static dielectric constant tensor:
#      x y z
#    x 1.788660 0.000000 0.000000 
#    y 0.000000 1.715290 0.000000 
#    z 0.000000 0.000000 1.702230 
# 
# From -- ./inp_files/15785.got.cif
#   From: 2010.05.17/outbox.cif.g08.bks.cpg/sg59_8_cif.got.tgz:15785.got - 2010.06.03 14:40:33.
