data_PCOD9448015
_publ_section_title
;
Structure prediction by ZEFSAII (Michael W. Deem and Ramdas Pophale) SiO2 
 PCOD9448015
Probable space group: P M M N
;
_chemical_formula_sum "Si O2"
_cell_formula_units_Z 40
_cell_length_a 22.668245
_cell_length_b 13.180735
_cell_length_c 7.290474
_cell_angle_alpha 90.000000
_cell_angle_beta 90.000000
_cell_angle_gamma 90.000000
_cell_volume 2178.277933
_symmetry_space_group_name_H-M "P M M N"
_symmetry_group_IT_number 59
_space_group.IT_coordinate_system_code '2'
_symmetry_cell_setting 'orthorhombic'
loop_
_space_group_symop_operation_xyz
x,y,z
1/2-x,1/2-y,z
1/2+x,-y,-z
-x,1/2+y,-z
-x,-y,-z
1/2+x,1/2+y,-z
1/2-x,y,z
x,1/2-y,z
loop_
_atom_site_type_symbol
_atom_site_label
_atom_site_fract_x
_atom_site_fract_y
_atom_site_fract_z
Si Si1 0.680860 0.636038 0.775250
Si Si2 0.436202 0.630879 0.512018
Si Si3 0.683018 0.478616 0.448673
Si Si4 0.509543 0.973116 0.212381
Si Si5 0.132264 0.132726 0.827863
O O1 0.750000 0.632845 0.830321
O O2 0.669517 0.750000 0.702185
O O3 0.671874 0.551528 0.623073
O O4 0.641893 0.620962 0.954985
O O5 0.447127 0.750000 0.512914
O O6 0.367851 0.605071 0.550386
O O7 0.473513 0.572565 0.669013
O O8 0.456305 0.581545 0.318749
O O9 0.750000 0.440471 0.454615
O O10 0.673869 0.553742 0.276845
O O11 0.566012 0.898586 0.224556
O O12 0.500000 0.000000 0.000000
O O13 0.144907 0.250000 0.781806
#
# Coordination Sequence:
#
# PCOD9448015 Si02
#       5
#     8   8   8   8   8
#     4   9  17  29  47  73 104 137 174 217 265 317
#     4  10  22  38  56  81 109 138 179 224 264 317
#     4  10  20  34  52  74 105 143 179 218 264 312
#     4  10  21  38  58  80 108 142 177 220 273 323
#     4  10  19  31  51  78 105 136 175 219 269 323
#
# _framework density 18.363129000000001
#
# number of rings (size 3 to 8) (size 9 to 14) (size 15 to 20)
#    0.000    2.200    0.000    3.000    0.000    4.000 
#    0.000    5.000    0.000    0.000    0.000    5.600 
#    0.000    0.000    0.000    0.000    0.000    0.000 
#
# Total GULP energy -223244.765536 kJ/mol
# GULP energy per Si atom -5581.119138 kJ/mol
# Density = 1.832133 g / cm^3
# Si number density = 18.363129 Si / 1000 Ang^3
#
#
#
# Elastic Constant Matrix: (Units=GPa)
#
#
# Indices 1 2 3 4 5 6 
#
# 1 54.2112 27.5072 8.7179 0.0000 0.0000 0.0000
# 2 27.5072 94.3069 30.5638 0.0000 0.0000 0.0000
# 3 8.7179 30.5638 83.5082 0.0000 0.0000 0.0000
# 4 0.0000 0.0000 0.0000 8.1146 0.0000 0.0000
# 5 0.0000 0.0000 0.0000 0.0000 20.4006 0.0000
# 6 0.0000 0.0000 0.0000 0.0000 0.0000 3.0051
#
#
#
# Elastic Compliance Matrix: (Units=1/GPa)
#
#
# Indices 1 2 3 4 5 6 
#
# 1 0.021651 -0.006334 0.000058 0.000000 0.000000 0.000000
# 2 -0.006334 0.013884 -0.004420 0.000000 0.000000 0.000000
# 3 0.000058 -0.004420 0.013587 0.000000 0.000000 0.000000
# 4 0.000000 0.000000 0.000000 0.123235 0.000000 0.000000
# 5 0.000000 0.000000 0.000000 0.000000 0.049018 0.000000
# 6 0.000000 0.000000 0.000000 0.000000 0.000000 0.332773
#
#
# Mechanical properties :
#
#
# Convention : Reuss Voigt Hill
#
# Bulk Modulus (GPa) = 36.06340 40.62269 38.34304
# Shear Modulus (GPa) = 8.55019 17.31986 12.93503
#
# Velocity S-wave (km/s) = 2.16016 3.07447 2.65694
# Velocity P-wave (km/s) = 5.08954 5.89687 5.50801
#
# Compressibility (1/GPa) = 0.02772895
#
# Stress axis : x y z
#
# Youngs Moduli (GPa) = 46.18747 72.02715 73.60196
#
# Poissons Ratio (x) = 0.45621 -0.00426
# Poissons Ratio (y) = 0.29254 0.32533
# Poissons Ratio (z) = -0.00268 0.31837
#
# Static dielectric constant tensor:
#      x y z
#    x 1.667910 0.000000 0.000000 
#    y 0.000000 1.664950 0.000000 
#    z 0.000000 0.000000 1.622570 
# 
# From -- ./inp_files/1409.got.cif
#   From: 2010.05.17/outbox.cif.g08.bks.cpg/sg59_1_cif.got.tgz:1409.got - 2010.06.03 14:40:33.
