data_PCOD9448013
_publ_section_title
;
Structure prediction by ZEFSAII (Michael W. Deem and Ramdas Pophale) SiO2 
 PCOD9448013
Probable space group: P M M N
;
_chemical_formula_sum "Si O2"
_cell_formula_units_Z 48
_cell_length_a 15.259422
_cell_length_b 14.126853
_cell_length_c 12.554262
_cell_angle_alpha 90.000000
_cell_angle_beta 90.000000
_cell_angle_gamma 90.000000
_cell_volume 2706.292273
_symmetry_space_group_name_H-M "P M M N"
_symmetry_group_IT_number 59
_space_group.IT_coordinate_system_code '2'
_symmetry_cell_setting 'orthorhombic'
loop_
_space_group_symop_operation_xyz
x,y,z
1/2-x,1/2-y,z
1/2+x,-y,-z
-x,1/2+y,-z
-x,-y,-z
1/2+x,1/2+y,-z
1/2-x,y,z
x,1/2-y,z
loop_
_atom_site_type_symbol
_atom_site_label
_atom_site_fract_x
_atom_site_fract_y
_atom_site_fract_z
Si Si1 0.908194 0.016732 0.057439
Si Si2 0.349981 0.634575 0.508367
Si Si3 0.347469 0.639756 0.132064
Si Si4 0.852837 0.362626 0.246015
Si Si5 0.650844 0.637182 0.212746
Si Si6 0.976605 0.135490 0.676405
O O1 0.911714 0.083227 0.161485
O O2 0.868801 0.919929 0.104493
O O3 0.852289 0.073235 0.970158
O O4 0.000000 0.000000 0.000000
O O5 0.250000 0.604243 0.482004
O O6 0.348847 0.750000 0.503549
O O7 0.368754 0.610752 0.631205
O O8 0.423769 0.599741 0.426406
O O9 0.250000 0.635465 0.180096
O O10 0.363051 0.750000 0.101394
O O11 0.419430 0.611955 0.219033
O O12 0.750000 0.383630 0.222525
O O13 0.863955 0.250000 0.236138
O O14 0.750000 0.616529 0.247923
O O15 0.643149 0.750000 0.195152
O O16 0.576618 0.608866 0.298489
O O17 0.976049 0.250000 0.668440
#
# Coordination Sequence:
#
# PCOD9448013 Si02
#       6
#     8   8   8   8   8   8
#     4  12  22  33  50  71 103 136 173 216 260 300
#     4   8  14  27  50  79 109 136 159 196 257 319
#     4  10  19  31  51  78 105 131 160 206 268 320
#     4   9  18  33  54  81 109 135 165 205 261 321
#     4  10  21  36  51  68  97 140 184 219 249 291
#     4   9  16  29  49  76 105 130 166 208 249 304
#
# _framework density 17.736443000000001
#
# number of rings (size 3 to 8) (size 9 to 14) (size 15 to 20)
#    0.000    2.333    1.667    3.500    0.000    4.000 
#    0.000    0.833    0.000    0.000    0.000    2.333 
#    0.000    5.333    0.000    0.000    0.000    0.000 
#
# Total GULP energy -267569.970042 kJ/mol
# GULP energy per Si atom -5574.374376 kJ/mol
# Density = 1.769607 g / cm^3
# Si number density = 17.736443 Si / 1000 Ang^3
#
#
#
# Elastic Constant Matrix: (Units=GPa)
#
#
# Indices 1 2 3 4 5 6 
#
# 1 143.3522 29.9565 78.5294 0.0000 0.0000 0.0000
# 2 29.9565 58.4956 31.4332 0.0000 0.0000 0.0000
# 3 78.5294 31.4332 108.7213 0.0000 0.0000 0.0000
# 4 0.0000 0.0000 0.0000 15.6668 0.0000 0.0000
# 5 0.0000 0.0000 0.0000 0.0000 34.2505 0.0000
# 6 0.0000 0.0000 0.0000 0.0000 0.0000 14.3202
#
#
#
# Elastic Compliance Matrix: (Units=1/GPa)
#
#
# Indices 1 2 3 4 5 6 
#
# 1 0.011687 -0.001715 -0.007945 0.000000 0.000000 0.000000
# 2 -0.001715 0.020492 -0.004685 0.000000 0.000000 0.000000
# 3 -0.007945 -0.004685 0.016291 0.000000 0.000000 0.000000
# 4 0.000000 0.000000 0.000000 0.063829 0.000000 0.000000
# 5 0.000000 0.000000 0.000000 0.000000 0.029197 0.000000
# 6 0.000000 0.000000 0.000000 0.000000 0.000000 0.069831
#
#
# Mechanical properties :
#
#
# Convention : Reuss Voigt Hill
#
# Bulk Modulus (GPa) = 50.56305 65.60082 58.08194
# Shear Modulus (GPa) = 20.27472 24.22415 22.24943
#
# Velocity S-wave (km/s) = 3.38466 3.69966 3.54566
# Velocity P-wave (km/s) = 6.62151 7.43752 7.04135
#
# Compressibility (1/GPa) = 0.01977729
#
# Stress axis : x y z
#
# Youngs Moduli (GPa) = 85.56579 48.80057 61.38178
#
# Poissons Ratio (x) = 0.08372 0.48771
# Poissons Ratio (y) = 0.14679 0.28760
# Poissons Ratio (z) = 0.67986 0.22865
#
# Static dielectric constant tensor:
#      x y z
#    x 1.637570 0.000000 0.000000 
#    y 0.000000 1.624420 0.000000 
#    z 0.000000 0.000000 1.597300 
# 
# From -- ./inp_files/16817.got.cif
#   From: 2010.05.17/outbox.cif.g08.bks.cpg/sg59_9_cif.got.tgz:16817.got - 2010.06.03 14:40:33.
