data_PCOD9448999
_publ_section_title
;
Structure prediction by ZEFSAII (Michael W. Deem and Ramdas Pophale) SiO2 
 PCOD9448999
Probable space group: P M M N
;
_chemical_formula_sum "Si O2"
_cell_formula_units_Z 40
_cell_length_a 7.969404
_cell_length_b 16.460580
_cell_length_c 14.344557
_cell_angle_alpha 90.000000
_cell_angle_beta 90.000000
_cell_angle_gamma 90.000000
_cell_volume 1881.733505
_symmetry_space_group_name_H-M "P M M N"
_symmetry_group_IT_number 59
_space_group.IT_coordinate_system_code '2'
_symmetry_cell_setting 'orthorhombic'
loop_
_space_group_symop_operation_xyz
x,y,z
1/2-x,1/2-y,z
1/2+x,-y,-z
-x,1/2+y,-z
-x,-y,-z
1/2+x,1/2+y,-z
1/2-x,y,z
x,1/2-y,z
loop_
_atom_site_type_symbol
_atom_site_label
_atom_site_fract_x
_atom_site_fract_y
_atom_site_fract_z
Si Si1 0.448202 0.080467 0.943141
Si Si2 0.544843 0.842122 0.451242
Si Si3 0.444268 0.750000 0.965903
Si Si4 0.953114 0.913087 0.641595
Si Si5 0.447173 0.078500 0.734396
Si Si6 0.951818 0.750000 0.753479
O O1 0.250000 0.072426 0.933344
O O2 0.521683 0.083310 0.838000
O O3 0.482837 0.165870 0.993862
O O4 0.500000 0.000000 0.000000
O O5 0.750000 0.845144 0.450344
O O6 0.498002 0.750000 0.474397
O O7 0.491267 0.901447 0.534528
O O8 0.482092 0.866158 0.348954
O O9 0.250000 0.750000 0.990022
O O10 0.468648 0.750000 0.855018
O O11 0.750000 0.922775 0.643297
O O12 0.994921 0.830310 0.695775
O O13 0.034125 0.988060 0.694424
O O14 0.250000 0.099882 0.741670
O O15 0.750000 0.750000 0.765538
#
# Coordination Sequence:
#
# PCOD9448999 Si02
#       6
#     8   8   4   8   8   4
#     4  11  24  43  65  92 124 163 210 259 313 369
#     4   9  17  33  57  84 115 151 193 234 280 349
#     4  12  26  42  63  90 122 162 207 260 317 368
#     4  10  19  34  58  86 116 151 191 237 289 351
#     4  10  22  36  58  86 115 153 196 240 292 352
#     4  10  20  36  59  86 112 150 199 242 293 358
#
# _framework density 21.256995
#
# number of rings (size 3 to 8) (size 9 to 14) (size 15 to 20)
#    0.000    1.800    1.000    3.300    1.400    5.600 
#    0.000    0.000    0.000    1.200    0.000    0.000 
#    0.000    0.000    0.000    0.000    0.000    0.000 
#
# Total GULP energy -223435.753463 kJ/mol
# GULP energy per Si atom -5585.893837 kJ/mol
# Density = 2.120861 g / cm^3
# Si number density = 21.256995 Si / 1000 Ang^3
#
#
#
# Elastic Constant Matrix: (Units=GPa)
#
#
# Indices 1 2 3 4 5 6 
#
# 1 14.0728 -7.7501 10.1747 0.0000 0.0000 0.0000
# 2 -7.7501 79.6018 32.6874 0.0000 0.0000 0.0000
# 3 10.1747 32.6874 159.3998 0.0000 0.0000 0.0000
# 4 0.0000 0.0000 0.0000 73.1389 0.0000 0.0000
# 5 0.0000 0.0000 0.0000 0.0000 15.8042 0.0000
# 6 0.0000 0.0000 0.0000 0.0000 0.0000 26.1662
#
#
#
# Elastic Compliance Matrix: (Units=1/GPa)
#
#
# Indices 1 2 3 4 5 6 
#
# 1 0.082672 0.011155 -0.007565 0.000000 0.000000 0.000000
# 2 0.011155 0.015223 -0.003834 0.000000 0.000000 0.000000
# 3 -0.007565 -0.003834 0.007543 0.000000 0.000000 0.000000
# 4 0.000000 0.000000 0.000000 0.013673 0.000000 0.000000
# 5 0.000000 0.000000 0.000000 0.000000 0.063274 0.000000
# 6 0.000000 0.000000 0.000000 0.000000 0.000000 0.038217
#
#
# Mechanical properties :
#
#
# Convention : Reuss Voigt Hill
#
# Bulk Modulus (GPa) = 9.52824 35.92201 22.72513
# Shear Modulus (GPa) = 19.52583 37.55270 28.53927
#
# Velocity S-wave (km/s) = 3.03406 4.20766 3.66810
# Velocity P-wave (km/s) = 4.09465 6.36722 5.35293
#
# Compressibility (1/GPa) = 0.10495116
#
# Stress axis : x y z
#
# Youngs Moduli (GPa) = 12.09604 65.69045 132.58100
#
# Poissons Ratio (x) = -0.73280 1.00292
# Poissons Ratio (y) = -0.13494 0.50828
# Poissons Ratio (z) = 0.09150 0.25184
#
# Static dielectric constant tensor:
#      x y z
#    x 1.791240 0.000000 0.000000 
#    y 0.000000 1.707040 0.000000 
#    z 0.000000 0.000000 1.793810 
# 
# From -- ./inp_files/19942.got.cif
#   From: 2010.05.17/outbox.cif.g08.bks.cpg/sg59_10_cif.got.tgz:19942.got - 2010.06.03 14:40:33.
