data_PCOD9448344
_publ_section_title
;
Structure prediction by ZEFSAII (Michael W. Deem and Ramdas Pophale) SiO2 
 PCOD9448344
Probable space group: P M M N
;
_chemical_formula_sum "Si O2"
_cell_formula_units_Z 64
_cell_length_a 8.100691
_cell_length_b 18.762469
_cell_length_c 20.556308
_cell_angle_alpha 90.000000
_cell_angle_beta 90.000000
_cell_angle_gamma 90.000000
_cell_volume 3124.331952
_symmetry_space_group_name_H-M "P M M N"
_symmetry_group_IT_number 59
_space_group.IT_coordinate_system_code '2'
_symmetry_cell_setting 'orthorhombic'
loop_
_space_group_symop_operation_xyz
x,y,z
1/2-x,1/2-y,z
1/2+x,-y,-z
-x,1/2+y,-z
-x,-y,-z
1/2+x,1/2+y,-z
1/2-x,y,z
x,1/2-y,z
loop_
_atom_site_type_symbol
_atom_site_label
_atom_site_fract_x
_atom_site_fract_y
_atom_site_fract_z
Si Si1 0.448883 0.595714 0.543087
Si Si2 0.547755 0.668460 0.896631
Si Si3 0.551258 0.170781 0.858644
Si Si4 0.051329 0.585552 0.262209
Si Si5 0.550671 0.329181 0.329303
Si Si6 0.555322 0.941087 0.406589
Si Si7 0.055320 0.432823 0.218434
Si Si8 0.446921 0.420596 0.979270
O O1 0.250000 0.591943 0.538065
O O2 0.491403 0.655126 0.595863
O O3 0.509607 0.520266 0.573909
O O4 0.516749 0.604610 0.470773
O O5 0.750000 0.669343 0.894639
O O6 0.492973 0.750000 0.887519
O O7 0.487687 0.614600 0.840615
O O8 0.496616 0.635247 0.965411
O O9 0.750000 0.174023 0.857904
O O10 0.488702 0.250000 0.876491
O O11 0.494876 0.147595 0.786429
O O12 0.506099 0.109718 0.910324
O O13 0.250000 0.583749 0.258792
O O14 0.985482 0.510983 0.232276
O O15 0.009797 0.587690 0.338311
O O16 0.750000 0.335316 0.323408
O O17 0.500652 0.250000 0.309503
O O18 0.469766 0.387110 0.283253
O O19 0.750000 0.948363 0.398891
O O20 0.250000 0.441817 0.205270
O O21 0.250000 0.420242 0.978659
O O22 0.500000 0.500000 0.000000
#
# Coordination Sequence:
#
# PCOD9448344 Si02
#       8
#     8   8   8   8   8   8   8   8
#     4   9  18  33  51  74 105 139 177 224 278 335
#     4   9  18  33  53  78 109 144 181 222 272 329
#     4  10  22  41  63  87 117 152 193 241 293 351
#     4  10  20  35  56  82 111 146 184 227 281 339
#     4  10  20  34  51  74 108 145 178 218 272 330
#     4  10  19  32  54  80 104 135 180 233 278 324
#     4  10  19  32  53  78 105 139 181 223 263 318
#     4  11  22  38  61  87 116 151 193 240 288 343
#
# _framework density 20.484378
#
# number of rings (size 3 to 8) (size 9 to 14) (size 15 to 20)
#    0.000    2.125    1.250    2.250    0.000    5.000 
#    0.000    3.125    0.000    6.750    0.000    0.000 
#    0.000    0.000    0.000    0.000    0.000    0.000 
#
# Total GULP energy -357183.297098 kJ/mol
# GULP energy per Si atom -5580.989017 kJ/mol
# Density = 2.043775 g / cm^3
# Si number density = 20.484378 Si / 1000 Ang^3
#
#
#
# Elastic Constant Matrix: (Units=GPa)
#
#
# Indices 1 2 3 4 5 6 
#
# 1 12.1181 8.2333 7.5185 0.0000 0.0000 0.0000
# 2 8.2333 58.4318 23.8363 0.0000 0.0000 0.0000
# 3 7.5185 23.8363 133.2705 0.0000 0.0000 0.0000
# 4 0.0000 0.0000 0.0000 14.9791 0.0000 0.0000
# 5 0.0000 0.0000 0.0000 0.0000 24.7315 0.0000
# 6 0.0000 0.0000 0.0000 0.0000 0.0000 11.3404
#
#
#
# Elastic Compliance Matrix: (Units=1/GPa)
#
#
# Indices 1 2 3 4 5 6 
#
# 1 0.092439 -0.011755 -0.003112 0.000000 0.000000 0.000000
# 2 -0.011755 0.019956 -0.002906 0.000000 0.000000 0.000000
# 3 -0.003112 -0.002906 0.008199 0.000000 0.000000 0.000000
# 4 0.000000 0.000000 0.000000 0.066760 0.000000 0.000000
# 5 0.000000 0.000000 0.000000 0.000000 0.040434 0.000000
# 6 0.000000 0.000000 0.000000 0.000000 0.000000 0.088181
#
#
# Mechanical properties :
#
#
# Convention : Reuss Voigt Hill
#
# Bulk Modulus (GPa) = 11.75834 31.44407 21.60120
# Shear Modulus (GPa) = 13.16258 21.15901 17.16080
#
# Velocity S-wave (km/s) = 2.53764 3.21742 2.89753
# Velocity P-wave (km/s) = 3.78666 5.40240 4.66501
#
# Compressibility (1/GPa) = 0.08504602
#
# Stress axis : x y z
#
# Youngs Moduli (GPa) = 10.81794 50.11070 121.96768
#
# Poissons Ratio (x) = 0.58907 0.37962
# Poissons Ratio (y) = 0.12717 0.35444
# Poissons Ratio (z) = 0.03367 0.14562
#
# Static dielectric constant tensor:
#      x y z
#    x 1.731010 0.000000 0.000000 
#    y 0.000000 1.748850 0.000000 
#    z 0.000000 0.000000 1.731440 
# 
# From -- ./inp_files/29519.got.cif
#   From: 2010.05.17/outbox.cif.g08.bks.cpg/sg59_15_cif.got.tgz:29519.got - 2010.06.03 14:40:33.
