data_PCOD9448496
_publ_section_title
;
Structure prediction by ZEFSAII (Michael W. Deem and Ramdas Pophale) SiO2 
 PCOD9448496
Probable space group: P M M N
;
_chemical_formula_sum "Si O2"
_cell_formula_units_Z 64
_cell_length_a 32.491820
_cell_length_b 8.098062
_cell_length_c 12.516480
_cell_angle_alpha 90.000000
_cell_angle_beta 90.000000
_cell_angle_gamma 90.000000
_cell_volume 3293.345891
_symmetry_space_group_name_H-M "P M M N"
_symmetry_group_IT_number 59
_space_group.IT_coordinate_system_code '2'
_symmetry_cell_setting 'orthorhombic'
loop_
_space_group_symop_operation_xyz
x,y,z
1/2-x,1/2-y,z
1/2+x,-y,-z
-x,1/2+y,-z
-x,-y,-z
1/2+x,1/2+y,-z
1/2-x,y,z
x,1/2-y,z
loop_
_atom_site_type_symbol
_atom_site_label
_atom_site_fract_x
_atom_site_fract_y
_atom_site_fract_z
Si Si1 0.203725 0.449586 0.246949
Si Si2 0.369378 0.049475 0.396498
Si Si3 0.374930 0.449053 0.867152
Si Si4 0.547680 0.556840 0.995750
Si Si5 0.203137 0.946699 0.005354
Si Si6 0.557464 0.447164 0.760126
Si Si7 0.483900 0.448887 0.615968
Si Si8 0.889889 0.951774 0.367904
O O1 0.250000 0.505506 0.271018
O O2 0.203280 0.250000 0.246105
O O3 0.171101 0.506144 0.333936
O O4 0.193329 0.507592 0.127868
O O5 0.370822 0.250000 0.396224
O O6 0.370971 0.993751 0.519358
O O7 0.407958 0.988938 0.326954
O O8 0.378359 0.250000 0.865130
O O9 0.371335 0.507086 0.744587
O O10 0.417183 0.512607 0.923821
O O11 0.333823 0.490209 0.932226
O O12 0.545631 0.750000 0.018661
O O13 0.563859 0.526383 0.875548
O O14 0.500000 0.500000 0.000000
O O15 0.250000 0.009742 0.982699
O O16 0.204345 0.750000 0.995968
O O17 0.555824 0.250000 0.775185
O O18 0.514580 0.506701 0.708414
O O19 0.500000 0.500000 0.500000
O O20 0.484029 0.250000 0.619672
O O21 0.437470 0.504729 0.631410
O O22 0.888843 0.750000 0.368977
#
# Coordination Sequence:
#
# PCOD9448496 Si02
#       8
#     8   8   8   8   8   8   8   8
#     4   9  18  33  54  80 107 134 168 213 264 320
#     4  10  19  33  54  78 105 138 175 216 266 318
#     4  10  21  38  58  80 109 148 189 230 277 329
#     4  11  23  38  56  79 111 148 188 232 280 332
#     4  10  21  37  58  84 111 140 178 226 279 334
#     4  11  22  34  52  79 109 139 178 225 270 320
#     4  10  19  33  52  74 104 141 179 220 262 311
#     4   9  18  34  54  75 105 141 178 222 267 314
#
# _framework density 19.433123999999999
#
# number of rings (size 3 to 8) (size 9 to 14) (size 15 to 20)
#    0.000    2.000    1.250    2.625    0.000    7.750 
#    0.000    1.875    0.000    2.250    0.000    1.750 
#    0.000    0.000    0.000    0.000    0.000    0.000 
#
# Total GULP energy -357232.002364 kJ/mol
# GULP energy per Si atom -5581.750037 kJ/mol
# Density = 1.938889 g / cm^3
# Si number density = 19.433124 Si / 1000 Ang^3
#
#
#
# Elastic Constant Matrix: (Units=GPa)
#
#
# Indices 1 2 3 4 5 6 
#
# 1 132.3383 12.2598 97.7712 0.0000 0.0000 0.0000
# 2 12.2598 11.2539 3.5975 0.0000 0.0000 0.0000
# 3 97.7712 3.5975 145.5548 0.0000 0.0000 0.0000
# 4 0.0000 0.0000 0.0000 10.4101 0.0000 0.0000
# 5 0.0000 0.0000 0.0000 0.0000 38.0406 0.0000
# 6 0.0000 0.0000 0.0000 0.0000 0.0000 23.2354
#
#
#
# Elastic Compliance Matrix: (Units=1/GPa)
#
#
# Indices 1 2 3 4 5 6 
#
# 1 0.017246 -0.015204 -0.011208 0.000000 0.000000 0.000000
# 2 -0.015204 0.102970 0.007668 0.000000 0.000000 0.000000
# 3 -0.011208 0.007668 0.014210 0.000000 0.000000 0.000000
# 4 0.000000 0.000000 0.000000 0.096060 0.000000 0.000000
# 5 0.000000 0.000000 0.000000 0.000000 0.026288 0.000000
# 6 0.000000 0.000000 0.000000 0.000000 0.000000 0.043038
#
#
# Mechanical properties :
#
#
# Convention : Reuss Voigt Hill
#
# Bulk Modulus (GPa) = 10.31610 57.37820 33.84715
# Shear Modulus (GPa) = 13.52771 26.03845 19.78308
#
# Velocity S-wave (km/s) = 2.64126 3.66444 3.19409
# Velocity P-wave (km/s) = 3.82384 6.89160 5.57297
#
# Compressibility (1/GPa) = 0.09693586
#
# Stress axis : x y z
#
# Youngs Moduli (GPa) = 57.98602 9.71158 70.37538
#
# Poissons Ratio (x) = 0.14765 0.78879
# Poissons Ratio (y) = 0.88162 -0.53962
# Poissons Ratio (z) = 0.64992 -0.07447
#
# Static dielectric constant tensor:
#      x y z
#    x 1.672790 0.000000 0.000000 
#    y 0.000000 1.696540 0.000000 
#    z 0.000000 0.000000 1.674980 
# 
# From -- ./inp_files/19322.got.cif
#   From: 2010.05.17/outbox.cif.g08.bks.cpg/sg59_10_cif.got.tgz:19322.got - 2010.06.03 14:40:33.
