data_PCOD9448934
_publ_section_title
;
Structure prediction by ZEFSAII (Michael W. Deem and Ramdas Pophale) SiO2 
 PCOD9448934
Probable space group: P M M N
;
_chemical_formula_sum "Si O2"
_cell_formula_units_Z 64
_cell_length_a 32.270874
_cell_length_b 7.678241
_cell_length_c 11.957181
_cell_angle_alpha 90.000000
_cell_angle_beta 90.000000
_cell_angle_gamma 90.000000
_cell_volume 2962.792730
_symmetry_space_group_name_H-M "P M M N"
_symmetry_group_IT_number 59
_space_group.IT_coordinate_system_code '2'
_symmetry_cell_setting 'orthorhombic'
loop_
_space_group_symop_operation_xyz
x,y,z
1/2-x,1/2-y,z
1/2+x,-y,-z
-x,1/2+y,-z
-x,-y,-z
1/2+x,1/2+y,-z
1/2-x,y,z
x,1/2-y,z
loop_
_atom_site_type_symbol
_atom_site_label
_atom_site_fract_x
_atom_site_fract_y
_atom_site_fract_z
Si Si1 0.923699 0.461080 0.480173
Si Si2 0.327063 0.540770 0.509671
Si Si3 0.376467 0.047859 0.867866
Si Si4 0.549177 0.036346 0.726162
Si Si5 0.541308 0.547332 0.241780
Si Si6 0.875128 0.047988 0.879962
Si Si7 0.296401 0.455143 0.263027
Si Si8 0.795108 0.955721 0.250137
O O1 0.925360 0.250000 0.473385
O O2 0.875270 0.512619 0.480563
O O3 0.943612 0.516149 0.597640
O O4 0.946478 0.535220 0.372176
O O5 0.325867 0.750000 0.509915
O O6 0.308075 0.479632 0.392919
O O7 0.302810 0.474801 0.617757
O O8 0.377577 0.250000 0.829990
O O9 0.419890 0.969059 0.825530
O O10 0.335377 0.968476 0.811811
O O11 0.372927 0.042133 0.000602
O O12 0.549332 0.250000 0.725351
O O13 0.504814 0.973444 0.770477
O O14 0.587746 0.979718 0.801844
O O15 0.537884 0.750000 0.208445
O O16 0.883963 0.250000 0.903124
O O17 0.832426 0.035858 0.811962
O O18 0.250000 0.523990 0.242945
O O19 0.296324 0.250000 0.238437
O O20 0.750000 0.030196 0.220558
O O21 0.793693 0.750000 0.222975
#
# Coordination Sequence:
#
# PCOD9448934 Si02
#       8
#     8   8   8   8   8   8   8   8
#     4  10  19  34  56  84 120 152 185 234 292 343
#     4  11  21  35  59  89 121 154 188 232 287 346
#     4  10  22  39  57  83 114 151 200 247 288 337
#     4   9  19  37  58  84 117 152 187 235 291 341
#     4  10  20  36  60  85 114 152 195 237 283 344
#     4  11  23  41  62  84 114 153 194 240 292 345
#     4  11  24  41  62  88 118 152 191 236 286 342
#     4  10  21  38  59  83 115 154 193 236 288 344
#
# _framework density 21.601240000000001
#
# number of rings (size 3 to 8) (size 9 to 14) (size 15 to 20)
#    0.000    1.750    2.500    1.875    0.000    5.250 
#    0.000    2.500    0.000    0.000    0.000    0.000 
#    0.000    0.000    0.000    0.000    0.000    0.000 
#
# Total GULP energy -357671.055206 kJ/mol
# GULP energy per Si atom -5588.610238 kJ/mol
# Density = 2.155207 g / cm^3
# Si number density = 21.601240 Si / 1000 Ang^3
#
#
#
# Elastic Constant Matrix: (Units=GPa)
#
#
# Indices 1 2 3 4 5 6 
#
# 1 192.3394 -1.7395 51.2392 0.0000 0.0000 0.0000
# 2 -1.7395 40.8602 -19.6703 0.0000 0.0000 0.0000
# 3 51.2392 -19.6703 96.1156 0.0000 0.0000 0.0000
# 4 0.0000 0.0000 0.0000 62.0681 0.0000 0.0000
# 5 0.0000 0.0000 0.0000 0.0000 -0.1866 0.0000
# 6 0.0000 0.0000 0.0000 0.0000 0.0000 9.9835
#
#
#
# Elastic Compliance Matrix: (Units=1/GPa)
#
#
# Indices 1 2 3 4 5 6 
#
# 1 0.006137 -0.001457 -0.003570 0.000000 0.000000 0.000000
# 2 -0.001457 0.027494 0.006404 0.000000 0.000000 0.000000
# 3 -0.003570 0.006404 0.013618 0.000000 0.000000 0.000000
# 4 0.000000 0.000000 0.000000 0.016111 0.000000 0.000000
# 5 0.000000 0.000000 0.000000 0.000000 -5.359138 0.000000
# 6 0.000000 0.000000 0.000000 0.000000 0.000000 0.100165
#
#
# Mechanical properties :
#
#
# Convention : Reuss Voigt Hill
#
# Bulk Modulus (GPa) = 19.99914 43.21936 31.60925
# Shear Modulus (GPa) = -0.96493 34.33874 16.68690
#
# Velocity S-wave (km/s) = -0.66908 3.99139 2.78240
# Velocity P-wave (km/s) = 2.94644 6.42595 4.99872
#
# Compressibility (1/GPa) = 0.05000216
#
# Stress axis : x y z
#
# Youngs Moduli (GPa) = 162.94681 36.37106 73.43360
#
# Poissons Ratio (x) = 0.05300 0.26215
# Poissons Ratio (y) = 0.23746 -0.47024
# Poissons Ratio (z) = 0.58170 -0.23291
#
# Static dielectric constant tensor:
#      x y z
#    x 1.812360 0.000000 0.000000 
#    y 0.000000 1.808570 0.000000 
#    z 0.000000 0.000000 1.717750 
# 
# From -- ./inp_files/15063.got.cif
#   From: 2010.05.17/outbox.cif.g08.bks.cpg/sg59_8_cif.got.tgz:15063.got - 2010.06.03 14:40:33.
