data_PCOD9448221
_publ_section_title
;
Structure prediction by ZEFSAII (Michael W. Deem and Ramdas Pophale) SiO2 
 PCOD9448221
Probable space group: P M M N
;
_chemical_formula_sum "Si O2"
_cell_formula_units_Z 64
_cell_length_a 21.227396
_cell_length_b 8.731025
_cell_length_c 20.214402
_cell_angle_alpha 90.000000
_cell_angle_beta 90.000000
_cell_angle_gamma 90.000000
_cell_volume 3746.475111
_symmetry_space_group_name_H-M "P M M N"
_symmetry_group_IT_number 59
_space_group.IT_coordinate_system_code '2'
_symmetry_cell_setting 'orthorhombic'
loop_
_space_group_symop_operation_xyz
x,y,z
1/2-x,1/2-y,z
1/2+x,-y,-z
-x,1/2+y,-z
-x,-y,-z
1/2+x,1/2+y,-z
1/2-x,y,z
x,1/2-y,z
loop_
_atom_site_type_symbol
_atom_site_label
_atom_site_fract_x
_atom_site_fract_y
_atom_site_fract_z
Si Si1 0.179202 0.935278 0.036878
Si Si2 0.440033 0.433841 0.960678
Si Si3 0.366811 0.933451 0.180083
Si Si4 0.632853 0.933810 0.680798
Si Si5 0.819431 0.936801 0.538788
Si Si6 0.941855 0.566125 0.457999
Si Si7 0.014984 0.066058 0.817348
Si Si8 0.515519 0.432690 0.322320
O O1 0.250000 0.977579 0.016326
O O2 0.173803 0.750000 0.034896
O O3 0.167995 0.982678 0.113350
O O4 0.124024 0.005005 0.992689
O O5 0.442237 0.250000 0.964738
O O6 0.448146 0.477550 0.883650
O O7 0.500000 0.500000 0.000000
O O8 0.362500 0.750000 0.184156
O O9 0.440988 0.974141 0.172821
O O10 0.343877 0.001045 0.249496
O O11 0.636548 0.750000 0.683985
O O12 0.667869 0.985473 0.614512
O O13 0.558865 0.975290 0.673014
O O14 0.750000 0.986276 0.517211
O O15 0.820366 0.750000 0.539138
O O16 0.876855 0.985473 0.492330
O O17 0.944652 0.750000 0.460606
O O18 0.948824 0.509997 0.383041
O O19 0.000000 0.500000 0.500000
O O20 0.018124 0.250000 0.809567
O O21 0.037086 0.987693 0.749870
O O22 0.519791 0.250000 0.327951
#
# Coordination Sequence:
#
# PCOD9448221 Si02
#       8
#     8   8   8   8   8   8   8   8
#     4  10  21  37  54  75 109 149 184 220 269 324
#     4  11  21  35  57  82 109 139 181 227 271 321
#     4   9  17  31  48  71 104 141 176 209 253 307
#     4   9  17  30  47  72 102 134 173 210 249 301
#     4   9  18  33  51  72 101 136 172 210 253 302
#     4  11  20  33  54  78 103 136 175 216 260 308
#     4   9  18  33  52  77 106 137 171 216 266 314
#     4  10  19  32  51  79 107 133 169 215 264 311
#
# _framework density 17.082723999999999
#
# number of rings (size 3 to 8) (size 9 to 14) (size 15 to 20)
#    0.000    2.250    2.500    1.125    0.000    2.750 
#    0.000    0.000    0.000    3.750    0.000    1.750 
#    0.000    0.000    0.000    0.000    0.000    0.000 
#
# Total GULP energy -357059.158726 kJ/mol
# GULP energy per Si atom -5579.049355 kJ/mol
# Density = 1.704384 g / cm^3
# Si number density = 17.082724 Si / 1000 Ang^3
#
#
#
# Elastic Constant Matrix: (Units=GPa)
#
#
# Indices 1 2 3 4 5 6 
#
# 1 117.9156 31.7583 74.3662 0.0000 0.0000 0.0000
# 2 31.7583 21.9846 35.8064 0.0000 0.0000 0.0000
# 3 74.3662 35.8064 132.7362 0.0000 0.0000 0.0000
# 4 0.0000 0.0000 0.0000 32.0055 0.0000 0.0000
# 5 0.0000 0.0000 0.0000 0.0000 22.1062 0.0000
# 6 0.0000 0.0000 0.0000 0.0000 0.0000 17.0761
#
#
#
# Elastic Compliance Matrix: (Units=1/GPa)
#
#
# Indices 1 2 3 4 5 6 
#
# 1 0.015349 -0.014567 -0.004670 0.000000 0.000000 0.000000
# 2 -0.014567 0.094957 -0.017454 0.000000 0.000000 0.000000
# 3 -0.004670 -0.017454 0.014858 0.000000 0.000000 0.000000
# 4 0.000000 0.000000 0.000000 0.031245 0.000000 0.000000
# 5 0.000000 0.000000 0.000000 0.000000 0.045236 0.000000
# 6 0.000000 0.000000 0.000000 0.000000 0.000000 0.058561
#
#
# Mechanical properties :
#
#
# Convention : Reuss Voigt Hill
#
# Bulk Modulus (GPa) = 19.31147 61.83312 40.57230
# Shear Modulus (GPa) = 14.25112 22.95127 18.60119
#
# Velocity S-wave (km/s) = 2.89146 3.66941 3.30341
# Velocity P-wave (km/s) = 4.74095 7.36394 6.19291
#
# Compressibility (1/GPa) = 0.05178270
#
# Stress axis : x y z
#
# Youngs Moduli (GPa) = 65.14994 10.53107 67.30205
#
# Poissons Ratio (x) = 0.15341 0.31429
# Poissons Ratio (y) = 0.94905 1.17469
# Poissons Ratio (z) = 0.30424 0.18381
#
# Static dielectric constant tensor:
#      x y z
#    x 1.573990 0.000000 0.000000 
#    y 0.000000 1.580060 0.000000 
#    z 0.000000 0.000000 1.574500 
# 
# From -- ./inp_files/28178.got.cif
#   From: 2010.05.17/outbox.cif.g08.bks.cpg/sg59_15_cif.got.tgz:28178.got - 2010.06.03 14:40:33.
