data_PCOD9448001
_publ_section_title
;
Structure prediction by ZEFSAII (Michael W. Deem and Ramdas Pophale) SiO2 
 PCOD9448001
Probable space group: P M M N
;
_chemical_formula_sum "Si O2"
_cell_formula_units_Z 56
_cell_length_a 22.050493
_cell_length_b 8.722242
_cell_length_c 17.259195
_cell_angle_alpha 90.000000
_cell_angle_beta 90.000000
_cell_angle_gamma 90.000000
_cell_volume 3319.456421
_symmetry_space_group_name_H-M "P M M N"
_symmetry_group_IT_number 59
_space_group.IT_coordinate_system_code '2'
_symmetry_cell_setting 'orthorhombic'
loop_
_space_group_symop_operation_xyz
x,y,z
1/2-x,1/2-y,z
1/2+x,-y,-z
-x,1/2+y,-z
-x,-y,-z
1/2+x,1/2+y,-z
1/2-x,y,z
x,1/2-y,z
loop_
_atom_site_type_symbol
_atom_site_label
_atom_site_fract_x
_atom_site_fract_y
_atom_site_fract_z
Si Si1 0.439425 0.434880 0.042400
Si Si2 0.485306 0.434123 0.207405
Si Si3 0.528214 0.067337 0.623084
Si Si4 0.124625 0.934102 0.798467
Si Si5 0.818401 0.565054 0.355741
Si Si6 0.588659 0.934408 0.479991
Si Si7 0.180682 0.564327 0.960356
O O1 0.441140 0.250000 0.035924
O O2 0.445344 0.478059 0.133256
O O3 0.500000 0.500000 0.000000
O O4 0.376061 0.496631 0.008053
O O5 0.483754 0.250000 0.213810
O O6 0.468328 0.501423 0.290773
O O7 0.554770 0.478998 0.187969
O O8 0.528673 0.250000 0.627513
O O9 0.465800 0.020277 0.579059
O O10 0.578756 0.008694 0.563282
O O11 0.126888 0.750000 0.792423
O O12 0.166374 0.978774 0.870988
O O13 0.146072 0.005267 0.718479
O O14 0.750000 0.509407 0.351977
O O15 0.819190 0.750000 0.353196
O O16 0.850877 0.519761 0.435241
O O17 0.586096 0.750000 0.488297
O O18 0.250000 0.518195 0.981099
O O19 0.177700 0.750000 0.965666
#
# Coordination Sequence:
#
# PCOD9448001 Si02
#       7
#     8   8   8   8   8   8   8
#     4  11  22  37  57  81 110 144 186 230 276 327
#     4  10  20  34  53  77 107 140 172 216 267 317
#     4  10  19  31  51  76  99 129 167 211 257 301
#     4  10  19  33  52  75 107 144 178 209 258 320
#     4  10  20  33  49  73 106 140 174 211 253 305
#     4   9  18  32  48  70 101 134 167 204 251 303
#     4  10  21  38  57  79 111 148 185 226 274 328
#
# _framework density 16.870232999999999
#
# number of rings (size 3 to 8) (size 9 to 14) (size 15 to 20)
#    0.000    2.000    2.857    1.286    0.000    4.000 
#    0.000    0.000    0.000    0.857    0.000    2.000 
#    0.000    0.000    0.000    0.000    0.000    0.000 
#
# Total GULP energy -312301.649892 kJ/mol
# GULP energy per Si atom -5576.815177 kJ/mol
# Density = 1.683184 g / cm^3
# Si number density = 16.870233 Si / 1000 Ang^3
#
#
#
# Elastic Constant Matrix: (Units=GPa)
#
#
# Indices 1 2 3 4 5 6 
#
# 1 99.5936 26.1866 52.3785 0.0000 0.0000 0.0000
# 2 26.1866 16.8554 30.8694 0.0000 0.0000 0.0000
# 3 52.3785 30.8694 122.0960 0.0000 0.0000 0.0000
# 4 0.0000 0.0000 0.0000 29.4540 0.0000 0.0000
# 5 0.0000 0.0000 0.0000 0.0000 22.9298 0.0000
# 6 0.0000 0.0000 0.0000 0.0000 0.0000 19.2323
#
#
#
# Elastic Compliance Matrix: (Units=1/GPa)
#
#
# Indices 1 2 3 4 5 6 
#
# 1 0.017061 -0.024400 -0.001150 0.000000 0.000000 0.000000
# 2 -0.024400 0.145384 -0.026290 0.000000 0.000000 0.000000
# 3 -0.001150 -0.026290 0.015330 0.000000 0.000000 0.000000
# 4 0.000000 0.000000 0.000000 0.033951 0.000000 0.000000
# 5 0.000000 0.000000 0.000000 0.000000 0.043611 0.000000
# 6 0.000000 0.000000 0.000000 0.000000 0.000000 0.051996
#
#
# Mechanical properties :
#
#
# Convention : Reuss Voigt Hill
#
# Bulk Modulus (GPa) = 13.49606 50.82379 32.15992
# Shear Modulus (GPa) = 11.47545 22.93059 17.20302
#
# Velocity S-wave (km/s) = 2.61093 3.69078 3.19678
# Velocity P-wave (km/s) = 4.13601 6.95372 5.72105
#
# Compressibility (1/GPa) = 0.07409572
#
# Stress axis : x y z
#
# Youngs Moduli (GPa) = 58.61202 6.87834 65.22958
#
# Poissons Ratio (x) = 0.16783 0.07503
# Poissons Ratio (y) = 1.43014 1.71486
# Poissons Ratio (z) = 0.06741 0.18083
#
# Static dielectric constant tensor:
#      x y z
#    x 1.578660 0.000000 0.000000 
#    y 0.000000 1.573050 0.000000 
#    z 0.000000 0.000000 1.557200 
# 
# From -- ./inp_files/20915.got.cif
#   From: 2010.05.17/outbox.cif.g08.bks.cpg/sg59_11_cif.got.tgz:20915.got - 2010.06.03 14:40:33.
