data_PCOD9448396
_publ_section_title
;
Structure prediction by ZEFSAII (Michael W. Deem and Ramdas Pophale) SiO2 
 PCOD9448396
Probable space group: P M M N
;
_chemical_formula_sum "Si O2"
_cell_formula_units_Z 64
_cell_length_a 8.773511
_cell_length_b 14.315128
_cell_length_c 26.786013
_cell_angle_alpha 90.000000
_cell_angle_beta 90.000000
_cell_angle_gamma 90.000000
_cell_volume 3364.160721
_symmetry_space_group_name_H-M "P M M N"
_symmetry_group_IT_number 59
_space_group.IT_coordinate_system_code '2'
_symmetry_cell_setting 'orthorhombic'
loop_
_space_group_symop_operation_xyz
x,y,z
1/2-x,1/2-y,z
1/2+x,-y,-z
-x,1/2+y,-z
-x,-y,-z
1/2+x,1/2+y,-z
1/2-x,y,z
x,1/2-y,z
loop_
_atom_site_type_symbol
_atom_site_label
_atom_site_fract_x
_atom_site_fract_y
_atom_site_fract_z
Si Si1 0.074427 0.636228 0.471511
Si Si2 0.926805 0.637459 0.968462
Si Si3 0.436160 0.356007 0.919593
Si Si4 0.565349 0.141441 0.228305
Si Si5 0.069179 0.358739 0.633338
Si Si6 0.066807 0.861241 0.581880
Si Si7 0.569533 0.534871 0.676999
Si Si8 0.433152 0.541483 0.872803
O O1 0.250000 0.605856 0.464141
O O2 0.077261 0.750000 0.474077
O O3 0.018821 0.606076 0.526307
O O4 0.975886 0.612729 0.423267
O O5 0.750000 0.607957 0.964619
O O6 0.930590 0.750000 0.965579
O O7 0.018050 0.595141 0.922728
O O8 0.984143 0.614442 0.024304
O O9 0.250000 0.354124 0.920899
O O10 0.486698 0.250000 0.909667
O O11 0.484412 0.434394 0.880411
O O12 0.750000 0.139263 0.229375
O O13 0.518577 0.250000 0.229719
O O14 0.504113 0.085990 0.275798
O O15 0.511838 0.092702 0.177033
O O16 0.250000 0.366802 0.639179
O O17 0.025450 0.250000 0.639775
O O18 0.986612 0.428620 0.670745
O O19 0.250000 0.874496 0.585064
O O20 0.038305 0.750000 0.585960
O O21 0.986289 0.913040 0.626909
O O22 0.750000 0.538739 0.680522
O O23 0.250000 0.541288 0.870474
#
# Coordination Sequence:
#
# PCOD9448396 Si02
#       8
#     8   8   8   8   8   8   8   8
#     4   8  15  30  53  81 112 144 176 213 261 314
#     4   9  17  29  47  74 110 148 179 212 262 321
#     4   8  15  29  49  76 111 146 177 212 259 315
#     4  10  22  40  58  77 106 139 172 220 277 325
#     4  10  21  38  60  83 108 140 177 217 262 316
#     4   9  18  34  56  81 112 148 181 218 267 320
#     4  12  25  38  56  80 105 138 180 226 273 321
#     4  10  19  32  54  80 104 137 183 229 268 309
#
# _framework density 19.024062000000001
#
# number of rings (size 3 to 8) (size 9 to 14) (size 15 to 20)
#    0.000    2.500    0.000    4.125    0.000    5.000 
#    0.000    1.875    0.000    3.375    0.000    0.000 
#    0.000    0.000    0.000    0.000    0.000    0.000 
#
# Total GULP energy -357244.918124 kJ/mol
# GULP energy per Si atom -5581.951846 kJ/mol
# Density = 1.898076 g / cm^3
# Si number density = 19.024062 Si / 1000 Ang^3
#
#
#
# Elastic Constant Matrix: (Units=GPa)
#
#
# Indices 1 2 3 4 5 6 
#
# 1 16.9684 30.3248 27.6678 0.0000 0.0000 0.0000
# 2 30.3248 108.4280 86.8760 0.0000 0.0000 0.0000
# 3 27.6678 86.8760 120.6877 0.0000 0.0000 0.0000
# 4 0.0000 0.0000 0.0000 33.9927 0.0000 0.0000
# 5 0.0000 0.0000 0.0000 0.0000 24.2633 0.0000
# 6 0.0000 0.0000 0.0000 0.0000 0.0000 19.5260
#
#
#
# Elastic Compliance Matrix: (Units=1/GPa)
#
#
# Indices 1 2 3 4 5 6 
#
# 1 0.120995 -0.027442 -0.007984 0.000000 0.000000 0.000000
# 2 -0.027442 0.028015 -0.013875 0.000000 0.000000 0.000000
# 3 -0.007984 -0.013875 0.020104 0.000000 0.000000 0.000000
# 4 0.000000 0.000000 0.000000 0.029418 0.000000 0.000000
# 5 0.000000 0.000000 0.000000 0.000000 0.041215 0.000000
# 6 0.000000 0.000000 0.000000 0.000000 0.000000 0.051214
#
#
# Mechanical properties :
#
#
# Convention : Reuss Voigt Hill
#
# Bulk Modulus (GPa) = 14.18224 59.53568 36.85896
# Shear Modulus (GPa) = 12.10459 22.30409 17.20434
#
# Velocity S-wave (km/s) = 2.52519 3.42777 3.01050
# Velocity P-wave (km/s) = 3.99665 6.85777 5.61258
#
# Compressibility (1/GPa) = 0.07051074
#
# Stress axis : x y z
#
# Youngs Moduli (GPa) = 8.26482 35.69539 49.74128
#
# Poissons Ratio (x) = 0.97956 0.39714
# Poissons Ratio (y) = 0.22681 0.69016
# Poissons Ratio (z) = 0.06599 0.49527
#
# Static dielectric constant tensor:
#      x y z
#    x 1.641890 0.000000 0.000000 
#    y 0.000000 1.696470 0.000000 
#    z 0.000000 0.000000 1.639950 
# 
# From -- ./inp_files/31550.got.cif
#   From: 2010.05.17/outbox.cif.g08.bks.cpg/sg59_16_cif.got.tgz:31550.got - 2010.06.03 14:40:33.
