data_PCOD9448302
_publ_section_title
;
Structure prediction by ZEFSAII (Michael W. Deem and Ramdas Pophale) SiO2 
 PCOD9448302
Probable space group: P M M N
;
_chemical_formula_sum "Si O2"
_cell_formula_units_Z 64
_cell_length_a 8.740928
_cell_length_b 20.271487
_cell_length_c 20.810555
_cell_angle_alpha 90.000000
_cell_angle_beta 90.000000
_cell_angle_gamma 90.000000
_cell_volume 3687.455710
_symmetry_space_group_name_H-M "P M M N"
_symmetry_group_IT_number 59
_space_group.IT_coordinate_system_code '2'
_symmetry_cell_setting 'orthorhombic'
loop_
_space_group_symop_operation_xyz
x,y,z
1/2-x,1/2-y,z
1/2+x,-y,-z
-x,1/2+y,-z
-x,-y,-z
1/2+x,1/2+y,-z
1/2-x,y,z
x,1/2-y,z
loop_
_atom_site_type_symbol
_atom_site_label
_atom_site_fract_x
_atom_site_fract_y
_atom_site_fract_z
Si Si1 0.067225 0.908913 0.800414
Si Si2 0.434791 0.174472 0.085359
Si Si3 0.933839 0.558707 0.668102
Si Si4 0.066211 0.440425 0.833047
Si Si5 0.433512 0.907902 0.298755
Si Si6 0.066212 0.429643 0.477748
Si Si7 0.435212 0.429758 0.977573
Si Si8 0.064814 0.673829 0.421485
O O1 0.250000 0.905295 0.802715
O O2 0.996335 0.856328 0.848726
O O3 0.009973 0.903527 0.727339
O O4 0.020147 0.982616 0.824078
O O5 0.250000 0.173298 0.086964
O O6 0.484216 0.250000 0.076887
O O7 0.484355 0.127081 0.026879
O O8 0.750000 0.563189 0.674291
O O9 0.975999 0.481226 0.675926
O O10 0.977459 0.581257 0.596828
O O11 0.250000 0.438061 0.829802
O O12 0.017691 0.417516 0.903760
O O13 0.000659 0.401333 0.772368
O O14 0.250000 0.905830 0.294329
O O15 0.482532 0.855257 0.352053
O O16 0.250000 0.432661 0.481015
O O17 0.000000 0.500000 0.500000
O O18 0.004000 0.372764 0.523836
O O19 0.250000 0.433417 0.978714
O O20 0.500000 0.500000 0.000000
O O21 0.250000 0.669402 0.424633
O O22 0.020645 0.750000 0.428643
#
# Coordination Sequence:
#
# PCOD9448302 Si02
#       8
#     8   8   8   8   8   8   8   8
#     4  10  19  32  52  79 107 135 171 219 269 313
#     4  10  21  36  54  76 105 144 182 215 263 327
#     4   9  18  33  53  78 107 138 176 220 265 318
#     4   9  18  31  49  78 108 131 167 221 270 307
#     4   9  17  32  52  76 104 139 179 215 261 319
#     4  11  21  35  57  84 113 143 184 230 276 327
#     4  10  19  33  53  77 106 137 175 220 267 316
#     4  10  21  38  57  79 112 150 186 226 275 329
#
# _framework density 17.356141000000001
#
# number of rings (size 3 to 8) (size 9 to 14) (size 15 to 20)
#    0.000    2.250    2.500    0.750    0.000    3.000 
#    0.000    1.250    0.000    1.500    0.000    0.000 
#    0.000    0.000    0.000    0.000    0.000    0.000 
#
# Total GULP energy -357035.115672 kJ/mol
# GULP energy per Si atom -5578.673682 kJ/mol
# Density = 1.731664 g / cm^3
# Si number density = 17.356141 Si / 1000 Ang^3
#
#
#
# Elastic Constant Matrix: (Units=GPa)
#
#
# Indices 1 2 3 4 5 6 
#
# 1 11.4067 30.9706 36.4797 0.0000 0.0000 0.0000
# 2 30.9706 124.2187 94.0815 0.0000 0.0000 0.0000
# 3 36.4797 94.0815 190.7785 0.0000 0.0000 0.0000
# 4 0.0000 0.0000 0.0000 25.9606 0.0000 0.0000
# 5 0.0000 0.0000 0.0000 0.0000 28.9798 0.0000
# 6 0.0000 0.0000 0.0000 0.0000 0.0000 18.6581
#
#
#
# Elastic Compliance Matrix: (Units=1/GPa)
#
#
# Indices 1 2 3 4 5 6 
#
# 1 0.441304 -0.073609 -0.048084 0.000000 0.000000 0.000000
# 2 -0.073609 0.025128 0.001684 0.000000 0.000000 0.000000
# 3 -0.048084 0.001684 0.013606 0.000000 0.000000 0.000000
# 4 0.000000 0.000000 0.000000 0.038520 0.000000 0.000000
# 5 0.000000 0.000000 0.000000 0.000000 0.034507 0.000000
# 6 0.000000 0.000000 0.000000 0.000000 0.000000 0.053596
#
#
# Mechanical properties :
#
#
# Convention : Reuss Voigt Hill
#
# Bulk Modulus (GPa) = 4.16634 72.16306 38.16470
# Shear Modulus (GPa) = 5.39557 25.71116 15.55337
#
# Velocity S-wave (km/s) = 1.76507 3.85305 2.99679
# Velocity P-wave (km/s) = 2.56119 7.83982 5.83192
#
# Compressibility (1/GPa) = 0.24001857
#
# Stress axis : x y z
#
# Youngs Moduli (GPa) = 2.26601 39.79681 73.49806
#
# Poissons Ratio (x) = 2.92941 3.53408
# Poissons Ratio (y) = 0.16680 -0.12374
# Poissons Ratio (z) = 0.10896 -0.06700
#
# Static dielectric constant tensor:
#      x y z
#    x 1.585870 0.000000 0.000000 
#    y 0.000000 1.567430 0.000000 
#    z 0.000000 0.000000 1.591230 
# 
# From -- ./inp_files/26198.got.cif
#   From: 2010.05.17/outbox.cif.g08.bks.cpg/sg59_14_cif.got.tgz:26198.got - 2010.06.03 14:40:33.
