data_PCOD9448812
_publ_section_title
;
Structure prediction by ZEFSAII (Michael W. Deem and Ramdas Pophale) SiO2 
 PCOD9448812
Probable space group: P M M N
;
_chemical_formula_sum "Si O2"
_cell_formula_units_Z 64
_cell_length_a 20.524889
_cell_length_b 7.908959
_cell_length_c 20.585514
_cell_angle_alpha 90.000000
_cell_angle_beta 90.000000
_cell_angle_gamma 90.000000
_cell_volume 3341.656895
_symmetry_space_group_name_H-M "P M M N"
_symmetry_group_IT_number 59
_space_group.IT_coordinate_system_code '2'
_symmetry_cell_setting 'orthorhombic'
loop_
_space_group_symop_operation_xyz
x,y,z
1/2-x,1/2-y,z
1/2+x,-y,-z
-x,1/2+y,-z
-x,-y,-z
1/2+x,1/2+y,-z
1/2-x,y,z
x,1/2-y,z
loop_
_atom_site_type_symbol
_atom_site_label
_atom_site_fract_x
_atom_site_fract_y
_atom_site_fract_z
Si Si1 0.176796 0.046249 0.890961
Si Si2 0.035421 0.952010 0.656166
Si Si3 0.677473 0.050412 0.743138
Si Si4 0.610213 0.955379 0.615787
Si Si5 0.942376 0.453513 0.199408
Si Si6 0.824045 0.543125 0.960422
Si Si7 0.578844 0.948233 0.851295
Si Si8 0.426409 0.048998 0.520497
O O1 0.250000 0.987626 0.874081
O O2 0.177954 0.250000 0.891937
O O3 0.121817 0.992312 0.841048
O O4 0.162863 0.991566 0.965234
O O5 0.030556 0.750000 0.660040
O O6 0.058256 0.016778 0.726140
O O7 0.961843 0.012353 0.640154
O O8 0.080915 0.989112 0.594236
O O9 0.750000 0.987108 0.758892
O O10 0.674859 0.250000 0.756625
O O11 0.661505 0.020993 0.667658
O O12 0.622576 0.963420 0.786689
O O13 0.611607 0.750000 0.617374
O O14 0.616766 0.011076 0.540621
O O15 0.948683 0.250000 0.202704
O O16 0.007550 0.520506 0.163718
O O17 0.750000 0.491209 0.943055
O O18 0.824245 0.750000 0.958588
O O19 0.877929 0.479501 0.910007
O O20 0.569716 0.750000 0.866083
O O21 0.422038 0.250000 0.521510
O O22 0.500000 0.000000 0.500000
#
# Coordination Sequence:
#
# PCOD9448812 Si02
#       8
#     8   8   8   8   8   8   8   8
#     4   9  19  36  55  76 101 130 170 214 256 312
#     4   9  17  31  48  72 104 131 161 206 253 300
#     4  11  23  34  46  71 106 140 175 216 259 304
#     4   9  17  32  50  69  96 131 171 210 246 296
#     4  10  20  33  51  78 109 135 166 213 261 308
#     4   8  15  30  53  76  98 132 177 216 249 296
#     4  10  19  34  54  75 101 136 176 214 253 306
#     4   9  17  28  46  72  98 126 164 206 248 297
#
# _framework density 19.152175
#
# number of rings (size 3 to 8) (size 9 to 14) (size 15 to 20)
#    0.000    2.625    1.250    2.625    0.000    5.750 
#    0.000    0.625    0.000    1.500    0.000    0.000 
#    0.000    0.000    0.000    0.000    0.000    0.000 
#
# Total GULP energy -356760.302062 kJ/mol
# GULP energy per Si atom -5574.379720 kJ/mol
# Density = 1.910858 g / cm^3
# Si number density = 19.152175 Si / 1000 Ang^3
#
#
#
# Elastic Constant Matrix: (Units=GPa)
#
#
# Indices 1 2 3 4 5 6 
#
# 1 96.2118 2.3505 77.4876 0.0000 0.0000 0.0000
# 2 2.3505 15.1435 5.1393 0.0000 0.0000 0.0000
# 3 77.4876 5.1393 146.7081 0.0000 0.0000 0.0000
# 4 0.0000 0.0000 0.0000 15.3642 0.0000 0.0000
# 5 0.0000 0.0000 0.0000 0.0000 20.4389 0.0000
# 6 0.0000 0.0000 0.0000 0.0000 0.0000 13.3701
#
#
#
# Elastic Compliance Matrix: (Units=1/GPa)
#
#
# Indices 1 2 3 4 5 6 
#
# 1 0.018091 0.000440 -0.009571 0.000000 0.000000 0.000000
# 2 0.000440 0.066840 -0.002574 0.000000 0.000000 0.000000
# 3 -0.009571 -0.002574 0.011961 0.000000 0.000000 0.000000
# 4 0.000000 0.000000 0.000000 0.065087 0.000000 0.000000
# 5 0.000000 0.000000 0.000000 0.000000 0.048926 0.000000
# 6 0.000000 0.000000 0.000000 0.000000 0.000000 0.074794
#
#
# Mechanical properties :
#
#
# Convention : Reuss Voigt Hill
#
# Bulk Modulus (GPa) = 13.60846 47.55758 30.58302
# Shear Modulus (GPa) = 14.98788 21.37371 18.18079
#
# Velocity S-wave (km/s) = 2.80048 3.34427 3.08438
# Velocity P-wave (km/s) = 4.19258 6.30853 5.35609
#
# Compressibility (1/GPa) = 0.07348371
#
# Stress axis : x y z
#
# Youngs Moduli (GPa) = 55.27584 14.96104 83.60212
#
# Poissons Ratio (x) = -0.00658 0.80013
# Poissons Ratio (y) = -0.02432 0.21518
# Poissons Ratio (z) = 0.52903 0.03851
#
# Static dielectric constant tensor:
#      x y z
#    x 1.650650 0.000000 0.000000 
#    y 0.000000 1.699600 0.000000 
#    z 0.000000 0.000000 1.698520 
# 
# From -- ./inp_files/26329.got.cif
#   From: 2010.05.17/outbox.cif.g08.bks.cpg/sg59_14_cif.got.tgz:26329.got - 2010.06.03 14:40:33.
