data_PCOD9448647
_publ_section_title
;
Structure prediction by ZEFSAII (Michael W. Deem and Ramdas Pophale) SiO2 
 PCOD9448647
Probable space group: P M M N
;
_chemical_formula_sum "Si O2"
_cell_formula_units_Z 64
_cell_length_a 24.625249
_cell_length_b 7.579072
_cell_length_c 15.956933
_cell_angle_alpha 90.000000
_cell_angle_beta 90.000000
_cell_angle_gamma 90.000000
_cell_volume 2978.146687
_symmetry_space_group_name_H-M "P M M N"
_symmetry_group_IT_number 59
_space_group.IT_coordinate_system_code '2'
_symmetry_cell_setting 'orthorhombic'
loop_
_space_group_symop_operation_xyz
x,y,z
1/2-x,1/2-y,z
1/2+x,-y,-z
-x,1/2+y,-z
-x,-y,-z
1/2+x,1/2+y,-z
1/2-x,y,z
x,1/2-y,z
loop_
_atom_site_type_symbol
_atom_site_label
_atom_site_fract_x
_atom_site_fract_y
_atom_site_fract_z
Si Si1 0.372730 0.544622 0.344534
Si Si2 0.390802 0.538996 0.658288
Si Si3 0.187488 0.533431 0.509439
Si Si4 0.993023 0.960452 0.598658
Si Si5 0.381248 0.962704 0.160642
Si Si6 0.997322 0.038401 0.901413
Si Si7 0.386464 0.038252 0.845662
Si Si8 0.311368 0.038162 0.996995
O O1 0.356943 0.750000 0.340081
O O2 0.338822 0.470329 0.422244
O O3 0.436658 0.535862 0.367005
O O4 0.364147 0.468632 0.251887
O O5 0.394001 0.750000 0.648500
O O6 0.350606 0.473835 0.585909
O O7 0.452441 0.472275 0.644502
O O8 0.369739 0.500799 0.751050
O O9 0.250000 0.480508 0.518207
O O10 0.186295 0.750000 0.509671
O O11 0.989573 0.750000 0.609199
O O12 0.000000 0.000000 0.500000
O O13 0.384903 0.750000 0.166876
O O14 0.441325 0.030388 0.136967
O O15 0.341154 0.001792 0.084449
O O16 0.996697 0.250000 0.891191
O O17 0.052398 0.969390 0.859836
O O18 0.000000 0.000000 0.000000
O O19 0.388509 0.250000 0.854746
O O20 0.347191 0.970820 0.918965
O O21 0.250000 0.969607 0.996036
O O22 0.308797 0.250000 0.988417
#
# Coordination Sequence:
#
# PCOD9448647 Si02
#       8
#     8   8   8   8   8   8   8   8
#     4  10  20  37  59  85 115 146 185 231 281 338
#     4  10  21  36  55  83 112 144 186 227 274 331
#     4   9  18  35  57  79 108 146 186 228 274 324
#     4  11  21  35  57  85 116 151 186 226 280 338
#     4  10  21  35  57  86 114 144 184 235 283 332
#     4  10  19  33  54  81 109 142 179 219 275 332
#     4  10  21  37  57  82 111 146 184 226 280 333
#     4  10  22  40  59  79 110 152 192 231 279 335
#
# _framework density 21.489875999999999
#
# number of rings (size 3 to 8) (size 9 to 14) (size 15 to 20)
#    0.000    2.000    2.500    1.125    0.000    4.750 
#    0.000    1.250    0.000    1.125    0.000    0.000 
#    0.000    0.000    0.000    0.000    0.000    0.000 
#
# Total GULP energy -357625.609494 kJ/mol
# GULP energy per Si atom -5587.900148 kJ/mol
# Density = 2.144096 g / cm^3
# Si number density = 21.489876 Si / 1000 Ang^3
#
#
#
# Elastic Constant Matrix: (Units=GPa)
#
#
# Indices 1 2 3 4 5 6 
#
# 1 135.7264 -2.1895 66.6131 0.0000 0.0000 0.0000
# 2 -2.1895 48.4507 -10.1780 0.0000 0.0000 0.0000
# 3 66.6131 -10.1780 176.3230 0.0000 0.0000 0.0000
# 4 0.0000 0.0000 0.0000 10.8902 0.0000 0.0000
# 5 0.0000 0.0000 0.0000 0.0000 0.2980 0.0000
# 6 0.0000 0.0000 0.0000 0.0000 0.0000 13.6839
#
#
#
# Elastic Compliance Matrix: (Units=1/GPa)
#
#
# Indices 1 2 3 4 5 6 
#
# 1 0.009049 -0.000313 -0.003437 0.000000 0.000000 0.000000
# 2 -0.000313 0.020904 0.001325 0.000000 0.000000 0.000000
# 3 -0.003437 0.001325 0.007046 0.000000 0.000000 0.000000
# 4 0.000000 0.000000 0.000000 0.091825 0.000000 0.000000
# 5 0.000000 0.000000 0.000000 0.000000 3.356095 0.000000
# 6 0.000000 0.000000 0.000000 0.000000 0.000000 0.073079
#
#
# Mechanical properties :
#
#
# Convention : Reuss Voigt Hill
#
# Bulk Modulus (GPa) = 31.10469 52.11013 41.60741
# Shear Modulus (GPa) = 1.39916 25.39139 13.39527
#
# Velocity S-wave (km/s) = 0.80777 3.44110 2.49937
# Velocity P-wave (km/s) = 3.92116 6.33163 5.26617
#
# Compressibility (1/GPa) = 0.03214949
#
# Stress axis : x y z
#
# Youngs Moduli (GPa) = 110.50343 47.83840 141.91831
#
# Poissons Ratio (x) = 0.01497 0.48776
# Poissons Ratio (y) = 0.03459 -0.18803
# Poissons Ratio (z) = 0.37979 -0.06338
#
# Static dielectric constant tensor:
#      x y z
#    x 1.751160 0.000000 0.000000 
#    y 0.000000 1.821810 0.000000 
#    z 0.000000 0.000000 1.752250 
# 
# From -- ./inp_files/21517.got.cif
#   From: 2010.05.17/outbox.cif.g08.bks.cpg/sg59_11_cif.got.tgz:21517.got - 2010.06.03 14:40:33.
