data_PCOD9448019
_publ_section_title
;
Structure prediction by ZEFSAII (Michael W. Deem and Ramdas Pophale) SiO2 
 PCOD9448019
Probable space group: P M M N
;
_chemical_formula_sum "Si O2"
_cell_formula_units_Z 64
_cell_length_a 29.213290
_cell_length_b 8.505611
_cell_length_c 14.350046
_cell_angle_alpha 90.000000
_cell_angle_beta 90.000000
_cell_angle_gamma 90.000000
_cell_volume 3565.654669
_symmetry_space_group_name_H-M "P M M N"
_symmetry_group_IT_number 59
_space_group.IT_coordinate_system_code '2'
_symmetry_cell_setting 'orthorhombic'
loop_
_space_group_symop_operation_xyz
x,y,z
1/2-x,1/2-y,z
1/2+x,-y,-z
-x,1/2+y,-z
-x,-y,-z
1/2+x,1/2+y,-z
1/2-x,y,z
x,1/2-y,z
loop_
_atom_site_type_symbol
_atom_site_label
_atom_site_fract_x
_atom_site_fract_y
_atom_site_fract_z
Si Si1 0.564862 0.439451 0.266201
Si Si2 0.872478 0.561517 0.116690
Si Si3 0.301848 0.561845 0.030426
Si Si4 0.642434 0.438694 0.414612
Si Si5 0.619564 0.060779 0.622625
Si Si6 0.799250 0.938726 0.266486
Si Si7 0.982663 0.939046 0.601958
Si Si8 0.301558 0.061345 0.241274
O O1 0.566308 0.250000 0.260213
O O2 0.580099 0.504208 0.164764
O O3 0.601445 0.490983 0.345882
O O4 0.517042 0.485797 0.314018
O O5 0.874151 0.750000 0.113086
O O6 0.836457 0.502318 0.194389
O O7 0.846442 0.503551 0.024003
O O8 0.250000 0.507785 0.998462
O O9 0.302508 0.750000 0.023029
O O10 0.305268 0.509855 0.137804
O O11 0.643008 0.250000 0.412643
O O12 0.635255 0.490079 0.519395
O O13 0.687869 0.505375 0.368660
O O14 0.618616 0.250000 0.626855
O O15 0.567724 0.998785 0.628378
O O16 0.656727 0.998925 0.695832
O O17 0.750000 0.997207 0.238158
O O18 0.800085 0.750000 0.263545
O O19 0.983072 0.750000 0.595959
O O20 0.000000 0.000000 0.500000
O O21 0.250000 0.019504 0.276690
O O22 0.303866 0.250000 0.235191
#
# Coordination Sequence:
#
# PCOD9448019 Si02
#       8
#     8   8   8   8   8   8   8   8
#     4   9  18  34  51  74 109 144 180 223 270 323
#     4  10  19  31  51  78 107 140 178 223 273 327
#     4  10  20  35  57  83 109 142 183 228 279 334
#     4   9  18  32  47  67  98 136 177 218 263 315
#     4  11  22  37  56  81 111 145 188 232 278 332
#     4   9  18  30  43  65  99 136 174 216 262 315
#     4  11  21  35  57  83 113 148 190 236 280 327
#     4  10  22  40  60  83 111 144 185 233 281 330
#
# _framework density 17.949019
#
# number of rings (size 3 to 8) (size 9 to 14) (size 15 to 20)
#    0.000    2.125    1.250    2.250    0.000    5.250 
#    0.000    2.500    0.000    0.750    0.000    0.000 
#    0.000    0.000    0.000    0.000    0.000    0.000 
#
# Total GULP energy -356461.304360 kJ/mol
# GULP energy per Si atom -5569.707881 kJ/mol
# Density = 1.790817 g / cm^3
# Si number density = 17.949019 Si / 1000 Ang^3
#
#
#
# Elastic Constant Matrix: (Units=GPa)
#
#
# Indices 1 2 3 4 5 6 
#
# 1 99.5346 22.5616 52.0069 0.0000 0.0000 0.0000
# 2 22.5616 34.7783 18.3772 0.0000 0.0000 0.0000
# 3 52.0069 18.3772 75.9457 0.0000 0.0000 0.0000
# 4 0.0000 0.0000 0.0000 27.6463 0.0000 0.0000
# 5 0.0000 0.0000 0.0000 0.0000 31.8392 0.0000
# 6 0.0000 0.0000 0.0000 0.0000 0.0000 22.2036
#
#
#
# Elastic Compliance Matrix: (Units=1/GPa)
#
#
# Indices 1 2 3 4 5 6 
#
# 1 0.016491 -0.005424 -0.009980 0.000000 0.000000 0.000000
# 2 -0.005424 0.034753 -0.004695 0.000000 0.000000 0.000000
# 3 -0.009980 -0.004695 0.021138 0.000000 0.000000 0.000000
# 4 0.000000 0.000000 0.000000 0.036171 0.000000 0.000000
# 5 0.000000 0.000000 0.000000 0.000000 0.031408 0.000000
# 6 0.000000 0.000000 0.000000 0.000000 0.000000 0.045038
#
#
# Mechanical properties :
#
#
# Convention : Reuss Voigt Hill
#
# Bulk Modulus (GPa) = 31.07249 44.01667 37.54458
# Shear Modulus (GPa) = 21.19307 24.15867 22.67587
#
# Velocity S-wave (km/s) = 3.43991 3.67271 3.55822
# Velocity P-wave (km/s) = 5.75556 6.52392 6.15175
#
# Compressibility (1/GPa) = 0.03218281
#
# Stress axis : x y z
#
# Youngs Moduli (GPa) = 60.63890 28.77416 47.30856
#
# Poissons Ratio (x) = 0.15609 0.47216
# Poissons Ratio (y) = 0.32894 0.22211
# Poissons Ratio (z) = 0.60520 0.13509
#
# Static dielectric constant tensor:
#      x y z
#    x 1.663840 0.000000 0.000000 
#    y 0.000000 1.608190 0.000000 
#    z 0.000000 0.000000 1.618980 
# 
# From -- ./inp_files/19347.got.cif
#   From: 2010.05.17/outbox.cif.g08.bks.cpg/sg59_10_cif.got.tgz:19347.got - 2010.06.03 14:40:33.
