data_PCOD9448869
_publ_section_title
;
Structure prediction by ZEFSAII (Michael W. Deem and Ramdas Pophale) SiO2 
 PCOD9448869
Probable space group: P M M N
;
_chemical_formula_sum "Si O2"
_cell_formula_units_Z 64
_cell_length_a 19.320065
_cell_length_b 9.061047
_cell_length_c 19.674412
_cell_angle_alpha 90.000000
_cell_angle_beta 90.000000
_cell_angle_gamma 90.000000
_cell_volume 3444.202899
_symmetry_space_group_name_H-M "P M M N"
_symmetry_group_IT_number 59
_space_group.IT_coordinate_system_code '2'
_symmetry_cell_setting 'orthorhombic'
loop_
_space_group_symop_operation_xyz
x,y,z
1/2-x,1/2-y,z
1/2+x,-y,-z
-x,1/2+y,-z
-x,-y,-z
1/2+x,1/2+y,-z
1/2-x,y,z
x,1/2-y,z
loop_
_atom_site_type_symbol
_atom_site_label
_atom_site_fract_x
_atom_site_fract_y
_atom_site_fract_z
Si Si1 0.332571 0.079666 0.351630
Si Si2 0.167559 0.578354 0.489674
Si Si3 0.911824 0.426488 0.066186
Si Si4 0.075581 0.074097 0.071714
Si Si5 0.331320 0.571956 0.797248
Si Si6 0.077142 0.073368 0.220642
Si Si7 0.052505 0.073172 0.712620
Si Si8 0.952723 0.925434 0.442480
O O1 0.250000 0.071597 0.342823
O O2 0.349940 0.250000 0.370061
O O3 0.369971 0.043459 0.281494
O O4 0.351816 0.973281 0.413518
O O5 0.250000 0.560094 0.496863
O O6 0.150188 0.750000 0.499407
O O7 0.124889 0.477294 0.540562
O O8 0.906588 0.250000 0.061691
O O9 0.866174 0.473506 0.130717
O O10 0.993297 0.462633 0.076094
O O11 0.892558 0.496076 0.993763
O O12 0.081157 0.250000 0.062378
O O13 0.104463 0.033778 0.145845
O O14 0.250000 0.536121 0.795432
O O15 0.338397 0.750000 0.791722
O O16 0.375568 0.496379 0.737828
O O17 0.062776 0.250000 0.219393
O O18 0.006892 0.989477 0.238512
O O19 0.055926 0.250000 0.715796
O O20 0.032840 0.029875 0.635298
O O21 0.959824 0.750000 0.447726
O O22 0.000000 0.000000 0.500000
#
# Coordination Sequence:
#
# PCOD9448869 Si02
#       8
#     8   8   8   8   8   8   8   8
#     4   9  18  33  55  81 108 142 181 223 275 331
#     4  10  21  37  57  80 107 142 184 227 272 330
#     4   9  17  32  52  77 106 137 178 223 265 315
#     4   9  17  30  51  78 107 139 176 220 266 313
#     4  10  21  39  61  82 110 150 191 230 277 334
#     4  10  19  34  55  79 110 146 184 225 269 326
#     4  11  24  38  55  82 113 141 181 230 279 329
#     4  11  24  40  58  83 113 146 182 231 285 335
#
# _framework density 18.581948000000001
#
# number of rings (size 3 to 8) (size 9 to 14) (size 15 to 20)
#    0.000    2.125    1.250    1.875    0.000    7.000 
#    0.000    3.125    0.000    0.750    0.000    0.000 
#    0.000    0.000    0.000    0.000    0.000    0.000 
#
# Total GULP energy -357194.580665 kJ/mol
# GULP energy per Si atom -5581.165323 kJ/mol
# Density = 1.853965 g / cm^3
# Si number density = 18.581948 Si / 1000 Ang^3
#
#
#
# Elastic Constant Matrix: (Units=GPa)
#
#
# Indices 1 2 3 4 5 6 
#
# 1 38.0427 16.4219 19.9886 0.0000 0.0000 0.0000
# 2 16.4219 20.6802 30.3280 0.0000 0.0000 0.0000
# 3 19.9886 30.3280 108.4318 0.0000 0.0000 0.0000
# 4 0.0000 0.0000 0.0000 31.6853 0.0000 0.0000
# 5 0.0000 0.0000 0.0000 0.0000 30.1312 0.0000
# 6 0.0000 0.0000 0.0000 0.0000 0.0000 20.8479
#
#
#
# Elastic Compliance Matrix: (Units=1/GPa)
#
#
# Indices 1 2 3 4 5 6 
#
# 1 0.040420 -0.035892 0.002588 0.000000 0.000000 0.000000
# 2 -0.035892 0.113854 -0.025228 0.000000 0.000000 0.000000
# 3 0.002588 -0.025228 0.015802 0.000000 0.000000 0.000000
# 4 0.000000 0.000000 0.000000 0.031560 0.000000 0.000000
# 5 0.000000 0.000000 0.000000 0.000000 0.033188 0.000000
# 6 0.000000 0.000000 0.000000 0.000000 0.000000 0.047967
#
#
# Mechanical properties :
#
#
# Convention : Reuss Voigt Hill
#
# Bulk Modulus (GPa) = 18.86396 33.40352 26.13374
# Shear Modulus (GPa) = 11.97533 23.22730 17.60131
#
# Velocity S-wave (km/s) = 2.54138 3.53936 3.08104
# Velocity P-wave (km/s) = 4.33420 5.89221 5.17220
#
# Compressibility (1/GPa) = 0.05301113
#
# Stress axis : x y z
#
# Youngs Moduli (GPa) = 24.74027 8.78319 63.28483
#
# Poissons Ratio (x) = 0.31524 -0.16376
# Poissons Ratio (y) = 0.88797 1.59656
# Poissons Ratio (z) = -0.06402 0.22158
#
# Static dielectric constant tensor:
#      x y z
#    x 1.646620 0.000000 0.000000 
#    y 0.000000 1.627030 0.000000 
#    z 0.000000 0.000000 1.651690 
# 
# From -- ./inp_files/28195.got.cif
#   From: 2010.05.17/outbox.cif.g08.bks.cpg/sg59_15_cif.got.tgz:28195.got - 2010.06.03 14:40:33.
