data_PCOD9448500
_publ_section_title
;
Structure prediction by ZEFSAII (Michael W. Deem and Ramdas Pophale) SiO2 
 PCOD9448500
Probable space group: P M M N
;
_chemical_formula_sum "Si O2"
_cell_formula_units_Z 64
_cell_length_a 18.847356
_cell_length_b 7.474441
_cell_length_c 20.487450
_cell_angle_alpha 90.000000
_cell_angle_beta 90.000000
_cell_angle_gamma 90.000000
_cell_volume 2886.137772
_symmetry_space_group_name_H-M "P M M N"
_symmetry_group_IT_number 59
_space_group.IT_coordinate_system_code '2'
_symmetry_cell_setting 'orthorhombic'
loop_
_space_group_symop_operation_xyz
x,y,z
1/2-x,1/2-y,z
1/2+x,-y,-z
-x,1/2+y,-z
-x,-y,-z
1/2+x,1/2+y,-z
1/2-x,y,z
x,1/2-y,z
loop_
_atom_site_type_symbol
_atom_site_label
_atom_site_fract_x
_atom_site_fract_y
_atom_site_fract_z
Si Si1 0.919441 0.964068 0.476796
Si Si2 0.587441 0.530676 0.329053
Si Si3 0.831639 0.967558 0.600755
Si Si4 0.564664 0.966451 0.087742
Si Si5 0.435642 0.543925 0.281288
Si Si6 0.827073 0.042462 0.818701
Si Si7 0.096553 0.459326 0.056486
Si Si8 0.169633 0.468313 0.797472
O O1 0.912037 0.750000 0.474374
O O2 0.905014 0.031222 0.403631
O O3 0.864935 0.027596 0.531941
O O4 0.000000 0.000000 0.500000
O O5 0.586875 0.750000 0.331314
O O6 0.510988 0.467931 0.302389
O O7 0.645099 0.478516 0.275146
O O8 0.750000 0.022123 0.608975
O O9 0.833924 0.750000 0.603204
O O10 0.882657 0.037113 0.657507
O O11 0.566336 0.750000 0.087694
O O12 0.612207 0.027318 0.148446
O O13 0.481901 0.016474 0.087238
O O14 0.593914 0.029999 0.017427
O O15 0.451967 0.750000 0.262987
O O16 0.391446 0.460069 0.222216
O O17 0.750000 0.961740 0.806010
O O18 0.823453 0.250000 0.797983
O O19 0.846851 0.039549 0.894370
O O20 0.111932 0.250000 0.052577
O O21 0.250000 0.525434 0.811878
O O22 0.168994 0.250000 0.798862
#
# Coordination Sequence:
#
# PCOD9448500 Si02
#       8
#     8   8   8   8   8   8   8   8
#     4  10  19  33  52  75 104 136 170 209 255 307
#     4   9  17  29  50  77 101 128 167 213 254 299
#     4  10  21  34  49  74 107 137 165 208 267 317
#     4   9  18  34  55  78 106 138 174 220 265 311
#     4  10  19  34  55  75  98 133 177 217 254 306
#     4  10  21  35  51  74 106 141 174 214 265 315
#     4  10  20  33  53  79 105 138 179 219 263 315
#     4   9  17  30  51  79 106 133 170 217 266 310
#
# _framework density 22.174963000000002
#
# number of rings (size 3 to 8) (size 9 to 14) (size 15 to 20)
#    0.000    2.375    1.250    1.500    0.000    5.000 
#    0.000    3.750    0.000    0.375    0.000    0.000 
#    0.000    0.000    0.000    0.000    0.000    0.000 
#
# Total GULP energy -357449.768587 kJ/mol
# GULP energy per Si atom -5585.152634 kJ/mol
# Density = 2.212449 g / cm^3
# Si number density = 22.174963 Si / 1000 Ang^3
#
#
#
# Elastic Constant Matrix: (Units=GPa)
#
#
# Indices 1 2 3 4 5 6 
#
# 1 40.2370 -10.5898 13.3947 0.0000 0.0000 0.0000
# 2 -10.5898 63.6710 -6.7168 0.0000 0.0000 0.0000
# 3 13.3947 -6.7168 112.3143 0.0000 0.0000 0.0000
# 4 0.0000 0.0000 0.0000 14.1305 0.0000 0.0000
# 5 0.0000 0.0000 0.0000 0.0000 14.6459 0.0000
# 6 0.0000 0.0000 0.0000 0.0000 0.0000 6.9858
#
#
#
# Elastic Compliance Matrix: (Units=1/GPa)
#
#
# Indices 1 2 3 4 5 6 
#
# 1 0.026936 0.004167 -0.002963 0.000000 0.000000 0.000000
# 2 0.004167 0.016450 0.000487 0.000000 0.000000 0.000000
# 3 -0.002963 0.000487 0.009286 0.000000 0.000000 0.000000
# 4 0.000000 0.000000 0.000000 0.070769 0.000000 0.000000
# 5 0.000000 0.000000 0.000000 0.000000 0.068279 0.000000
# 6 0.000000 0.000000 0.000000 0.000000 0.000000 0.143147
#
#
# Mechanical properties :
#
#
# Convention : Reuss Voigt Hill
#
# Bulk Modulus (GPa) = 17.83985 23.15539 20.49762
# Shear Modulus (GPa) = 14.27879 21.82805 18.05342
#
# Velocity S-wave (km/s) = 2.54030 3.14085 2.85640
# Velocity P-wave (km/s) = 4.08248 4.85984 4.48802
#
# Compressibility (1/GPa) = 0.05605427
#
# Stress axis : x y z
#
# Youngs Moduli (GPa) = 37.12510 60.78949 107.68803
#
# Poissons Ratio (x) = -0.25333 0.31910
# Poissons Ratio (y) = -0.15472 -0.05242
# Poissons Ratio (z) = 0.11001 -0.02959
#
# Static dielectric constant tensor:
#      x y z
#    x 1.780790 0.000000 0.000000 
#    y 0.000000 1.861720 0.000000 
#    z 0.000000 0.000000 1.813410 
# 
# From -- ./inp_files/30648.got.cif
#   From: 2010.05.17/outbox.cif.g08.bks.cpg/sg59_16_cif.got.tgz:30648.got - 2010.06.03 14:40:33.
