data_PCOD9448660
_publ_section_title
;
Structure prediction by ZEFSAII (Michael W. Deem and Ramdas Pophale) SiO2 
 PCOD9448660
Probable space group: P M M N
;
_chemical_formula_sum "Si O2"
_cell_formula_units_Z 40
_cell_length_a 7.562331
_cell_length_b 16.698330
_cell_length_c 14.160812
_cell_angle_alpha 90.000000
_cell_angle_beta 90.000000
_cell_angle_gamma 90.000000
_cell_volume 1788.203246
_symmetry_space_group_name_H-M "P M M N"
_symmetry_group_IT_number 59
_space_group.IT_coordinate_system_code '2'
_symmetry_cell_setting 'orthorhombic'
loop_
_space_group_symop_operation_xyz
x,y,z
1/2-x,1/2-y,z
1/2+x,-y,-z
-x,1/2+y,-z
-x,-y,-z
1/2+x,1/2+y,-z
1/2-x,y,z
x,1/2-y,z
loop_
_atom_site_type_symbol
_atom_site_label
_atom_site_fract_x
_atom_site_fract_y
_atom_site_fract_z
Si Si1 0.450218 0.571910 0.070309
Si Si2 0.533116 0.088971 0.718440
Si Si3 0.537857 0.838664 0.895380
Si Si4 0.534362 0.586803 0.704351
Si Si5 0.964369 0.250000 0.613479
Si Si6 0.958412 0.750000 0.606917
O O1 0.250000 0.553670 0.094355
O O2 0.532258 0.587616 0.172441
O O3 0.500000 0.500000 0.000000
O O4 0.465372 0.646078 0.999197
O O5 0.750000 0.091839 0.716355
O O6 0.473908 0.168704 0.664910
O O7 0.480127 0.002636 0.674980
O O8 0.750000 0.844140 0.902622
O O9 0.492100 0.750000 0.861587
O O10 0.481063 0.899704 0.813928
O O11 0.750000 0.587634 0.701592
O O12 0.471415 0.665432 0.648115
O O13 0.750000 0.250000 0.616220
O O14 0.020224 0.250000 0.504938
O O15 0.750000 0.750000 0.632165
#
# Coordination Sequence:
#
# PCOD9448660 Si02
#       6
#     8   8   8   8   4   4
#     4  11  21  34  55  82 114 150 191 229 270 328
#     4   9  19  35  56  77 106 149 187 214 260 337
#     4  10  19  33  54  82 114 149 187 226 274 331
#     4   9  16  32  58  82 104 140 184 220 266 335
#     4  10  22  40  57  76 106 144 183 224 273 330
#     4  10  20  36  61  84 102 132 181 234 279 326
#
# _framework density 22.368822000000002
#
# number of rings (size 3 to 8) (size 9 to 14) (size 15 to 20)
#    0.000    2.200    3.000    0.600    1.400    1.200 
#    0.000    3.000    0.000    0.000    0.000    0.000 
#    0.000    0.000    0.000    0.000    0.000    0.000 
#
# Total GULP energy -223109.760631 kJ/mol
# GULP energy per Si atom -5577.744016 kJ/mol
# Density = 2.231791 g / cm^3
# Si number density = 22.368822 Si / 1000 Ang^3
#
#
#
# Elastic Constant Matrix: (Units=GPa)
#
#
# Indices 1 2 3 4 5 6 
#
# 1 39.3693 2.8703 -7.3048 0.0000 0.0000 0.0000
# 2 2.8703 199.4211 88.4233 0.0000 0.0000 0.0000
# 3 -7.3048 88.4233 130.9908 0.0000 0.0000 0.0000
# 4 0.0000 0.0000 0.0000 29.6337 0.0000 0.0000
# 5 0.0000 0.0000 0.0000 0.0000 20.3724 0.0000
# 6 0.0000 0.0000 0.0000 0.0000 0.0000 4.9346
#
#
#
# Elastic Compliance Matrix: (Units=1/GPa)
#
#
# Indices 1 2 3 4 5 6 
#
# 1 0.025956 -0.001449 0.002426 0.000000 0.000000 0.000000
# 2 -0.001449 0.007237 -0.004966 0.000000 0.000000 0.000000
# 3 0.002426 -0.004966 0.011122 0.000000 0.000000 0.000000
# 4 0.000000 0.000000 0.000000 0.033745 0.000000 0.000000
# 5 0.000000 0.000000 0.000000 0.000000 0.049086 0.000000
# 6 0.000000 0.000000 0.000000 0.000000 0.000000 0.202652
#
#
# Mechanical properties :
#
#
# Convention : Reuss Voigt Hill
#
# Bulk Modulus (GPa) = 27.52097 59.75099 43.63598
# Shear Modulus (GPa) = 14.29021 30.04096 22.16558
#
# Velocity S-wave (km/s) = 2.53028 3.66865 3.15129
# Velocity P-wave (km/s) = 4.56798 6.68693 5.72632
#
# Compressibility (1/GPa) = 0.03633593
#
# Stress axis : x y z
#
# Youngs Moduli (GPa) = 38.52639 138.17026 89.91312
#
# Poissons Ratio (x) = 0.20023 -0.21810
# Poissons Ratio (y) = 0.05583 0.44654
# Poissons Ratio (z) = -0.09345 0.68620
#
# Static dielectric constant tensor:
#      x y z
#    x 1.860750 0.000000 0.000000 
#    y 0.000000 1.886540 0.000000 
#    z 0.000000 0.000000 1.841960 
# 
# From -- ./inp_files/20017.got.cif
#   From: 2010.05.17/outbox.cif.g08.bks.cpg/sg59_11_cif.got.tgz:20017.got - 2010.06.03 14:40:33.
