data_PCOD9448563
_publ_section_title
;
Structure prediction by ZEFSAII (Michael W. Deem and Ramdas Pophale) SiO2 
 PCOD9448563
Probable space group: P M M N
;
_chemical_formula_sum "Si O2"
_cell_formula_units_Z 40
_cell_length_a 17.630828
_cell_length_b 14.489665
_cell_length_c 9.147517
_cell_angle_alpha 90.000000
_cell_angle_beta 90.000000
_cell_angle_gamma 90.000000
_cell_volume 2336.868522
_symmetry_space_group_name_H-M "P M M N"
_symmetry_group_IT_number 59
_space_group.IT_coordinate_system_code '2'
_symmetry_cell_setting 'orthorhombic'
loop_
_space_group_symop_operation_xyz
x,y,z
1/2-x,1/2-y,z
1/2+x,-y,-z
-x,1/2+y,-z
-x,-y,-z
1/2+x,1/2+y,-z
1/2-x,y,z
x,1/2-y,z
loop_
_atom_site_type_symbol
_atom_site_label
_atom_site_fract_x
_atom_site_fract_y
_atom_site_fract_z
Si Si1 0.163729 0.033303 0.601753
Si Si2 0.334379 0.643278 0.801700
Si Si3 0.444132 0.003540 0.359788
Si Si4 0.499762 0.358838 0.109795
Si Si5 0.963963 0.859667 0.216270
O O1 0.250000 0.065907 0.612480
O O2 0.135372 0.025653 0.435153
O O3 0.106759 0.096712 0.696330
O O4 0.159610 0.930980 0.672314
O O5 0.250000 0.630839 0.868761
O O6 0.338542 0.750000 0.751052
O O7 0.408904 0.628133 0.899711
O O8 0.469499 0.080526 0.243616
O O9 0.500000 0.000000 0.500000
O O10 0.460208 0.906607 0.281204
O O11 0.486513 0.250000 0.136769
O O12 0.461952 0.383784 0.955553
O O13 0.965261 0.750000 0.231497
#
# Coordination Sequence:
#
# PCOD9448563 Si02
#       5
#     8   8   8   8   8
#     4  10  21  37  54  79 109 143 183 224 274 327
#     4   9  17  30  51  78 106 137 172 216 273 327
#     4  10  19  33  53  80 106 138 177 224 268 322
#     4  10  19  34  56  80 107 141 184 226 267 323
#     4  10  21  35  55  80 108 145 184 224 269 322
#
# _framework density 17.116924000000001
#
# number of rings (size 3 to 8) (size 9 to 14) (size 15 to 20)
#    0.000    2.200    4.000    0.600    0.000    4.400 
#    0.000    2.000    0.000    2.400    0.000    0.000 
#    0.000    0.000    0.000    0.000    0.000    0.000 
#
# Total GULP energy -222674.884309 kJ/mol
# GULP energy per Si atom -5566.872108 kJ/mol
# Density = 1.707797 g / cm^3
# Si number density = 17.116924 Si / 1000 Ang^3
#
#
#
# Elastic Constant Matrix: (Units=GPa)
#
#
# Indices 1 2 3 4 5 6 
#
# 1 98.7863 37.1169 50.3140 0.0000 0.0000 0.0000
# 2 37.1169 82.9550 53.0360 0.0000 0.0000 0.0000
# 3 50.3140 53.0360 103.3812 0.0000 0.0000 0.0000
# 4 0.0000 0.0000 0.0000 9.6202 0.0000 0.0000
# 5 0.0000 0.0000 0.0000 0.0000 19.6482 0.0000
# 6 0.0000 0.0000 0.0000 0.0000 0.0000 13.2109
#
#
#
# Elastic Compliance Matrix: (Units=1/GPa)
#
#
# Indices 1 2 3 4 5 6 
#
# 1 0.013888 -0.002816 -0.005314 0.000000 0.000000 0.000000
# 2 -0.002816 0.018509 -0.008125 0.000000 0.000000 0.000000
# 3 -0.005314 -0.008125 0.016427 0.000000 0.000000 0.000000
# 4 0.000000 0.000000 0.000000 0.103948 0.000000 0.000000
# 5 0.000000 0.000000 0.000000 0.000000 0.050895 0.000000
# 6 0.000000 0.000000 0.000000 0.000000 0.000000 0.075695
#
#
# Mechanical properties :
#
#
# Convention : Reuss Voigt Hill
#
# Bulk Modulus (GPa) = 61.29784 62.89516 62.09650
# Shear Modulus (GPa) = 15.75742 18.13958 16.94850
#
# Velocity S-wave (km/s) = 3.03739 3.25890 3.15010
# Velocity P-wave (km/s) = 6.94190 7.14036 7.04183
#
# Compressibility (1/GPa) = 0.01631379
#
# Stress axis : x y z
#
# Youngs Moduli (GPa) = 72.00670 54.02662 60.87387
#
# Poissons Ratio (x) = 0.15216 0.32349
# Poissons Ratio (y) = 0.20279 0.49460
# Poissons Ratio (z) = 0.38265 0.43896
#
# Static dielectric constant tensor:
#      x y z
#    x 1.626510 0.000000 0.000000 
#    y 0.000000 1.589420 0.000000 
#    z 0.000000 0.000000 1.574430 
# 
# From -- ./inp_files/8788.got.cif
#   From: 2010.05.17/outbox.cif.g08.bks.cpg/sg59_5_cif.got.tgz:8788.got - 2010.06.03 14:40:33.
