data_PCOD9448092
_publ_section_title
;
Structure prediction by ZEFSAII (Michael W. Deem and Ramdas Pophale) SiO2 
 PCOD9448092
Probable space group: P M M N
;
_chemical_formula_sum "Si O2"
_cell_formula_units_Z 64
_cell_length_a 9.077818
_cell_length_b 28.913168
_cell_length_c 15.840580
_cell_angle_alpha 90.000000
_cell_angle_beta 90.000000
_cell_angle_gamma 90.000000
_cell_volume 4157.652906
_symmetry_space_group_name_H-M "P M M N"
_symmetry_group_IT_number 59
_space_group.IT_coordinate_system_code '2'
_symmetry_cell_setting 'orthorhombic'
loop_
_space_group_symop_operation_xyz
x,y,z
1/2-x,1/2-y,z
1/2+x,-y,-z
-x,1/2+y,-z
-x,-y,-z
1/2+x,1/2+y,-z
1/2-x,y,z
x,1/2-y,z
loop_
_atom_site_type_symbol
_atom_site_label
_atom_site_fract_x
_atom_site_fract_y
_atom_site_fract_z
Si Si1 0.075720 0.694841 0.501680
Si Si2 0.425211 0.545739 0.399447
Si Si3 0.424488 0.550912 0.599890
Si Si4 0.573059 0.144231 0.672927
Si Si5 0.419534 0.193889 0.016085
Si Si6 0.575894 0.305340 0.188008
Si Si7 0.427933 0.196065 0.827776
Si Si8 0.074367 0.143034 0.343057
O O1 0.250000 0.684592 0.515821
O O2 0.057239 0.750000 0.501461
O O3 0.035204 0.673616 0.410960
O O4 0.984042 0.671578 0.576081
O O5 0.250000 0.537250 0.389989
O O6 0.450013 0.556555 0.498830
O O7 0.514451 0.499713 0.377650
O O8 0.466013 0.591011 0.346329
O O9 0.250000 0.554177 0.614551
O O10 0.509085 0.591644 0.647110
O O11 0.750000 0.146890 0.682733
O O12 0.496047 0.165539 0.754221
O O13 0.250000 0.178873 0.029043
O O14 0.417498 0.250000 0.013661
O O15 0.470665 0.180021 0.922374
O O16 0.518937 0.180530 0.095221
O O17 0.750000 0.313355 0.196495
O O18 0.550290 0.250000 0.197223
O O19 0.488801 0.332218 0.260113
O O20 0.250000 0.194717 0.824667
O O21 0.472196 0.250000 0.816878
O O22 0.250000 0.142163 0.341778
#
# Coordination Sequence:
#
# PCOD9448092 Si02
#       8
#     8   8   8   8   8   8   8   8
#     4  10  20  34  48  64  94 134 170 202 238 279
#     4   9  18  33  51  71  95 122 159 204 249 290
#     4  10  19  34  53  70  93 123 160 204 249 290
#     4  10  19  32  49  70  97 130 164 200 241 287
#     4   8  15  30  49  68  94 127 161 201 246 284
#     4  10  20  33  50  72  98 128 163 203 244 288
#     4   9  18  31  47  70 101 133 165 203 242 282
#     4  12  23  33  48  70  97 129 165 200 241 291
#
# _framework density 15.3933
#
# number of rings (size 3 to 8) (size 9 to 14) (size 15 to 20)
#    0.000    2.250    1.250    3.375    0.000    5.250 
#    0.000    1.250    0.000    0.000    0.000    0.875 
#    0.000    0.000    0.000    0.000    0.000    0.000 
#
# Total GULP energy -357046.837245 kJ/mol
# GULP energy per Si atom -5578.856832 kJ/mol
# Density = 1.535826 g / cm^3
# Si number density = 15.393300 Si / 1000 Ang^3
#
#
#
# Elastic Constant Matrix: (Units=GPa)
#
#
# Indices 1 2 3 4 5 6 
#
# 1 75.2743 61.8342 67.9963 0.0000 0.0000 0.0000
# 2 61.8342 90.0846 67.1170 0.0000 0.0000 0.0000
# 3 67.9963 67.1170 128.2466 0.0000 0.0000 0.0000
# 4 0.0000 0.0000 0.0000 5.3064 0.0000 0.0000
# 5 0.0000 0.0000 0.0000 0.0000 27.5982 0.0000
# 6 0.0000 0.0000 0.0000 0.0000 0.0000 25.4148
#
#
#
# Elastic Compliance Matrix: (Units=1/GPa)
#
#
# Indices 1 2 3 4 5 6 
#
# 1 0.037473 -0.017897 -0.010502 0.000000 0.000000 0.000000
# 2 -0.017897 0.026743 -0.004507 0.000000 0.000000 0.000000
# 3 -0.010502 -0.004507 0.015724 0.000000 0.000000 0.000000
# 4 0.000000 0.000000 0.000000 0.188451 0.000000 0.000000
# 5 0.000000 0.000000 0.000000 0.000000 0.036234 0.000000
# 6 0.000000 0.000000 0.000000 0.000000 0.000000 0.039347
#
#
# Mechanical properties :
#
#
# Convention : Reuss Voigt Hill
#
# Bulk Modulus (GPa) = 70.77794 76.38893 73.58343
# Shear Modulus (GPa) = 12.06296 18.10776 15.08536
#
# Velocity S-wave (km/s) = 2.80241 3.43350 3.13388
# Velocity P-wave (km/s) = 7.52003 8.09019 7.81031
#
# Compressibility (1/GPa) = 0.01412870
#
# Stress axis : x y z
#
# Youngs Moduli (GPa) = 26.68618 37.39306 63.59702
#
# Poissons Ratio (x) = 0.66922 0.66787
# Poissons Ratio (y) = 0.47760 0.28661
# Poissons Ratio (z) = 0.28025 0.16852
#
# Static dielectric constant tensor:
#      x y z
#    x 1.512890 0.000000 0.000000 
#    y 0.000000 1.497280 0.000000 
#    z 0.000000 0.000000 1.499650 
# 
# From -- ./inp_files/21888.got.cif
#   From: 2010.05.17/outbox.cif.g08.bks.cpg/sg59_11_cif.got.tgz:21888.got - 2010.06.03 14:40:33.
