data_PCOD9448178
_publ_section_title
;
Structure prediction by ZEFSAII (Michael W. Deem and Ramdas Pophale) SiO2 
 PCOD9448178
Probable space group: P M M N
;
_chemical_formula_sum "Si O2"
_cell_formula_units_Z 64
_cell_length_a 20.719794
_cell_length_b 7.854752
_cell_length_c 20.723872
_cell_angle_alpha 90.000000
_cell_angle_beta 90.000000
_cell_angle_gamma 90.000000
_cell_volume 3372.786198
_symmetry_space_group_name_H-M "P M M N"
_symmetry_group_IT_number 59
_space_group.IT_coordinate_system_code '2'
_symmetry_cell_setting 'orthorhombic'
loop_
_space_group_symop_operation_xyz
x,y,z
1/2-x,1/2-y,z
1/2+x,-y,-z
-x,1/2+y,-z
-x,-y,-z
1/2+x,1/2+y,-z
1/2-x,y,z
x,1/2-y,z
loop_
_atom_site_type_symbol
_atom_site_label
_atom_site_fract_x
_atom_site_fract_y
_atom_site_fract_z
Si Si1 0.176338 0.457700 0.445316
Si Si2 0.468277 0.449062 0.828307
Si Si3 0.565940 0.546034 0.311586
Si Si4 0.580680 0.543556 0.666379
Si Si5 0.176391 0.458220 0.592722
Si Si6 0.822504 0.956215 0.934534
Si Si7 0.933211 0.449713 0.034740
Si Si8 0.610578 0.947432 0.807874
O O1 0.250000 0.508958 0.429721
O O2 0.175485 0.250000 0.444641
O O3 0.124512 0.516160 0.392872
O O4 0.162049 0.510317 0.518893
O O5 0.483772 0.250000 0.818795
O O6 0.433431 0.511963 0.763184
O O7 0.430340 0.467105 0.894734
O O8 0.536947 0.542671 0.833166
O O9 0.573068 0.750000 0.310744
O O10 0.494364 0.505786 0.337628
O O11 0.622860 0.479214 0.357086
O O12 0.582655 0.750000 0.667832
O O13 0.607863 0.479673 0.735531
O O14 0.250000 0.509354 0.608240
O O15 0.175622 0.250000 0.593115
O O16 0.750000 0.012571 0.949285
O O17 0.823042 0.750000 0.931589
O O18 0.845291 0.022055 0.864238
O O19 0.874215 0.006358 0.988163
O O20 0.934734 0.250000 0.045377
O O21 0.000000 0.500000 0.000000
O O22 0.629558 0.750000 0.800753
#
# Coordination Sequence:
#
# PCOD9448178 Si02
#       8
#     8   8   8   8   8   8   8   8
#     4   8  14  25  43  68  97 129 168 211 249 291
#     4  10  19  32  51  75 100 128 165 209 254 303
#     4   9  18  31  48  72 100 128 164 209 254 300
#     4   9  17  28  45  72 102 131 164 203 249 296
#     4   8  14  27  47  69  94 128 170 212 252 295
#     4  10  21  36  53  76 106 137 172 213 253 298
#     4  12  23  36  57  80 102 133 172 212 255 307
#     4   9  17  30  48  70  99 134 167 202 248 299
#
# _framework density 18.97541
#
# number of rings (size 3 to 8) (size 9 to 14) (size 15 to 20)
#    0.000    2.625    1.250    2.250    0.000    1.750 
#    0.000    3.125    0.000    3.000    0.000    5.250 
#    0.000    0.000    0.000    0.000    0.000    0.000 
#
# Total GULP energy -356863.477756 kJ/mol
# GULP energy per Si atom -5575.991840 kJ/mol
# Density = 1.893222 g / cm^3
# Si number density = 18.975410 Si / 1000 Ang^3
#
#
#
# Elastic Constant Matrix: (Units=GPa)
#
#
# Indices 1 2 3 4 5 6 
#
# 1 131.0607 -3.9049 108.9771 0.0000 0.0000 0.0000
# 2 -3.9049 23.2366 -0.1701 0.0000 0.0000 0.0000
# 3 108.9771 -0.1701 152.4874 0.0000 0.0000 0.0000
# 4 0.0000 0.0000 0.0000 7.7099 0.0000 0.0000
# 5 0.0000 0.0000 0.0000 0.0000 32.7325 0.0000
# 6 0.0000 0.0000 0.0000 0.0000 0.0000 17.9464
#
#
#
# Elastic Compliance Matrix: (Units=1/GPa)
#
#
# Indices 1 2 3 4 5 6 
#
# 1 0.019025 0.003098 -0.013593 0.000000 0.000000 0.000000
# 2 0.003098 0.043540 -0.002165 0.000000 0.000000 0.000000
# 3 -0.013593 -0.002165 0.016270 0.000000 0.000000 0.000000
# 4 0.000000 0.000000 0.000000 0.129703 0.000000 0.000000
# 5 0.000000 0.000000 0.000000 0.000000 0.030551 0.000000
# 6 0.000000 0.000000 0.000000 0.000000 0.000000 0.055722
#
#
# Mechanical properties :
#
#
# Convention : Reuss Voigt Hill
#
# Bulk Modulus (GPa) = 18.68672 57.39877 38.04275
# Shear Modulus (GPa) = 14.79424 25.13661 19.96543
#
# Velocity S-wave (km/s) = 2.79526 3.64358 3.24724
# Velocity P-wave (km/s) = 4.50413 6.92933 5.84392
#
# Compressibility (1/GPa) = 0.05351393
#
# Stress axis : x y z
#
# Youngs Moduli (GPa) = 52.56279 22.96730 61.46335
#
# Poissons Ratio (x) = -0.07114 0.83547
# Poissons Ratio (y) = -0.16282 0.13308
# Poissons Ratio (z) = 0.71448 0.04973
#
# Static dielectric constant tensor:
#      x y z
#    x 1.626900 0.000000 0.000000 
#    y 0.000000 1.699040 0.000000 
#    z 0.000000 0.000000 1.670260 
# 
# From -- ./inp_files/31030.got.cif
#   From: 2010.05.17/outbox.cif.g08.bks.cpg/sg59_16_cif.got.tgz:31030.got - 2010.06.03 14:40:33.
