data_PCOD9448924
_publ_section_title
;
Structure prediction by ZEFSAII (Michael W. Deem and Ramdas Pophale) SiO2 
 PCOD9448924
Probable space group: P M M N
;
_chemical_formula_sum "Si O2"
_cell_formula_units_Z 58
_cell_length_a 10.566794
_cell_length_b 25.231130
_cell_length_c 10.290209
_cell_angle_alpha 90.000000
_cell_angle_beta 90.000000
_cell_angle_gamma 90.000000
_cell_volume 2743.494777
_symmetry_space_group_name_H-M "P M M N"
_symmetry_group_IT_number 59
_space_group.IT_coordinate_system_code '2'
_symmetry_cell_setting 'orthorhombic'
loop_
_space_group_symop_operation_xyz
x,y,z
1/2-x,1/2-y,z
1/2+x,-y,-z
-x,1/2+y,-z
-x,-y,-z
1/2+x,1/2+y,-z
1/2-x,y,z
x,1/2-y,z
loop_
_atom_site_type_symbol
_atom_site_label
_atom_site_fract_x
_atom_site_fract_y
_atom_site_fract_z
Si Si1 0.502005 0.676416 0.340344
Si Si2 0.388317 0.893914 0.681465
Si Si3 0.892445 0.576834 0.021060
Si Si4 0.400063 0.306475 0.944403
Si Si5 0.396131 0.188919 0.371313
Si Si6 0.106146 0.567145 0.385945
Si Si7 0.988941 0.512827 0.800948
Si Si8 0.750000 0.250000 0.647597
O O1 0.572780 0.693307 0.209921
O O2 0.577782 0.687467 0.473001
O O3 0.479723 0.613833 0.329818
O O4 0.364366 0.704437 0.351718
O O5 0.250000 0.868251 0.694735
O O6 0.501538 0.851463 0.688126
O O7 0.394536 0.920759 0.538793
O O8 0.403694 0.943306 0.777711
O O9 0.750000 0.582186 0.073417
O O10 0.947483 0.636271 0.007169
O O11 0.968925 0.537449 0.114295
O O12 0.889889 0.546433 0.884224
O O13 0.250000 0.305636 0.970427
O O14 0.453250 0.250000 0.995075
O O15 0.250000 0.174241 0.344282
O O16 0.415188 0.250000 0.329372
O O17 0.250000 0.573107 0.338992
O O18 0.059420 0.510731 0.334679
#
# Coordination Sequence:
#
# PCOD9448924 Si02
#       8
#     8   8   8   8   8   8   8   2
#     4  11  19  31  52  85 121 156 194 236 303 355
#     4  10  23  39  61  88 121 156 199 249 308 364
#     4  10  22  37  59  85 111 154 201 251 305 357
#     4  10  19  34  56  82 114 149 193 246 300 357
#     4  10  21  36  57  87 121 158 201 242 294 357
#     4  10  20  34  54  85 118 155 198 244 298 362
#     4  11  21  39  59  81 117 156 204 253 296 361
#     4  12  20  28  54  84 128 162 190 244 298 368
#
# _framework density 21.140920000000001
#
# number of rings (size 3 to 8) (size 9 to 14) (size 15 to 20)
#    0.000    1.655    3.448    1.655    0.966    2.483 
#    0.000    2.759    1.517    1.655    0.000    0.000 
#    0.000    0.000    0.000    0.000    0.000    0.000 
#
# Total GULP energy -322873.853396 kJ/mol
# GULP energy per Si atom -5566.790576 kJ/mol
# Density = 2.109280 g / cm^3
# Si number density = 21.140920 Si / 1000 Ang^3
#
#
#
# Elastic Constant Matrix: (Units=GPa)
#
#
# Indices 1 2 3 4 5 6 
#
# 1 87.9660 50.2815 10.3276 0.0000 0.0000 0.0000
# 2 50.2815 167.5350 26.6502 0.0000 0.0000 0.0000
# 3 10.3276 26.6502 29.7773 0.0000 0.0000 0.0000
# 4 0.0000 0.0000 0.0000 -0.6044 0.0000 0.0000
# 5 0.0000 0.0000 0.0000 0.0000 9.4453 0.0000
# 6 0.0000 0.0000 0.0000 0.0000 0.0000 27.7208
#
#
#
# Elastic Compliance Matrix: (Units=1/GPa)
#
#
# Indices 1 2 3 4 5 6 
#
# 1 0.013762 -0.003931 -0.001255 0.000000 0.000000 0.000000
# 2 -0.003931 0.008082 -0.005870 0.000000 0.000000 0.000000
# 3 -0.001255 -0.005870 0.039272 0.000000 0.000000 0.000000
# 4 0.000000 0.000000 0.000000 -1.654611 0.000000 0.000000
# 5 0.000000 0.000000 0.000000 0.000000 0.105873 0.000000
# 6 0.000000 0.000000 0.000000 0.000000 0.000000 0.036074
#
#
# Mechanical properties :
#
#
# Convention : Reuss Voigt Hill
#
# Bulk Modulus (GPa) = 25.63842 51.08853 38.36348
# Shear Modulus (GPa) = -3.52999 20.51360 8.49180
#
# Velocity S-wave (km/s) = -1.29359 3.11839 2.00636
# Velocity P-wave (km/s) = 3.15001 6.09786 4.85317
#
# Compressibility (1/GPa) = 0.03900397
#
# Stress axis : x y z
#
# Youngs Moduli (GPa) = 72.66286 123.72531 25.46349
#
# Poissons Ratio (x) = 0.48633 0.03196
# Poissons Ratio (y) = 0.28562 0.14948
# Poissons Ratio (z) = 0.09121 0.72631
#
# Static dielectric constant tensor:
#      x y z
#    x 1.743370 0.000000 0.000000 
#    y 0.000000 1.798280 0.000000 
#    z 0.000000 0.000000 1.791810 
# 
# From -- ./inp_files/14650.got.cif
#   From: 2010.05.17/outbox.cif.g08.bks.cpg/sg59_8_cif.got.tgz:14650.got - 2010.06.03 14:40:33.
