data_PCOD9448819
_publ_section_title
;
Structure prediction by ZEFSAII (Michael W. Deem and Ramdas Pophale) SiO2 
 PCOD9448819
Probable space group: P M M N
;
_chemical_formula_sum "Si O2"
_cell_formula_units_Z 48
_cell_length_a 18.394071
_cell_length_b 12.876722
_cell_length_c 10.972161
_cell_angle_alpha 90.000000
_cell_angle_beta 90.000000
_cell_angle_gamma 90.000000
_cell_volume 2598.814910
_symmetry_space_group_name_H-M "P M M N"
_symmetry_group_IT_number 59
_space_group.IT_coordinate_system_code '2'
_symmetry_cell_setting 'orthorhombic'
loop_
_space_group_symop_operation_xyz
x,y,z
1/2-x,1/2-y,z
1/2+x,-y,-z
-x,1/2+y,-z
-x,-y,-z
1/2+x,1/2+y,-z
1/2-x,y,z
x,1/2-y,z
loop_
_atom_site_type_symbol
_atom_site_label
_atom_site_fract_x
_atom_site_fract_y
_atom_site_fract_z
Si Si1 0.883012 0.018267 0.507382
Si Si2 0.497893 0.372809 0.355104
Si Si3 0.333251 0.625670 0.249302
Si Si4 0.832276 0.625959 0.038214
Si Si5 0.164660 0.366309 0.698332
Si Si6 0.551552 0.982110 0.883573
O O1 0.840781 0.074474 0.616343
O O2 0.929364 0.101369 0.430229
O O3 0.936077 0.934489 0.570892
O O4 0.842479 0.948402 0.408357
O O5 0.485606 0.250000 0.347371
O O6 0.494026 0.426829 0.223083
O O7 0.250000 0.603710 0.204725
O O8 0.340984 0.750000 0.256099
O O9 0.400675 0.578234 0.170891
O O10 0.750000 0.585233 0.022297
O O11 0.828579 0.750000 0.042507
O O12 0.864643 0.595417 0.170910
O O13 0.884482 0.592717 0.930896
O O14 0.250000 0.354370 0.722075
O O15 0.135304 0.250000 0.669085
O O16 0.500000 0.000000 0.000000
#
# Coordination Sequence:
#
# PCOD9448819 Si02
#       6
#     8   8   8   8   8   8
#     4  10  19  34  54  76 105 138 174 219 271 325
#     4  10  21  34  50  75 104 135 173 217 267 324
#     4  10  22  39  58  80 108 146 189 230 275 331
#     4   9  18  33  53  77 106 140 178 221 269 324
#     4   9  17  30  51  78 104 132 170 216 265 317
#     4  11  22  36  55  79 108 143 181 226 276 325
#
# _framework density 18.469957000000001
#
# number of rings (size 3 to 8) (size 9 to 14) (size 15 to 20)
#    0.000    2.167    0.000    4.500    0.000    1.333 
#    0.000    4.167    0.000    8.000    0.000    7.000 
#    0.000    0.000    0.000    0.000    0.000    0.000 
#
# Total GULP energy -267330.644407 kJ/mol
# GULP energy per Si atom -5569.388425 kJ/mol
# Density = 1.842792 g / cm^3
# Si number density = 18.469957 Si / 1000 Ang^3
#
#
#
# Elastic Constant Matrix: (Units=GPa)
#
#
# Indices 1 2 3 4 5 6 
#
# 1 58.9917 29.8145 24.8518 0.0000 0.0000 0.0000
# 2 29.8145 96.3096 32.6952 0.0000 0.0000 0.0000
# 3 24.8518 32.6952 78.2955 0.0000 0.0000 0.0000
# 4 0.0000 0.0000 0.0000 25.5272 0.0000 0.0000
# 5 0.0000 0.0000 0.0000 0.0000 26.3672 0.0000
# 6 0.0000 0.0000 0.0000 0.0000 0.0000 -21.8656
#
#
#
# Elastic Compliance Matrix: (Units=1/GPa)
#
#
# Indices 1 2 3 4 5 6 
#
# 1 0.021490 -0.005053 -0.004711 0.000000 0.000000 0.000000
# 2 -0.005053 0.013287 -0.003944 0.000000 0.000000 0.000000
# 3 -0.004711 -0.003944 0.015915 0.000000 0.000000 0.000000
# 4 0.000000 0.000000 0.000000 0.039174 0.000000 0.000000
# 5 0.000000 0.000000 0.000000 0.000000 0.037926 0.000000
# 6 0.000000 0.000000 0.000000 0.000000 0.000000 -0.045734
#
#
# Mechanical properties :
#
#
# Convention : Reuss Voigt Hill
#
# Bulk Modulus (GPa) = 42.96655 45.36886 44.16771
# Shear Modulus (GPa) = 42.65032 15.75478 29.20255
#
# Velocity S-wave (km/s) = 4.81060 2.92378 3.98060
# Velocity P-wave (km/s) = 7.35998 6.00124 6.71506
#
# Compressibility (1/GPa) = 0.02327392
#
# Stress axis : x y z
#
# Youngs Moduli (GPa) = 46.53290 75.26395 62.83572
#
# Poissons Ratio (x) = 0.38034 0.29602
# Poissons Ratio (y) = 0.23515 0.24784
# Poissons Ratio (z) = 0.21921 0.29686
#
# Static dielectric constant tensor:
#      x y z
#    x 1.661830 0.000000 0.000000 
#    y 0.000000 1.615610 0.000000 
#    z 0.000000 0.000000 1.673650 
# 
# From -- ./inp_files/15764.got.cif
#   From: 2010.05.17/outbox.cif.g08.bks.cpg/sg59_8_cif.got.tgz:15764.got - 2010.06.03 14:40:33.
