data_PCOD9448040
_publ_section_title
;
Structure prediction by ZEFSAII (Michael W. Deem and Ramdas Pophale) SiO2 
 PCOD9448040
Probable space group: P M M N
;
_chemical_formula_sum "Si O2"
_cell_formula_units_Z 64
_cell_length_a 16.598845
_cell_length_b 7.803837
_cell_length_c 23.159259
_cell_angle_alpha 90.000000
_cell_angle_beta 90.000000
_cell_angle_gamma 90.000000
_cell_volume 2999.927221
_symmetry_space_group_name_H-M "P M M N"
_symmetry_group_IT_number 59
_space_group.IT_coordinate_system_code '2'
_symmetry_cell_setting 'orthorhombic'
loop_
_space_group_symop_operation_xyz
x,y,z
1/2-x,1/2-y,z
1/2+x,-y,-z
-x,1/2+y,-z
-x,-y,-z
1/2+x,1/2+y,-z
1/2-x,y,z
x,1/2-y,z
loop_
_atom_site_type_symbol
_atom_site_label
_atom_site_fract_x
_atom_site_fract_y
_atom_site_fract_z
Si Si1 0.339514 0.958543 0.009608
Si Si2 0.501020 0.953465 0.567127
Si Si3 0.845107 0.057009 0.239467
Si Si4 0.446629 0.950608 0.116203
Si Si5 0.842063 0.953433 0.775102
Si Si6 0.842842 0.453895 0.643579
Si Si7 0.622595 0.055357 0.117045
Si Si8 0.343747 0.960771 0.635563
O O1 0.250000 0.004340 0.027976
O O2 0.345271 0.750000 0.006879
O O3 0.353569 0.021954 0.944495
O O4 0.399071 0.012914 0.059725
O O5 0.497722 0.750000 0.572756
O O6 0.416173 0.018379 0.594220
O O7 0.500000 0.000000 0.500000
O O8 0.584114 0.004820 0.599686
O O9 0.750000 0.075833 0.247258
O O10 0.881671 0.250000 0.235306
O O11 0.855236 0.969308 0.177714
O O12 0.870508 0.979339 0.300197
O O13 0.466897 0.750000 0.107970
O O14 0.396706 0.966713 0.175189
O O15 0.527154 0.057531 0.118992
O O16 0.750000 0.016441 0.781402
O O17 0.843251 0.750000 0.784286
O O18 0.865293 0.986449 0.708494
O O19 0.750000 0.518605 0.630826
O O20 0.837016 0.250000 0.644917
O O21 0.656520 0.250000 0.118382
O O22 0.250000 0.012314 0.623022
O O23 0.342151 0.750000 0.636736
#
# Coordination Sequence:
#
# PCOD9448040 Si02
#       8
#     8   8   8   8   8   8   8   8
#     4   9  18  33  52  73 100 139 187 235 281 335
#     4  11  23  38  60  90 125 164 206 250 295 350
#     4   8  14  27  50  79 105 131 173 229 284 337
#     4  11  22  34  50  75 111 151 184 222 279 345
#     4  10  21  38  60  85 111 142 188 242 290 340
#     4  10  22  41  64  90 123 162 202 247 304 366
#     4  10  19  31  52  79 105 135 179 233 282 333
#     4   8  16  32  54  82 115 150 191 240 292 347
#
# _framework density 21.333850999999999
#
# number of rings (size 3 to 8) (size 9 to 14) (size 15 to 20)
#    0.000    2.375    0.000    3.375    1.750    4.000 
#    0.000    1.875    0.000    4.125    0.000    3.500 
#    0.000    0.000    0.000    0.000    0.000    0.000 
#
# Total GULP energy -356791.845195 kJ/mol
# GULP energy per Si atom -5574.872581 kJ/mol
# Density = 2.128529 g / cm^3
# Si number density = 21.333851 Si / 1000 Ang^3
#
#
#
# Elastic Constant Matrix: (Units=GPa)
#
#
# Indices 1 2 3 4 5 6 
#
# 1 99.6149 6.1309 65.9067 0.0000 0.0000 0.0000
# 2 6.1309 43.7172 1.0895 0.0000 0.0000 0.0000
# 3 65.9067 1.0895 143.6254 0.0000 0.0000 0.0000
# 4 0.0000 0.0000 0.0000 -1.2324 0.0000 0.0000
# 5 0.0000 0.0000 0.0000 0.0000 50.4365 0.0000
# 6 0.0000 0.0000 0.0000 0.0000 0.0000 15.7315
#
#
#
# Elastic Compliance Matrix: (Units=1/GPa)
#
#
# Indices 1 2 3 4 5 6 
#
# 1 0.014567 -0.001877 -0.006670 0.000000 0.000000 0.000000
# 2 -0.001877 0.023120 0.000686 0.000000 0.000000 0.000000
# 3 -0.006670 0.000686 0.010018 0.000000 0.000000 0.000000
# 4 0.000000 0.000000 0.000000 -0.811457 0.000000 0.000000
# 5 0.000000 0.000000 0.000000 0.000000 0.019827 0.000000
# 6 0.000000 0.000000 0.000000 0.000000 0.000000 0.063567
#
#
# Mechanical properties :
#
#
# Convention : Reuss Voigt Hill
#
# Bulk Modulus (GPa) = 31.26625 48.13465 39.70045
# Shear Modulus (GPa) = -7.64557 27.24250 9.79847
#
# Velocity S-wave (km/s) = -1.89514 3.57734 2.14543
# Velocity P-wave (km/s) = 3.14623 6.29878 4.97863
#
# Compressibility (1/GPa) = 0.03198337
#
# Stress axis : x y z
#
# Youngs Moduli (GPa) = 68.64627 43.25191 99.81746
#
# Poissons Ratio (x) = 0.08117 0.66583
# Poissons Ratio (y) = 0.12883 -0.06846
# Poissons Ratio (z) = 0.45790 -0.02966
#
# Static dielectric constant tensor:
#      x y z
#    x 1.537530 0.000000 0.000000 
#    y 0.000000 1.893570 0.000000 
#    z 0.000000 0.000000 1.759650 
# 
# From -- ./inp_files/30640.got.cif
#   From: 2010.05.17/outbox.cif.g08.bks.cpg/sg59_16_cif.got.tgz:30640.got - 2010.06.03 14:40:33.
