data_PCOD9448785
_publ_section_title
;
Structure prediction by ZEFSAII (Michael W. Deem and Ramdas Pophale) SiO2 
 PCOD9448785
Probable space group: P M M N
;
_chemical_formula_sum "Si O2"
_cell_formula_units_Z 48
_cell_length_a 19.322313
_cell_length_b 10.753859
_cell_length_c 9.426130
_cell_angle_alpha 90.000000
_cell_angle_beta 90.000000
_cell_angle_gamma 90.000000
_cell_volume 1958.650176
_symmetry_space_group_name_H-M "P M M N"
_symmetry_group_IT_number 59
_space_group.IT_coordinate_system_code '2'
_symmetry_cell_setting 'orthorhombic'
loop_
_space_group_symop_operation_xyz
x,y,z
1/2-x,1/2-y,z
1/2+x,-y,-z
-x,1/2+y,-z
-x,-y,-z
1/2+x,1/2+y,-z
1/2-x,y,z
x,1/2-y,z
loop_
_atom_site_type_symbol
_atom_site_label
_atom_site_fract_x
_atom_site_fract_y
_atom_site_fract_z
Si Si1 0.821873 0.893927 0.242225
Si Si2 0.521328 0.105292 0.422880
Si Si3 0.522401 0.597139 0.241792
Si Si4 0.672739 0.462600 0.513964
Si Si5 0.671516 0.891895 0.799394
Si Si6 0.475368 0.100069 0.082393
O O1 0.750000 0.954512 0.190189
O O2 0.818914 0.750000 0.207536
O O3 0.897525 0.935056 0.203002
O O4 0.822003 0.918069 0.411281
O O5 0.498915 0.250000 0.416716
O O6 0.485808 0.069820 0.581883
O O7 0.499931 0.070257 0.252653
O O8 0.605020 0.108008 0.457374
O O9 0.514799 0.750000 0.248157
O O10 0.488800 0.571401 0.079464
O O11 0.750000 0.403438 0.508414
O O12 0.659685 0.510711 0.672367
O O13 0.750000 0.909614 0.853766
O O14 0.668491 0.750000 0.743880
O O15 0.609183 0.904669 0.908137
O O16 0.490014 0.250000 0.082751
#
# Coordination Sequence:
#
# PCOD9448785 Si02
#       6
#     8   8   8   8   8   8
#     4   9  16  28  49  79 114 147 182 233 294 349
#     4  11  23  38  60  89 118 153 198 248 302 359
#     4   8  19  35  49  71 109 152 190 229 287 352
#     4   9  19  35  55  82 118 153 190 237 292 357
#     4  10  19  33  59  91 119 152 196 248 306 362
#     4   8  19  36  48  69 111 154 192 234 285 347
#
# _framework density 24.506674
#
# number of rings (size 3 to 8) (size 9 to 14) (size 15 to 20)
#    1.000    1.667    0.000    1.500    0.000    9.000 
#    0.000    2.500    0.000    1.000    0.000    0.000 
#    0.000    0.000    0.000    0.000    0.000    0.000 
#
# Total GULP energy -267220.293374 kJ/mol
# GULP energy per Si atom -5567.089445 kJ/mol
# Density = 2.445090 g / cm^3
# Si number density = 24.506674 Si / 1000 Ang^3
#
#
#
# Elastic Constant Matrix: (Units=GPa)
#
#
# Indices 1 2 3 4 5 6 
#
# 1 155.0685 40.7351 46.5845 0.0000 0.0000 0.0000
# 2 40.7351 166.6399 103.4988 0.0000 0.0000 0.0000
# 3 46.5845 103.4988 199.9482 0.0000 0.0000 0.0000
# 4 0.0000 0.0000 0.0000 69.7440 0.0000 0.0000
# 5 0.0000 0.0000 0.0000 0.0000 -0.8802 0.0000
# 6 0.0000 0.0000 0.0000 0.0000 0.0000 19.4799
#
#
#
# Elastic Compliance Matrix: (Units=1/GPa)
#
#
# Indices 1 2 3 4 5 6 
#
# 1 0.007054 -0.001037 -0.001107 0.000000 0.000000 0.000000
# 2 -0.001037 0.008997 -0.004415 0.000000 0.000000 0.000000
# 3 -0.001107 -0.004415 0.007545 0.000000 0.000000 0.000000
# 4 0.000000 0.000000 0.000000 0.014338 0.000000 0.000000
# 5 0.000000 0.000000 0.000000 0.000000 -1.136056 0.000000
# 6 0.000000 0.000000 0.000000 0.000000 0.000000 0.051335
#
#
# Mechanical properties :
#
#
# Convention : Reuss Voigt Hill
#
# Bulk Modulus (GPa) = 95.44594 100.36592 97.90593
# Shear Modulus (GPa) = -4.85353 39.72462 17.43554
#
# Velocity S-wave (km/s) = -1.40883 4.03050 2.67022
# Velocity P-wave (km/s) = 6.03200 7.91854 7.03876
#
# Compressibility (1/GPa) = 0.01047714
#
# Stress axis : x y z
#
# Youngs Moduli (GPa) = 141.77158 111.15032 132.54401
#
# Poissons Ratio (x) = 0.11526 0.14668
# Poissons Ratio (y) = 0.14701 0.58524
# Poissons Ratio (z) = 0.15689 0.49078
#
# Static dielectric constant tensor:
#      x y z
#    x 1.960790 0.000000 0.000000 
#    y 0.000000 1.994220 0.000000 
#    z 0.000000 0.000000 2.012520 
# 
# From -- ./inp_files/10249.got.cif
#   From: 2010.05.17/outbox.cif.g08.bks.cpg/sg59_6_cif.got.tgz:10249.got - 2010.06.03 14:40:33.
