data_PCOD9448017
_publ_section_title
;
Structure prediction by ZEFSAII (Michael W. Deem and Ramdas Pophale) SiO2 
 PCOD9448017
Probable space group: P M M N
;
_chemical_formula_sum "Si O2"
_cell_formula_units_Z 48
_cell_length_a 7.581102
_cell_length_b 19.345326
_cell_length_c 15.228085
_cell_angle_alpha 90.000000
_cell_angle_beta 90.000000
_cell_angle_gamma 90.000000
_cell_volume 2233.334037
_symmetry_space_group_name_H-M "P M M N"
_symmetry_group_IT_number 59
_space_group.IT_coordinate_system_code '2'
_symmetry_cell_setting 'orthorhombic'
loop_
_space_group_symop_operation_xyz
x,y,z
1/2-x,1/2-y,z
1/2+x,-y,-z
-x,1/2+y,-z
-x,-y,-z
1/2+x,1/2+y,-z
1/2-x,y,z
x,1/2-y,z
loop_
_atom_site_type_symbol
_atom_site_label
_atom_site_fract_x
_atom_site_fract_y
_atom_site_fract_z
Si Si1 0.965934 0.068060 0.877759
Si Si2 0.041250 0.672836 0.974701
Si Si3 0.542641 0.601327 0.437129
Si Si4 0.455445 0.825315 0.266352
Si Si5 0.463034 0.418954 0.181558
Si Si6 0.536144 0.945262 0.621688
O O1 0.750000 0.064615 0.879590
O O2 0.024990 0.112386 0.793013
O O3 0.025950 0.989289 0.866792
O O4 0.027894 0.112664 0.960976
O O5 0.250000 0.676657 0.992555
O O6 0.968796 0.750000 0.989410
O O7 0.016494 0.646505 0.875823
O O8 0.750000 0.615251 0.440810
O O9 0.464681 0.654717 0.368155
O O10 0.514428 0.524619 0.397277
O O11 0.473650 0.597898 0.536881
O O12 0.250000 0.821059 0.241875
O O13 0.535278 0.750000 0.249491
O O14 0.250000 0.420690 0.183589
O O15 0.524143 0.421262 0.282569
O O16 0.750000 0.943515 0.621359
#
# Coordination Sequence:
#
# PCOD9448017 Si02
#       6
#     8   8   8   8   8   8
#     4   9  17  33  56  79 102 135 177 218 261 314
#     4  10  21  36  53  76 107 139 173 216 265 315
#     4  10  19  31  51  78 107 136 168 216 267 308
#     4  10  19  33  54  77 106 145 182 215 258 319
#     4  10  19  34  57  80 103 134 176 222 258 307
#     4   9  18  34  54  76 103 136 174 212 256 312
#
# _framework density 21.492529999999999
#
# number of rings (size 3 to 8) (size 9 to 14) (size 15 to 20)
#    0.000    2.333    1.667    1.500    0.000    4.000 
#    0.000    1.667    0.000    7.000    0.000    0.000 
#    0.000    0.000    0.000    0.000    0.000    0.000 
#
# Total GULP energy -267919.027452 kJ/mol
# GULP energy per Si atom -5581.646405 kJ/mol
# Density = 2.144361 g / cm^3
# Si number density = 21.492530 Si / 1000 Ang^3
#
#
#
# Elastic Constant Matrix: (Units=GPa)
#
#
# Indices 1 2 3 4 5 6 
#
# 1 45.7404 -3.9214 -6.1357 0.0000 0.0000 0.0000
# 2 -3.9214 54.1358 18.9634 0.0000 0.0000 0.0000
# 3 -6.1357 18.9634 107.5413 0.0000 0.0000 0.0000
# 4 0.0000 0.0000 0.0000 -0.6134 0.0000 0.0000
# 5 0.0000 0.0000 0.0000 0.0000 15.4189 0.0000
# 6 0.0000 0.0000 0.0000 0.0000 0.0000 12.0387
#
#
#
# Elastic Compliance Matrix: (Units=1/GPa)
#
#
# Indices 1 2 3 4 5 6 
#
# 1 0.022108 0.001236 0.001043 0.000000 0.000000 0.000000
# 2 0.001236 0.019757 -0.003413 0.000000 0.000000 0.000000
# 3 0.001043 -0.003413 0.009960 0.000000 0.000000 0.000000
# 4 0.000000 0.000000 0.000000 -1.630290 0.000000 0.000000
# 5 0.000000 0.000000 0.000000 0.000000 0.064855 0.000000
# 6 0.000000 0.000000 0.000000 0.000000 0.000000 0.083066
#
#
# Mechanical properties :
#
#
# Convention : Reuss Voigt Hill
#
# Bulk Modulus (GPa) = 20.17841 25.02556 22.60198
# Shear Modulus (GPa) = -3.54169 18.60292 7.53061
#
# Velocity S-wave (km/s) = -1.28509 2.94522 1.87388
# Velocity P-wave (km/s) = 2.68459 4.82026 3.90140
#
# Compressibility (1/GPa) = 0.04955793
#
# Stress axis : x y z
#
# Youngs Moduli (GPa) = 45.23156 50.61425 100.39974
#
# Poissons Ratio (x) = -0.06256 -0.10476
# Poissons Ratio (y) = -0.05590 0.34270
# Poissons Ratio (z) = -0.04720 0.17277
#
# Static dielectric constant tensor:
#      x y z
#    x 1.883700 0.000000 0.000000 
#    y 0.000000 1.752920 0.000000 
#    z 0.000000 0.000000 1.807280 
# 
# From -- ./inp_files/20449.got.cif
#   From: 2010.05.17/outbox.cif.g08.bks.cpg/sg59_11_cif.got.tgz:20449.got - 2010.06.03 14:40:33.
