data_PCOD9448997
_publ_section_title
;
Structure prediction by ZEFSAII (Michael W. Deem and Ramdas Pophale) SiO2 
 PCOD9448997
Probable space group: P M M N
;
_chemical_formula_sum "Si O2"
_cell_formula_units_Z 48
_cell_length_a 15.996773
_cell_length_b 8.195033
_cell_length_c 19.481361
_cell_angle_alpha 90.000000
_cell_angle_beta 90.000000
_cell_angle_gamma 90.000000
_cell_volume 2553.891149
_symmetry_space_group_name_H-M "P M M N"
_symmetry_group_IT_number 59
_space_group.IT_coordinate_system_code '2'
_symmetry_cell_setting 'orthorhombic'
loop_
_space_group_symop_operation_xyz
x,y,z
1/2-x,1/2-y,z
1/2+x,-y,-z
-x,1/2+y,-z
-x,-y,-z
1/2+x,1/2+y,-z
1/2-x,y,z
x,1/2-y,z
loop_
_atom_site_type_symbol
_atom_site_label
_atom_site_fract_x
_atom_site_fract_y
_atom_site_fract_z
Si Si1 0.440495 0.556512 0.561690
Si Si2 0.988581 0.445592 0.922058
Si Si3 0.250000 0.948911 0.586712
Si Si4 0.750000 0.944733 0.255796
Si Si5 0.041136 0.933912 0.305236
Si Si6 0.079480 0.935491 0.800751
Si Si7 0.654471 0.449234 0.813221
O O1 0.500000 0.500000 0.500000
O O2 0.434410 0.750000 0.559045
O O3 0.342574 0.497507 0.558331
O O4 0.490984 0.512503 0.631554
O O5 0.992053 0.250000 0.919194
O O6 0.063428 0.526220 0.879372
O O7 0.906269 0.496990 0.876909
O O8 0.000000 0.500000 0.000000
O O9 0.250000 0.750000 0.586160
O O10 0.250000 0.014922 0.663907
O O11 0.750000 0.750000 0.245608
O O12 0.671719 0.030562 0.222009
O O13 0.062282 0.750000 0.326883
O O14 0.119699 0.005490 0.261948
O O15 0.974956 0.938638 0.243284
O O16 0.054095 0.750000 0.784043
O O17 0.750000 0.500351 0.823744
O O18 0.652265 0.250000 0.810610
#
# Coordination Sequence:
#
# PCOD9448997 Si02
#       7
#     8   8   4   4   8   8   8
#     4  11  23  40  61  85 119 156 197 241 294 356
#     4  10  20  36  57  81 113 151 194 240 295 349
#     4  10  22  40  62  86 114 155 196 237 294 362
#     4  12  22  34  58  88 116 143 186 241 286 336
#     4  10  19  34  58  86 113 144 188 238 289 341
#     4  11  21  35  56  82 113 149 188 230 285 346
#     4   8  16  33  57  82 108 145 191 237 284 345
#
# _framework density 18.79485
#
# number of rings (size 3 to 8) (size 9 to 14) (size 15 to 20)
#    0.000    1.833    1.667    4.750    0.000    0.667 
#    3.000    0.000    0.000   17.000    0.000    0.000 
#    0.000    0.000    0.000    0.000    0.000    0.000 
#
# Total GULP energy -267208.638987 kJ/mol
# GULP energy per Si atom -5566.846646 kJ/mol
# Density = 1.875207 g / cm^3
# Si number density = 18.794850 Si / 1000 Ang^3
#
#
#
# Elastic Constant Matrix: (Units=GPa)
#
#
# Indices 1 2 3 4 5 6 
#
# 1 133.0563 17.5567 58.9126 0.0000 0.0000 0.0000
# 2 17.5567 47.6647 13.6302 0.0000 0.0000 0.0000
# 3 58.9126 13.6302 125.1044 0.0000 0.0000 0.0000
# 4 0.0000 0.0000 0.0000 30.0128 0.0000 0.0000
# 5 0.0000 0.0000 0.0000 0.0000 22.2938 0.0000
# 6 0.0000 0.0000 0.0000 0.0000 0.0000 17.9893
#
#
#
# Elastic Compliance Matrix: (Units=1/GPa)
#
#
# Indices 1 2 3 4 5 6 
#
# 1 0.009744 -0.002350 -0.004332 0.000000 0.000000 0.000000
# 2 -0.002350 0.022221 -0.001314 0.000000 0.000000 0.000000
# 3 -0.004332 -0.001314 0.010177 0.000000 0.000000 0.000000
# 4 0.000000 0.000000 0.000000 0.033319 0.000000 0.000000
# 5 0.000000 0.000000 0.000000 0.000000 0.044856 0.000000
# 6 0.000000 0.000000 0.000000 0.000000 0.000000 0.055589
#
#
# Mechanical properties :
#
#
# Convention : Reuss Voigt Hill
#
# Bulk Modulus (GPa) = 38.24357 54.00270 46.12314
# Shear Modulus (GPa) = 24.92332 28.44090 26.68211
#
# Velocity S-wave (km/s) = 3.64548 3.89424 3.77191
# Velocity P-wave (km/s) = 6.17344 7.00109 6.60025
#
# Compressibility (1/GPa) = 0.02614819
#
# Stress axis : x y z
#
# Youngs Moduli (GPa) = 102.62745 45.00168 98.26357
#
# Poissons Ratio (x) = 0.10576 0.42572
# Poissons Ratio (y) = 0.24119 0.12915
# Poissons Ratio (z) = 0.44463 0.05915
#
# Static dielectric constant tensor:
#      x y z
#    x 1.612040 0.000000 0.000000 
#    y 0.000000 1.683750 0.000000 
#    z 0.000000 0.000000 1.680380 
# 
# From -- ./inp_files/25608.got.cif
#   From: 2010.05.17/outbox.cif.g08.bks.cpg/sg59_13_cif.got.tgz:25608.got - 2010.06.03 14:40:33.
