data_PCOD9448898
_publ_section_title
;
Structure prediction by ZEFSAII (Michael W. Deem and Ramdas Pophale) SiO2 
 PCOD9448898
Probable space group: P M M N
;
_chemical_formula_sum "Si O2"
_cell_formula_units_Z 56
_cell_length_a 14.479896
_cell_length_b 7.515303
_cell_length_c 22.699255
_cell_angle_alpha 90.000000
_cell_angle_beta 90.000000
_cell_angle_gamma 90.000000
_cell_volume 2470.151221
_symmetry_space_group_name_H-M "P M M N"
_symmetry_group_IT_number 59
_space_group.IT_coordinate_system_code '2'
_symmetry_cell_setting 'orthorhombic'
loop_
_space_group_symop_operation_xyz
x,y,z
1/2-x,1/2-y,z
1/2+x,-y,-z
-x,1/2+y,-z
-x,-y,-z
1/2+x,1/2+y,-z
1/2-x,y,z
x,1/2-y,z
loop_
_atom_site_type_symbol
_atom_site_label
_atom_site_fract_x
_atom_site_fract_y
_atom_site_fract_z
Si Si1 0.144509 0.032470 0.169922
Si Si2 0.649775 0.463330 0.148178
Si Si3 0.943487 0.547802 0.709130
Si Si4 0.646272 0.040843 0.461175
Si Si5 0.350677 0.453469 0.716229
Si Si6 0.552761 0.967023 0.583397
Si Si7 0.015879 0.036935 0.068271
O O1 0.250000 0.978133 0.177067
O O2 0.141226 0.250000 0.169242
O O3 0.102820 0.973390 0.107080
O O4 0.085899 0.972190 0.227371
O O5 0.750000 0.492802 0.120972
O O6 0.638127 0.250000 0.157425
O O7 0.649194 0.545429 0.212668
O O8 0.571035 0.529338 0.105740
O O9 0.908575 0.750000 0.710312
O O10 0.054521 0.550079 0.702061
O O11 0.912288 0.467822 0.647021
O O12 0.750000 0.967512 0.450057
O O13 0.650269 0.250000 0.446648
O O14 0.553153 0.969976 0.429239
O O15 0.618418 0.021838 0.529821
O O16 0.250000 0.527481 0.697707
O O17 0.356297 0.250000 0.695646
O O18 0.550648 0.750000 0.583936
O O19 0.016857 0.250000 0.072255
O O20 0.000000 0.000000 0.000000
#
# Coordination Sequence:
#
# PCOD9448898 Si02
#       7
#     8   8   8   8   8   8   8
#     4   9  18  34  54  76 104 137 173 214 262 314
#     4   9  17  32  53  73  95 127 169 213 256 308
#     4  10  19  34  56  80 106 139 178 221 263 310
#     4   9  18  34  53  74 107 146 179 217 267 318
#     4  10  20  32  49  76 107 136 167 209 262 317
#     4   9  19  33  53  81 107 136 182 228 264 308
#     4  10  20  34  52  75 101 133 172 214 264 318
#
# _framework density 22.670676
#
# number of rings (size 3 to 8) (size 9 to 14) (size 15 to 20)
#    0.000    2.571    1.429    0.429    0.000    4.000 
#    0.000    2.857    0.000    1.286    0.000    0.000 
#    0.000    0.000    0.000    0.000    0.000    0.000 
#
# Total GULP energy -312306.630549 kJ/mol
# GULP energy per Si atom -5576.904117 kJ/mol
# Density = 2.261908 g / cm^3
# Si number density = 22.670676 Si / 1000 Ang^3
#
#
#
# Elastic Constant Matrix: (Units=GPa)
#
#
# Indices 1 2 3 4 5 6 
#
# 1 87.8298 5.3701 33.2937 0.0000 0.0000 0.0000
# 2 5.3701 57.4376 -5.0313 0.0000 0.0000 0.0000
# 3 33.2937 -5.0313 144.3653 0.0000 0.0000 0.0000
# 4 0.0000 0.0000 0.0000 16.4603 0.0000 0.0000
# 5 0.0000 0.0000 0.0000 0.0000 0.9142 0.0000
# 6 0.0000 0.0000 0.0000 0.0000 0.0000 5.2395
#
#
#
# Elastic Compliance Matrix: (Units=1/GPa)
#
#
# Indices 1 2 3 4 5 6 
#
# 1 0.012593 -0.001436 -0.002954 0.000000 0.000000 0.000000
# 2 -0.001436 0.017627 0.000946 0.000000 0.000000 0.000000
# 3 -0.002954 0.000946 0.007641 0.000000 0.000000 0.000000
# 4 0.000000 0.000000 0.000000 0.060752 0.000000 0.000000
# 5 0.000000 0.000000 0.000000 0.000000 1.093800 0.000000
# 6 0.000000 0.000000 0.000000 0.000000 0.000000 0.190859
#
#
# Mechanical properties :
#
#
# Convention : Reuss Voigt Hill
#
# Bulk Modulus (GPa) = 32.28739 39.65529 35.97134
# Shear Modulus (GPa) = 3.57019 21.58947 12.57983
#
# Velocity S-wave (km/s) = 1.25627 3.08930 2.35818
# Velocity P-wave (km/s) = 4.04687 5.50044 4.82866
#
# Compressibility (1/GPa) = 0.03097185
#
# Stress axis : x y z
#
# Youngs Moduli (GPa) = 79.40681 56.73015 130.87016
#
# Poissons Ratio (x) = 0.08148 0.38664
# Poissons Ratio (y) = 0.11404 -0.12374
# Poissons Ratio (z) = 0.23460 -0.05364
#
# Static dielectric constant tensor:
#      x y z
#    x 1.854260 0.000000 0.000000 
#    y 0.000000 1.905450 0.000000 
#    z 0.000000 0.000000 1.844510 
# 
# From -- ./inp_files/29130.got.cif
#   From: 2010.05.17/outbox.cif.g08.bks.cpg/sg59_15_cif.got.tgz:29130.got - 2010.06.03 14:40:33.
