data_PCOD9448670
_publ_section_title
;
Structure prediction by ZEFSAII (Michael W. Deem and Ramdas Pophale) SiO2 
 PCOD9448670
Probable space group: P M M N
;
_chemical_formula_sum "Si O2"
_cell_formula_units_Z 64
_cell_length_a 9.125648
_cell_length_b 19.654428
_cell_length_c 20.442920
_cell_angle_alpha 90.000000
_cell_angle_beta 90.000000
_cell_angle_gamma 90.000000
_cell_volume 3666.629693
_symmetry_space_group_name_H-M "P M M N"
_symmetry_group_IT_number 59
_space_group.IT_coordinate_system_code '2'
_symmetry_cell_setting 'orthorhombic'
loop_
_space_group_symop_operation_xyz
x,y,z
1/2-x,1/2-y,z
1/2+x,-y,-z
-x,1/2+y,-z
-x,-y,-z
1/2+x,1/2+y,-z
1/2-x,y,z
x,1/2-y,z
loop_
_atom_site_type_symbol
_atom_site_label
_atom_site_fract_x
_atom_site_fract_y
_atom_site_fract_z
Si Si1 0.926009 0.330014 0.600826
Si Si2 0.425498 0.432260 0.233273
Si Si3 0.925696 0.415716 0.728067
Si Si4 0.081950 0.167390 0.466161
Si Si5 0.073792 0.172691 0.839354
Si Si6 0.422704 0.401794 0.967525
Si Si7 0.576210 0.168728 0.332162
Si Si8 0.422422 0.552452 0.906371
O O1 0.750000 0.334213 0.592584
O O2 0.960862 0.250000 0.613771
O O3 0.969961 0.377198 0.661617
O O4 0.004127 0.351846 0.533853
O O5 0.250000 0.424836 0.231090
O O6 0.460661 0.504465 0.268100
O O7 0.498089 0.372223 0.274622
O O8 0.490130 0.435546 0.160225
O O9 0.750000 0.408950 0.733824
O O10 0.999578 0.378281 0.789039
O O11 0.250000 0.143874 0.463292
O O12 0.083003 0.250000 0.466000
O O13 0.993343 0.146846 0.401611
O O14 0.250000 0.165688 0.834607
O O15 0.033100 0.250000 0.823618
O O16 0.034601 0.153932 0.913860
O O17 0.250000 0.395108 0.983262
O O18 0.441457 0.474369 0.930619
O O19 0.515239 0.403332 0.033607
O O20 0.750000 0.156442 0.332041
O O21 0.552814 0.250000 0.325140
O O22 0.250000 0.564128 0.896183
#
# Coordination Sequence:
#
# PCOD9448670 Si02
#       8
#     8   8   8   8   8   8   8   8
#     4   9  17  31  51  75 106 144 183 222 263 307
#     4  11  22  36  56  82 111 143 179 221 270 324
#     4  10  21  35  52  77 110 147 186 224 264 316
#     4   9  17  31  53  80 107 136 175 221 267 319
#     4  10  20  34  53  78 110 146 182 223 272 322
#     4   9  18  33  52  76 104 136 178 225 269 316
#     4  10  21  38  60  83 106 135 173 219 273 331
#     4  10  19  33  55  78 102 137 179 222 268 318
#
# _framework density 17.454720999999999
#
# number of rings (size 3 to 8) (size 9 to 14) (size 15 to 20)
#    0.000    2.250    1.250    1.875    0.000    5.000 
#    0.000    2.500    0.000    2.250    0.000    0.000 
#    0.000    0.000    0.000    0.000    0.000    0.000 
#
# Total GULP energy -357090.063179 kJ/mol
# GULP energy per Si atom -5579.532237 kJ/mol
# Density = 1.741499 g / cm^3
# Si number density = 17.454721 Si / 1000 Ang^3
#
#
#
# Elastic Constant Matrix: (Units=GPa)
#
#
# Indices 1 2 3 4 5 6 
#
# 1 72.2411 44.4738 68.9357 0.0000 0.0000 0.0000
# 2 44.4738 50.3019 45.4410 0.0000 0.0000 0.0000
# 3 68.9357 45.4410 136.6797 0.0000 0.0000 0.0000
# 4 0.0000 0.0000 0.0000 25.2435 0.0000 0.0000
# 5 0.0000 0.0000 0.0000 0.0000 35.2491 0.0000
# 6 0.0000 0.0000 0.0000 0.0000 0.0000 15.8615
#
#
#
# Elastic Compliance Matrix: (Units=1/GPa)
#
#
# Indices 1 2 3 4 5 6 
#
# 1 0.041201 -0.025234 -0.012391 0.000000 0.000000 0.000000
# 2 -0.025234 0.043869 -0.001858 0.000000 0.000000 0.000000
# 3 -0.012391 -0.001858 0.014183 0.000000 0.000000 0.000000
# 4 0.000000 0.000000 0.000000 0.039614 0.000000 0.000000
# 5 0.000000 0.000000 0.000000 0.000000 0.028370 0.000000
# 6 0.000000 0.000000 0.000000 0.000000 0.000000 0.063046
#
#
# Mechanical properties :
#
#
# Convention : Reuss Voigt Hill
#
# Bulk Modulus (GPa) = 49.29010 64.10261 56.69636
# Shear Modulus (GPa) = 15.82224 21.96229 18.89226
#
# Velocity S-wave (km/s) = 3.01404 3.55102 3.29349
# Velocity P-wave (km/s) = 6.35710 7.32242 6.85677
#
# Compressibility (1/GPa) = 0.02028805
#
# Stress axis : x y z
#
# Youngs Moduli (GPa) = 24.27102 22.79539 70.50498
#
# Poissons Ratio (x) = 0.57522 0.87362
# Poissons Ratio (y) = 0.61246 0.13097
# Poissons Ratio (z) = 0.30074 0.04234
#
# Static dielectric constant tensor:
#      x y z
#    x 1.581850 0.000000 0.000000 
#    y 0.000000 1.588190 0.000000 
#    z 0.000000 0.000000 1.570010 
# 
# From -- ./inp_files/26347.got.cif
#   From: 2010.05.17/outbox.cif.g08.bks.cpg/sg59_14_cif.got.tgz:26347.got - 2010.06.03 14:40:33.
