data_PCOD9448958
_publ_section_title
;
Structure prediction by ZEFSAII (Michael W. Deem and Ramdas Pophale) SiO2 
 PCOD9448958
Probable space group: P M M N
;
_chemical_formula_sum "Si O2"
_cell_formula_units_Z 56
_cell_length_a 14.112922
_cell_length_b 22.672387
_cell_length_c 9.792757
_cell_angle_alpha 90.000000
_cell_angle_beta 90.000000
_cell_angle_gamma 90.000000
_cell_volume 3133.423998
_symmetry_space_group_name_H-M "P M M N"
_symmetry_group_IT_number 59
_space_group.IT_coordinate_system_code '2'
_symmetry_cell_setting 'orthorhombic'
loop_
_space_group_symop_operation_xyz
x,y,z
1/2-x,1/2-y,z
1/2+x,-y,-z
-x,1/2+y,-z
-x,-y,-z
1/2+x,1/2+y,-z
1/2-x,y,z
x,1/2-y,z
loop_
_atom_site_type_symbol
_atom_site_label
_atom_site_fract_x
_atom_site_fract_y
_atom_site_fract_z
Si Si1 0.988978 0.316637 0.196188
Si Si2 0.357375 0.145729 0.999483
Si Si3 0.642810 0.618790 0.306795
Si Si4 0.983965 0.506088 0.338453
Si Si5 0.645264 0.679370 0.593946
Si Si6 0.137133 0.926550 0.850144
Si Si7 0.861934 0.989027 0.894590
O O1 0.956914 0.250000 0.226847
O O2 0.907253 0.361579 0.154526
O O3 0.054934 0.341478 0.319748
O O4 0.064904 0.316387 0.074649
O O5 0.250000 0.161735 0.038563
O O6 0.365584 0.150733 0.837447
O O7 0.373142 0.077067 0.043789
O O8 0.750000 0.592134 0.308225
O O9 0.563217 0.569481 0.314431
O O10 0.635679 0.660502 0.437539
O O11 0.907869 0.460147 0.278485
O O12 0.000000 0.500000 0.500000
O O13 0.075663 0.497436 0.241187
O O14 0.750000 0.657239 0.640205
O O15 0.646020 0.750000 0.607175
O O16 0.250000 0.925589 0.843534
O O17 0.110546 0.964155 0.986461
O O18 0.750000 0.996719 0.865972
#
# Coordination Sequence:
#
# PCOD9448958 Si02
#       7
#     8   8   8   8   8   8   8
#     4  11  22  36  55  81 109 144 188 231 271 321
#     4  10  19  34  57  83 110 141 179 226 276 330
#     4  10  20  33  52  79 109 143 182 223 273 329
#     4  12  22  34  55  84 115 143 180 229 278 329
#     4   9  19  36  54  75 110 150 184 223 277 334
#     4  11  22  39  59  79 109 151 189 227 272 328
#     4  10  21  38  59  81 111 148 182 221 280 337
#
# _framework density 17.871824
#
# number of rings (size 3 to 8) (size 9 to 14) (size 15 to 20)
#    0.000    1.571    2.857    3.000    0.000    2.857 
#    0.000    1.429    0.000    0.000    0.000    0.000 
#    0.000    6.857    0.000    0.000    0.000    0.000 
#
# Total GULP energy -312606.032945 kJ/mol
# GULP energy per Si atom -5582.250588 kJ/mol
# Density = 1.783115 g / cm^3
# Si number density = 17.871824 Si / 1000 Ang^3
#
#
#
# Elastic Constant Matrix: (Units=GPa)
#
#
# Indices 1 2 3 4 5 6 
#
# 1 84.4977 23.5529 46.4258 0.0000 0.0000 0.0000
# 2 23.5529 39.8721 18.3651 0.0000 0.0000 0.0000
# 3 46.4258 18.3651 127.8173 0.0000 0.0000 0.0000
# 4 0.0000 0.0000 0.0000 16.9739 0.0000 0.0000
# 5 0.0000 0.0000 0.0000 0.0000 21.4089 0.0000
# 6 0.0000 0.0000 0.0000 0.0000 0.0000 -57.6893
#
#
#
# Elastic Compliance Matrix: (Units=1/GPa)
#
#
# Indices 1 2 3 4 5 6 
#
# 1 0.016672 -0.007560 -0.004969 0.000000 0.000000 0.000000
# 2 -0.007560 0.030285 -0.001606 0.000000 0.000000 0.000000
# 3 -0.004969 -0.001606 0.009859 0.000000 0.000000 0.000000
# 4 0.000000 0.000000 0.000000 0.058914 0.000000 0.000000
# 5 0.000000 0.000000 0.000000 0.000000 0.046710 0.000000
# 6 0.000000 0.000000 0.000000 0.000000 0.000000 -0.017334
#
#
# Mechanical properties :
#
#
# Convention : Reuss Voigt Hill
#
# Bulk Modulus (GPa) = 35.02940 47.65274 41.34107
# Shear Modulus (GPa) = 27.33864 7.06160 17.20012
#
# Velocity S-wave (km/s) = 3.91539 1.98993 3.10565
# Velocity P-wave (km/s) = 6.33113 5.65697 6.00352
#
# Compressibility (1/GPa) = 0.02854745
#
# Stress axis : x y z
#
# Youngs Moduli (GPa) = 59.98011 33.01935 101.42610
#
# Poissons Ratio (x) = 0.24961 0.50404
# Poissons Ratio (y) = 0.45342 0.16286
# Poissons Ratio (z) = 0.29807 0.05302
#
# Static dielectric constant tensor:
#      x y z
#    x 1.618930 0.000000 0.000000 
#    y 0.000000 1.629040 0.000000 
#    z 0.000000 0.000000 1.627920 
# 
# From -- ./inp_files/9335.got.cif
#   From: 2010.05.17/outbox.cif.g08.bks.cpg/sg59_5_cif.got.tgz:9335.got - 2010.06.03 14:40:33.
