data_PCOD9448845
_publ_section_title
;
Structure prediction by ZEFSAII (Michael W. Deem and Ramdas Pophale) SiO2 
 PCOD9448845
Probable space group: P M M N
;
_chemical_formula_sum "Si O2"
_cell_formula_units_Z 56
_cell_length_a 8.593977
_cell_length_b 21.876540
_cell_length_c 16.254138
_cell_angle_alpha 90.000000
_cell_angle_beta 90.000000
_cell_angle_gamma 90.000000
_cell_volume 3055.883297
_symmetry_space_group_name_H-M "P M M N"
_symmetry_group_IT_number 59
_space_group.IT_coordinate_system_code '2'
_symmetry_cell_setting 'orthorhombic'
loop_
_space_group_symop_operation_xyz
x,y,z
1/2-x,1/2-y,z
1/2+x,-y,-z
-x,1/2+y,-z
-x,-y,-z
1/2+x,1/2+y,-z
1/2-x,y,z
x,1/2-y,z
loop_
_atom_site_type_symbol
_atom_site_label
_atom_site_fract_x
_atom_site_fract_y
_atom_site_fract_z
Si Si1 0.436625 0.497754 0.908157
Si Si2 0.939195 0.881424 0.195936
Si Si3 0.435795 0.870534 0.481537
Si Si4 0.436577 0.458803 0.646361
Si Si5 0.570152 0.750000 0.397844
Si Si6 0.564871 0.569049 0.753634
Si Si7 0.930407 0.750000 0.200191
Si Si8 0.938132 0.178658 0.340321
O O1 0.250000 0.502787 0.908058
O O2 0.480827 0.432033 0.870179
O O3 0.502437 0.546001 0.841940
O O4 0.500000 0.500000 0.000000
O O5 0.750000 0.877161 0.198960
O O6 0.984016 0.908135 0.284873
O O7 0.002720 0.814578 0.176237
O O8 0.250000 0.875935 0.480266
O O9 0.505533 0.931222 0.439697
O O10 0.488035 0.810840 0.430431
O O11 0.485580 0.854197 0.574268
O O12 0.250000 0.463539 0.644665
O O13 0.501379 0.521864 0.683670
O O14 0.750000 0.750000 0.425595
O O15 0.571532 0.750000 0.299324
O O16 0.750000 0.566405 0.753303
O O17 0.506104 0.636583 0.731323
O O18 0.750000 0.750000 0.171370
O O19 0.750000 0.177563 0.336822
O O20 0.986010 0.250000 0.339886
#
# Coordination Sequence:
#
# PCOD9448845 Si02
#       8
#     8   8   8   8   4   8   4   8
#     4  10  20  37  62  88 113 145 183 226 279 343
#     4   8  15  27  48  78 109 140 178 218 265 325
#     4  11  21  34  52  79 113 151 197 245 286 330
#     4  10  19  34  54  80 113 152 192 232 282 340
#     4  11  19  29  49  75 108 151 196 233 275 334
#     4  11  23  39  60  88 115 144 186 238 291 346
#     4   9  14  25  47  77 108 141 178 219 269 326
#     4  10  22  41  60  79 110 154 197 241 293 343
#
# _framework density 18.325306000000001
#
# number of rings (size 3 to 8) (size 9 to 14) (size 15 to 20)
#    0.000    2.000    2.143    3.643    0.000    2.000 
#    0.000    0.000    1.571    0.000    0.000    0.000 
#    0.000    0.000    0.000    0.000    0.000    0.000 
#
# Total GULP energy -312454.069542 kJ/mol
# GULP energy per Si atom -5579.536956 kJ/mol
# Density = 1.828360 g / cm^3
# Si number density = 18.325306 Si / 1000 Ang^3
#
#
#
# Elastic Constant Matrix: (Units=GPa)
#
#
# Indices 1 2 3 4 5 6 
#
# 1 54.0989 34.0335 38.3015 0.0000 0.0000 0.0000
# 2 34.0335 114.6113 75.9623 0.0000 0.0000 0.0000
# 3 38.3015 75.9623 102.3496 0.0000 0.0000 0.0000
# 4 0.0000 0.0000 0.0000 13.1457 0.0000 0.0000
# 5 0.0000 0.0000 0.0000 0.0000 25.4733 0.0000
# 6 0.0000 0.0000 0.0000 0.0000 0.0000 21.9630
#
#
#
# Elastic Compliance Matrix: (Units=1/GPa)
#
#
# Indices 1 2 3 4 5 6 
#
# 1 0.025493 -0.002455 -0.007719 0.000000 0.000000 0.000000
# 2 -0.002455 0.017409 -0.012002 0.000000 0.000000 0.000000
# 3 -0.007719 -0.012002 0.021567 0.000000 0.000000 0.000000
# 4 0.000000 0.000000 0.000000 0.076071 0.000000 0.000000
# 5 0.000000 0.000000 0.000000 0.000000 0.039257 0.000000
# 6 0.000000 0.000000 0.000000 0.000000 0.000000 0.045531
#
#
# Mechanical properties :
#
#
# Convention : Reuss Voigt Hill
#
# Bulk Modulus (GPa) = 49.70495 63.07274 56.38884
# Shear Modulus (GPa) = 18.09083 20.30056 19.19569
#
# Velocity S-wave (km/s) = 3.14539 3.33196 3.24002
# Velocity P-wave (km/s) = 6.35404 7.02109 6.69588
#
# Compressibility (1/GPa) = 0.02011872
#
# Stress axis : x y z
#
# Youngs Moduli (GPa) = 39.22581 57.44268 46.36818
#
# Poissons Ratio (x) = 0.14099 0.35789
# Poissons Ratio (y) = 0.09628 0.55651
# Poissons Ratio (z) = 0.30276 0.68942
#
# Static dielectric constant tensor:
#      x y z
#    x 1.617860 0.000000 0.000000 
#    y 0.000000 1.657340 0.000000 
#    z 0.000000 0.000000 1.620320 
# 
# From -- ./inp_files/21217.got.cif
#   From: 2010.05.17/outbox.cif.g08.bks.cpg/sg59_11_cif.got.tgz:21217.got - 2010.06.03 14:40:33.
