data_PCOD9448273
_publ_section_title
;
Structure prediction by ZEFSAII (Michael W. Deem and Ramdas Pophale) SiO2 
 PCOD9448273
Probable space group: P M M N
;
_chemical_formula_sum "Si O2"
_cell_formula_units_Z 48
_cell_length_a 19.062955
_cell_length_b 9.012131
_cell_length_c 17.080471
_cell_angle_alpha 90.000000
_cell_angle_beta 90.000000
_cell_angle_gamma 90.000000
_cell_volume 2934.388156
_symmetry_space_group_name_H-M "P M M N"
_symmetry_group_IT_number 59
_space_group.IT_coordinate_system_code '2'
_symmetry_cell_setting 'orthorhombic'
loop_
_space_group_symop_operation_xyz
x,y,z
1/2-x,1/2-y,z
1/2+x,-y,-z
-x,1/2+y,-z
-x,-y,-z
1/2+x,1/2+y,-z
1/2-x,y,z
x,1/2-y,z
loop_
_atom_site_type_symbol
_atom_site_label
_atom_site_fract_x
_atom_site_fract_y
_atom_site_fract_z
Si Si1 0.168620 0.571439 0.151715
Si Si2 0.075214 0.073460 0.723945
Si Si3 0.423475 0.571303 0.000452
Si Si4 0.168288 0.572562 0.849018
Si Si5 0.066168 0.076013 0.265269
Si Si6 0.010526 0.575630 0.583013
O O1 0.250000 0.531260 0.141019
O O2 0.164893 0.750000 0.159583
O O3 0.121646 0.528509 0.076847
O O4 0.133856 0.495118 0.226884
O O5 0.073499 0.250000 0.721294
O O6 0.139568 0.012144 0.773418
O O7 0.942644 0.938811 0.640624
O O8 0.003646 0.010053 0.764097
O O9 0.430350 0.750000 0.001095
O O10 0.500000 0.500000 0.000000
O O11 0.378943 0.530340 0.923523
O O12 0.250000 0.542440 0.864072
O O13 0.160497 0.750000 0.836967
O O14 0.060616 0.250000 0.246196
O O15 0.069210 0.004390 0.636778
O O16 0.025556 0.750000 0.574837
O O17 0.000000 0.500000 0.500000
#
# Coordination Sequence:
#
# PCOD9448273 Si02
#       6
#     8   8   8   8   8   8
#     4  10  20  34  52  75 104 139 178 218 263 313
#     4  10  19  32  52  77 106 136 172 216 261 308
#     4  10  21  35  52  74 102 137 179 224 265 306
#     4  10  20  35  53  73 103 142 180 219 265 314
#     4   9  19  33  51  76 105 135 172 213 258 309
#     4   9  18  32  54  82 108 134 170 215 259 309
#
# _framework density 16.357754
#
# number of rings (size 3 to 8) (size 9 to 14) (size 15 to 20)
#    1.000    1.333    0.000    3.500    0.000    6.667 
#    0.000    0.000    0.000    4.000    0.000    4.667 
#    0.000    0.000    0.000    0.000    0.000    0.000 
#
# Total GULP energy -267324.634167 kJ/mol
# GULP energy per Si atom -5569.263212 kJ/mol
# Density = 1.632052 g / cm^3
# Si number density = 16.357754 Si / 1000 Ang^3
#
#
#
# Elastic Constant Matrix: (Units=GPa)
#
#
# Indices 1 2 3 4 5 6 
#
# 1 114.2104 56.3446 59.5003 0.0000 0.0000 0.0000
# 2 56.3446 74.8084 59.9854 0.0000 0.0000 0.0000
# 3 59.5003 59.9854 113.4883 0.0000 0.0000 0.0000
# 4 0.0000 0.0000 0.0000 21.4913 0.0000 0.0000
# 5 0.0000 0.0000 0.0000 0.0000 9.5983 0.0000
# 6 0.0000 0.0000 0.0000 0.0000 0.0000 27.6232
#
#
#
# Elastic Compliance Matrix: (Units=1/GPa)
#
#
# Indices 1 2 3 4 5 6 
#
# 1 0.014570 -0.008415 -0.003191 0.000000 0.000000 0.000000
# 2 -0.008415 0.028061 -0.010420 0.000000 0.000000 0.000000
# 3 -0.003191 -0.010420 0.015992 0.000000 0.000000 0.000000
# 4 0.000000 0.000000 0.000000 0.046531 0.000000 0.000000
# 5 0.000000 0.000000 0.000000 0.000000 0.104185 0.000000
# 6 0.000000 0.000000 0.000000 0.000000 0.000000 0.036201
#
#
# Mechanical properties :
#
#
# Convention : Reuss Voigt Hill
#
# Bulk Modulus (GPa) = 68.63038 72.68529 70.65784
# Shear Modulus (GPa) = 16.98095 20.18769 18.58432
#
# Velocity S-wave (km/s) = 3.22545 3.51684 3.37429
# Velocity P-wave (km/s) = 7.47785 7.81166 7.64658
#
# Compressibility (1/GPa) = 0.01457081
#
# Stress axis : x y z
#
# Youngs Moduli (GPa) = 68.63643 35.63681 62.53160
#
# Poissons Ratio (x) = 0.29989 0.19952
# Poissons Ratio (y) = 0.57758 0.65158
# Poissons Ratio (z) = 0.21900 0.37133
#
# Static dielectric constant tensor:
#      x y z
#    x 1.535690 0.000000 0.000000 
#    y 0.000000 1.545070 0.000000 
#    z 0.000000 0.000000 1.552770 
# 
# From -- ./inp_files/23674.got.cif
#   From: 2010.05.17/outbox.cif.g08.bks.cpg/sg59_12_cif.got.tgz:23674.got - 2010.06.03 14:40:33.
