data_PCOD9448884
_publ_section_title
;
Structure prediction by ZEFSAII (Michael W. Deem and Ramdas Pophale) SiO2 
 PCOD9448884
Probable space group: P M M N
;
_chemical_formula_sum "Si O2"
_cell_formula_units_Z 64
_cell_length_a 17.851102
_cell_length_b 23.721824
_cell_length_c 7.770722
_cell_angle_alpha 90.000000
_cell_angle_beta 90.000000
_cell_angle_gamma 90.000000
_cell_volume 3290.595376
_symmetry_space_group_name_H-M "P M M N"
_symmetry_group_IT_number 59
_space_group.IT_coordinate_system_code '2'
_symmetry_cell_setting 'orthorhombic'
loop_
_space_group_symop_operation_xyz
x,y,z
1/2-x,1/2-y,z
1/2+x,-y,-z
-x,1/2+y,-z
-x,-y,-z
1/2+x,1/2+y,-z
1/2-x,y,z
x,1/2-y,z
loop_
_atom_site_type_symbol
_atom_site_label
_atom_site_fract_x
_atom_site_fract_y
_atom_site_fract_z
Si Si1 0.460029 0.684765 0.917249
Si Si2 0.955125 0.588102 0.497128
Si Si3 0.012667 0.188304 0.702579
Si Si4 0.596676 0.021837 0.398864
Si Si5 0.337467 0.595700 0.898514
Si Si6 0.168950 0.184896 0.887202
Si Si7 0.340826 0.514079 0.211160
Si Si8 0.606125 0.889855 0.828686
O O1 0.468094 0.750000 0.855868
O O2 0.385098 0.652103 0.868139
O O3 0.527768 0.642474 0.867589
O O4 0.465004 0.687909 0.124278
O O5 0.004845 0.637220 0.419511
O O6 0.917477 0.544546 0.365526
O O7 0.891933 0.613261 0.621748
O O8 0.014526 0.550481 0.603424
O O9 0.008090 0.250000 0.621844
O O10 0.098448 0.177047 0.762750
O O11 0.645882 0.052455 0.256941
O O12 0.630245 0.025143 0.593466
O O13 0.250000 0.608203 0.906717
O O14 0.359170 0.564113 0.077206
O O15 0.250000 0.177464 0.803605
O O16 0.162578 0.250000 0.946881
O O17 0.161771 0.144342 0.050353
O O18 0.250000 0.506816 0.213626
O O19 0.379894 0.456446 0.142742
#
# Coordination Sequence:
#
# PCOD9448884 Si02
#       8
#     8   8   8   8   8   8   8   8
#     4  10  21  38  58  83 112 148 195 245 287 339
#     4  10  20  35  54  82 113 147 185 241 291 342
#     4   9  19  34  55  82 110 147 194 238 283 336
#     4  10  21  38  55  85 120 147 190 240 295 347
#     4  11  23  39  62  87 114 157 197 238 302 357
#     4   9  18  33  51  74 109 151 192 233 278 334
#     4  10  22  37  57  88 122 153 190 236 289 355
#     4  10  19  34  55  82 113 145 186 235 284 342
#
# _framework density 19.449366999999999
#
# number of rings (size 3 to 8) (size 9 to 14) (size 15 to 20)
#    0.000    2.125    1.250    2.625    3.500    1.750 
#    0.000    3.125    0.000    1.500    0.000    1.750 
#    0.000    0.000    0.000    0.000    0.000    0.000 
#
# Total GULP energy -356478.044367 kJ/mol
# GULP energy per Si atom -5569.969443 kJ/mol
# Density = 1.940510 g / cm^3
# Si number density = 19.449367 Si / 1000 Ang^3
#
#
#
# Elastic Constant Matrix: (Units=GPa)
#
#
# Indices 1 2 3 4 5 6 
#
# 1 65.4366 19.6112 -5.4344 0.0000 0.0000 0.0000
# 2 19.6112 94.4416 16.2162 0.0000 0.0000 0.0000
# 3 -5.4344 16.2162 32.7393 0.0000 0.0000 0.0000
# 4 0.0000 0.0000 0.0000 23.3482 0.0000 0.0000
# 5 0.0000 0.0000 0.0000 0.0000 16.7216 0.0000
# 6 0.0000 0.0000 0.0000 0.0000 0.0000 23.0678
#
#
#
# Elastic Compliance Matrix: (Units=1/GPa)
#
#
# Indices 1 2 3 4 5 6 
#
# 1 0.017013 -0.004391 0.004999 0.000000 0.000000 0.000000
# 2 -0.004391 0.012706 -0.007022 0.000000 0.000000 0.000000
# 3 0.004999 -0.007022 0.034852 0.000000 0.000000 0.000000
# 4 0.000000 0.000000 0.000000 0.042830 0.000000 0.000000
# 5 0.000000 0.000000 0.000000 0.000000 0.059803 0.000000
# 6 0.000000 0.000000 0.000000 0.000000 0.000000 0.043350
#
#
# Mechanical properties :
#
#
# Convention : Reuss Voigt Hill
#
# Bulk Modulus (GPa) = 19.32644 28.15593 23.74119
# Shear Modulus (GPa) = 20.77864 23.44249 22.11056
#
# Velocity S-wave (km/s) = 3.27210 3.47552 3.37534
# Velocity P-wave (km/s) = 4.92279 5.53296 5.23677
#
# Compressibility (1/GPa) = 0.05174258
#
# Stress axis : x y z
#
# Youngs Moduli (GPa) = 58.77804 78.70179 28.69240
#
# Poissons Ratio (x) = 0.34560 -0.14343
# Poissons Ratio (y) = 0.25811 0.20149
# Poissons Ratio (z) = -0.29383 0.55268
#
# Static dielectric constant tensor:
#      x y z
#    x 1.684580 0.000000 0.000000 
#    y 0.000000 1.732520 0.000000 
#    z 0.000000 0.000000 1.709960 
# 
# From -- ./inp_files/10710.got.cif
#   From: 2010.05.17/outbox.cif.g08.bks.cpg/sg59_6_cif.got.tgz:10710.got - 2010.06.03 14:40:33.
