data_PCOD9448285
_publ_section_title
;
Structure prediction by ZEFSAII (Michael W. Deem and Ramdas Pophale) SiO2 
 PCOD9448285
Probable space group: P M M N
;
_chemical_formula_sum "Si O2"
_cell_formula_units_Z 64
_cell_length_a 8.849782
_cell_length_b 19.928531
_cell_length_c 20.637300
_cell_angle_alpha 90.000000
_cell_angle_beta 90.000000
_cell_angle_gamma 90.000000
_cell_volume 3639.659337
_symmetry_space_group_name_H-M "P M M N"
_symmetry_group_IT_number 59
_space_group.IT_coordinate_system_code '2'
_symmetry_cell_setting 'orthorhombic'
loop_
_space_group_symop_operation_xyz
x,y,z
1/2-x,1/2-y,z
1/2+x,-y,-z
-x,1/2+y,-z
-x,-y,-z
1/2+x,1/2+y,-z
1/2-x,y,z
x,1/2-y,z
loop_
_atom_site_type_symbol
_atom_site_label
_atom_site_fract_x
_atom_site_fract_y
_atom_site_fract_z
Si Si1 0.928570 0.672342 0.844174
Si Si2 0.432310 0.559127 0.239241
Si Si3 0.429578 0.915837 0.731187
Si Si4 0.570260 0.829007 0.616695
Si Si5 0.576317 0.331382 0.518139
Si Si6 0.565556 0.172927 0.661415
Si Si7 0.429285 0.901539 0.956175
Si Si8 0.431178 0.541029 0.091303
O O1 0.750000 0.659458 0.838424
O O2 0.957046 0.750000 0.828528
O O3 0.014847 0.624551 0.794435
O O4 0.983767 0.654821 0.916221
O O5 0.250000 0.554707 0.243475
O O6 0.501149 0.490033 0.265264
O O7 0.481896 0.622049 0.282652
O O8 0.470541 0.565407 0.163103
O O9 0.250000 0.919429 0.730511
O O10 0.489119 0.874606 0.669502
O O11 0.750000 0.834390 0.624465
O O12 0.529165 0.750000 0.625329
O O13 0.521426 0.849610 0.544170
O O14 0.750000 0.353875 0.509186
O O15 0.579076 0.250000 0.520778
O O16 0.519810 0.351685 0.589439
O O17 0.750000 0.174224 0.660133
O O18 0.515855 0.250000 0.671397
O O19 0.250000 0.893486 0.947953
O O20 0.482177 0.972465 0.925456
O O21 0.463285 0.907782 0.032632
O O22 0.250000 0.527211 0.089522
#
# Coordination Sequence:
#
# PCOD9448285 Si02
#       8
#     8   8   8   8   8   8   8   8
#     4  11  23  38  55  76 106 144 182 223 273 324
#     4  10  19  34  56  80 109 143 177 217 265 317
#     4  12  24  36  52  77 107 140 180 222 266 317
#     4  10  20  34  53  77 105 139 178 218 263 316
#     4   8  14  28  51  77 104 134 172 217 261 309
#     4   8  15  30  55  84 108 134 172 217 266 318
#     4  10  19  32  52  78 104 136 179 223 264 309
#     4   9  18  32  52  77 106 140 176 216 262 310
#
# _framework density 17.584064000000001
#
# number of rings (size 3 to 8) (size 9 to 14) (size 15 to 20)
#    0.000    2.250    1.250    3.375    0.000    3.750 
#    0.000    1.875    0.000    3.375    0.000    0.000 
#    0.000    0.000    0.000    0.000    0.000    0.000 
#
# Total GULP energy -357016.472058 kJ/mol
# GULP energy per Si atom -5578.382376 kJ/mol
# Density = 1.754404 g / cm^3
# Si number density = 17.584064 Si / 1000 Ang^3
#
#
#
# Elastic Constant Matrix: (Units=GPa)
#
#
# Indices 1 2 3 4 5 6 
#
# 1 32.2588 30.8045 34.5120 0.0000 0.0000 0.0000
# 2 30.8045 74.6492 64.9474 0.0000 0.0000 0.0000
# 3 34.5120 64.9474 141.9706 0.0000 0.0000 0.0000
# 4 0.0000 0.0000 0.0000 27.3961 0.0000 0.0000
# 5 0.0000 0.0000 0.0000 0.0000 20.1015 0.0000
# 6 0.0000 0.0000 0.0000 0.0000 0.0000 13.0827
#
#
#
# Elastic Compliance Matrix: (Units=1/GPa)
#
#
# Indices 1 2 3 4 5 6 
#
# 1 0.053046 -0.017726 -0.004786 0.000000 0.000000 0.000000
# 2 -0.017726 0.028176 -0.008581 0.000000 0.000000 0.000000
# 3 -0.004786 -0.008581 0.012133 0.000000 0.000000 0.000000
# 4 0.000000 0.000000 0.000000 0.036501 0.000000 0.000000
# 5 0.000000 0.000000 0.000000 0.000000 0.049748 0.000000
# 6 0.000000 0.000000 0.000000 0.000000 0.000000 0.076437
#
#
# Mechanical properties :
#
#
# Convention : Reuss Voigt Hill
#
# Bulk Modulus (GPa) = 32.08234 56.60068 44.34151
# Shear Modulus (GPa) = 15.21530 20.02372 17.61951
#
# Velocity S-wave (km/s) = 2.94477 3.37819 3.16890
# Velocity P-wave (km/s) = 5.46324 6.89019 6.21778
#
# Compressibility (1/GPa) = 0.03116979
#
# Stress axis : x y z
#
# Youngs Moduli (GPa) = 18.85141 35.49086 82.42225
#
# Poissons Ratio (x) = 0.62911 0.39448
# Poissons Ratio (y) = 0.33416 0.70725
# Poissons Ratio (z) = 0.09023 0.30454
#
# Static dielectric constant tensor:
#      x y z
#    x 1.586840 0.000000 0.000000 
#    y 0.000000 1.576250 0.000000 
#    z 0.000000 0.000000 1.620360 
# 
# From -- ./inp_files/29569.got.cif
#   From: 2010.05.17/outbox.cif.g08.bks.cpg/sg59_15_cif.got.tgz:29569.got - 2010.06.03 14:40:33.
