data_PCOD9448499
_publ_section_title
;
Structure prediction by ZEFSAII (Michael W. Deem and Ramdas Pophale) SiO2 
 PCOD9448499
Probable space group: P M M N
;
_chemical_formula_sum "Si O2"
_cell_formula_units_Z 48
_cell_length_a 20.098665
_cell_length_b 20.113238
_cell_length_c 5.262852
_cell_angle_alpha 90.000000
_cell_angle_beta 90.000000
_cell_angle_gamma 90.000000
_cell_volume 2127.503882
_symmetry_space_group_name_H-M "P M M N"
_symmetry_group_IT_number 59
_space_group.IT_coordinate_system_code '2'
_symmetry_cell_setting 'orthorhombic'
loop_
_space_group_symop_operation_xyz
x,y,z
1/2-x,1/2-y,z
1/2+x,-y,-z
-x,1/2+y,-z
-x,-y,-z
1/2+x,1/2+y,-z
1/2-x,y,z
x,1/2-y,z
loop_
_atom_site_type_symbol
_atom_site_label
_atom_site_fract_x
_atom_site_fract_y
_atom_site_fract_z
Si Si1 0.393797 0.966886 0.053272
Si Si2 0.983973 0.178442 0.472745
Si Si3 0.828826 0.590522 0.716884
Si Si4 0.531668 0.550170 0.305275
Si Si5 0.393110 0.823961 0.026726
Si Si6 0.670959 0.674363 0.197775
O O1 0.356787 0.896226 0.021665
O O2 0.363975 0.018299 0.257945
O O3 0.404366 0.014693 0.811934
O O4 0.470377 0.944353 0.106065
O O5 0.017581 0.250000 0.468022
O O6 0.033203 0.119812 0.549049
O O7 0.945313 0.171176 0.207708
O O8 0.929352 0.178725 0.699254
O O9 0.750000 0.578268 0.761618
O O10 0.856528 0.636616 0.948261
O O11 0.833058 0.631211 0.454786
O O12 0.500000 0.500000 0.500000
O O13 0.360475 0.750000 0.995876
O O14 0.750000 0.680075 0.148820
O O15 0.645380 0.750000 0.219283
#
# Coordination Sequence:
#
# PCOD9448499 Si02
#       6
#     8   8   8   8   8   8
#     4  10  21  33  53  77 108 137 177 222 265 323
#     4   9  17  30  47  68  98 131 169 208 247 304
#     4  10  21  35  56  82 107 140 181 227 272 314
#     4  10  19  33  52  75 102 142 175 213 267 318
#     4   9  17  30  49  72  95 132 173 205 249 310
#     4   9  18  35  57  79 106 144 186 221 261 318
#
# _framework density 22.561648000000002
#
# number of rings (size 3 to 8) (size 9 to 14) (size 15 to 20)
#    0.000    2.500    1.667    0.500    2.333    2.000 
#    0.000    1.667    0.000    2.500    0.000    0.000 
#    0.000    8.667    0.000    0.000    0.000    2.000 
#
# Total GULP energy -267369.415867 kJ/mol
# GULP energy per Si atom -5570.196164 kJ/mol
# Density = 2.251030 g / cm^3
# Si number density = 22.561648 Si / 1000 Ang^3
#
#
#
# Elastic Constant Matrix: (Units=GPa)
#
#
# Indices 1 2 3 4 5 6 
#
# 1 30.0579 13.3834 3.1435 0.0000 0.0000 0.0000
# 2 13.3834 240.8583 39.5105 0.0000 0.0000 0.0000
# 3 3.1435 39.5105 119.5015 0.0000 0.0000 0.0000
# 4 0.0000 0.0000 0.0000 28.1522 0.0000 0.0000
# 5 0.0000 0.0000 0.0000 0.0000 17.5138 0.0000
# 6 0.0000 0.0000 0.0000 0.0000 0.0000 22.6070
#
#
#
# Elastic Compliance Matrix: (Units=1/GPa)
#
#
# Indices 1 2 3 4 5 6 
#
# 1 0.034122 -0.001849 -0.000286 0.000000 0.000000 0.000000
# 2 -0.001849 0.004490 -0.001436 0.000000 0.000000 0.000000
# 3 -0.000286 -0.001436 0.008850 0.000000 0.000000 0.000000
# 4 0.000000 0.000000 0.000000 0.035521 0.000000 0.000000
# 5 0.000000 0.000000 0.000000 0.000000 0.057098 0.000000
# 6 0.000000 0.000000 0.000000 0.000000 0.000000 0.044234
#
#
# Mechanical properties :
#
#
# Convention : Reuss Voigt Hill
#
# Bulk Modulus (GPa) = 24.80131 55.83250 40.31691
# Shear Modulus (GPa) = 24.40231 35.94661 30.17446
#
# Velocity S-wave (km/s) = 3.29231 3.99590 3.66105
# Velocity P-wave (km/s) = 5.04668 6.78896 5.98159
#
# Compressibility (1/GPa) = 0.04032045
#
# Stress axis : x y z
#
# Youngs Moduli (GPa) = 29.30624 222.71167 112.98949
#
# Poissons Ratio (x) = 0.41181 0.03234
# Poissons Ratio (y) = 0.05419 0.16224
# Poissons Ratio (z) = 0.00839 0.31979
#
# Static dielectric constant tensor:
#      x y z
#    x 2.151480 0.000000 0.000000 
#    y 0.000000 1.958300 0.000000 
#    z 0.000000 0.000000 1.876490 
# 
# From -- ./inp_files/3809.got.cif
#   From: 2010.05.17/outbox.cif.g08.bks.cpg/sg59_2_cif.got.tgz:3809.got - 2010.06.03 14:40:33.
