data_PCOD9448952
_publ_section_title
;
Structure prediction by ZEFSAII (Michael W. Deem and Ramdas Pophale) SiO2 
 PCOD9448952
Probable space group: P M M N
;
_chemical_formula_sum "Si O2"
_cell_formula_units_Z 48
_cell_length_a 31.830019
_cell_length_b 9.055204
_cell_length_c 9.182517
_cell_angle_alpha 90.000000
_cell_angle_beta 90.000000
_cell_angle_gamma 90.000000
_cell_volume 2646.652223
_symmetry_space_group_name_H-M "P M M N"
_symmetry_group_IT_number 59
_space_group.IT_coordinate_system_code '2'
_symmetry_cell_setting 'orthorhombic'
loop_
_space_group_symop_operation_xyz
x,y,z
1/2-x,1/2-y,z
1/2+x,-y,-z
-x,1/2+y,-z
-x,-y,-z
1/2+x,1/2+y,-z
1/2-x,y,z
x,1/2-y,z
loop_
_atom_site_type_symbol
_atom_site_label
_atom_site_fract_x
_atom_site_fract_y
_atom_site_fract_z
Si Si1 0.419361 0.571599 0.347176
Si Si2 0.664173 0.426129 0.830657
Si Si3 0.500825 0.927039 0.157526
Si Si4 0.250000 0.421167 0.823186
Si Si5 0.250000 0.080896 0.177587
Si Si6 0.584644 0.927362 0.337303
Si Si7 0.337021 0.573057 0.825008
O O1 0.419750 0.750000 0.367244
O O2 0.376855 0.532133 0.260548
O O3 0.459946 0.530939 0.251387
O O4 0.420355 0.491647 0.501417
O O5 0.669681 0.250000 0.820278
O O6 0.706916 0.502270 0.777518
O O7 0.657725 0.459998 0.002152
O O8 0.499823 0.750000 0.140404
O O9 0.543225 0.965793 0.243857
O O10 0.500000 0.000000 0.000000
O O11 0.250000 0.250000 0.777555
O O12 0.292340 0.504884 0.777820
O O13 0.250000 0.423710 0.000392
O O14 0.250000 0.250000 0.224509
O O15 0.588663 0.750000 0.340735
O O16 0.625185 0.999646 0.262457
O O17 0.336939 0.750000 0.807135
#
# Coordination Sequence:
#
# PCOD9448952 Si02
#       7
#     8   8   8   4   4   8   8
#     4  10  21  38  57  79 109 146 184 223 269 327
#     4   9  18  33  55  80 106 139 183 227 266 315
#     4  10  22  39  60  85 111 140 180 226 274 328
#     4   9  17  31  52  81 114 143 178 230 278 319
#     4   9  17  29  50  79 110 141 174 218 274 323
#     4  11  23  37  54  81 114 146 180 224 275 326
#     4  10  19  34  57  82 109 146 187 226 271 326
#
# _framework density 18.136119999999998
#
# number of rings (size 3 to 8) (size 9 to 14) (size 15 to 20)
#    0.000    2.167    0.000    3.000    0.000    6.667 
#    0.000    0.833    0.000    3.000    0.000    0.000 
#    0.000    0.000    0.000    0.000    0.000    0.000 
#
# Total GULP energy -268039.676941 kJ/mol
# GULP energy per Si atom -5584.159936 kJ/mol
# Density = 1.809484 g / cm^3
# Si number density = 18.136120 Si / 1000 Ang^3
#
#
#
# Elastic Constant Matrix: (Units=GPa)
#
#
# Indices 1 2 3 4 5 6 
#
# 1 221.2672 82.9282 107.7869 0.0000 0.0000 0.0000
# 2 82.9282 60.6343 64.9653 0.0000 0.0000 0.0000
# 3 107.7869 64.9653 124.1725 0.0000 0.0000 0.0000
# 4 0.0000 0.0000 0.0000 30.3273 0.0000 0.0000
# 5 0.0000 0.0000 0.0000 0.0000 -13.8973 0.0000
# 6 0.0000 0.0000 0.0000 0.0000 0.0000 16.8229
#
#
#
# Elastic Compliance Matrix: (Units=1/GPa)
#
#
# Indices 1 2 3 4 5 6 
#
# 1 0.009874 -0.009833 -0.003426 0.000000 0.000000 0.000000
# 2 -0.009833 0.047323 -0.016223 0.000000 0.000000 0.000000
# 3 -0.003426 -0.016223 0.019515 0.000000 0.000000 0.000000
# 4 0.000000 0.000000 0.000000 0.032974 0.000000 0.000000
# 5 0.000000 0.000000 0.000000 0.000000 -0.071956 0.000000
# 6 0.000000 0.000000 0.000000 0.000000 0.000000 0.059443
#
#
# Mechanical properties :
#
#
# Convention : Reuss Voigt Hill
#
# Bulk Modulus (GPa) = 56.34843 101.93724 79.14283
# Shear Modulus (GPa) = 30.85419 16.67680 23.76549
#
# Velocity S-wave (km/s) = 4.12910 3.03567 3.62387
# Velocity P-wave (km/s) = 7.33961 8.28347 7.82578
#
# Compressibility (1/GPa) = 0.01774672
#
# Stress axis : x y z
#
# Youngs Moduli (GPa) = 101.27737 21.13152 51.24226
#
# Poissons Ratio (x) = 0.20779 0.17557
# Poissons Ratio (y) = 0.99588 0.83130
# Poissons Ratio (z) = 0.34701 0.34282
#
# Static dielectric constant tensor:
#      x y z
#    x 1.604720 0.000000 0.000000 
#    y 0.000000 1.604060 0.000000 
#    z 0.000000 0.000000 1.593340 
# 
# From -- ./inp_files/13015.got.cif
#   From: 2010.05.17/outbox.cif.g08.bks.cpg/sg59_7_cif.got.tgz:13015.got - 2010.06.03 14:40:33.
