data_PCOD9448293
_publ_section_title
;
Structure prediction by ZEFSAII (Michael W. Deem and Ramdas Pophale) SiO2 
 PCOD9448293
Probable space group: P M M N
;
_chemical_formula_sum "Si O2"
_cell_formula_units_Z 64
_cell_length_a 8.488229
_cell_length_b 29.237785
_cell_length_c 14.354550
_cell_angle_alpha 90.000000
_cell_angle_beta 90.000000
_cell_angle_gamma 90.000000
_cell_volume 3562.469364
_symmetry_space_group_name_H-M "P M M N"
_symmetry_group_IT_number 59
_space_group.IT_coordinate_system_code '2'
_symmetry_cell_setting 'orthorhombic'
loop_
_space_group_symop_operation_xyz
x,y,z
1/2-x,1/2-y,z
1/2+x,-y,-z
-x,1/2+y,-z
-x,-y,-z
1/2+x,1/2+y,-z
1/2-x,y,z
x,1/2-y,z
loop_
_atom_site_type_symbol
_atom_site_label
_atom_site_fract_x
_atom_site_fract_y
_atom_site_fract_z
Si Si1 0.939148 0.642414 0.582616
Si Si2 0.560976 0.935940 0.729646
Si Si3 0.561573 0.301440 0.764446
Si Si4 0.061011 0.627133 0.879593
Si Si5 0.940654 0.878930 0.374392
Si Si6 0.560743 0.984228 0.396999
Si Si7 0.439136 0.799164 0.731077
Si Si8 0.437982 0.301843 0.974513
O O1 0.750000 0.642604 0.584253
O O2 0.991388 0.601178 0.650757
O O3 0.991259 0.636177 0.477701
O O4 0.004881 0.687806 0.629091
O O5 0.750000 0.936507 0.732038
O O6 0.500559 0.919835 0.831791
O O7 0.498413 0.982704 0.685243
O O8 0.750000 0.303263 0.775069
O O9 0.521080 0.250000 0.727950
O O10 0.507280 0.343148 0.699711
O O11 0.483747 0.305321 0.866151
O O12 0.250000 0.624480 0.881511
O O13 0.001779 0.663562 0.802818
O O14 0.006449 0.653480 0.972686
O O15 0.750000 0.877293 0.368842
O O16 0.987104 0.932354 0.370791
O O17 0.750000 0.985613 0.402320
O O18 0.500000 0.000000 0.500000
O O19 0.250000 0.799930 0.734156
O O20 0.498023 0.750000 0.759387
O O21 0.250000 0.302538 0.985582
O O22 0.494123 0.250000 0.005094
#
# Coordination Sequence:
#
# PCOD9448293 Si02
#       8
#     8   8   8   8   8   8   8   8
#     4   9  18  32  47  67  98 136 176 217 262 314
#     4  10  19  34  52  77 111 144 181 225 272 326
#     4  10  22  39  58  82 110 141 182 231 277 325
#     4  10  19  32  52  78 107 142 180 223 274 327
#     4  10  21  37  55  78 108 143 184 227 273 326
#     4  11  21  35  56  82 111 146 188 232 276 324
#     4   9  18  30  43  65  99 136 173 214 260 312
#     4  10  20  35  57  83 109 142 183 228 279 333
#
# _framework density 17.965066
#
# number of rings (size 3 to 8) (size 9 to 14) (size 15 to 20)
#    0.000    2.125    1.250    2.250    0.000    5.250 
#    0.000    2.500    0.000    0.750    0.000    0.000 
#    0.000    0.000    0.000    0.000    0.000    0.000 
#
# Total GULP energy -356471.866787 kJ/mol
# GULP energy per Si atom -5569.872919 kJ/mol
# Density = 1.792418 g / cm^3
# Si number density = 17.965066 Si / 1000 Ang^3
#
#
#
# Elastic Constant Matrix: (Units=GPa)
#
#
# Indices 1 2 3 4 5 6 
#
# 1 34.3035 20.6832 16.1518 0.0000 0.0000 0.0000
# 2 20.6832 93.5422 48.5890 0.0000 0.0000 0.0000
# 3 16.1518 48.5890 71.8911 0.0000 0.0000 0.0000
# 4 0.0000 0.0000 0.0000 30.7754 0.0000 0.0000
# 5 0.0000 0.0000 0.0000 0.0000 28.0837 0.0000
# 6 0.0000 0.0000 0.0000 0.0000 0.0000 23.6064
#
#
#
# Elastic Compliance Matrix: (Units=1/GPa)
#
#
# Indices 1 2 3 4 5 6 
#
# 1 0.034360 -0.005528 -0.003983 0.000000 0.000000 0.000000
# 2 -0.005528 0.017363 -0.010493 0.000000 0.000000 0.000000
# 3 -0.003983 -0.010493 0.021897 0.000000 0.000000 0.000000
# 4 0.000000 0.000000 0.000000 0.032493 0.000000 0.000000
# 5 0.000000 0.000000 0.000000 0.000000 0.035608 0.000000
# 6 0.000000 0.000000 0.000000 0.000000 0.000000 0.042361
#
#
# Mechanical properties :
#
#
# Convention : Reuss Voigt Hill
#
# Bulk Modulus (GPa) = 29.75243 41.17612 35.46428
# Shear Modulus (GPa) = 21.24976 24.11396 22.68186
#
# Velocity S-wave (km/s) = 3.44297 3.66767 3.55710
# Velocity P-wave (km/s) = 5.69233 6.39575 6.05427
#
# Compressibility (1/GPa) = 0.03361070
#
# Stress axis : x y z
#
# Youngs Moduli (GPa) = 29.10328 57.59272 45.66852
#
# Poissons Ratio (x) = 0.31840 0.18191
# Poissons Ratio (y) = 0.16089 0.47921
# Poissons Ratio (z) = 0.11593 0.60434
#
# Static dielectric constant tensor:
#      x y z
#    x 1.608470 0.000000 0.000000 
#    y 0.000000 1.665010 0.000000 
#    z 0.000000 0.000000 1.617520 
# 
# From -- ./inp_files/15026.got.cif
#   From: 2010.05.17/outbox.cif.g08.bks.cpg/sg59_8_cif.got.tgz:15026.got - 2010.06.03 14:40:33.
