data_PCOD9448554
_publ_section_title
;
Structure prediction by ZEFSAII (Michael W. Deem and Ramdas Pophale) SiO2 
 PCOD9448554
Probable space group: P M M N
;
_chemical_formula_sum "Si O2"
_cell_formula_units_Z 56
_cell_length_a 15.586548
_cell_length_b 13.832471
_cell_length_c 12.753647
_cell_angle_alpha 90.000000
_cell_angle_beta 90.000000
_cell_angle_gamma 90.000000
_cell_volume 2749.692328
_symmetry_space_group_name_H-M "P M M N"
_symmetry_group_IT_number 59
_space_group.IT_coordinate_system_code '2'
_symmetry_cell_setting 'orthorhombic'
loop_
_space_group_symop_operation_xyz
x,y,z
1/2-x,1/2-y,z
1/2+x,-y,-z
-x,1/2+y,-z
-x,-y,-z
1/2+x,1/2+y,-z
1/2-x,y,z
x,1/2-y,z
loop_
_atom_site_type_symbol
_atom_site_label
_atom_site_fract_x
_atom_site_fract_y
_atom_site_fract_z
Si Si1 0.656292 0.132575 0.157907
Si Si2 0.654870 0.867670 0.930899
Si Si3 0.651256 0.133562 0.797191
Si Si4 0.475964 0.632315 0.020116
Si Si5 0.115926 0.139257 0.310351
Si Si6 0.582182 0.362291 0.371791
Si Si7 0.347031 0.953340 0.428326
O O1 0.750000 0.103342 0.118419
O O2 0.654766 0.250000 0.160909
O O3 0.579593 0.105339 0.081700
O O4 0.641341 0.100963 0.277016
O O5 0.750000 0.899870 0.963614
O O6 0.654317 0.750000 0.933842
O O7 0.573835 0.899180 0.000860
O O8 0.640326 0.891457 0.807860
O O9 0.750000 0.102179 0.820817
O O10 0.652349 0.250000 0.801410
O O11 0.629691 0.100653 0.679767
O O12 0.579219 0.100135 0.879477
O O13 0.477784 0.750000 0.024585
O O14 0.144278 0.250000 0.324414
O O15 0.013545 0.136717 0.325463
O O16 0.151478 0.065175 0.395379
O O17 0.603655 0.250000 0.396300
O O18 0.593019 0.424427 0.475914
O O19 0.250000 0.924025 0.456754
#
# Coordination Sequence:
#
# PCOD9448554 Si02
#       7
#     8   8   8   8   8   8   8
#     4   9  15  24  44  74 105 138 174 213 263 321
#     4   9  16  28  49  75 101 132 177 231 276 311
#     4   9  18  32  50  75 111 151 182 212 261 328
#     4   9  15  27  47  74 106 138 177 221 267 317
#     4  10  20  36  55  76 103 138 183 233 277 317
#     4  10  19  33  53  78 109 142 176 221 274 329
#     4  11  22  34  51  79 113 146 183 222 268 329
#
# _framework density 20.365915000000001
#
# number of rings (size 3 to 8) (size 9 to 14) (size 15 to 20)
#    0.000    2.429    1.429    2.143    0.000    4.000 
#    0.000    0.714    0.000    0.000    0.000    5.000 
#    0.000   16.000    0.000    0.286    0.000    0.000 
#
# Total GULP energy -312725.958254 kJ/mol
# GULP energy per Si atom -5584.392112 kJ/mol
# Density = 2.031956 g / cm^3
# Si number density = 20.365915 Si / 1000 Ang^3
#
#
#
# Elastic Constant Matrix: (Units=GPa)
#
#
# Indices 1 2 3 4 5 6 
#
# 1 145.4715 15.4830 64.3706 0.0000 0.0000 0.0000
# 2 15.4830 67.2255 24.5784 0.0000 0.0000 0.0000
# 3 64.3706 24.5784 91.4790 0.0000 0.0000 0.0000
# 4 0.0000 0.0000 0.0000 24.7264 0.0000 0.0000
# 5 0.0000 0.0000 0.0000 0.0000 -242.1401 0.0000
# 6 0.0000 0.0000 0.0000 0.0000 0.0000 8.4025
#
#
#
# Elastic Compliance Matrix: (Units=1/GPa)
#
#
# Indices 1 2 3 4 5 6 
#
# 1 0.009988 0.000299 -0.007108 0.000000 0.000000 0.000000
# 2 0.000299 0.016505 -0.004645 0.000000 0.000000 0.000000
# 3 -0.007108 -0.004645 0.017181 0.000000 0.000000 0.000000
# 4 0.000000 0.000000 0.000000 0.040443 0.000000 0.000000
# 5 0.000000 0.000000 0.000000 0.000000 -0.004130 0.000000
# 6 0.000000 0.000000 0.000000 0.000000 0.000000 0.119013
#
#
# Mechanical properties :
#
#
# Convention : Reuss Voigt Hill
#
# Bulk Modulus (GPa) = 48.15765 57.00446 52.58105
# Shear Modulus (GPa) = 21.85035 -28.48599 -3.31782
#
# Velocity S-wave (km/s) = 3.27905 -3.74399 -1.27775
# Velocity P-wave (km/s) = 6.16715 3.05957 4.86799
#
# Compressibility (1/GPa) = 0.02076513
#
# Stress axis : x y z
#
# Youngs Moduli (GPa) = 100.12196 60.58903 58.20315
#
# Poissons Ratio (x) = -0.01809 0.41372
# Poissons Ratio (y) = -0.02989 0.27033
# Poissons Ratio (z) = 0.71170 0.28141
#
# Static dielectric constant tensor:
#      x y z
#    x 1.756510 0.000000 0.000000 
#    y 0.000000 1.754790 0.000000 
#    z 0.000000 0.000000 1.673420 
# 
# From -- ./inp_files/16944.got.cif
#   From: 2010.05.17/outbox.cif.g08.bks.cpg/sg59_9_cif.got.tgz:16944.got - 2010.06.03 14:40:33.
