data_PCOD9448012
_publ_section_title
;
Structure prediction by ZEFSAII (Michael W. Deem and Ramdas Pophale) SiO2 
 PCOD9448012
Probable space group: P M M N
;
_chemical_formula_sum "Si O2"
_cell_formula_units_Z 64
_cell_length_a 15.196918
_cell_length_b 22.328326
_cell_length_c 10.391111
_cell_angle_alpha 90.000000
_cell_angle_beta 90.000000
_cell_angle_gamma 90.000000
_cell_volume 3525.929858
_symmetry_space_group_name_H-M "P M M N"
_symmetry_group_IT_number 59
_space_group.IT_coordinate_system_code '2'
_symmetry_cell_setting 'orthorhombic'
loop_
_space_group_symop_operation_xyz
x,y,z
1/2-x,1/2-y,z
1/2+x,-y,-z
-x,1/2+y,-z
-x,-y,-z
1/2+x,1/2+y,-z
1/2-x,y,z
x,1/2-y,z
loop_
_atom_site_type_symbol
_atom_site_label
_atom_site_fract_x
_atom_site_fract_y
_atom_site_fract_z
Si Si1 0.844506 0.132828 0.271129
Si Si2 0.148500 0.633090 0.034167
Si Si3 0.145391 0.424888 0.881664
Si Si4 0.609036 0.494409 0.365232
Si Si5 0.035454 0.318909 0.281460
Si Si6 0.352020 0.505961 0.112241
Si Si7 0.963667 0.683379 0.026197
Si Si8 0.409154 0.446219 0.369651
O O1 0.750000 0.163140 0.292079
O O2 0.930701 0.171084 0.302958
O O3 0.846248 0.070083 0.346364
O O4 0.850295 0.117789 0.118485
O O5 0.250000 0.650111 0.067834
O O6 0.116778 0.574138 0.110773
O O7 0.068813 0.679097 0.049639
O O8 0.250000 0.413244 0.899294
O O9 0.131938 0.462355 0.752420
O O10 0.090116 0.364449 0.892075
O O11 0.109216 0.465989 0.998712
O O12 0.506367 0.475695 0.360715
O O13 0.629090 0.529057 0.497144
O O14 0.059452 0.250000 0.313517
O O15 0.081991 0.374252 0.354848
O O16 0.050223 0.327657 0.127524
O O17 0.250000 0.513052 0.076821
O O18 0.360197 0.472512 0.246189
O O19 0.932835 0.750000 0.054503
#
# Coordination Sequence:
#
# PCOD9448012 Si02
#       8
#     8   8   8   8   8   8   8   8
#     4   9  16  28  48  76 107 134 164 207 260 319
#     4   9  17  30  51  80 110 137 169 212 266 329
#     4  11  21  34  54  78 104 139 181 222 266 313
#     4  10  20  32  52  78 105 138 170 214 277 322
#     4   9  18  32  50  72 101 138 177 213 254 309
#     4  10  19  31  51  78 104 133 170 212 263 317
#     4  10  20  33  52  76 103 142 182 219 264 309
#     4  10  20  34  51  77 107 136 174 217 265 320
#
# _framework density 18.151240999999999
#
# number of rings (size 3 to 8) (size 9 to 14) (size 15 to 20)
#    0.000    2.250    2.500    1.125    0.000    2.750 
#    0.000    3.125    0.000    0.375    0.000    0.000 
#    0.000    6.000    0.000    0.000    0.000    0.000 
#
# Total GULP energy -356609.615564 kJ/mol
# GULP energy per Si atom -5572.025243 kJ/mol
# Density = 1.810993 g / cm^3
# Si number density = 18.151241 Si / 1000 Ang^3
#
#
#
# Elastic Constant Matrix: (Units=GPa)
#
#
# Indices 1 2 3 4 5 6 
#
# 1 35.3420 8.8703 -0.4882 0.0000 0.0000 0.0000
# 2 8.8703 94.3050 26.8005 0.0000 0.0000 0.0000
# 3 -0.4882 26.8005 60.2141 0.0000 0.0000 0.0000
# 4 0.0000 0.0000 0.0000 17.2742 0.0000 0.0000
# 5 0.0000 0.0000 0.0000 0.0000 67.1602 0.0000
# 6 0.0000 0.0000 0.0000 0.0000 0.0000 11.1463
#
#
#
# Elastic Compliance Matrix: (Units=1/GPa)
#
#
# Indices 1 2 3 4 5 6 
#
# 1 0.029124 -0.003213 0.001666 0.000000 0.000000 0.000000
# 2 -0.003213 0.012494 -0.005587 0.000000 0.000000 0.000000
# 3 0.001666 -0.005587 0.019108 0.000000 0.000000 0.000000
# 4 0.000000 0.000000 0.000000 0.057890 0.000000 0.000000
# 5 0.000000 0.000000 0.000000 0.000000 0.014890 0.000000
# 6 0.000000 0.000000 0.000000 0.000000 0.000000 0.089716
#
#
# Mechanical properties :
#
#
# Convention : Reuss Voigt Hill
#
# Bulk Modulus (GPa) = 21.52459 28.91401 25.21930
# Shear Modulus (GPa) = 19.76483 29.42804 24.59643
#
# Velocity S-wave (km/s) = 3.30342 4.03087 3.68514
# Velocity P-wave (km/s) = 5.14143 6.13416 5.65961
#
# Compressibility (1/GPa) = 0.04645850
#
# Stress axis : x y z
#
# Youngs Moduli (GPa) = 34.33550 80.03950 52.33527
#
# Poissons Ratio (x) = 0.25716 -0.08720
# Poissons Ratio (y) = 0.11032 0.29239
# Poissons Ratio (z) = -0.05721 0.44717
#
# Static dielectric constant tensor:
#      x y z
#    x 1.668570 0.000000 0.000000 
#    y 0.000000 1.628490 0.000000 
#    z 0.000000 0.000000 1.597670 
# 
# From -- ./inp_files/10662.got.cif
#   From: 2010.05.17/outbox.cif.g08.bks.cpg/sg59_6_cif.got.tgz:10662.got - 2010.06.03 14:40:33.
