data_PCOD9448266
_publ_section_title
;
Structure prediction by ZEFSAII (Michael W. Deem and Ramdas Pophale) SiO2 
 PCOD9448266
Probable space group: P M M N
;
_chemical_formula_sum "Si O2"
_cell_formula_units_Z 64
_cell_length_a 18.167849
_cell_length_b 8.683071
_cell_length_c 23.395113
_cell_angle_alpha 90.000000
_cell_angle_beta 90.000000
_cell_angle_gamma 90.000000
_cell_volume 3690.642776
_symmetry_space_group_name_H-M "P M M N"
_symmetry_group_IT_number 59
_space_group.IT_coordinate_system_code '2'
_symmetry_cell_setting 'orthorhombic'
loop_
_space_group_symop_operation_xyz
x,y,z
1/2-x,1/2-y,z
1/2+x,-y,-z
-x,1/2+y,-z
-x,-y,-z
1/2+x,1/2+y,-z
1/2-x,y,z
x,1/2-y,z
loop_
_atom_site_type_symbol
_atom_site_label
_atom_site_fract_x
_atom_site_fract_y
_atom_site_fract_z
Si Si1 0.015387 0.434713 0.742622
Si Si2 0.125671 0.435137 0.582465
Si Si3 0.668289 0.434103 0.296190
Si Si4 0.334165 0.936644 0.061050
Si Si5 0.668827 0.935460 0.544435
Si Si6 0.434010 0.564785 0.961529
Si Si7 0.466923 0.064978 0.138336
Si Si8 0.462033 0.566116 0.381442
O O1 0.015158 0.250000 0.744041
O O2 0.099678 0.491250 0.736708
O O3 0.976287 0.500387 0.798411
O O4 0.974932 0.485015 0.683956
O O5 0.136260 0.250000 0.588341
O O6 0.160858 0.514530 0.637619
O O7 0.155511 0.485489 0.521152
O O8 0.038486 0.466951 0.585975
O O9 0.750000 0.479327 0.275682
O O10 0.661835 0.250000 0.292573
O O11 0.250000 0.985613 0.071611
O O12 0.336651 0.750000 0.064917
O O13 0.394729 0.002660 0.105093
O O14 0.361150 0.981088 0.996654
O O15 0.750000 0.986049 0.562912
O O16 0.666845 0.750000 0.543555
O O17 0.605762 0.992817 0.586115
O O18 0.435393 0.750000 0.962205
O O19 0.459697 0.518089 0.898168
O O20 0.500000 0.500000 0.000000
O O21 0.463072 0.250000 0.139431
O O22 0.452718 0.750000 0.380943
#
# Coordination Sequence:
#
# PCOD9448266 Si02
#       8
#     8   8   8   8   8   8   8   8
#     4  10  21  37  55  73  97 134 177 212 248 300
#     4   9  18  33  52  73  98 128 161 197 245 309
#     4  10  20  33  51  77 104 128 160 205 254 300
#     4   9  17  31  52  77 105 137 171 206 247 297
#     4  10  20  32  48  72 100 129 160 198 250 308
#     4   8  15  28  47  72 100 129 160 195 240 292
#     4  10  19  32  52  77 104 134 171 214 256 297
#     4   9  19  34  51  71  93 124 166 208 249 293
#
# _framework density 17.341152999999998
#
# number of rings (size 3 to 8) (size 9 to 14) (size 15 to 20)
#    0.000    2.625    0.000    2.625    0.000    5.500 
#    0.000    1.250    0.000    3.000    0.000    0.000 
#    0.000    0.000    0.000    0.000    0.000    0.000 
#
# Total GULP energy -356603.045045 kJ/mol
# GULP energy per Si atom -5571.922579 kJ/mol
# Density = 1.730168 g / cm^3
# Si number density = 17.341153 Si / 1000 Ang^3
#
#
#
# Elastic Constant Matrix: (Units=GPa)
#
#
# Indices 1 2 3 4 5 6 
#
# 1 107.4218 29.4020 49.2866 0.0000 0.0000 0.0000
# 2 29.4020 20.4946 18.9548 0.0000 0.0000 0.0000
# 3 49.2866 18.9548 69.1385 0.0000 0.0000 0.0000
# 4 0.0000 0.0000 0.0000 20.6073 0.0000 0.0000
# 5 0.0000 0.0000 0.0000 0.0000 16.9568 0.0000
# 6 0.0000 0.0000 0.0000 0.0000 0.0000 24.1870
#
#
#
# Elastic Compliance Matrix: (Units=1/GPa)
#
#
# Indices 1 2 3 4 5 6 
#
# 1 0.017927 -0.018620 -0.007675 0.000000 0.000000 0.000000
# 2 -0.018620 0.084708 -0.009950 0.000000 0.000000 0.000000
# 3 -0.007675 -0.009950 0.022662 0.000000 0.000000 0.000000
# 4 0.000000 0.000000 0.000000 0.048527 0.000000 0.000000
# 5 0.000000 0.000000 0.000000 0.000000 0.058973 0.000000
# 6 0.000000 0.000000 0.000000 0.000000 0.000000 0.041344
#
#
# Mechanical properties :
#
#
# Convention : Reuss Voigt Hill
#
# Bulk Modulus (GPa) = 18.93626 43.59353 31.26490
# Shear Modulus (GPa) = 13.72746 18.97765 16.35256
#
# Velocity S-wave (km/s) = 2.81661 3.31172 3.07415
# Velocity P-wave (km/s) = 4.63910 6.31004 5.53796
#
# Compressibility (1/GPa) = 0.05280873
#
# Stress axis : x y z
#
# Youngs Moduli (GPa) = 55.78252 11.80522 44.12584
#
# Poissons Ratio (x) = 0.21982 0.33865
# Poissons Ratio (y) = 1.03868 0.43904
# Poissons Ratio (z) = 0.42811 0.11746
#
# Static dielectric constant tensor:
#      x y z
#    x 1.590750 0.000000 0.000000 
#    y 0.000000 1.587410 0.000000 
#    z 0.000000 0.000000 1.583480 
# 
# From -- ./inp_files/30710.got.cif
#   From: 2010.05.17/outbox.cif.g08.bks.cpg/sg59_16_cif.got.tgz:30710.got - 2010.06.03 14:40:33.
