data_PCOD9448050
_publ_section_title
;
Structure prediction by ZEFSAII (Michael W. Deem and Ramdas Pophale) SiO2 
 PCOD9448050
Probable space group: P M M N
;
_chemical_formula_sum "Si O2"
_cell_formula_units_Z 64
_cell_length_a 13.612957
_cell_length_b 18.324581
_cell_length_c 15.441835
_cell_angle_alpha 90.000000
_cell_angle_beta 90.000000
_cell_angle_gamma 90.000000
_cell_volume 3851.992504
_symmetry_space_group_name_H-M "P M M N"
_symmetry_group_IT_number 59
_space_group.IT_coordinate_system_code '2'
_symmetry_cell_setting 'orthorhombic'
loop_
_space_group_symop_operation_xyz
x,y,z
1/2-x,1/2-y,z
1/2+x,-y,-z
-x,1/2+y,-z
-x,-y,-z
1/2+x,1/2+y,-z
1/2-x,y,z
x,1/2-y,z
loop_
_atom_site_type_symbol
_atom_site_label
_atom_site_fract_x
_atom_site_fract_y
_atom_site_fract_z
Si Si1 0.941491 0.334486 0.286701
Si Si2 0.517527 0.332399 0.090595
Si Si3 0.137160 0.043764 0.108316
Si Si4 0.046547 0.948704 0.398719
Si Si5 0.365614 0.546359 0.582166
Si Si6 0.866422 0.334733 0.732461
Si Si7 0.361159 0.415325 0.307881
Si Si8 0.867570 0.379065 0.925742
O O1 0.918682 0.250000 0.305927
O O2 0.930170 0.346822 0.183249
O O3 0.882216 0.392855 0.343554
O O4 0.056303 0.352905 0.306072
O O5 0.478377 0.250000 0.096751
O O6 0.431965 0.391133 0.078996
O O7 0.587421 0.340158 0.008442
O O8 0.250000 0.054811 0.081507
O O9 0.135263 0.046579 0.213122
O O10 0.104022 0.964501 0.076606
O O11 0.085540 0.925071 0.492765
O O12 0.072259 0.887622 0.328924
O O13 0.107003 0.022204 0.374648
O O14 0.933469 0.975489 0.397690
O O15 0.250000 0.531621 0.571996
O O16 0.750000 0.354170 0.725073
O O17 0.877164 0.250000 0.708865
O O18 0.895096 0.345459 0.832868
O O19 0.250000 0.390061 0.322653
O O20 0.750000 0.375453 0.930819
#
# Coordination Sequence:
#
# PCOD9448050 Si02
#       8
#     8   8   8   8   8   8   8   8
#     4   9  20  34  47  71 104 137 172 206 242 291
#     4  10  20  33  49  70 101 139 172 205 249 296
#     4   9  17  30  50  74  99 128 165 211 253 294
#     4  10  19  34  55  77 102 129 164 208 252 304
#     4  10  21  35  54  76  99 134 173 206 246 295
#     4  10  19  31  52  82 108 128 158 206 262 310
#     4   9  15  28  52  76 100 129 161 204 255 299
#     4  10  19  32  51  75 101 130 168 209 253 302
#
# _framework density 16.614778000000001
#
# number of rings (size 3 to 8) (size 9 to 14) (size 15 to 20)
#    0.000    2.375    1.250    1.875    0.000    2.500 
#    0.000    3.750    0.000    0.375    0.000    0.000 
#    0.000    0.000    0.000    0.000    0.000    0.000 
#
# Total GULP energy -356733.469719 kJ/mol
# GULP energy per Si atom -5573.960464 kJ/mol
# Density = 1.657696 g / cm^3
# Si number density = 16.614778 Si / 1000 Ang^3
#
#
#
# Elastic Constant Matrix: (Units=GPa)
#
#
# Indices 1 2 3 4 5 6 
#
# 1 77.9004 32.9403 33.1295 0.0000 0.0000 0.0000
# 2 32.9403 74.4490 40.5667 0.0000 0.0000 0.0000
# 3 33.1295 40.5667 85.4379 0.0000 0.0000 0.0000
# 4 0.0000 0.0000 0.0000 12.9490 0.0000 0.0000
# 5 0.0000 0.0000 0.0000 0.0000 19.5398 0.0000
# 6 0.0000 0.0000 0.0000 0.0000 0.0000 13.4823
#
#
#
# Elastic Compliance Matrix: (Units=1/GPa)
#
#
# Indices 1 2 3 4 5 6 
#
# 1 0.016754 -0.005225 -0.004016 0.000000 0.000000 0.000000
# 2 -0.005225 0.019749 -0.007351 0.000000 0.000000 0.000000
# 3 -0.004016 -0.007351 0.016752 0.000000 0.000000 0.000000
# 4 0.000000 0.000000 0.000000 0.077226 0.000000 0.000000
# 5 0.000000 0.000000 0.000000 0.000000 0.051177 0.000000
# 6 0.000000 0.000000 0.000000 0.000000 0.000000 0.074171
#
#
# Mechanical properties :
#
#
# Convention : Reuss Voigt Hill
#
# Bulk Modulus (GPa) = 49.82096 50.11780 49.96938
# Shear Modulus (GPa) = 16.90880 17.93762 17.42321
#
# Velocity S-wave (km/s) = 3.19360 3.28932 3.24181
# Velocity P-wave (km/s) = 6.60680 6.68253 6.64477
#
# Compressibility (1/GPa) = 0.02007187
#
# Stress axis : x y z
#
# Youngs Moduli (GPa) = 59.68712 50.63462 59.69425
#
# Poissons Ratio (x) = 0.26455 0.23972
# Poissons Ratio (y) = 0.31185 0.43883
# Poissons Ratio (z) = 0.23969 0.37223
#
# Static dielectric constant tensor:
#      x y z
#    x 1.555960 0.000000 0.000000 
#    y 0.000000 1.550700 0.000000 
#    z 0.000000 0.000000 1.570650 
# 
# From -- ./inp_files/22729.got.cif
#   From: 2010.05.17/outbox.cif.g08.bks.cpg/sg59_12_cif.got.tgz:22729.got - 2010.06.03 14:40:33.
