data_PCOD9448638
_publ_section_title
;
Structure prediction by ZEFSAII (Michael W. Deem and Ramdas Pophale) SiO2 
 PCOD9448638
Probable space group: P M M N
;
_chemical_formula_sum "Si O2"
_cell_formula_units_Z 64
_cell_length_a 19.592984
_cell_length_b 8.748447
_cell_length_c 19.791202
_cell_angle_alpha 90.000000
_cell_angle_beta 90.000000
_cell_angle_gamma 90.000000
_cell_volume 3392.373956
_symmetry_space_group_name_H-M "P M M N"
_symmetry_group_IT_number 59
_space_group.IT_coordinate_system_code '2'
_symmetry_cell_setting 'orthorhombic'
loop_
_space_group_symop_operation_xyz
x,y,z
1/2-x,1/2-y,z
1/2+x,-y,-z
-x,1/2+y,-z
-x,-y,-z
1/2+x,1/2+y,-z
1/2-x,y,z
x,1/2-y,z
loop_
_atom_site_type_symbol
_atom_site_label
_atom_site_fract_x
_atom_site_fract_y
_atom_site_fract_z
Si Si1 0.168757 0.429348 0.848438
Si Si2 0.580417 0.565680 0.279776
Si Si3 0.953848 0.930736 0.940605
Si Si4 0.073501 0.066691 0.572216
Si Si5 0.449351 0.434570 0.211847
Si Si6 0.588153 0.431809 0.569013
Si Si7 0.330607 0.570742 0.990563
Si Si8 0.671582 0.565363 0.694236
O O1 0.250000 0.441959 0.839498
O O2 0.153017 0.250000 0.861676
O O3 0.131035 0.478098 0.780500
O O4 0.149249 0.526634 0.913931
O O5 0.574306 0.750000 0.279912
O O6 0.603355 0.521610 0.355005
O O7 0.507493 0.495952 0.261292
O O8 0.964749 0.750000 0.940778
O O9 0.965246 0.989332 0.864311
O O10 0.876362 0.971385 0.959991
O O11 0.000000 0.000000 0.000000
O O12 0.078921 0.250000 0.563465
O O13 0.992439 0.029133 0.577090
O O14 0.104790 0.986787 0.506818
O O15 0.451142 0.250000 0.210887
O O16 0.376139 0.481609 0.242439
O O17 0.594474 0.250000 0.574668
O O18 0.634170 0.508164 0.626417
O O19 0.250000 0.539885 0.997506
O O20 0.342878 0.750000 0.001873
O O21 0.750000 0.512322 0.698609
O O22 0.672184 0.750000 0.692851
#
# Coordination Sequence:
#
# PCOD9448638 Si02
#       8
#     8   8   8   8   8   8   8   8
#     4   9  18  33  54  79 106 139 178 220 270 329
#     4  10  19  33  54  80 110 143 179 223 270 320
#     4  11  23  38  57  83 113 147 184 232 284 335
#     4   9  18  32  52  79 110 142 177 219 266 317
#     4  10  22  37  55  80 108 139 183 229 275 331
#     4  10  19  33  54  80 108 140 179 223 266 315
#     4  10  21  37  56  78 106 142 184 228 275 332
#     4  10  21  38  58  79 108 146 185 229 280 332
#
# _framework density 18.865846000000001
#
# number of rings (size 3 to 8) (size 9 to 14) (size 15 to 20)
#    0.000    2.125    1.250    1.875    0.000    6.000 
#    0.000    1.875    0.000    2.250    0.000    0.000 
#    0.000    0.000    0.000    0.000    0.000    0.000 
#
# Total GULP energy -357177.716356 kJ/mol
# GULP energy per Si atom -5580.901818 kJ/mol
# Density = 1.882291 g / cm^3
# Si number density = 18.865846 Si / 1000 Ang^3
#
#
#
# Elastic Constant Matrix: (Units=GPa)
#
#
# Indices 1 2 3 4 5 6 
#
# 1 39.1299 11.6516 19.4585 0.0000 0.0000 0.0000
# 2 11.6516 7.2821 14.6145 0.0000 0.0000 0.0000
# 3 19.4585 14.6145 111.6234 0.0000 0.0000 0.0000
# 4 0.0000 0.0000 0.0000 24.7143 0.0000 0.0000
# 5 0.0000 0.0000 0.0000 0.0000 30.0313 0.0000
# 6 0.0000 0.0000 0.0000 0.0000 0.0000 24.9368
#
#
#
# Elastic Compliance Matrix: (Units=1/GPa)
#
#
# Indices 1 2 3 4 5 6 
#
# 1 0.049261 -0.083535 0.002350 0.000000 0.000000 0.000000
# 2 -0.083535 0.327918 -0.028371 0.000000 0.000000 0.000000
# 3 0.002350 -0.028371 0.012264 0.000000 0.000000 0.000000
# 4 0.000000 0.000000 0.000000 0.040462 0.000000 0.000000
# 5 0.000000 0.000000 0.000000 0.000000 0.033299 0.000000
# 6 0.000000 0.000000 0.000000 0.000000 0.000000 0.040101
#
#
# Mechanical properties :
#
#
# Convention : Reuss Voigt Hill
#
# Bulk Modulus (GPa) = 5.87094 27.72051 16.79573
# Shear Modulus (GPa) = 6.41688 23.42385 14.92036
#
# Velocity S-wave (km/s) = 1.84627 3.52746 2.81529
# Velocity P-wave (km/s) = 2.76833 5.59607 4.41473
#
# Compressibility (1/GPa) = 0.17033038
#
# Stress axis : x y z
#
# Youngs Moduli (GPa) = 20.29988 3.04954 81.54165
#
# Poissons Ratio (x) = 0.25474 -0.19159
# Poissons Ratio (y) = 1.69575 2.31344
# Poissons Ratio (z) = -0.04770 0.08652
#
# Static dielectric constant tensor:
#      x y z
#    x 1.657360 0.000000 0.000000 
#    y 0.000000 1.640110 0.000000 
#    z 0.000000 0.000000 1.665230 
# 
# From -- ./inp_files/28147.got.cif
#   From: 2010.05.17/outbox.cif.g08.bks.cpg/sg59_15_cif.got.tgz:28147.got - 2010.06.03 14:40:33.
