data_PCOD9448423
_publ_section_title
;
Structure prediction by ZEFSAII (Michael W. Deem and Ramdas Pophale) SiO2 
 PCOD9448423
Probable space group: P M M N
;
_chemical_formula_sum "Si O2"
_cell_formula_units_Z 56
_cell_length_a 8.914056
_cell_length_b 22.019258
_cell_length_c 14.855182
_cell_angle_alpha 90.000000
_cell_angle_beta 90.000000
_cell_angle_gamma 90.000000
_cell_volume 2915.788476
_symmetry_space_group_name_H-M "P M M N"
_symmetry_group_IT_number 59
_space_group.IT_coordinate_system_code '2'
_symmetry_cell_setting 'orthorhombic'
loop_
_space_group_symop_operation_xyz
x,y,z
1/2-x,1/2-y,z
1/2+x,-y,-z
-x,1/2+y,-z
-x,-y,-z
1/2+x,1/2+y,-z
1/2-x,y,z
x,1/2-y,z
loop_
_atom_site_type_symbol
_atom_site_label
_atom_site_fract_x
_atom_site_fract_y
_atom_site_fract_z
Si Si1 0.928016 0.034234 0.849403
Si Si2 0.070072 0.750000 0.356432
Si Si3 0.428902 0.141081 0.531173
Si Si4 0.929119 0.890657 0.840712
Si Si5 0.429839 0.750000 0.145967
Si Si6 0.428326 0.889799 0.652324
Si Si7 0.070263 0.361531 0.961509
Si Si8 0.571263 0.532595 0.339190
O O1 0.750000 0.043101 0.858849
O O2 0.014446 0.074454 0.921775
O O3 0.982198 0.053036 0.749591
O O4 0.961139 0.962436 0.856108
O O5 0.250000 0.750000 0.362926
O O6 0.028223 0.750000 0.251217
O O7 0.003516 0.808395 0.406379
O O8 0.250000 0.148947 0.529948
O O9 0.492993 0.143020 0.430719
O O10 0.463009 0.075916 0.577115
O O11 0.750000 0.885251 0.826841
O O12 0.012561 0.870697 0.750402
O O13 0.970423 0.857244 0.933025
O O14 0.250000 0.750000 0.139932
O O15 0.495473 0.691075 0.096774
O O16 0.250000 0.882530 0.646863
O O17 0.464194 0.961997 0.643858
O O18 0.250000 0.358267 0.954684
O O19 0.750000 0.536796 0.320644
#
# Coordination Sequence:
#
# PCOD9448423 Si02
#       8
#     8   4   8   8   4   8   8   8
#     4  10  19  32  54  84 117 150 185 230 280 330
#     4  11  25  43  60  81 110 143 183 230 276 325
#     4  11  22  37  58  82 111 148 187 228 276 332
#     4   9  20  37  56  82 115 150 188 230 278 331
#     4  11  25  43  62  85 112 143 183 232 280 327
#     4  10  20  35  57  85 116 148 184 230 279 329
#     4  11  22  37  58  82 112 150 189 230 277 332
#     4   9  19  34  54  83 116 150 187 227 277 335
#
# _framework density 19.205781999999999
#
# number of rings (size 3 to 8) (size 9 to 14) (size 15 to 20)
#    0.000    1.857    0.000    3.857    0.000    6.857 
#    0.000    0.714    0.000    2.571    0.000    0.000 
#    0.000    0.000    0.000    0.000    0.000    0.000 
#
# Total GULP energy -312948.535279 kJ/mol
# GULP energy per Si atom -5588.366701 kJ/mol
# Density = 1.916207 g / cm^3
# Si number density = 19.205782 Si / 1000 Ang^3
#
#
#
# Elastic Constant Matrix: (Units=GPa)
#
#
# Indices 1 2 3 4 5 6 
#
# 1 52.3606 31.5465 72.8350 0.0000 0.0000 0.0000
# 2 31.5465 38.5140 52.7639 0.0000 0.0000 0.0000
# 3 72.8350 52.7639 187.2815 0.0000 0.0000 0.0000
# 4 0.0000 0.0000 0.0000 30.4942 0.0000 0.0000
# 5 0.0000 0.0000 0.0000 0.0000 35.5527 0.0000
# 6 0.0000 0.0000 0.0000 0.0000 0.0000 26.9872
#
#
#
# Elastic Compliance Matrix: (Units=1/GPa)
#
#
# Indices 1 2 3 4 5 6 
#
# 1 0.052928 -0.024678 -0.013631 0.000000 0.000000 0.000000
# 2 -0.024678 0.053792 -0.005558 0.000000 0.000000 0.000000
# 3 -0.013631 -0.005558 0.012207 0.000000 0.000000 0.000000
# 4 0.000000 0.000000 0.000000 0.032793 0.000000 0.000000
# 5 0.000000 0.000000 0.000000 0.000000 0.028127 0.000000
# 6 0.000000 0.000000 0.000000 0.000000 0.000000 0.037055
#
#
# Mechanical properties :
#
#
# Convention : Reuss Voigt Hill
#
# Bulk Modulus (GPa) = 32.05883 65.82743 48.94313
# Shear Modulus (GPa) = 15.87128 26.67420 21.27274
#
# Velocity S-wave (km/s) = 2.87780 3.73079 3.33171
# Velocity P-wave (km/s) = 5.26980 7.27376 6.35132
#
# Compressibility (1/GPa) = 0.03119265
#
# Stress axis : x y z
#
# Youngs Moduli (GPa) = 18.89349 18.59001 81.92219
#
# Poissons Ratio (x) = 0.45877 1.11672
# Poissons Ratio (y) = 0.46626 0.45530
# Poissons Ratio (z) = 0.25755 0.10332
#
# Static dielectric constant tensor:
#      x y z
#    x 1.638340 0.000000 0.000000 
#    y 0.000000 1.669950 0.000000 
#    z 0.000000 0.000000 1.654190 
# 
# From -- ./inp_files/21194.got.cif
#   From: 2010.05.17/outbox.cif.g08.bks.cpg/sg59_11_cif.got.tgz:21194.got - 2010.06.03 14:40:33.
