data_PCOD9448329
_publ_section_title
;
Structure prediction by ZEFSAII (Michael W. Deem and Ramdas Pophale) SiO2 
 PCOD9448329
Probable space group: P M M N
;
_chemical_formula_sum "Si O2"
_cell_formula_units_Z 56
_cell_length_a 14.795622
_cell_length_b 7.701311
_cell_length_c 23.549512
_cell_angle_alpha 90.000000
_cell_angle_beta 90.000000
_cell_angle_gamma 90.000000
_cell_volume 2683.365311
_symmetry_space_group_name_H-M "P M M N"
_symmetry_group_IT_number 59
_space_group.IT_coordinate_system_code '2'
_symmetry_cell_setting 'orthorhombic'
loop_
_space_group_symop_operation_xyz
x,y,z
1/2-x,1/2-y,z
1/2+x,-y,-z
-x,1/2+y,-z
-x,-y,-z
1/2+x,1/2+y,-z
1/2-x,y,z
x,1/2-y,z
loop_
_atom_site_type_symbol
_atom_site_label
_atom_site_fract_x
_atom_site_fract_y
_atom_site_fract_z
Si Si1 0.148054 0.459232 0.902662
Si Si2 0.145377 0.961126 0.469086
Si Si3 0.145443 0.038892 0.030938
Si Si4 0.147865 0.956380 0.251867
Si Si5 0.461582 0.957804 0.360185
Si Si6 0.148334 0.541021 0.597205
Si Si7 0.039148 0.045070 0.139641
O O1 0.250000 0.518579 0.888800
O O2 0.150456 0.250000 0.904355
O O3 0.067588 0.511060 0.861353
O O4 0.125336 0.521813 0.966891
O O5 0.250000 0.004199 0.456639
O O6 0.139827 0.750000 0.470162
O O7 0.081530 0.026318 0.418969
O O8 0.125143 0.021987 0.533095
O O9 0.250000 0.995492 0.043453
O O10 0.139721 0.250000 0.029533
O O11 0.081737 0.972534 0.081020
O O12 0.250000 0.027195 0.247755
O O13 0.155895 0.750000 0.260746
O O14 0.092034 0.026898 0.305672
O O15 0.092054 0.979475 0.194276
O O16 0.449758 0.750000 0.361039
O O17 0.568160 0.991603 0.361013
O O18 0.250000 0.480520 0.611125
O O19 0.151391 0.750000 0.594931
O O20 0.053646 0.250000 0.138548
#
# Coordination Sequence:
#
# PCOD9448329 Si02
#       7
#     8   8   8   8   8   8   8
#     4   9  18  34  55  77 104 138 173 210 253 303
#     4   8  14  27  49  76 104 133 164 200 248 305
#     4   8  15  29  50  77 107 137 168 204 251 306
#     4  10  22  39  56  75 101 134 173 213 251 298
#     4  10  19  32  53  77  99 129 171 215 253 290
#     4   9  18  32  50  74 105 137 165 198 248 308
#     4  11  21  33  53  79 107 138 171 211 258 305
#
# _framework density 20.869316000000001
#
# number of rings (size 3 to 8) (size 9 to 14) (size 15 to 20)
#    0.000    2.714    0.000    3.857    0.000    3.714 
#    0.000    1.429    0.000    4.714    0.000    0.000 
#    0.000    0.000    0.000    0.000    0.000    0.000 
#
# Total GULP energy -312540.795931 kJ/mol
# GULP energy per Si atom -5581.085642 kJ/mol
# Density = 2.082182 g / cm^3
# Si number density = 20.869316 Si / 1000 Ang^3
#
#
#
# Elastic Constant Matrix: (Units=GPa)
#
#
# Indices 1 2 3 4 5 6 
#
# 1 167.8256 -0.3745 100.3933 0.0000 0.0000 0.0000
# 2 -0.3745 34.8225 4.4525 0.0000 0.0000 0.0000
# 3 100.3933 4.4525 82.0960 0.0000 0.0000 0.0000
# 4 0.0000 0.0000 0.0000 14.8688 0.0000 0.0000
# 5 0.0000 0.0000 0.0000 0.0000 26.9948 0.0000
# 6 0.0000 0.0000 0.0000 0.0000 0.0000 16.2101
#
#
#
# Elastic Compliance Matrix: (Units=1/GPa)
#
#
# Indices 1 2 3 4 5 6 
#
# 1 0.022687 0.003818 -0.027951 0.000000 0.000000 0.000000
# 2 0.003818 0.029560 -0.006272 0.000000 0.000000 0.000000
# 3 -0.027951 -0.006272 0.046701 0.000000 0.000000 0.000000
# 4 0.000000 0.000000 0.000000 0.067255 0.000000 0.000000
# 5 0.000000 0.000000 0.000000 0.000000 0.037044 0.000000
# 6 0.000000 0.000000 0.000000 0.000000 0.000000 0.061690
#
#
# Mechanical properties :
#
#
# Convention : Reuss Voigt Hill
#
# Bulk Modulus (GPa) = 26.21995 54.85410 40.53702
# Shear Modulus (GPa) = 14.77277 23.63293 19.20285
#
# Velocity S-wave (km/s) = 2.66347 3.36880 3.03668
# Velocity P-wave (km/s) = 4.69573 6.43998 5.63575
#
# Compressibility (1/GPa) = 0.03813890
#
# Stress axis : x y z
#
# Youngs Moduli (GPa) = 44.07757 33.82944 21.41261
#
# Poissons Ratio (x) = -0.12916 0.59850
# Poissons Ratio (y) = -0.16828 0.13430
# Poissons Ratio (z) = 1.23200 0.21218
#
# Static dielectric constant tensor:
#      x y z
#    x 1.751080 0.000000 0.000000 
#    y 0.000000 1.783060 0.000000 
#    z 0.000000 0.000000 1.738410 
# 
# From -- ./inp_files/30283.got.cif
#   From: 2010.05.17/outbox.cif.g08.bks.cpg/sg59_16_cif.got.tgz:30283.got - 2010.06.03 14:40:33.
