data_PCOD9448379
_publ_section_title
;
Structure prediction by ZEFSAII (Michael W. Deem and Ramdas Pophale) SiO2 
 PCOD9448379
Probable space group: P M M N
;
_chemical_formula_sum "Si O2"
_cell_formula_units_Z 64
_cell_length_a 24.727043
_cell_length_b 7.472201
_cell_length_c 15.029378
_cell_angle_alpha 90.000000
_cell_angle_beta 90.000000
_cell_angle_gamma 90.000000
_cell_volume 2776.909570
_symmetry_space_group_name_H-M "P M M N"
_symmetry_group_IT_number 59
_space_group.IT_coordinate_system_code '2'
_symmetry_cell_setting 'orthorhombic'
loop_
_space_group_symop_operation_xyz
x,y,z
1/2-x,1/2-y,z
1/2+x,-y,-z
-x,1/2+y,-z
-x,-y,-z
1/2+x,1/2+y,-z
1/2-x,y,z
x,1/2-y,z
loop_
_atom_site_type_symbol
_atom_site_label
_atom_site_fract_x
_atom_site_fract_y
_atom_site_fract_z
Si Si1 0.310955 0.460895 0.017271
Si Si2 0.850185 0.468197 0.438976
Si Si3 0.811523 0.468535 0.631620
Si Si4 0.191797 0.533490 0.746685
Si Si5 0.627074 0.033232 0.805707
Si Si6 0.993111 0.038967 0.793306
Si Si7 0.601219 0.954872 0.117928
Si Si8 0.471393 0.962317 0.594262
O O1 0.250000 0.534474 0.005705
O O2 0.307933 0.250000 0.994935
O O3 0.331322 0.478560 0.117978
O O4 0.359761 0.538825 0.957116
O O5 0.851433 0.250000 0.442696
O O6 0.830594 0.529761 0.534811
O O7 0.812321 0.515013 0.356682
O O8 0.910311 0.531128 0.415456
O O9 0.750000 0.523248 0.649030
O O10 0.812194 0.250000 0.630589
O O11 0.850955 0.526426 0.710066
O O12 0.250000 0.477352 0.784071
O O13 0.188384 0.750000 0.753302
O O14 0.140899 0.455655 0.797373
O O15 0.625662 0.250000 0.805101
O O16 0.565799 0.967205 0.819430
O O17 0.992467 0.250000 0.812531
O O18 0.044522 0.964364 0.848195
O O19 0.001778 0.025394 0.686402
O O20 0.590120 0.750000 0.089854
O O21 0.468703 0.750000 0.603975
O O22 0.500000 0.000000 0.500000
#
# Coordination Sequence:
#
# PCOD9448379 Si02
#       8
#     8   8   8   8   8   8   8   8
#     4  10  22  40  60  83 112 148 190 235 290 356
#     4   9  17  30  48  75 109 143 180 225 277 330
#     4   9  16  28  49  76 106 141 180 225 280 336
#     4  10  19  32  53  82 113 143 182 232 280 330
#     4  10  21  37  58  84 113 145 189 245 295 340
#     4  10  21  38  58  83 115 150 192 241 290 344
#     4  10  21  38  59  81 113 153 190 230 284 347
#     4  11  21  34  54  79 113 155 197 240 285 336
#
# _framework density 23.047205000000002
#
# number of rings (size 3 to 8) (size 9 to 14) (size 15 to 20)
#    0.000    2.125    1.250    2.250    0.000    6.500 
#    0.000    0.000    0.000    0.750    0.000    0.000 
#    0.000    0.000    0.000    0.000    0.000    0.000 
#
# Total GULP energy -357528.138295 kJ/mol
# GULP energy per Si atom -5586.377161 kJ/mol
# Density = 2.299475 g / cm^3
# Si number density = 23.047205 Si / 1000 Ang^3
#
#
#
# Elastic Constant Matrix: (Units=GPa)
#
#
# Indices 1 2 3 4 5 6 
#
# 1 124.8475 2.6121 18.1699 0.0000 0.0000 0.0000
# 2 2.6121 69.5114 -9.0267 0.0000 0.0000 0.0000
# 3 18.1699 -9.0267 79.4175 0.0000 0.0000 0.0000
# 4 0.0000 0.0000 0.0000 17.0079 0.0000 0.0000
# 5 0.0000 0.0000 0.0000 0.0000 33.9496 0.0000
# 6 0.0000 0.0000 0.0000 0.0000 0.0000 -20.2335
#
#
#
# Elastic Compliance Matrix: (Units=1/GPa)
#
#
# Indices 1 2 3 4 5 6 
#
# 1 0.008308 -0.000567 -0.001965 0.000000 0.000000 0.000000
# 2 -0.000567 0.014640 0.001794 0.000000 0.000000 0.000000
# 3 -0.001965 0.001794 0.013245 0.000000 0.000000 0.000000
# 4 0.000000 0.000000 0.000000 0.058796 0.000000 0.000000
# 5 0.000000 0.000000 0.000000 0.000000 0.029455 0.000000
# 6 0.000000 0.000000 0.000000 0.000000 0.000000 -0.049423
#
#
# Mechanical properties :
#
#
# Convention : Reuss Voigt Hill
#
# Bulk Modulus (GPa) = 28.80532 33.03187 30.91859
# Shear Modulus (GPa) = 56.77226 23.61289 40.19257
#
# Velocity S-wave (km/s) = 4.96855 3.20432 4.18056
# Velocity P-wave (km/s) = 6.74098 5.29657 6.06195
#
# Compressibility (1/GPa) = 0.03471581
#
# Stress axis : x y z
#
# Youngs Moduli (GPa) = 120.37101 68.30419 75.49907
#
# Poissons Ratio (x) = 0.03875 0.14837
# Poissons Ratio (y) = 0.06830 -0.13543
# Poissons Ratio (z) = 0.23655 -0.12253
#
# Static dielectric constant tensor:
#      x y z
#    x 1.871640 0.000000 0.000000 
#    y 0.000000 1.878970 0.000000 
#    z 0.000000 0.000000 1.801190 
# 
# From -- ./inp_files/24645.got.cif
#   From: 2010.05.17/outbox.cif.g08.bks.cpg/sg59_13_cif.got.tgz:24645.got - 2010.06.03 14:40:33.
