data_PCOD9448905
_publ_section_title
;
Structure prediction by ZEFSAII (Michael W. Deem and Ramdas Pophale) SiO2 
 PCOD9448905
Probable space group: P M M N
;
_chemical_formula_sum "Si O2"
_cell_formula_units_Z 64
_cell_length_a 7.998798
_cell_length_b 20.002471
_cell_length_c 19.949246
_cell_angle_alpha 90.000000
_cell_angle_beta 90.000000
_cell_angle_gamma 90.000000
_cell_volume 3191.794078
_symmetry_space_group_name_H-M "P M M N"
_symmetry_group_IT_number 59
_space_group.IT_coordinate_system_code '2'
_symmetry_cell_setting 'orthorhombic'
loop_
_space_group_symop_operation_xyz
x,y,z
1/2-x,1/2-y,z
1/2+x,-y,-z
-x,1/2+y,-z
-x,-y,-z
1/2+x,1/2+y,-z
1/2-x,y,z
x,1/2-y,z
loop_
_atom_site_type_symbol
_atom_site_label
_atom_site_fract_x
_atom_site_fract_y
_atom_site_fract_z
Si Si1 0.048158 0.173474 0.336679
Si Si2 0.447646 0.326101 0.801561
Si Si3 0.450642 0.825329 0.516300
Si Si4 0.047448 0.430506 0.070961
Si Si5 0.946534 0.085489 0.926807
Si Si6 0.545569 0.920301 0.782929
Si Si7 0.049405 0.947242 0.288034
Si Si8 0.047901 0.548842 0.439143
O O1 0.250000 0.173264 0.335565
O O2 0.989939 0.250000 0.330736
O O3 0.988312 0.128866 0.275468
O O4 0.994180 0.148504 0.409616
O O5 0.250000 0.321516 0.793593
O O6 0.516661 0.250000 0.801070
O O7 0.480970 0.364483 0.871800
O O8 0.510609 0.374820 0.742423
O O9 0.250000 0.821987 0.511592
O O10 0.518045 0.750000 0.509867
O O11 0.510535 0.877509 0.461558
O O12 0.250000 0.430406 0.065686
O O13 0.990673 0.508450 0.075622
O O14 0.996116 0.400292 0.142259
O O15 0.978034 0.396192 0.004339
O O16 0.750000 0.082465 0.912551
O O17 0.750000 0.920249 0.782787
O O18 0.490699 0.994982 0.762806
O O19 0.250000 0.952490 0.290626
O O20 0.987111 0.962989 0.363295
O O21 0.250000 0.547886 0.436675
O O22 0.000000 0.500000 0.500000
#
# Coordination Sequence:
#
# PCOD9448905 Si02
#       8
#     8   8   8   8   8   8   8   8
#     4   9  17  30  51  77 102 134 175 215 259 313
#     4  11  24  40  57  80 112 147 184 233 289 338
#     4   9  18  33  50  70 100 137 175 214 260 316
#     4   9  17  31  53  79 109 141 174 218 267 313
#     4  10  19  34  56  81 107 140 181 220 263 319
#     4   9  16  30  51  76 107 139 174 219 263 310
#     4  10  20  36  56  79 105 142 189 229 270 326
#     4  10  21  35  55  81 110 141 177 224 276 326
#
# _framework density 20.051418000000002
#
# number of rings (size 3 to 8) (size 9 to 14) (size 15 to 20)
#    0.000    2.375    1.250    1.500    0.000    4.000 
#    0.000    3.125    0.000    3.750    0.000    0.000 
#    0.000    0.000    0.000    0.000    0.000    0.000 
#
# Total GULP energy -356936.679137 kJ/mol
# GULP energy per Si atom -5577.135612 kJ/mol
# Density = 2.000578 g / cm^3
# Si number density = 20.051418 Si / 1000 Ang^3
#
#
#
# Elastic Constant Matrix: (Units=GPa)
#
#
# Indices 1 2 3 4 5 6 
#
# 1 9.3337 1.5582 0.5468 0.0000 0.0000 0.0000
# 2 1.5582 52.0261 30.2786 0.0000 0.0000 0.0000
# 3 0.5468 30.2786 122.8078 0.0000 0.0000 0.0000
# 4 0.0000 0.0000 0.0000 28.8861 0.0000 0.0000
# 5 0.0000 0.0000 0.0000 0.0000 24.0927 0.0000
# 6 0.0000 0.0000 0.0000 0.0000 0.0000 17.5355
#
#
#
# Elastic Compliance Matrix: (Units=1/GPa)
#
#
# Indices 1 2 3 4 5 6 
#
# 1 0.107692 -0.003440 0.000369 0.000000 0.000000 0.000000
# 2 -0.003440 0.022551 -0.005545 0.000000 0.000000 0.000000
# 3 0.000369 -0.005545 0.009508 0.000000 0.000000 0.000000
# 4 0.000000 0.000000 0.000000 0.034619 0.000000 0.000000
# 5 0.000000 0.000000 0.000000 0.000000 0.041506 0.000000
# 6 0.000000 0.000000 0.000000 0.000000 0.000000 0.057027
#
#
# Mechanical properties :
#
#
# Convention : Reuss Voigt Hill
#
# Bulk Modulus (GPa) = 8.16201 27.65941 17.91071
# Shear Modulus (GPa) = 15.10689 24.22178 19.66434
#
# Velocity S-wave (km/s) = 2.74780 3.47938 3.13500
# Velocity P-wave (km/s) = 3.76120 5.47408 4.69639
#
# Compressibility (1/GPa) = 0.12251891
#
# Stress axis : x y z
#
# Youngs Moduli (GPa) = 9.28578 44.34371 105.17204
#
# Poissons Ratio (x) = 0.15254 -0.03877
# Poissons Ratio (y) = 0.03194 0.58315
# Poissons Ratio (z) = -0.00342 0.24587
#
# Static dielectric constant tensor:
#      x y z
#    x 1.722620 0.000000 0.000000 
#    y 0.000000 1.729810 0.000000 
#    z 0.000000 0.000000 1.714540 
# 
# From -- ./inp_files/29615.got.cif
#   From: 2010.05.17/outbox.cif.g08.bks.cpg/sg59_15_cif.got.tgz:29615.got - 2010.06.03 14:40:33.
