data_PCOD9448919
_publ_section_title
;
Structure prediction by ZEFSAII (Michael W. Deem and Ramdas Pophale) SiO2 
 PCOD9448919
Probable space group: P M M N
;
_chemical_formula_sum "Si O2"
_cell_formula_units_Z 56
_cell_length_a 8.556107
_cell_length_b 20.073431
_cell_length_c 17.969009
_cell_angle_alpha 90.000000
_cell_angle_beta 90.000000
_cell_angle_gamma 90.000000
_cell_volume 3086.184906
_symmetry_space_group_name_H-M "P M M N"
_symmetry_group_IT_number 59
_space_group.IT_coordinate_system_code '2'
_symmetry_cell_setting 'orthorhombic'
loop_
_space_group_symop_operation_xyz
x,y,z
1/2-x,1/2-y,z
1/2+x,-y,-z
-x,1/2+y,-z
-x,-y,-z
1/2+x,1/2+y,-z
1/2-x,y,z
x,1/2-y,z
loop_
_atom_site_type_symbol
_atom_site_label
_atom_site_fract_x
_atom_site_fract_y
_atom_site_fract_z
Si Si1 0.566097 0.399297 0.226501
Si Si2 0.437518 0.431045 0.966055
Si Si3 0.937615 0.043221 0.809072
Si Si4 0.436180 0.417671 0.387168
Si Si5 0.438787 0.673060 0.480202
Si Si6 0.939975 0.068545 0.642035
Si Si7 0.435138 0.326415 0.090793
O O1 0.750000 0.402235 0.240370
O O2 0.507664 0.468897 0.191399
O O3 0.478425 0.392119 0.304791
O O4 0.523945 0.343947 0.166350
O O5 0.250000 0.433587 0.962616
O O6 0.502901 0.421374 0.883145
O O7 0.500000 0.500000 0.000000
O O8 0.485517 0.373692 0.023476
O O9 0.750000 0.038540 0.810957
O O10 0.984601 0.073481 0.728923
O O11 0.250000 0.417639 0.397132
O O12 0.511285 0.370015 0.448380
O O13 0.490554 0.495524 0.388507
O O14 0.250000 0.675058 0.478162
O O15 0.493992 0.750000 0.481501
O O16 0.493160 0.629588 0.409038
O O17 0.750000 0.067605 0.640206
O O18 0.250000 0.338663 0.104007
O O19 0.456217 0.250000 0.070458
#
# Coordination Sequence:
#
# PCOD9448919 Si02
#       7
#     8   8   8   8   8   8   8
#     4  11  21  34  55  82 109 138 178 227 276 327
#     4  11  21  34  57  84 111 144 184 230 276 323
#     4  10  19  34  56  82 111 142 181 226 272 327
#     4  10  20  35  56  79 108 143 181 223 270 328
#     4  10  20  35  55  79 108 141 180 226 275 325
#     4   8  17  34  55  79 106 140 180 224 271 317
#     4  10  22  39  56  76 109 151 187 222 274 333
#
# _framework density 18.145379999999999
#
# number of rings (size 3 to 8) (size 9 to 14) (size 15 to 20)
#    0.000    2.000    1.429    3.857    0.000    1.714 
#    0.000    4.286    0.000    0.857    0.000    0.000 
#    0.000    0.000    0.000    0.000    0.000    0.000 
#
# Total GULP energy -312537.491929 kJ/mol
# GULP energy per Si atom -5581.026642 kJ/mol
# Density = 1.810408 g / cm^3
# Si number density = 18.145380 Si / 1000 Ang^3
#
#
#
# Elastic Constant Matrix: (Units=GPa)
#
#
# Indices 1 2 3 4 5 6 
#
# 1 18.0025 18.5348 1.0956 0.0000 0.0000 0.0000
# 2 18.5348 91.7708 61.9576 0.0000 0.0000 0.0000
# 3 1.0956 61.9576 100.3478 0.0000 0.0000 0.0000
# 4 0.0000 0.0000 0.0000 23.4892 0.0000 0.0000
# 5 0.0000 0.0000 0.0000 0.0000 24.1594 0.0000
# 6 0.0000 0.0000 0.0000 0.0000 0.0000 17.0505
#
#
#
# Elastic Compliance Matrix: (Units=1/GPa)
#
#
# Indices 1 2 3 4 5 6 
#
# 1 0.083117 -0.027736 0.016218 0.000000 0.000000 0.000000
# 2 -0.027736 0.027941 -0.016949 0.000000 0.000000 0.000000
# 3 0.016218 -0.016949 0.020253 0.000000 0.000000 0.000000
# 4 0.000000 0.000000 0.000000 0.042573 0.000000 0.000000
# 5 0.000000 0.000000 0.000000 0.000000 0.041392 0.000000
# 6 0.000000 0.000000 0.000000 0.000000 0.000000 0.058649
#
#
# Mechanical properties :
#
#
# Convention : Reuss Voigt Hill
#
# Bulk Modulus (GPa) = 13.44512 41.47745 27.46129
# Shear Modulus (GPa) = 14.05867 21.50868 17.78368
#
# Velocity S-wave (km/s) = 2.78651 3.44663 3.13400
# Velocity P-wave (km/s) = 4.21646 6.22471 5.31628
#
# Compressibility (1/GPa) = 0.07437645
#
# Stress axis : x y z
#
# Youngs Moduli (GPa) = 12.03124 35.78927 49.37531
#
# Poissons Ratio (x) = 0.99265 -0.80075
# Poissons Ratio (y) = 0.33370 0.83686
# Poissons Ratio (z) = -0.19512 0.60659
#
# Static dielectric constant tensor:
#      x y z
#    x 1.626860 0.000000 0.000000 
#    y 0.000000 1.624870 0.000000 
#    z 0.000000 0.000000 1.624180 
# 
# From -- ./inp_files/21068.got.cif
#   From: 2010.05.17/outbox.cif.g08.bks.cpg/sg59_11_cif.got.tgz:21068.got - 2010.06.03 14:40:33.
