data_PCOD9448761
_publ_section_title
;
Structure prediction by ZEFSAII (Michael W. Deem and Ramdas Pophale) SiO2 
 PCOD9448761
Probable space group: P M M N
;
_chemical_formula_sum "Si O2"
_cell_formula_units_Z 56
_cell_length_a 19.960334
_cell_length_b 9.923683
_cell_length_c 14.147994
_cell_angle_alpha 90.000000
_cell_angle_beta 90.000000
_cell_angle_gamma 90.000000
_cell_volume 2802.435036
_symmetry_space_group_name_H-M "P M M N"
_symmetry_group_IT_number 59
_space_group.IT_coordinate_system_code '2'
_symmetry_cell_setting 'orthorhombic'
loop_
_space_group_symop_operation_xyz
x,y,z
1/2-x,1/2-y,z
1/2+x,-y,-z
-x,1/2+y,-z
-x,-y,-z
1/2+x,1/2+y,-z
1/2-x,y,z
x,1/2-y,z
loop_
_atom_site_type_symbol
_atom_site_label
_atom_site_fract_x
_atom_site_fract_y
_atom_site_fract_z
Si Si1 0.146898 0.403935 0.866966
Si Si2 0.988467 0.396636 0.883918
Si Si3 0.059865 0.400607 0.267247
Si Si4 0.174532 0.592570 0.251681
Si Si5 0.044220 0.598271 0.564134
Si Si6 0.854341 0.099217 0.972470
Si Si7 0.671709 0.089973 0.317178
O O1 0.171541 0.250000 0.857030
O O2 0.067670 0.393063 0.889253
O O3 0.158311 0.493477 0.773038
O O4 0.172861 0.487801 0.956864
O O5 0.970405 0.250000 0.837336
O O6 0.969382 0.525629 0.823611
O O7 0.936388 0.401135 0.970701
O O8 0.083912 0.250000 0.247096
O O9 0.120405 0.496350 0.299299
O O10 0.000075 0.394762 0.341114
O O11 0.250000 0.555060 0.276723
O O12 0.164846 0.750000 0.274258
O O13 0.166285 0.578964 0.137112
O O14 0.048295 0.750000 0.523161
O O15 0.118392 0.556609 0.599652
O O16 0.000000 0.500000 0.500000
O O17 0.833293 0.250000 0.000635
O O18 0.750000 0.075564 0.343991
O O19 0.660621 0.250000 0.293867
#
# Coordination Sequence:
#
# PCOD9448761 Si02
#       7
#     8   8   8   8   8   8   8
#     4  11  21  32  51  81 115 150 192 240 288 334
#     4   9  18  32  50  75 109 150 191 235 283 333
#     4  10  19  33  56  85 113 141 181 231 282 334
#     4   9  19  36  55  76 108 152 199 242 286 337
#     4  10  22  40  64  93 117 144 181 226 280 340
#     4   9  18  31  48  73 109 153 201 243 284 333
#     4  10  22  42  64  85 115 154 192 229 276 341
#
# _framework density 19.982623
#
# number of rings (size 3 to 8) (size 9 to 14) (size 15 to 20)
#    0.000    2.286    1.429    2.143    0.000    5.714 
#    0.000    2.143    0.000    2.571    0.000    0.000 
#    0.000    0.000    0.000    0.000    0.000    0.000 
#
# Total GULP energy -312018.004592 kJ/mol
# GULP energy per Si atom -5571.750082 kJ/mol
# Density = 1.993714 g / cm^3
# Si number density = 19.982623 Si / 1000 Ang^3
#
#
#
# Elastic Constant Matrix: (Units=GPa)
#
#
# Indices 1 2 3 4 5 6 
#
# 1 140.3323 40.0344 9.7579 0.0000 0.0000 0.0000
# 2 40.0344 112.4478 38.3502 0.0000 0.0000 0.0000
# 3 9.7579 38.3502 33.4098 0.0000 0.0000 0.0000
# 4 0.0000 0.0000 0.0000 27.9287 0.0000 0.0000
# 5 0.0000 0.0000 0.0000 0.0000 -0.2716 0.0000
# 6 0.0000 0.0000 0.0000 0.0000 0.0000 11.1111
#
#
#
# Elastic Compliance Matrix: (Units=1/GPa)
#
#
# Indices 1 2 3 4 5 6 
#
# 1 0.007979 -0.003362 0.001529 0.000000 0.000000 0.000000
# 2 -0.003362 0.016031 -0.017419 0.000000 0.000000 0.000000
# 3 0.001529 -0.017419 0.049480 0.000000 0.000000 0.000000
# 4 0.000000 0.000000 0.000000 0.035805 0.000000 0.000000
# 5 0.000000 0.000000 0.000000 0.000000 -3.682278 0.000000
# 6 0.000000 0.000000 0.000000 0.000000 0.000000 0.090000
#
#
# Mechanical properties :
#
#
# Convention : Reuss Voigt Hill
#
# Bulk Modulus (GPa) = 28.58410 51.38611 39.98511
# Shear Modulus (GPa) = -1.45653 20.95682 9.75014
#
# Velocity S-wave (km/s) = -0.85468 3.24196 2.21131
# Velocity P-wave (km/s) = 3.65535 6.30753 5.15492
#
# Compressibility (1/GPa) = 0.03498448
#
# Stress axis : x y z
#
# Youngs Moduli (GPa) = 125.33247 62.37946 20.21014
#
# Poissons Ratio (x) = 0.20973 -0.03090
# Poissons Ratio (y) = 0.42138 0.35205
# Poissons Ratio (z) = -0.19162 1.08662
#
# Static dielectric constant tensor:
#      x y z
#    x 1.767100 0.000000 0.000000 
#    y 0.000000 1.730180 0.000000 
#    z 0.000000 0.000000 1.700180 
# 
# From -- ./inp_files/24215.got.cif
#   From: 2010.05.17/outbox.cif.g08.bks.cpg/sg59_13_cif.got.tgz:24215.got - 2010.06.03 14:40:33.
