data_PCOD9448478
_publ_section_title
;
Structure prediction by ZEFSAII (Michael W. Deem and Ramdas Pophale) SiO2 
 PCOD9448478
Probable space group: P M M N
;
_chemical_formula_sum "Si O2"
_cell_formula_units_Z 48
_cell_length_a 14.297269
_cell_length_b 16.255313
_cell_length_c 12.352959
_cell_angle_alpha 90.000000
_cell_angle_beta 90.000000
_cell_angle_gamma 90.000000
_cell_volume 2870.908987
_symmetry_space_group_name_H-M "P M M N"
_symmetry_group_IT_number 59
_space_group.IT_coordinate_system_code '2'
_symmetry_cell_setting 'orthorhombic'
loop_
_space_group_symop_operation_xyz
x,y,z
1/2-x,1/2-y,z
1/2+x,-y,-z
-x,1/2+y,-z
-x,-y,-z
1/2+x,1/2+y,-z
1/2-x,y,z
x,1/2-y,z
loop_
_atom_site_type_symbol
_atom_site_label
_atom_site_fract_x
_atom_site_fract_y
_atom_site_fract_z
Si Si1 0.529377 0.567201 0.087759
Si Si2 0.643784 0.458856 0.609559
Si Si3 0.639974 0.345705 0.400878
Si Si4 0.504942 0.937140 0.739956
Si Si5 0.647645 0.153401 0.823165
Si Si6 0.358533 0.151571 0.087331
O O1 0.542802 0.514477 0.197314
O O2 0.439657 0.624911 0.106614
O O3 0.500000 0.500000 0.000000
O O4 0.611571 0.618337 0.031329
O O5 0.750000 0.492293 0.600083
O O6 0.623370 0.405600 0.503134
O O7 0.568330 0.527100 0.642335
O O8 0.643754 0.396600 0.711485
O O9 0.750000 0.352553 0.372570
O O10 0.622113 0.250000 0.428302
O O11 0.572796 0.376060 0.305570
O O12 0.574982 0.892411 0.824356
O O13 0.750000 0.135542 0.873519
O O14 0.642463 0.250000 0.801699
O O15 0.250000 0.131311 0.108686
O O16 0.370184 0.250000 0.092205
#
# Coordination Sequence:
#
# PCOD9448478 Si02
#       6
#     8   8   8   8   8   8
#     4   9  19  31  46  67  92 121 156 195 235 278
#     4   9  17  30  50  75 100 125 155 191 233 281
#     4  10  20  33  49  71 100 131 160 193 236 283
#     4  10  19  33  51  73  96 125 160 198 235 279
#     4   9  16  28  48  72  96 121 151 190 235 283
#     4  10  20  34  51  69  92 124 160 199 241 283
#
# _framework density 16.719442999999998
#
# number of rings (size 3 to 8) (size 9 to 14) (size 15 to 20)
#    0.000    2.500    0.000    2.500    0.000    6.667 
#    0.000    2.500    0.000    9.000    0.000    0.000 
#    0.000    5.333    0.000    0.000    0.000    0.000 
#
# Total GULP energy -267382.903597 kJ/mol
# GULP energy per Si atom -5570.477158 kJ/mol
# Density = 1.668139 g / cm^3
# Si number density = 16.719443 Si / 1000 Ang^3
#
#
#
# Elastic Constant Matrix: (Units=GPa)
#
#
# Indices 1 2 3 4 5 6 
#
# 1 80.5765 38.7255 45.8619 0.0000 0.0000 0.0000
# 2 38.7255 57.4667 12.5866 0.0000 0.0000 0.0000
# 3 45.8619 12.5866 46.7711 0.0000 0.0000 0.0000
# 4 0.0000 0.0000 0.0000 20.2698 0.0000 0.0000
# 5 0.0000 0.0000 0.0000 0.0000 31.9448 0.0000
# 6 0.0000 0.0000 0.0000 0.0000 0.0000 27.7157
#
#
#
# Elastic Compliance Matrix: (Units=1/GPa)
#
#
# Indices 1 2 3 4 5 6 
#
# 1 0.043986 -0.021459 -0.037356 0.000000 0.000000 0.000000
# 2 -0.021459 0.028961 0.013249 0.000000 0.000000 0.000000
# 3 -0.037356 0.013249 0.054445 0.000000 0.000000 0.000000
# 4 0.000000 0.000000 0.000000 0.049334 0.000000 0.000000
# 5 0.000000 0.000000 0.000000 0.000000 0.031304 0.000000
# 6 0.000000 0.000000 0.000000 0.000000 0.000000 0.036081
#
#
# Mechanical properties :
#
#
# Convention : Reuss Voigt Hill
#
# Bulk Modulus (GPa) = 27.57991 42.12915 34.85453
# Shear Modulus (GPa) = 14.39549 21.82874 18.11212
#
# Velocity S-wave (km/s) = 2.93747 3.61722 3.29492
# Velocity P-wave (km/s) = 5.29495 6.53438 5.94704
#
# Compressibility (1/GPa) = 0.03625828
#
# Stress axis : x y z
#
# Youngs Moduli (GPa) = 22.73444 34.52970 18.36705
#
# Poissons Ratio (x) = 0.74099 0.68612
# Poissons Ratio (y) = 0.48787 -0.24334
# Poissons Ratio (z) = 0.84927 -0.45747
#
# Static dielectric constant tensor:
#      x y z
#    x 1.571420 0.000000 0.000000 
#    y 0.000000 1.547210 0.000000 
#    z 0.000000 0.000000 1.559110 
# 
# From -- ./inp_files/15747.got.cif
#   From: 2010.05.17/outbox.cif.g08.bks.cpg/sg59_8_cif.got.tgz:15747.got - 2010.06.03 14:40:33.
