data_PCOD9448523
_publ_section_title
;
Structure prediction by ZEFSAII (Michael W. Deem and Ramdas Pophale) SiO2 
 PCOD9448523
Probable space group: P M M N
;
_chemical_formula_sum "Si O2"
_cell_formula_units_Z 64
_cell_length_a 17.643135
_cell_length_b 8.189307
_cell_length_c 24.055320
_cell_angle_alpha 90.000000
_cell_angle_beta 90.000000
_cell_angle_gamma 90.000000
_cell_volume 3475.634088
_symmetry_space_group_name_H-M "P M M N"
_symmetry_group_IT_number 59
_space_group.IT_coordinate_system_code '2'
_symmetry_cell_setting 'orthorhombic'
loop_
_space_group_symop_operation_xyz
x,y,z
1/2-x,1/2-y,z
1/2+x,-y,-z
-x,1/2+y,-z
-x,-y,-z
1/2+x,1/2+y,-z
1/2-x,y,z
x,1/2-y,z
loop_
_atom_site_type_symbol
_atom_site_label
_atom_site_fract_x
_atom_site_fract_y
_atom_site_fract_z
Si Si1 0.514112 0.447842 0.636172
Si Si2 0.432393 0.059818 0.870102
Si Si3 0.664803 0.947843 0.570412
Si Si4 0.079694 0.059307 0.071731
Si Si5 0.425107 0.053448 0.533202
Si Si6 0.986110 0.054529 0.761339
Si Si7 0.164484 0.942231 0.965533
Si Si8 0.166095 0.054157 0.181642
O O1 0.513331 0.250000 0.637019
O O2 0.595683 0.496888 0.610042
O O3 0.445730 0.503388 0.595365
O O4 0.504147 0.508733 0.698955
O O5 0.413018 0.250000 0.864738
O O6 0.457871 0.992183 0.809907
O O7 0.507329 0.042034 0.908501
O O8 0.366607 0.971888 0.903807
O O9 0.750000 0.002950 0.585355
O O10 0.664680 0.750000 0.571567
O O11 0.642973 0.001118 0.507130
O O12 0.058938 0.250000 0.076653
O O13 0.144963 0.023783 0.117186
O O14 0.109929 0.023817 0.010752
O O15 0.420636 0.250000 0.535180
O O16 0.500000 0.000000 0.500000
O O17 0.995964 0.250000 0.760269
O O18 0.901035 0.018758 0.781861
O O19 0.250000 0.005272 0.971548
O O20 0.163965 0.750000 0.977058
O O21 0.250000 0.992778 0.194786
O O22 0.165079 0.250000 0.189289
#
# Coordination Sequence:
#
# PCOD9448523 Si02
#       8
#     8   8   8   8   8   8   8   8
#     4   9  17  30  47  66  89 119 156 192 224 264
#     4  10  20  35  53  71  95 126 159 195 235 279
#     4   9  17  28  43  67  97 123 148 182 225 271
#     4  10  19  33  53  74  97 124 156 192 233 284
#     4   8  14  26  44  63  86 117 149 181 217 257
#     4   9  19  33  48  67  90 120 158 196 231 269
#     4  11  23  36  51  73  98 122 152 193 241 290
#     4   9  18  31  46  66  93 124 156 189 226 272
#
# _framework density 18.413905
#
# number of rings (size 3 to 8) (size 9 to 14) (size 15 to 20)
#    0.000    2.625    0.000    1.875    0.000    4.000 
#    0.000    2.500    0.000    0.750    0.000    3.500 
#    0.000    0.000    0.000    0.000    0.000    0.000 
#
# Total GULP energy -356593.846801 kJ/mol
# GULP energy per Si atom -5571.778856 kJ/mol
# Density = 1.837199 g / cm^3
# Si number density = 18.413905 Si / 1000 Ang^3
#
#
#
# Elastic Constant Matrix: (Units=GPa)
#
#
# Indices 1 2 3 4 5 6 
#
# 1 19.7976 -2.8932 18.6206 0.0000 0.0000 0.0000
# 2 -2.8932 10.8785 2.4181 0.0000 0.0000 0.0000
# 3 18.6206 2.4181 132.1416 0.0000 0.0000 0.0000
# 4 0.0000 0.0000 0.0000 17.3888 0.0000 0.0000
# 5 0.0000 0.0000 0.0000 0.0000 11.3549 0.0000
# 6 0.0000 0.0000 0.0000 0.0000 0.0000 17.8581
#
#
#
# Elastic Compliance Matrix: (Units=1/GPa)
#
#
# Indices 1 2 3 4 5 6 
#
# 1 0.061696 0.018416 -0.009031 0.000000 0.000000 0.000000
# 2 0.018416 0.097797 -0.004385 0.000000 0.000000 0.000000
# 3 -0.009031 -0.004385 0.008920 0.000000 0.000000 0.000000
# 4 0.000000 0.000000 0.000000 0.057508 0.000000 0.000000
# 5 0.000000 0.000000 0.000000 0.000000 0.088068 0.000000
# 6 0.000000 0.000000 0.000000 0.000000 0.000000 0.055997
#
#
# Mechanical properties :
#
#
# Convention : Reuss Voigt Hill
#
# Bulk Modulus (GPa) = 5.60494 22.12319 13.86407
# Shear Modulus (GPa) = 11.92016 18.96516 15.44266
#
# Velocity S-wave (km/s) = 2.54706 3.21275 2.89907
# Velocity P-wave (km/s) = 3.42060 5.07964 4.33032
#
# Compressibility (1/GPa) = 0.17841395
#
# Stress axis : x y z
#
# Youngs Moduli (GPa) = 16.20843 10.22531 112.10199
#
# Poissons Ratio (x) = -0.18831 1.01238
# Poissons Ratio (y) = -0.29849 0.49153
# Poissons Ratio (z) = 0.14638 0.04483
#
# Static dielectric constant tensor:
#      x y z
#    x 1.627610 0.000000 0.000000 
#    y 0.000000 1.647270 0.000000 
#    z 0.000000 0.000000 1.671340 
# 
# From -- ./inp_files/32306.got.cif
#   From: 2010.05.17/outbox.cif.g08.bks.cpg/sg59_17_cif.got.tgz:32306.got - 2010.06.03 14:40:33.
