data_PCOD9448728
_publ_section_title
;
Structure prediction by ZEFSAII (Michael W. Deem and Ramdas Pophale) SiO2 
 PCOD9448728
Probable space group: P M M N
;
_chemical_formula_sum "Si O2"
_cell_formula_units_Z 64
_cell_length_a 7.567435
_cell_length_b 32.101578
_cell_length_c 12.130760
_cell_angle_alpha 90.000000
_cell_angle_beta 90.000000
_cell_angle_gamma 90.000000
_cell_volume 2946.884342
_symmetry_space_group_name_H-M "P M M N"
_symmetry_group_IT_number 59
_space_group.IT_coordinate_system_code '2'
_symmetry_cell_setting 'orthorhombic'
loop_
_space_group_symop_operation_xyz
x,y,z
1/2-x,1/2-y,z
1/2+x,-y,-z
-x,1/2+y,-z
-x,-y,-z
1/2+x,1/2+y,-z
1/2-x,y,z
x,1/2-y,z
loop_
_atom_site_type_symbol
_atom_site_label
_atom_site_fract_x
_atom_site_fract_y
_atom_site_fract_z
Si Si1 0.543441 0.377429 0.855066
Si Si2 0.532455 0.122962 0.106720
Si Si3 0.956330 0.544745 0.292503
Si Si4 0.463825 0.296171 0.716470
Si Si5 0.463355 0.173177 0.477585
Si Si6 0.034897 0.423782 0.473781
Si Si7 0.045672 0.957763 0.764600
Si Si8 0.458313 0.704307 0.763297
O O1 0.750000 0.387121 0.861042
O O2 0.464153 0.413715 0.779836
O O3 0.520513 0.333075 0.796446
O O4 0.475991 0.376354 0.979844
O O5 0.750000 0.123372 0.111057
O O6 0.469558 0.080732 0.166284
O O7 0.470550 0.164193 0.171569
O O8 0.750000 0.534936 0.310615
O O9 0.029279 0.554367 0.414101
O O10 0.033552 0.504178 0.231938
O O11 0.250000 0.296482 0.715261
O O12 0.522847 0.250000 0.749576
O O13 0.523177 0.306208 0.591686
O O14 0.250000 0.174195 0.477442
O O15 0.517767 0.124776 0.475565
O O16 0.523387 0.195667 0.366828
O O17 0.250000 0.425046 0.471156
O O18 0.965123 0.444757 0.363418
O O19 0.250000 0.960448 0.800801
O O20 0.250000 0.705872 0.788702
O O21 0.533772 0.750000 0.789896
#
# Coordination Sequence:
#
# PCOD9448728 Si02
#       8
#     8   8   8   8   8   8   8   8
#     4  11  23  38  58  81 110 147 188 235 275 319
#     4   9  20  38  55  78 110 144 186 231 279 323
#     4  10  21  38  58  82 113 148 183 224 278 337
#     4  10  21  39  61  83 113 150 183 223 278 334
#     4  10  19  34  57  82 112 146 175 215 275 333
#     4  10  19  33  55  83 115 144 176 223 279 333
#     4  10  20  36  60  83 109 147 186 226 276 335
#     4  10  20  35  57  82 110 145 182 223 272 330
#
# _framework density 21.717851
#
# number of rings (size 3 to 8) (size 9 to 14) (size 15 to 20)
#    0.000    2.000    2.500    1.125    0.000    3.500 
#    0.000    3.750    0.000    0.000    0.000    0.000 
#    0.000    0.000    0.000    0.000    0.000    0.000 
#
# Total GULP energy -357569.381764 kJ/mol
# GULP energy per Si atom -5587.021590 kJ/mol
# Density = 2.166842 g / cm^3
# Si number density = 21.717851 Si / 1000 Ang^3
#
#
#
# Elastic Constant Matrix: (Units=GPa)
#
#
# Indices 1 2 3 4 5 6 
#
# 1 46.3984 -11.4832 -17.6301 0.0000 0.0000 0.0000
# 2 -11.4832 144.1783 38.8567 0.0000 0.0000 0.0000
# 3 -17.6301 38.8567 117.6985 0.0000 0.0000 0.0000
# 4 0.0000 0.0000 0.0000 -6.6043 0.0000 0.0000
# 5 0.0000 0.0000 0.0000 0.0000 16.9269 0.0000
# 6 0.0000 0.0000 0.0000 0.0000 0.0000 5.9057
#
#
#
# Elastic Compliance Matrix: (Units=1/GPa)
#
#
# Indices 1 2 3 4 5 6 
#
# 1 0.022981 0.000991 0.003115 0.000000 0.000000 0.000000
# 2 0.000991 0.007656 -0.002379 0.000000 0.000000 0.000000
# 3 0.003115 -0.002379 0.009748 0.000000 0.000000 0.000000
# 4 0.000000 0.000000 0.000000 -0.151416 0.000000 0.000000
# 5 0.000000 0.000000 0.000000 0.000000 0.059078 0.000000
# 6 0.000000 0.000000 0.000000 0.000000 0.000000 0.169327
#
#
# Mechanical properties :
#
#
# Convention : Reuss Voigt Hill
#
# Bulk Modulus (GPa) = 22.81038 36.41798 29.61418
# Shear Modulus (GPa) = 38.90037 23.14778 31.02408
#
# Velocity S-wave (km/s) = 4.23681 3.26826 3.78366
# Velocity P-wave (km/s) = 5.87026 5.57200 5.72307
#
# Compressibility (1/GPa) = 0.04383969
#
# Stress axis : x y z
#
# Youngs Moduli (GPa) = 43.51343 130.61739 102.58137
#
# Poissons Ratio (x) = -0.12941 -0.31957
# Poissons Ratio (y) = -0.04311 0.24405
# Poissons Ratio (z) = -0.13556 0.31075
#
# Static dielectric constant tensor:
#      x y z
#    x 1.831330 0.000000 0.000000 
#    y 0.000000 1.797110 0.000000 
#    z 0.000000 0.000000 1.738490 
# 
# From -- ./inp_files/14967.got.cif
#   From: 2010.05.17/outbox.cif.g08.bks.cpg/sg59_8_cif.got.tgz:14967.got - 2010.06.03 14:40:33.
