data_PCOD9448597
_publ_section_title
;
Structure prediction by ZEFSAII (Michael W. Deem and Ramdas Pophale) SiO2 
 PCOD9448597
Probable space group: P M M N
;
_chemical_formula_sum "Si O2"
_cell_formula_units_Z 48
_cell_length_a 9.476132
_cell_length_b 30.761965
_cell_length_c 9.045284
_cell_angle_alpha 90.000000
_cell_angle_beta 90.000000
_cell_angle_gamma 90.000000
_cell_volume 2636.740455
_symmetry_space_group_name_H-M "P M M N"
_symmetry_group_IT_number 59
_space_group.IT_coordinate_system_code '2'
_symmetry_cell_setting 'orthorhombic'
loop_
_space_group_symop_operation_xyz
x,y,z
1/2-x,1/2-y,z
1/2+x,-y,-z
-x,1/2+y,-z
-x,-y,-z
1/2+x,1/2+y,-z
1/2-x,y,z
x,1/2-y,z
loop_
_atom_site_type_symbol
_atom_site_label
_atom_site_fract_x
_atom_site_fract_y
_atom_site_fract_z
Si Si1 0.908444 0.145684 0.915973
Si Si2 0.404278 0.024177 0.797871
Si Si3 0.995579 0.933560 0.900954
Si Si4 0.079422 0.906532 0.362273
Si Si5 0.588674 0.626961 0.642337
Si Si6 0.579892 0.301158 0.186307
O O1 0.750000 0.159769 0.881496
O O2 0.969619 0.129122 0.761236
O O3 0.969575 0.182445 0.023219
O O4 0.907913 0.102369 0.018166
O O5 0.250000 0.033289 0.733731
O O6 0.523708 0.047576 0.701286
O O7 0.427226 0.973003 0.818993
O O8 0.412375 0.044517 0.963073
O O9 0.910721 0.906226 0.780834
O O10 0.250000 0.906358 0.372124
O O11 0.003460 0.894761 0.513622
O O12 0.750000 0.635692 0.597638
O O13 0.506580 0.669925 0.697941
O O14 0.750000 0.309956 0.197384
O O15 0.558902 0.250000 0.204592
#
# Coordination Sequence:
#
# PCOD9448597 Si02
#       6
#     8   8   8   8   8   8
#     4   8  15  31  53  76 102 133 170 210 255 306
#     4  10  19  33  54  77 102 135 180 227 268 311
#     4   9  19  32  51  76 104 136 175 220 267 310
#     4  10  21  35  51  74 107 144 178 215 259 309
#     4  11  22  36  54  76 107 142 175 212 257 310
#     4   9  18  35  60  85 105 128 163 208 257 310
#
# _framework density 18.204294000000001
#
# number of rings (size 3 to 8) (size 9 to 14) (size 15 to 20)
#    0.000    2.500    0.000    2.000    0.000    7.667 
#    0.000    1.667    0.000    3.000    0.000    0.000 
#    0.000    0.000    0.000    0.000    0.000    0.000 
#
# Total GULP energy -267282.721511 kJ/mol
# GULP energy per Si atom -5568.390031 kJ/mol
# Density = 1.816286 g / cm^3
# Si number density = 18.204294 Si / 1000 Ang^3
#
#
#
# Elastic Constant Matrix: (Units=GPa)
#
#
# Indices 1 2 3 4 5 6 
#
# 1 93.5865 32.8145 24.8655 0.0000 0.0000 0.0000
# 2 32.8145 99.9197 28.5911 0.0000 0.0000 0.0000
# 3 24.8655 28.5911 56.9146 0.0000 0.0000 0.0000
# 4 0.0000 0.0000 0.0000 16.4678 0.0000 0.0000
# 5 0.0000 0.0000 0.0000 0.0000 10.5750 0.0000
# 6 0.0000 0.0000 0.0000 0.0000 0.0000 12.3753
#
#
#
# Elastic Compliance Matrix: (Units=1/GPa)
#
#
# Indices 1 2 3 4 5 6 
#
# 1 0.012838 -0.003049 -0.004077 0.000000 0.000000 0.000000
# 2 -0.003049 0.012413 -0.004903 0.000000 0.000000 0.000000
# 3 -0.004077 -0.004903 0.021814 0.000000 0.000000 0.000000
# 4 0.000000 0.000000 0.000000 0.060724 0.000000 0.000000
# 5 0.000000 0.000000 0.000000 0.000000 0.094562 0.000000
# 6 0.000000 0.000000 0.000000 0.000000 0.000000 0.080806
#
#
# Mechanical properties :
#
#
# Convention : Reuss Voigt Hill
#
# Bulk Modulus (GPa) = 43.46728 46.99590 45.23159
# Shear Modulus (GPa) = 15.87880 18.82694 17.35287
#
# Velocity S-wave (km/s) = 2.95660 3.21939 3.09079
# Velocity P-wave (km/s) = 5.96529 6.30009 6.13497
#
# Compressibility (1/GPa) = 0.02300581
#
# Stress axis : x y z
#
# Youngs Moduli (GPa) = 77.89539 80.56392 45.84123
#
# Poissons Ratio (x) = 0.24568 0.18689
# Poissons Ratio (y) = 0.23754 0.22477
# Poissons Ratio (z) = 0.31756 0.39502
#
# Static dielectric constant tensor:
#      x y z
#    x 1.634050 0.000000 0.000000 
#    y 0.000000 1.614400 0.000000 
#    z 0.000000 0.000000 1.638370 
# 
# From -- ./inp_files/6329.got.cif
#   From: 2010.05.17/outbox.cif.g08.bks.cpg/sg59_4_cif.got.tgz:6329.got - 2010.06.03 14:40:33.
