data_PCOD9448310
_publ_section_title
;
Structure prediction by ZEFSAII (Michael W. Deem and Ramdas Pophale) SiO2 
 PCOD9448310
Probable space group: P M M N
;
_chemical_formula_sum "Si O2"
_cell_formula_units_Z 48
_cell_length_a 32.414337
_cell_length_b 8.442883
_cell_length_c 9.295465
_cell_angle_alpha 90.000000
_cell_angle_beta 90.000000
_cell_angle_gamma 90.000000
_cell_volume 2543.894134
_symmetry_space_group_name_H-M "P M M N"
_symmetry_group_IT_number 59
_space_group.IT_coordinate_system_code '2'
_symmetry_cell_setting 'orthorhombic'
loop_
_space_group_symop_operation_xyz
x,y,z
1/2-x,1/2-y,z
1/2+x,-y,-z
-x,1/2+y,-z
-x,-y,-z
1/2+x,1/2+y,-z
1/2-x,y,z
x,1/2-y,z
loop_
_atom_site_type_symbol
_atom_site_label
_atom_site_fract_x
_atom_site_fract_y
_atom_site_fract_z
Si Si1 0.500442 0.059163 0.335606
Si Si2 0.910445 0.942054 0.662650
Si Si3 0.829600 0.939494 0.168103
Si Si4 0.409419 0.940202 0.666404
Si Si5 0.330050 0.058260 0.162484
Si Si6 0.250000 0.939984 0.331228
Si Si7 0.750000 0.060559 0.338238
O O1 0.500941 0.250000 0.334489
O O2 0.455649 0.008958 0.276941
O O3 0.545079 0.007219 0.277134
O O4 0.500000 0.000000 0.500000
O O5 0.909797 0.750000 0.655211
O O6 0.872234 0.994160 0.759954
O O7 0.906000 0.005824 0.500117
O O8 0.827310 0.750000 0.167922
O O9 0.871988 0.990781 0.242999
O O10 0.790727 0.003465 0.256369
O O11 0.828164 0.995344 0.002817
O O12 0.407373 0.750000 0.670492
O O13 0.329667 0.250000 0.163071
O O14 0.290614 0.999569 0.250028
O O15 0.250000 0.750000 0.331111
O O16 0.250000 0.996491 0.496612
O O17 0.750000 0.250000 0.340288
#
# Coordination Sequence:
#
# PCOD9448310 Si02
#       7
#     8   8   8   8   8   4   4
#     4   8  15  28  49  76 105 136 174 219 267 311
#     4   9  17  33  56  79 104 139 180 224 269 313
#     4  11  23  38  55  78 108 143 178 213 256 311
#     4  10  19  32  52  80 110 140 177 222 265 312
#     4  10  22  38  56  78 106 139 177 216 257 309
#     4  11  24  39  58  82 106 131 166 213 264 314
#     4  11  24  41  60  84 108 133 170 217 264 314
#
# _framework density 18.868708999999999
#
# number of rings (size 3 to 8) (size 9 to 14) (size 15 to 20)
#    0.000    2.167    0.000    3.000    0.000    8.667 
#    0.000    0.833    0.000    0.000    0.000    0.000 
#    0.000    0.000    0.000    0.000    0.000    0.000 
#
# Total GULP energy -267805.961176 kJ/mol
# GULP energy per Si atom -5579.290858 kJ/mol
# Density = 1.882576 g / cm^3
# Si number density = 18.868709 Si / 1000 Ang^3
#
#
#
# Elastic Constant Matrix: (Units=GPa)
#
#
# Indices 1 2 3 4 5 6 
#
# 1 234.2125 28.8420 106.9071 0.0000 0.0000 0.0000
# 2 28.8420 20.7021 22.9976 0.0000 0.0000 0.0000
# 3 106.9071 22.9976 133.0906 0.0000 0.0000 0.0000
# 4 0.0000 0.0000 0.0000 13.8487 0.0000 0.0000
# 5 0.0000 0.0000 0.0000 0.0000 -20.9906 0.0000
# 6 0.0000 0.0000 0.0000 0.0000 0.0000 1.1323
#
#
#
# Elastic Compliance Matrix: (Units=1/GPa)
#
#
# Indices 1 2 3 4 5 6 
#
# 1 0.007047 -0.004368 -0.004906 0.000000 0.000000 0.000000
# 2 -0.004368 0.062487 -0.007289 0.000000 0.000000 0.000000
# 3 -0.004906 -0.007289 0.012714 0.000000 0.000000 0.000000
# 4 0.000000 0.000000 0.000000 0.072209 0.000000 0.000000
# 5 0.000000 0.000000 0.000000 0.000000 -0.047640 0.000000
# 6 0.000000 0.000000 0.000000 0.000000 0.000000 0.883149
#
#
# Mechanical properties :
#
#
# Convention : Reuss Voigt Hill
#
# Bulk Modulus (GPa) = 20.35738 78.38872 49.37305
# Shear Modulus (GPa) = 4.81017 14.08198 9.44608
#
# Velocity S-wave (km/s) = 1.59838 2.73484 2.23988
# Velocity P-wave (km/s) = 3.77078 7.18380 5.73697
#
# Compressibility (1/GPa) = 0.04912223
#
# Stress axis : x y z
#
# Youngs Moduli (GPa) = 141.91076 16.00343 78.65535
#
# Poissons Ratio (x) = 0.06990 0.38585
# Poissons Ratio (y) = 0.61984 0.57331
# Poissons Ratio (z) = 0.69616 0.11665
#
# Static dielectric constant tensor:
#      x y z
#    x 1.674080 0.000000 0.000000 
#    y 0.000000 1.642570 0.000000 
#    z 0.000000 0.000000 1.617320 
# 
# From -- ./inp_files/6382.got.cif
#   From: 2010.05.17/outbox.cif.g08.bks.cpg/sg59_4_cif.got.tgz:6382.got - 2010.06.03 14:40:33.
