data_PCOD9448388
_publ_section_title
;
Structure prediction by ZEFSAII (Michael W. Deem and Ramdas Pophale) SiO2 
 PCOD9448388
Probable space group: P M M N
;
_chemical_formula_sum "Si O2"
_cell_formula_units_Z 64
_cell_length_a 23.968226
_cell_length_b 7.767913
_cell_length_c 16.106756
_cell_angle_alpha 90.000000
_cell_angle_beta 90.000000
_cell_angle_gamma 90.000000
_cell_volume 2998.805672
_symmetry_space_group_name_H-M "P M M N"
_symmetry_group_IT_number 59
_space_group.IT_coordinate_system_code '2'
_symmetry_cell_setting 'orthorhombic'
loop_
_space_group_symop_operation_xyz
x,y,z
1/2-x,1/2-y,z
1/2+x,-y,-z
-x,1/2+y,-z
-x,-y,-z
1/2+x,1/2+y,-z
1/2-x,y,z
x,1/2-y,z
loop_
_atom_site_type_symbol
_atom_site_label
_atom_site_fract_x
_atom_site_fract_y
_atom_site_fract_z
Si Si1 0.500612 0.559161 0.596358
Si Si2 0.506346 0.461237 0.221771
Si Si3 0.815738 0.458684 0.282296
Si Si4 0.878457 0.538341 0.804135
Si Si5 0.313650 0.043951 0.033020
Si Si6 0.867034 0.556616 0.625786
Si Si7 0.812285 0.453167 0.459028
Si Si8 0.614133 0.041969 0.127105
O O1 0.500000 0.500000 0.500000
O O2 0.475086 0.750000 0.593105
O O3 0.478552 0.477798 0.683543
O O4 0.566194 0.565979 0.618594
O O5 0.506551 0.250000 0.226774
O O6 0.443767 0.512647 0.195306
O O7 0.551785 0.513119 0.153142
O O8 0.750000 0.497935 0.278513
O O9 0.821093 0.250000 0.278372
O O10 0.836939 0.520657 0.372378
O O11 0.847827 0.524371 0.202839
O O12 0.878156 0.750000 0.802398
O O13 0.842351 0.479896 0.882102
O O14 0.854214 0.478442 0.715400
O O15 0.250000 0.978540 0.019543
O O16 0.309465 0.250000 0.040851
O O17 0.356084 0.009631 0.957776
O O18 0.844148 0.750000 0.625205
O O19 0.846068 0.473800 0.542205
O O20 0.750000 0.525474 0.469974
O O21 0.806808 0.250000 0.445794
O O22 0.613565 0.250000 0.127022
#
# Coordination Sequence:
#
# PCOD9448388 Si02
#       8
#     8   8   8   8   8   8   8   8
#     4   9  18  31  48  73 103 134 169 208 245 290
#     4   8  16  31  51  76 102 132 171 207 248 301
#     4   8  15  28  45  66  94 128 164 200 240 295
#     4   8  16  34  54  71 100 135 168 208 251 305
#     4  10  21  36  54  76 100 131 170 210 259 311
#     4   9  18  32  50  73  99 129 167 210 249 291
#     4   9  18  31  47  70  99 131 168 207 249 299
#     4  10  19  32  54  79 100 128 168 212 254 304
#
# _framework density 21.341828
#
# number of rings (size 3 to 8) (size 9 to 14) (size 15 to 20)
#    0.000    3.125    0.000    2.625    1.750    2.500 
#    0.000    3.125    0.000    2.250    0.000    0.000 
#    0.000    0.000    0.000    0.000    0.000    0.000 
#
# Total GULP energy -356369.130875 kJ/mol
# GULP energy per Si atom -5568.267670 kJ/mol
# Density = 2.129325 g / cm^3
# Si number density = 21.341828 Si / 1000 Ang^3
#
#
#
# Elastic Constant Matrix: (Units=GPa)
#
#
# Indices 1 2 3 4 5 6 
#
# 1 37.7108 3.3281 24.8031 0.0000 0.0000 0.0000
# 2 3.3281 22.1631 6.0371 0.0000 0.0000 0.0000
# 3 24.8031 6.0371 131.6670 0.0000 0.0000 0.0000
# 4 0.0000 0.0000 0.0000 19.4119 0.0000 0.0000
# 5 0.0000 0.0000 0.0000 0.0000 33.4996 0.0000
# 6 0.0000 0.0000 0.0000 0.0000 0.0000 9.4521
#
#
#
# Elastic Compliance Matrix: (Units=1/GPa)
#
#
# Indices 1 2 3 4 5 6 
#
# 1 0.030470 -0.003050 -0.005600 0.000000 0.000000 0.000000
# 2 -0.003050 0.045996 -0.001534 0.000000 0.000000 0.000000
# 3 -0.005600 -0.001534 0.008720 0.000000 0.000000 0.000000
# 4 0.000000 0.000000 0.000000 0.051515 0.000000 0.000000
# 5 0.000000 0.000000 0.000000 0.000000 0.029851 0.000000
# 6 0.000000 0.000000 0.000000 0.000000 0.000000 0.105797
#
#
# Mechanical properties :
#
#
# Convention : Reuss Voigt Hill
#
# Bulk Modulus (GPa) = 15.42800 28.87527 22.15163
# Shear Modulus (GPa) = 15.90717 22.96422 19.43569
#
# Velocity S-wave (km/s) = 2.73307 3.28383 3.02103
# Velocity P-wave (km/s) = 4.14780 5.28558 4.75087
#
# Compressibility (1/GPa) = 0.06481722
#
# Stress axis : x y z
#
# Youngs Moduli (GPa) = 32.81915 21.74099 114.67643
#
# Poissons Ratio (x) = 0.06631 0.64219
# Poissons Ratio (y) = 0.10010 0.17596
# Poissons Ratio (z) = 0.18379 0.03336
#
# Static dielectric constant tensor:
#      x y z
#    x 1.777020 0.000000 0.000000 
#    y 0.000000 1.823500 0.000000 
#    z 0.000000 0.000000 1.799520 
# 
# From -- ./inp_files/24804.got.cif
#   From: 2010.05.17/outbox.cif.g08.bks.cpg/sg59_13_cif.got.tgz:24804.got - 2010.06.03 14:40:33.
