data_PCOD9448264
_publ_section_title
;
Structure prediction by ZEFSAII (Michael W. Deem and Ramdas Pophale) SiO2 
 PCOD9448264
Probable space group: P M M N
;
_chemical_formula_sum "Si O2"
_cell_formula_units_Z 56
_cell_length_a 21.962513
_cell_length_b 8.679529
_cell_length_c 17.152344
_cell_angle_alpha 90.000000
_cell_angle_beta 90.000000
_cell_angle_gamma 90.000000
_cell_volume 3269.653028
_symmetry_space_group_name_H-M "P M M N"
_symmetry_group_IT_number 59
_space_group.IT_coordinate_system_code '2'
_symmetry_cell_setting 'orthorhombic'
loop_
_space_group_symop_operation_xyz
x,y,z
1/2-x,1/2-y,z
1/2+x,-y,-z
-x,1/2+y,-z
-x,-y,-z
1/2+x,1/2+y,-z
1/2-x,y,z
x,1/2-y,z
loop_
_atom_site_type_symbol
_atom_site_label
_atom_site_fract_x
_atom_site_fract_y
_atom_site_fract_z
Si Si1 0.679906 0.564981 0.139149
Si Si2 0.120363 0.435002 0.697980
Si Si3 0.026694 0.435437 0.121057
Si Si4 0.013757 0.065041 0.299448
Si Si5 0.818740 0.064005 0.451504
Si Si6 0.559591 0.434807 0.544898
Si Si7 0.908790 0.433563 0.020771
O O1 0.750000 0.523487 0.149536
O O2 0.675317 0.750000 0.132815
O O3 0.643085 0.517929 0.216334
O O4 0.651606 0.490027 0.062748
O O5 0.114932 0.250000 0.695117
O O6 0.167155 0.491345 0.632582
O O7 0.055089 0.511381 0.683217
O O8 0.027583 0.250000 0.120505
O O9 0.028815 0.485420 0.210896
O O10 0.963998 0.485886 0.078418
O O11 0.078847 0.497581 0.064217
O O12 0.016729 0.250000 0.303304
O O13 0.055234 0.992808 0.366451
O O14 0.750000 0.021644 0.477479
O O15 0.820684 0.250000 0.445324
O O16 0.876264 0.017625 0.505463
O O17 0.500000 0.500000 0.500000
O O18 0.555866 0.250000 0.542128
O O19 0.910813 0.250000 0.016302
#
# Coordination Sequence:
#
# PCOD9448264 Si02
#       7
#     8   8   8   8   8   8   8
#     4  10  21  35  50  73 109 148 180 214 262 320
#     4  11  21  33  53  80 111 145 182 222 268 323
#     4   9  19  34  52  75 104 136 170 215 268 315
#     4  11  21  35  55  80 112 144 180 224 272 324
#     4  10  22  39  57  77 107 147 185 224 272 328
#     4  11  22  36  56  82 111 143 183 228 277 328
#     4  10  19  32  52  77 103 134 176 218 258 309
#
# _framework density 17.127199999999998
#
# number of rings (size 3 to 8) (size 9 to 14) (size 15 to 20)
#    0.000    1.714    2.857    2.143    0.000    4.000 
#    0.000    0.000    0.000    0.857    0.000    4.000 
#    0.000    0.000    0.000    0.000    0.000    0.000 
#
# Total GULP energy -312563.064712 kJ/mol
# GULP energy per Si atom -5581.483298 kJ/mol
# Density = 1.708822 g / cm^3
# Si number density = 17.127200 Si / 1000 Ang^3
#
#
#
# Elastic Constant Matrix: (Units=GPa)
#
#
# Indices 1 2 3 4 5 6 
#
# 1 85.2937 19.3965 44.6974 0.0000 0.0000 0.0000
# 2 19.3965 16.8276 21.1163 0.0000 0.0000 0.0000
# 3 44.6974 21.1163 107.6955 0.0000 0.0000 0.0000
# 4 0.0000 0.0000 0.0000 28.9088 0.0000 0.0000
# 5 0.0000 0.0000 0.0000 0.0000 27.2336 0.0000
# 6 0.0000 0.0000 0.0000 0.0000 0.0000 20.0299
#
#
#
# Elastic Compliance Matrix: (Units=1/GPa)
#
#
# Indices 1 2 3 4 5 6 
#
# 1 0.017291 -0.014491 -0.004335 0.000000 0.000000 0.000000
# 2 -0.014491 0.090963 -0.011821 0.000000 0.000000 0.000000
# 3 -0.004335 -0.011821 0.013403 0.000000 0.000000 0.000000
# 4 0.000000 0.000000 0.000000 0.034591 0.000000 0.000000
# 5 0.000000 0.000000 0.000000 0.000000 0.036719 0.000000
# 6 0.000000 0.000000 0.000000 0.000000 0.000000 0.049925
#
#
# Mechanical properties :
#
#
# Convention : Reuss Voigt Hill
#
# Bulk Modulus (GPa) = 16.56667 42.24856 29.40762
# Shear Modulus (GPa) = 15.41742 23.54158 19.47950
#
# Velocity S-wave (km/s) = 3.00354 3.71147 3.37611
# Velocity P-wave (km/s) = 4.66069 6.56412 5.69253
#
# Compressibility (1/GPa) = 0.06036217
#
# Stress axis : x y z
#
# Youngs Moduli (GPa) = 57.83223 10.99349 74.61262
#
# Poissons Ratio (x) = 0.15931 0.32346
# Poissons Ratio (y) = 0.83804 0.88201
# Poissons Ratio (z) = 0.25072 0.12996
#
# Static dielectric constant tensor:
#      x y z
#    x 1.579550 0.000000 0.000000 
#    y 0.000000 1.573180 0.000000 
#    z 0.000000 0.000000 1.582080 
# 
# From -- ./inp_files/24205.got.cif
#   From: 2010.05.17/outbox.cif.g08.bks.cpg/sg59_13_cif.got.tgz:24205.got - 2010.06.03 14:40:33.
