data_PCOD9448521
_publ_section_title
;
Structure prediction by ZEFSAII (Michael W. Deem and Ramdas Pophale) SiO2 
 PCOD9448521
Probable space group: P M M N
;
_chemical_formula_sum "Si O2"
_cell_formula_units_Z 48
_cell_length_a 19.749499
_cell_length_b 23.509543
_cell_length_c 5.441357
_cell_angle_alpha 90.000000
_cell_angle_beta 90.000000
_cell_angle_gamma 90.000000
_cell_volume 2526.431283
_symmetry_space_group_name_H-M "P M M N"
_symmetry_group_IT_number 59
_space_group.IT_coordinate_system_code '2'
_symmetry_cell_setting 'orthorhombic'
loop_
_space_group_symop_operation_xyz
x,y,z
1/2-x,1/2-y,z
1/2+x,-y,-z
-x,1/2+y,-z
-x,-y,-z
1/2+x,1/2+y,-z
1/2-x,y,z
x,1/2-y,z
loop_
_atom_site_type_symbol
_atom_site_label
_atom_site_fract_x
_atom_site_fract_y
_atom_site_fract_z
Si Si1 0.607391 0.313431 0.065768
Si Si2 0.824147 0.412854 0.323388
Si Si3 0.479950 0.813658 0.433933
Si Si4 0.675587 0.968856 0.036950
Si Si5 0.045986 0.072921 0.716048
Si Si6 0.587216 0.475016 0.660862
O O1 0.638956 0.250000 0.081864
O O2 0.657458 0.365688 0.120989
O O3 0.554818 0.316613 0.296447
O O4 0.571493 0.316930 0.800488
O O5 0.750000 0.399367 0.429965
O O6 0.821438 0.476466 0.214765
O O7 0.886312 0.420821 0.509379
O O8 0.510421 0.750000 0.417616
O O9 0.531607 0.865201 0.391293
O O10 0.750000 0.942272 0.028197
O O11 0.611750 0.930363 0.112941
O O12 0.652850 0.999141 0.788329
O O13 0.974592 0.048920 0.826936
O O14 0.060531 0.027266 0.501920
#
# Coordination Sequence:
#
# PCOD9448521 Si02
#       6
#     8   8   8   8   8   8
#     4  10  21  37  55  80 113 149 189 237 277 324
#     4  10  20  33  51  76 112 154 191 231 279 334
#     4  10  21  37  59  83 111 143 186 239 287 327
#     4  10  21  34  51  78 113 148 183 230 292 347
#     4  10  20  32  56  81 107 142 190 233 284 338
#     4  10  19  33  52  81 108 144 186 238 279 340
#
# _framework density 18.999130999999998
#
# number of rings (size 3 to 8) (size 9 to 14) (size 15 to 20)
#    0.000    2.000    1.667    2.000    2.333    1.000 
#    0.000    0.000    0.000    3.500    0.000    0.000 
#    0.000    0.000    0.000    0.000    0.000    0.000 
#
# Total GULP energy -267230.556655 kJ/mol
# GULP energy per Si atom -5567.303264 kJ/mol
# Density = 1.895589 g / cm^3
# Si number density = 18.999131 Si / 1000 Ang^3
#
#
#
# Elastic Constant Matrix: (Units=GPa)
#
#
# Indices 1 2 3 4 5 6 
#
# 1 84.6202 19.8232 5.4336 0.0000 0.0000 0.0000
# 2 19.8232 78.6219 4.2003 0.0000 0.0000 0.0000
# 3 5.4336 4.2003 51.1888 0.0000 0.0000 0.0000
# 4 0.0000 0.0000 0.0000 20.6425 0.0000 0.0000
# 5 0.0000 0.0000 0.0000 0.0000 13.6444 0.0000
# 6 0.0000 0.0000 0.0000 0.0000 0.0000 -10.7788
#
#
#
# Elastic Compliance Matrix: (Units=1/GPa)
#
#
# Indices 1 2 3 4 5 6 
#
# 1 0.012619 -0.003124 -0.001083 0.000000 0.000000 0.000000
# 2 -0.003124 0.013548 -0.000780 0.000000 0.000000 0.000000
# 3 -0.001083 -0.000780 0.019714 0.000000 0.000000 0.000000
# 4 0.000000 0.000000 0.000000 0.048444 0.000000 0.000000
# 5 0.000000 0.000000 0.000000 0.000000 0.073290 0.000000
# 6 0.000000 0.000000 0.000000 0.000000 0.000000 -0.092775
#
#
# Mechanical properties :
#
#
# Convention : Reuss Voigt Hill
#
# Bulk Modulus (GPa) = 27.84922 30.37168 29.11045
# Shear Modulus (GPa) = 51.66141 17.03321 34.34731
#
# Velocity S-wave (km/s) = 5.22020 2.99745 4.25648
# Velocity P-wave (km/s) = 7.14311 5.29152 6.28586
#
# Compressibility (1/GPa) = 0.03590764
#
# Stress axis : x y z
#
# Youngs Moduli (GPa) = 79.24662 73.80954 50.72409
#
# Poissons Ratio (x) = 0.23056 0.05494
# Poissons Ratio (y) = 0.24755 0.03957
# Poissons Ratio (z) = 0.08584 0.05758
#
# Static dielectric constant tensor:
#      x y z
#    x 1.718580 0.000000 0.000000 
#    y 0.000000 1.665870 0.000000 
#    z 0.000000 0.000000 1.729610 
# 
# From -- ./inp_files/2854.got.cif
#   From: 2010.05.17/outbox.cif.g08.bks.cpg/sg59_2_cif.got.tgz:2854.got - 2010.06.03 14:40:33.
