data_PCOD9448652
_publ_section_title
;
Structure prediction by ZEFSAII (Michael W. Deem and Ramdas Pophale) SiO2 
 PCOD9448652
Probable space group: P M M N
;
_chemical_formula_sum "Si O2"
_cell_formula_units_Z 48
_cell_length_a 7.773086
_cell_length_b 31.734483
_cell_length_c 9.354062
_cell_angle_alpha 90.000000
_cell_angle_beta 90.000000
_cell_angle_gamma 90.000000
_cell_volume 2307.411986
_symmetry_space_group_name_H-M "P M M N"
_symmetry_group_IT_number 59
_space_group.IT_coordinate_system_code '2'
_symmetry_cell_setting 'orthorhombic'
loop_
_space_group_symop_operation_xyz
x,y,z
1/2-x,1/2-y,z
1/2+x,-y,-z
-x,1/2+y,-z
-x,-y,-z
1/2+x,1/2+y,-z
1/2-x,y,z
x,1/2-y,z
loop_
_atom_site_type_symbol
_atom_site_label
_atom_site_fract_x
_atom_site_fract_y
_atom_site_fract_z
Si Si1 0.039588 0.297504 0.100032
Si Si2 0.950246 0.624824 0.083658
Si Si3 0.961018 0.879856 0.404662
Si Si4 0.955625 0.958992 0.592169
Si Si5 0.551980 0.043014 0.078358
Si Si6 0.540310 0.797104 0.570064
O O1 0.250000 0.298380 0.099851
O O2 0.988630 0.250000 0.057752
O O3 0.988218 0.304438 0.265147
O O4 0.975068 0.334801 0.998849
O O5 0.750000 0.635325 0.107356
O O6 0.021318 0.615702 0.241404
O O7 0.956984 0.583539 0.985427
O O8 0.750000 0.881372 0.406491
O O9 0.018499 0.917949 0.506090
O O10 0.015454 0.835101 0.469703
O O11 0.750000 0.956164 0.605269
O O12 0.026556 0.961256 0.752249
O O13 0.000000 0.000000 0.500000
O O14 0.750000 0.050828 0.046943
O O15 0.500000 0.000000 0.000000
O O16 0.750000 0.797077 0.568445
O O17 0.484719 0.750000 0.527562
#
# Coordination Sequence:
#
# PCOD9448652 Si02
#       6
#     8   8   8   8   8   8
#     4   8  14  25  45  75 110 147 185 225 271 325
#     4  10  19  33  54  81 113 146 183 227 276 331
#     4   9  18  30  48  76 108 142 177 217 267 321
#     4  11  22  38  59  83 113 147 184 226 274 329
#     4  12  25  41  60  82 108 141 184 231 285 344
#     4   8  13  23  40  66 103 143 179 216 262 315
#
# _framework density 20.802527000000001
#
# number of rings (size 3 to 8) (size 9 to 14) (size 15 to 20)
#    0.000    2.333    0.000    5.000    0.000    4.667 
#    0.000    4.167    0.000    0.500    0.000    0.000 
#    0.000    4.667    0.000    0.000    0.000    0.000 
#
# Total GULP energy -268042.370888 kJ/mol
# GULP energy per Si atom -5584.216060 kJ/mol
# Density = 2.075518 g / cm^3
# Si number density = 20.802527 Si / 1000 Ang^3
#
#
#
# Elastic Constant Matrix: (Units=GPa)
#
#
# Indices 1 2 3 4 5 6 
#
# 1 28.4790 -17.2383 -12.9429 0.0000 0.0000 0.0000
# 2 -17.2383 156.6333 93.2907 0.0000 0.0000 0.0000
# 3 -12.9429 93.2907 149.0095 0.0000 0.0000 0.0000
# 4 0.0000 0.0000 0.0000 43.1005 0.0000 0.0000
# 5 0.0000 0.0000 0.0000 0.0000 12.1421 0.0000
# 6 0.0000 0.0000 0.0000 0.0000 0.0000 9.5696
#
#
#
# Elastic Compliance Matrix: (Units=1/GPa)
#
#
# Indices 1 2 3 4 5 6 
#
# 1 0.037728 0.003509 0.001080 0.000000 0.000000 0.000000
# 2 0.003509 0.010507 -0.006273 0.000000 0.000000 0.000000
# 3 0.001080 -0.006273 0.010732 0.000000 0.000000 0.000000
# 4 0.000000 0.000000 0.000000 0.023202 0.000000 0.000000
# 5 0.000000 0.000000 0.000000 0.000000 0.082358 0.000000
# 6 0.000000 0.000000 0.000000 0.000000 0.000000 0.104497
#
#
# Mechanical properties :
#
#
# Convention : Reuss Voigt Hill
#
# Bulk Modulus (GPa) = 17.98584 51.14897 34.56740
# Shear Modulus (GPa) = 17.18651 31.02994 24.10822
#
# Velocity S-wave (km/s) = 2.87744 3.86637 3.40797
# Velocity P-wave (km/s) = 4.43896 6.67630 5.66910
#
# Compressibility (1/GPa) = 0.05559929
#
# Stress axis : x y z
#
# Youngs Moduli (GPa) = 26.50520 95.17592 93.17630
#
# Poissons Ratio (x) = -0.33395 -0.10066
# Poissons Ratio (y) = -0.09300 0.58452
# Poissons Ratio (z) = -0.02863 0.59707
#
# Static dielectric constant tensor:
#      x y z
#    x 1.818570 0.000000 0.000000 
#    y 0.000000 1.656520 0.000000 
#    z 0.000000 0.000000 1.686140 
# 
# From -- ./inp_files/6332.got.cif
#   From: 2010.05.17/outbox.cif.g08.bks.cpg/sg59_4_cif.got.tgz:6332.got - 2010.06.03 14:40:33.
