data_PCOD9448502
_publ_section_title
;
Structure prediction by ZEFSAII (Michael W. Deem and Ramdas Pophale) SiO2 
 PCOD9448502
Probable space group: P M M N
;
_chemical_formula_sum "Si O2"
_cell_formula_units_Z 64
_cell_length_a 10.421292
_cell_length_b 26.402350
_cell_length_c 13.328173
_cell_angle_alpha 90.000000
_cell_angle_beta 90.000000
_cell_angle_gamma 90.000000
_cell_volume 3667.201470
_symmetry_space_group_name_H-M "P M M N"
_symmetry_group_IT_number 59
_space_group.IT_coordinate_system_code '2'
_symmetry_cell_setting 'orthorhombic'
loop_
_space_group_symop_operation_xyz
x,y,z
1/2-x,1/2-y,z
1/2+x,-y,-z
-x,1/2+y,-z
-x,-y,-z
1/2+x,1/2+y,-z
1/2-x,y,z
x,1/2-y,z
loop_
_atom_site_type_symbol
_atom_site_label
_atom_site_fract_x
_atom_site_fract_y
_atom_site_fract_z
Si Si1 0.406423 0.307802 0.032386
Si Si2 0.112659 0.015728 0.072681
Si Si3 0.395677 0.892024 0.447399
Si Si4 0.101745 0.115792 0.193920
Si Si5 0.097845 0.141046 0.830577
Si Si6 0.898205 0.438396 0.334399
Si Si7 0.980926 0.458622 0.737539
Si Si8 0.097329 0.190620 0.619823
O O1 0.250000 0.308670 0.028981
O O2 0.447982 0.250000 0.025041
O O3 0.439349 0.333109 0.138349
O O4 0.455582 0.338751 0.935782
O O5 0.250000 0.006156 0.023599
O O6 0.103561 0.074056 0.104893
O O7 0.103867 0.985964 0.178014
O O8 0.000000 0.000000 0.000000
O O9 0.250000 0.871175 0.446846
O O10 0.412185 0.924238 0.548898
O O11 0.411217 0.929808 0.353057
O O12 0.503051 0.848066 0.437728
O O13 0.250000 0.119062 0.231282
O O14 0.000490 0.095741 0.274201
O O15 0.250000 0.139243 0.841491
O O16 0.053739 0.085700 0.797013
O O17 0.071379 0.178873 0.737648
O O18 0.750000 0.428650 0.305376
O O19 0.931934 0.496738 0.309104
O O20 0.250000 0.179900 0.602306
O O21 0.075357 0.250000 0.598207
#
# Coordination Sequence:
#
# PCOD9448502 Si02
#       8
#     8   8   8   8   8   8   8   8
#     4   9  16  28  49  75 101 131 168 209 253 303
#     4  10  20  32  48  71 101 135 168 202 244 297
#     4  10  21  36  54  77 105 137 176 219 265 317
#     4   9  19  34  50  71  99 131 167 208 253 301
#     4   9  16  27  47  77 108 133 161 203 252 303
#     4  10  21  36  54  76 101 134 175 218 264 314
#     4  10  19  33  52  75 104 138 172 210 258 315
#     4   9  18  33  53  78 106 135 170 213 260 308
#
# _framework density 17.452000999999999
#
# number of rings (size 3 to 8) (size 9 to 14) (size 15 to 20)
#    0.000    2.500    0.000    2.250    0.000    6.750 
#    0.000    0.625    0.000    3.375    0.000    0.000 
#    0.000    0.000    0.000    0.000    0.000    0.000 
#
# Total GULP energy -356584.812453 kJ/mol
# GULP energy per Si atom -5571.637695 kJ/mol
# Density = 1.741228 g / cm^3
# Si number density = 17.452001 Si / 1000 Ang^3
#
#
#
# Elastic Constant Matrix: (Units=GPa)
#
#
# Indices 1 2 3 4 5 6 
#
# 1 81.5670 30.1262 42.8973 0.0000 0.0000 0.0000
# 2 30.1262 99.5103 43.8968 0.0000 0.0000 0.0000
# 3 42.8973 43.8968 64.7621 0.0000 0.0000 0.0000
# 4 0.0000 0.0000 0.0000 20.7723 0.0000 0.0000
# 5 0.0000 0.0000 0.0000 0.0000 19.9474 0.0000
# 6 0.0000 0.0000 0.0000 0.0000 0.0000 15.9080
#
#
#
# Elastic Compliance Matrix: (Units=1/GPa)
#
#
# Indices 1 2 3 4 5 6 
#
# 1 0.018819 -0.000283 -0.012274 0.000000 0.000000 0.000000
# 2 -0.000283 0.014340 -0.009532 0.000000 0.000000 0.000000
# 3 -0.012274 -0.009532 0.030032 0.000000 0.000000 0.000000
# 4 0.000000 0.000000 0.000000 0.048141 0.000000 0.000000
# 5 0.000000 0.000000 0.000000 0.000000 0.050132 0.000000
# 6 0.000000 0.000000 0.000000 0.000000 0.000000 0.062861
#
#
# Mechanical properties :
#
#
# Convention : Reuss Voigt Hill
#
# Bulk Modulus (GPa) = 52.59515 53.29779 52.94647
# Shear Modulus (GPa) = 18.19231 19.92016 19.05623
#
# Velocity S-wave (km/s) = 3.23216 3.38216 3.30801
# Velocity P-wave (km/s) = 6.64316 6.77185 6.70781
#
# Compressibility (1/GPa) = 0.01901316
#
# Stress axis : x y z
#
# Youngs Moduli (GPa) = 53.13675 69.73559 33.29768
#
# Poissons Ratio (x) = 0.01975 0.40869
# Poissons Ratio (y) = 0.01505 0.31740
# Poissons Ratio (z) = 0.65218 0.66474
#
# Static dielectric constant tensor:
#      x y z
#    x 1.593530 0.000000 0.000000 
#    y 0.000000 1.608410 0.000000 
#    z 0.000000 0.000000 1.593330 
# 
# From -- ./inp_files/16246.got.cif
#   From: 2010.05.17/outbox.cif.g08.bks.cpg/sg59_9_cif.got.tgz:16246.got - 2010.06.03 14:40:33.
