data_PCOD9448969
_publ_section_title
;
Structure prediction by ZEFSAII (Michael W. Deem and Ramdas Pophale) SiO2 
 PCOD9448969
Probable space group: P M M N
;
_chemical_formula_sum "Si O2"
_cell_formula_units_Z 48
_cell_length_a 8.519223
_cell_length_b 14.536590
_cell_length_c 20.789545
_cell_angle_alpha 90.000000
_cell_angle_beta 90.000000
_cell_angle_gamma 90.000000
_cell_volume 2574.586647
_symmetry_space_group_name_H-M "P M M N"
_symmetry_group_IT_number 59
_space_group.IT_coordinate_system_code '2'
_symmetry_cell_setting 'orthorhombic'
loop_
_space_group_symop_operation_xyz
x,y,z
1/2-x,1/2-y,z
1/2+x,-y,-z
-x,1/2+y,-z
-x,-y,-z
1/2+x,1/2+y,-z
1/2-x,y,z
x,1/2-y,z
loop_
_atom_site_type_symbol
_atom_site_label
_atom_site_fract_x
_atom_site_fract_y
_atom_site_fract_z
Si Si1 0.439812 0.554212 0.815488
Si Si2 0.438478 0.750000 0.357504
Si Si3 0.939490 0.056522 0.439621
Si Si4 0.558733 0.250000 0.491904
Si Si5 0.436430 0.750000 0.008815
Si Si6 0.561723 0.560474 0.058693
Si Si7 0.936930 0.750000 0.861732
Si Si8 0.940237 0.946622 0.313347
O O1 0.250000 0.561333 0.814664
O O2 0.485541 0.490454 0.875866
O O3 0.504250 0.656804 0.827058
O O4 0.489155 0.500941 0.750883
O O5 0.250000 0.750000 0.357575
O O6 0.492055 0.750000 0.433023
O O7 0.497439 0.656800 0.323353
O O8 0.750000 0.056065 0.439030
O O9 0.992486 0.160145 0.453224
O O10 0.992075 0.007547 0.374449
O O11 0.000000 0.000000 0.500000
O O12 0.750000 0.250000 0.493823
O O13 0.250000 0.750000 0.002805
O O14 0.493102 0.660941 0.047336
O O15 0.503680 0.750000 0.935938
O O16 0.750000 0.565074 0.057024
O O17 0.500000 0.500000 0.000000
O O18 0.750000 0.750000 0.862867
O O19 0.750000 0.941648 0.312940
#
# Coordination Sequence:
#
# PCOD9448969 Si02
#       8
#     8   4   8   4   4   8   4   8
#     4  10  23  42  63  88 123 161 197 245 305 362
#     4  11  21  36  59  84 119 159 192 242 306 358
#     4  10  19  34  57  84 114 149 196 243 290 347
#     4   9  18  32  53  83 115 151 191 238 296 347
#     4  12  24  39  62  91 125 161 204 254 303 358
#     4  11  22  38  62  90 120 156 202 251 302 358
#     4  12  24  39  64  92 121 157 201 248 301 365
#     4  10  22  39  61  88 118 157 202 247 294 361
#
# _framework density 18.643768999999999
#
# number of rings (size 3 to 8) (size 9 to 14) (size 15 to 20)
#    0.000    1.500    3.333    2.250    0.000    2.667 
#    0.000    6.250    0.000    0.000    0.000    0.000 
#    0.000    0.000    0.000    0.000    0.000    0.000 
#
# Total GULP energy -268080.663044 kJ/mol
# GULP energy per Si atom -5585.013813 kJ/mol
# Density = 1.860134 g / cm^3
# Si number density = 18.643769 Si / 1000 Ang^3
#
#
#
# Elastic Constant Matrix: (Units=GPa)
#
#
# Indices 1 2 3 4 5 6 
#
# 1 36.1863 43.1285 39.9386 0.0000 0.0000 0.0000
# 2 43.1285 235.3268 116.8509 0.0000 0.0000 0.0000
# 3 39.9386 116.8509 183.2787 0.0000 0.0000 0.0000
# 4 0.0000 0.0000 0.0000 31.0036 0.0000 0.0000
# 5 0.0000 0.0000 0.0000 0.0000 23.4781 0.0000
# 6 0.0000 0.0000 0.0000 0.0000 0.0000 31.2303
#
#
#
# Elastic Compliance Matrix: (Units=1/GPa)
#
#
# Indices 1 2 3 4 5 6 
#
# 1 0.039150 -0.004300 -0.005790 0.000000 0.000000 0.000000
# 2 -0.004300 0.006690 -0.003328 0.000000 0.000000 0.000000
# 3 -0.005790 -0.003328 0.008840 0.000000 0.000000 0.000000
# 4 0.000000 0.000000 0.000000 0.032254 0.000000 0.000000
# 5 0.000000 0.000000 0.000000 0.000000 0.042593 0.000000
# 6 0.000000 0.000000 0.000000 0.000000 0.000000 0.032020
#
#
# Mechanical properties :
#
#
# Convention : Reuss Voigt Hill
#
# Bulk Modulus (GPa) = 35.91485 94.95864 65.43675
# Shear Modulus (GPa) = 25.29538 34.13401 29.71469
#
# Velocity S-wave (km/s) = 3.68744 4.28349 3.99659
# Velocity P-wave (km/s) = 6.11843 8.68954 7.51476
#
# Compressibility (1/GPa) = 0.02784363
#
# Stress axis : x y z
#
# Youngs Moduli (GPa) = 25.54285 149.47295 113.12501
#
# Poissons Ratio (x) = 0.64277 0.65495
# Poissons Ratio (y) = 0.10984 0.37651
# Poissons Ratio (z) = 0.14788 0.49749
#
# Static dielectric constant tensor:
#      x y z
#    x 1.632570 0.000000 0.000000 
#    y 0.000000 1.604000 0.000000 
#    z 0.000000 0.000000 1.623850 
# 
# From -- ./inp_files/25706.got.cif
#   From: 2010.05.17/outbox.cif.g08.bks.cpg/sg59_13_cif.got.tgz:25706.got - 2010.06.03 14:40:33.
