data_PCOD9448548
_publ_section_title
;
Structure prediction by ZEFSAII (Michael W. Deem and Ramdas Pophale) SiO2 
 PCOD9448548
Probable space group: P M M N
;
_chemical_formula_sum "Si O2"
_cell_formula_units_Z 64
_cell_length_a 20.571990
_cell_length_b 7.656751
_cell_length_c 19.093432
_cell_angle_alpha 90.000000
_cell_angle_beta 90.000000
_cell_angle_gamma 90.000000
_cell_volume 3007.494400
_symmetry_space_group_name_H-M "P M M N"
_symmetry_group_IT_number 59
_space_group.IT_coordinate_system_code '2'
_symmetry_cell_setting 'orthorhombic'
loop_
_space_group_symop_operation_xyz
x,y,z
1/2-x,1/2-y,z
1/2+x,-y,-z
-x,1/2+y,-z
-x,-y,-z
1/2+x,1/2+y,-z
1/2-x,y,z
x,1/2-y,z
loop_
_atom_site_type_symbol
_atom_site_label
_atom_site_fract_x
_atom_site_fract_y
_atom_site_fract_z
Si Si1 0.818252 0.040154 0.682660
Si Si2 0.322535 0.463976 0.021539
Si Si3 0.052876 0.041335 0.939206
Si Si4 0.367972 0.042239 0.173133
Si Si5 0.992841 0.452905 0.213913
Si Si6 0.924071 0.038926 0.578048
Si Si7 0.440625 0.043975 0.635723
Si Si8 0.824755 0.958767 0.451238
O O1 0.750000 0.978781 0.649983
O O2 0.819360 0.250000 0.677673
O O3 0.882678 0.975109 0.644974
O O4 0.820167 0.988523 0.763156
O O5 0.250000 0.520957 0.004563
O O6 0.322565 0.250000 0.022328
O O7 0.342822 0.524427 0.099173
O O8 0.377948 0.519763 0.968353
O O9 0.053329 0.250000 0.932149
O O10 0.039976 0.967181 0.862270
O O11 0.000000 0.000000 0.000000
O O12 0.377280 0.250000 0.163349
O O13 0.436407 0.965368 0.198843
O O14 0.001154 0.250000 0.231204
O O15 0.957539 0.527220 0.282232
O O16 0.927914 0.250000 0.578393
O O17 0.998147 0.973358 0.589050
O O18 0.875392 0.991798 0.514983
O O19 0.438704 0.250000 0.620293
O O20 0.369608 0.974622 0.613550
O O21 0.750000 0.027897 0.457869
O O22 0.817586 0.750000 0.445546
#
# Coordination Sequence:
#
# PCOD9448548 Si02
#       8
#     8   8   8   8   8   8   8   8
#     4  10  20  32  47  74 113 150 182 219 270 332
#     4   9  18  34  55  80 110 144 184 228 276 330
#     4  11  21  36  59  85 114 150 190 233 279 330
#     4  10  19  33  53  77 108 144 184 227 270 328
#     4  11  22  37  58  87 114 144 190 237 283 336
#     4  10  20  35  57  83 112 148 188 229 279 338
#     4  10  21  39  61  84 112 149 189 234 286 335
#     4  10  22  39  59  85 115 147 189 238 286 339
#
# _framework density 21.280172
#
# number of rings (size 3 to 8) (size 9 to 14) (size 15 to 20)
#    0.000    1.875    2.500    1.875    0.000    3.500 
#    0.000    0.625    0.000    6.000    0.000    0.000 
#    0.000    0.000    0.000    0.000    0.000    0.000 
#
# Total GULP energy -356992.989913 kJ/mol
# GULP energy per Si atom -5578.015467 kJ/mol
# Density = 2.123174 g / cm^3
# Si number density = 21.280172 Si / 1000 Ang^3
#
#
#
# Elastic Constant Matrix: (Units=GPa)
#
#
# Indices 1 2 3 4 5 6 
#
# 1 186.7909 5.4074 82.2010 0.0000 0.0000 0.0000
# 2 5.4074 41.3434 -11.6332 0.0000 0.0000 0.0000
# 3 82.2010 -11.6332 100.9429 0.0000 0.0000 0.0000
# 4 0.0000 0.0000 0.0000 24.3655 0.0000 0.0000
# 5 0.0000 0.0000 0.0000 0.0000 25.8328 0.0000
# 6 0.0000 0.0000 0.0000 0.0000 0.0000 13.0759
#
#
#
# Elastic Compliance Matrix: (Units=1/GPa)
#
#
# Indices 1 2 3 4 5 6 
#
# 1 0.008748 -0.003254 -0.007499 0.000000 0.000000 0.000000
# 2 -0.003254 0.026209 0.005670 0.000000 0.000000 0.000000
# 3 -0.007499 0.005670 0.016666 0.000000 0.000000 0.000000
# 4 0.000000 0.000000 0.000000 0.041042 0.000000 0.000000
# 5 0.000000 0.000000 0.000000 0.000000 0.038710 0.000000
# 6 0.000000 0.000000 0.000000 0.000000 0.000000 0.076477
#
#
# Mechanical properties :
#
#
# Convention : Reuss Voigt Hill
#
# Bulk Modulus (GPa) = 24.12062 53.44750 38.78406
# Shear Modulus (GPa) = 21.56703 29.52831 25.54767
#
# Velocity S-wave (km/s) = 3.18697 3.72909 3.46864
# Velocity P-wave (km/s) = 4.99017 6.61151 5.85721
#
# Compressibility (1/GPa) = 0.04145830
#
# Stress axis : x y z
#
# Youngs Moduli (GPa) = 114.31653 38.15517 60.00116
#
# Poissons Ratio (x) = 0.12416 0.44992
# Poissons Ratio (y) = 0.37199 -0.34023
# Poissons Ratio (z) = 0.85720 -0.21635
#
# Static dielectric constant tensor:
#      x y z
#    x 1.827560 0.000000 0.000000 
#    y 0.000000 1.790380 0.000000 
#    z 0.000000 0.000000 1.786840 
# 
# From -- ./inp_files/28173.got.cif
#   From: 2010.05.17/outbox.cif.g08.bks.cpg/sg59_15_cif.got.tgz:28173.got - 2010.06.03 14:40:33.
