data_PCOD9448083
_publ_section_title
;
Structure prediction by ZEFSAII (Michael W. Deem and Ramdas Pophale) SiO2 
 PCOD9448083
Probable space group: P M M N
;
_chemical_formula_sum "Si O2"
_cell_formula_units_Z 48
_cell_length_a 20.882265
_cell_length_b 7.622854
_cell_length_c 16.081664
_cell_angle_alpha 90.000000
_cell_angle_beta 90.000000
_cell_angle_gamma 90.000000
_cell_volume 2559.918793
_symmetry_space_group_name_H-M "P M M N"
_symmetry_group_IT_number 59
_space_group.IT_coordinate_system_code '2'
_symmetry_cell_setting 'orthorhombic'
loop_
_space_group_symop_operation_xyz
x,y,z
1/2-x,1/2-y,z
1/2+x,-y,-z
-x,1/2+y,-z
-x,-y,-z
1/2+x,1/2+y,-z
1/2-x,y,z
x,1/2-y,z
loop_
_atom_site_type_symbol
_atom_site_label
_atom_site_fract_x
_atom_site_fract_y
_atom_site_fract_z
Si Si1 0.905872 0.549626 0.070427
Si Si2 0.106438 0.461979 0.751471
Si Si3 0.930666 0.039035 0.538706
Si Si4 0.539220 0.038684 0.719761
Si Si5 0.321429 0.959935 0.585007
Si Si6 0.947413 0.540919 0.900864
O O1 0.882724 0.750000 0.065434
O O2 0.877838 0.470674 0.155443
O O3 0.982631 0.546349 0.089001
O O4 0.903116 0.475370 0.976899
O O5 0.103504 0.250000 0.757006
O O6 0.154750 0.508169 0.678681
O O7 0.034865 0.523563 0.726055
O O8 0.924608 0.250000 0.541304
O O9 0.930322 0.974581 0.633878
O O10 0.874724 0.969999 0.478987
O O11 0.000000 0.000000 0.500000
O O12 0.537263 0.250000 0.716458
O O13 0.573006 0.989438 0.806199
O O14 0.250000 0.029723 0.571840
O O15 0.319185 0.750000 0.573773
O O16 0.956210 0.750000 0.912517
#
# Coordination Sequence:
#
# PCOD9448083 Si02
#       6
#     8   8   8   8   8   8
#     4   8  15  26  38  57  89 120 146 179 218 262
#     4   9  16  28  45  64  88 119 152 186 224 271
#     4  10  19  32  49  67  91 122 156 194 236 280
#     4   9  17  28  42  63  91 119 149 188 229 270
#     4  10  21  34  47  67  94 121 152 193 237 281
#     4   9  15  23  38  61  88 118 147 179 220 266
#
# _framework density 18.750592999999999
#
# number of rings (size 3 to 8) (size 9 to 14) (size 15 to 20)
#    0.000    2.833    1.667    1.500    0.000    4.333 
#    0.000    0.000    0.000    0.000    0.000    1.167 
#    0.000    4.000    0.000    0.000    0.000    0.000 
#
# Total GULP energy -267287.095379 kJ/mol
# GULP energy per Si atom -5568.481154 kJ/mol
# Density = 1.870792 g / cm^3
# Si number density = 18.750593 Si / 1000 Ang^3
#
#
#
# Elastic Constant Matrix: (Units=GPa)
#
#
# Indices 1 2 3 4 5 6 
#
# 1 79.2835 2.3410 68.4392 0.0000 0.0000 0.0000
# 2 2.3410 43.1720 1.1427 0.0000 0.0000 0.0000
# 3 68.4392 1.1427 208.6045 0.0000 0.0000 0.0000
# 4 0.0000 0.0000 0.0000 20.8812 0.0000 0.0000
# 5 0.0000 0.0000 0.0000 0.0000 12.5752 0.0000
# 6 0.0000 0.0000 0.0000 0.0000 0.0000 9.1251
#
#
#
# Elastic Compliance Matrix: (Units=1/GPa)
#
#
# Indices 1 2 3 4 5 6 
#
# 1 0.017624 -0.000803 -0.005778 0.000000 0.000000 0.000000
# 2 -0.000803 0.023203 0.000136 0.000000 0.000000 0.000000
# 3 -0.005778 0.000136 0.006689 0.000000 0.000000 0.000000
# 4 0.000000 0.000000 0.000000 0.047890 0.000000 0.000000
# 5 0.000000 0.000000 0.000000 0.000000 0.079522 0.000000
# 6 0.000000 0.000000 0.000000 0.000000 0.000000 0.109588
#
#
# Mechanical properties :
#
#
# Convention : Reuss Voigt Hill
#
# Bulk Modulus (GPa) = 28.87894 52.76733 40.82313
# Shear Modulus (GPa) = 16.18403 25.79209 20.98806
#
# Velocity S-wave (km/s) = 2.94108 3.71284 3.34927
# Velocity P-wave (km/s) = 5.19310 6.82518 6.06430
#
# Compressibility (1/GPa) = 0.03462731
#
# Stress axis : x y z
#
# Youngs Moduli (GPa) = 56.74034 43.09777 149.50836
#
# Poissons Ratio (x) = 0.03460 0.86382
# Poissons Ratio (y) = 0.04555 -0.02037
# Poissons Ratio (z) = 0.32783 -0.00587
#
# Static dielectric constant tensor:
#      x y z
#    x 1.609280 0.000000 0.000000 
#    y 0.000000 1.720080 0.000000 
#    z 0.000000 0.000000 1.732910 
# 
# From -- ./inp_files/20743.got.cif
#   From: 2010.05.17/outbox.cif.g08.bks.cpg/sg59_11_cif.got.tgz:20743.got - 2010.06.03 14:40:33.
