data_PCOD9448469
_publ_section_title
;
Structure prediction by ZEFSAII (Michael W. Deem and Ramdas Pophale) SiO2 
 PCOD9448469
Probable space group: P M M N
;
_chemical_formula_sum "Si O2"
_cell_formula_units_Z 64
_cell_length_a 28.147567
_cell_length_b 8.423230
_cell_length_c 15.134547
_cell_angle_alpha 90.000000
_cell_angle_beta 90.000000
_cell_angle_gamma 90.000000
_cell_volume 3588.301672
_symmetry_space_group_name_H-M "P M M N"
_symmetry_group_IT_number 59
_space_group.IT_coordinate_system_code '2'
_symmetry_cell_setting 'orthorhombic'
loop_
_space_group_symop_operation_xyz
x,y,z
1/2-x,1/2-y,z
1/2+x,-y,-z
-x,1/2+y,-z
-x,-y,-z
1/2+x,1/2+y,-z
1/2-x,y,z
x,1/2-y,z
loop_
_atom_site_type_symbol
_atom_site_label
_atom_site_fract_x
_atom_site_fract_y
_atom_site_fract_z
Si Si1 0.422497 0.560632 0.658183
Si Si2 0.428176 0.064152 0.849058
Si Si3 0.533682 0.561730 0.851592
Si Si4 0.613697 0.438102 0.978230
Si Si5 0.968835 0.557229 0.650643
Si Si6 0.305543 0.941239 0.353769
Si Si7 0.613364 0.560738 0.520052
Si Si8 0.804482 0.056451 0.846491
O O1 0.423382 0.750000 0.669027
O O2 0.410061 0.484793 0.752265
O O3 0.476717 0.506787 0.635785
O O4 0.389665 0.513229 0.576836
O O5 0.438704 0.250000 0.850701
O O6 0.477940 0.972666 0.864549
O O7 0.392748 0.019961 0.927559
O O8 0.541901 0.750000 0.859901
O O9 0.566633 0.472842 0.920817
O O10 0.544900 0.510760 0.750651
O O11 0.618533 0.250000 0.991508
O O12 0.658030 0.496860 0.919513
O O13 0.968336 0.750000 0.648991
O O14 0.931516 0.500234 0.578318
O O15 0.250000 0.979045 0.367780
O O16 0.310315 0.750000 0.357803
O O17 0.317958 0.992664 0.253364
O O18 0.339908 0.017211 0.425197
O O19 0.609507 0.750000 0.511998
O O20 0.750000 0.007628 0.863266
O O21 0.804992 0.250000 0.846212
#
# Coordination Sequence:
#
# PCOD9448469 Si02
#       8
#     8   8   8   8   8   8   8   8
#     4  10  20  36  53  71  99 135 173 210 249 294
#     4  11  22  36  51  70  99 134 172 213 256 299
#     4  10  19  33  50  72 104 138 172 208 247 294
#     4  11  20  31  51  77 102 132 170 209 253 303
#     4   8  17  31  48  72 103 135 165 202 245 293
#     4   9  18  34  54  76 103 134 167 203 245 294
#     4  11  20  31  50  77 105 133 167 205 250 300
#     4   8  16  32  54  79 105 132 165 205 247 296
#
# _framework density 17.835736000000001
#
# number of rings (size 3 to 8) (size 9 to 14) (size 15 to 20)
#    0.000    2.250    0.000    5.625    0.000    0.250 
#    0.000    6.875    0.000    3.750    0.000    1.750 
#    0.000    0.000    0.000    0.000    0.000    0.000 
#
# Total GULP energy -357298.025774 kJ/mol
# GULP energy per Si atom -5582.781653 kJ/mol
# Density = 1.779514 g / cm^3
# Si number density = 17.835736 Si / 1000 Ang^3
#
#
#
# Elastic Constant Matrix: (Units=GPa)
#
#
# Indices 1 2 3 4 5 6 
#
# 1 47.3622 -0.1497 55.2491 0.0000 0.0000 0.0000
# 2 -0.1497 19.5812 7.8198 0.0000 0.0000 0.0000
# 3 55.2491 7.8198 123.2037 0.0000 0.0000 0.0000
# 4 0.0000 0.0000 0.0000 21.4762 0.0000 0.0000
# 5 0.0000 0.0000 0.0000 0.0000 28.4235 0.0000
# 6 0.0000 0.0000 0.0000 0.0000 0.0000 18.2171
#
#
#
# Elastic Compliance Matrix: (Units=1/GPa)
#
#
# Indices 1 2 3 4 5 6 
#
# 1 0.045692 0.008754 -0.021045 0.000000 0.000000 0.000000
# 2 0.008754 0.054075 -0.007358 0.000000 0.000000 0.000000
# 3 -0.021045 -0.007358 0.018021 0.000000 0.000000 0.000000
# 4 0.000000 0.000000 0.000000 0.046563 0.000000 0.000000
# 5 0.000000 0.000000 0.000000 0.000000 0.035182 0.000000
# 6 0.000000 0.000000 0.000000 0.000000 0.000000 0.054894
#
#
# Mechanical properties :
#
#
# Convention : Reuss Voigt Hill
#
# Bulk Modulus (GPa) = 12.74061 35.10949 23.92505
# Shear Modulus (GPa) = 15.63048 22.10522 18.86785
#
# Velocity S-wave (km/s) = 2.96355 3.52430 3.25602
# Velocity P-wave (km/s) = 4.34384 6.02400 5.25155
#
# Compressibility (1/GPa) = 0.07848916
#
# Stress axis : x y z
#
# Youngs Moduli (GPa) = 21.88588 18.49290 55.49028
#
# Poissons Ratio (x) = -0.16189 1.16782
# Poissons Ratio (y) = -0.19159 0.40828
# Poissons Ratio (z) = 0.46060 0.13607
#
# Static dielectric constant tensor:
#      x y z
#    x 1.597230 0.000000 0.000000 
#    y 0.000000 1.602080 0.000000 
#    z 0.000000 0.000000 1.609940 
# 
# From -- ./inp_files/24644.got.cif
#   From: 2010.05.17/outbox.cif.g08.bks.cpg/sg59_13_cif.got.tgz:24644.got - 2010.06.03 14:40:33.
