data_PCOD9448336
_publ_section_title
;
Structure prediction by ZEFSAII (Michael W. Deem and Ramdas Pophale) SiO2 
 PCOD9448336
Probable space group: P M M N
;
_chemical_formula_sum "Si O2"
_cell_formula_units_Z 56
_cell_length_a 9.486216
_cell_length_b 14.958381
_cell_length_c 22.164674
_cell_angle_alpha 90.000000
_cell_angle_beta 90.000000
_cell_angle_gamma 90.000000
_cell_volume 3145.132512
_symmetry_space_group_name_H-M "P M M N"
_symmetry_group_IT_number 59
_space_group.IT_coordinate_system_code '2'
_symmetry_cell_setting 'orthorhombic'
loop_
_space_group_symop_operation_xyz
x,y,z
1/2-x,1/2-y,z
1/2+x,-y,-z
-x,1/2+y,-z
-x,-y,-z
1/2+x,1/2+y,-z
1/2-x,y,z
x,1/2-y,z
loop_
_atom_site_type_symbol
_atom_site_label
_atom_site_fract_x
_atom_site_fract_y
_atom_site_fract_z
Si Si1 0.585995 0.853631 0.805814
Si Si2 0.419165 0.355374 0.491627
Si Si3 0.412085 0.107356 0.058249
Si Si4 0.419055 0.504912 0.729749
Si Si5 0.581158 0.495222 0.410158
Si Si6 0.411594 0.609044 0.057302
Si Si7 0.085737 0.148675 0.823198
O O1 0.750000 0.883277 0.804592
O O2 0.580271 0.750000 0.789505
O O3 0.538232 0.864304 0.875371
O O4 0.494805 0.912006 0.760883
O O5 0.250000 0.359086 0.481478
O O6 0.458076 0.250000 0.495250
O O7 0.500034 0.411768 0.440248
O O8 0.448715 0.414062 0.551965
O O9 0.250000 0.137532 0.050484
O O10 0.412246 0.999346 0.057388
O O11 0.507703 0.138645 0.003039
O O12 0.250000 0.515658 0.732403
O O13 0.457787 0.494540 0.659822
O O14 0.456342 0.419855 0.771065
O O15 0.750000 0.479926 0.414298
O O16 0.250000 0.638721 0.057732
O O17 0.493088 0.637988 0.117146
O O18 0.250000 0.130967 0.839125
O O19 0.075687 0.250000 0.801059
#
# Coordination Sequence:
#
# PCOD9448336 Si02
#       7
#     8   8   8   8   8   8   8
#     4  10  21  37  56  77 103 139 180 220 266 319
#     4   9  18  34  57  84 112 142 178 217 255 302
#     4   9  18  33  52  75 103 135 172 216 269 324
#     4  10  21  37  56  78 108 142 178 219 262 309
#     4   9  19  35  55  81 111 144 177 215 262 307
#     4  10  19  32  53  78 103 133 172 220 272 323
#     4  10  21  36  54  76 103 138 178 219 267 322
#
# _framework density 17.805291
#
# number of rings (size 3 to 8) (size 9 to 14) (size 15 to 20)
#    0.000    2.429    1.429    0.429    0.000    4.286 
#    0.000    7.143    0.000    0.000    0.000    4.000 
#    0.000    0.000    0.000    0.000    0.000    0.000 
#
# Total GULP energy -312411.747828 kJ/mol
# GULP energy per Si atom -5578.781211 kJ/mol
# Density = 1.776477 g / cm^3
# Si number density = 17.805291 Si / 1000 Ang^3
#
#
#
# Elastic Constant Matrix: (Units=GPa)
#
#
# Indices 1 2 3 4 5 6 
#
# 1 41.5397 35.8069 55.2543 0.0000 0.0000 0.0000
# 2 35.8069 100.4601 53.9945 0.0000 0.0000 0.0000
# 3 55.2543 53.9945 149.3248 0.0000 0.0000 0.0000
# 4 0.0000 0.0000 0.0000 -59.9517 0.0000 0.0000
# 5 0.0000 0.0000 0.0000 0.0000 26.4979 0.0000
# 6 0.0000 0.0000 0.0000 0.0000 0.0000 17.3951
#
#
#
# Elastic Compliance Matrix: (Units=1/GPa)
#
#
# Indices 1 2 3 4 5 6 
#
# 1 0.055559 -0.010865 -0.016630 0.000000 0.000000 0.000000
# 2 -0.010865 0.014480 -0.001216 0.000000 0.000000 0.000000
# 3 -0.016630 -0.001216 0.013290 0.000000 0.000000 0.000000
# 4 0.000000 0.000000 0.000000 -0.016680 0.000000 0.000000
# 5 0.000000 0.000000 0.000000 0.000000 0.037739 0.000000
# 6 0.000000 0.000000 0.000000 0.000000 0.000000 0.057487
#
#
# Mechanical properties :
#
#
# Convention : Reuss Voigt Hill
#
# Bulk Modulus (GPa) = 38.59726 64.60398 51.60062
# Shear Modulus (GPa) = 21.93646 6.53954 14.23800
#
# Velocity S-wave (km/s) = 3.51382 1.91854 2.83088
# Velocity P-wave (km/s) = 6.17957 6.42418 6.30306
#
# Compressibility (1/GPa) = 0.02590858
#
# Stress axis : x y z
#
# Youngs Moduli (GPa) = 17.99894 69.06046 75.24568
#
# Poissons Ratio (x) = 0.75033 1.25131
# Poissons Ratio (y) = 0.19555 0.09147
# Poissons Ratio (z) = 0.29932 0.08395
#
# Static dielectric constant tensor:
#      x y z
#    x 1.602690 0.000000 0.000000 
#    y 0.000000 1.615680 0.000000 
#    z 0.000000 0.000000 1.581800 
# 
# From -- ./inp_files/29150.got.cif
#   From: 2010.05.17/outbox.cif.g08.bks.cpg/sg59_15_cif.got.tgz:29150.got - 2010.06.03 14:40:33.
