data_PCOD9448167
_publ_section_title
;
Structure prediction by ZEFSAII (Michael W. Deem and Ramdas Pophale) SiO2 
 PCOD9448167
Probable space group: P M M N
;
_chemical_formula_sum "Si O2"
_cell_formula_units_Z 48
_cell_length_a 7.518455
_cell_length_b 18.838205
_cell_length_c 15.327214
_cell_angle_alpha 90.000000
_cell_angle_beta 90.000000
_cell_angle_gamma 90.000000
_cell_volume 2170.857641
_symmetry_space_group_name_H-M "P M M N"
_symmetry_group_IT_number 59
_space_group.IT_coordinate_system_code '2'
_symmetry_cell_setting 'orthorhombic'
loop_
_space_group_symop_operation_xyz
x,y,z
1/2-x,1/2-y,z
1/2+x,-y,-z
-x,1/2+y,-z
-x,-y,-z
1/2+x,1/2+y,-z
1/2-x,y,z
x,1/2-y,z
loop_
_atom_site_type_symbol
_atom_site_label
_atom_site_fract_x
_atom_site_fract_y
_atom_site_fract_z
Si Si1 0.534031 0.437625 0.133020
Si Si2 0.039314 0.827092 0.725188
Si Si3 0.544672 0.094113 0.815067
Si Si4 0.541546 0.053106 0.628571
Si Si5 0.462233 0.097066 0.444827
Si Si6 0.032361 0.670218 0.018072
O O1 0.750000 0.443364 0.133217
O O2 0.472293 0.392571 0.217410
O O3 0.461544 0.516778 0.139388
O O4 0.479040 0.390352 0.050435
O O5 0.250000 0.824865 0.742565
O O6 0.965493 0.750000 0.749276
O O7 0.012107 0.842811 0.623580
O O8 0.750000 0.115779 0.802372
O O9 0.464471 0.082943 0.718684
O O10 0.468975 0.148767 0.885395
O O11 0.750000 0.040265 0.645896
O O12 0.526314 0.102818 0.543942
O O13 0.466018 0.977203 0.596413
O O14 0.250000 0.092545 0.448903
O O15 0.250000 0.669393 0.017858
O O16 0.978371 0.750000 0.993499
#
# Coordination Sequence:
#
# PCOD9448167 Si02
#       6
#     8   8   8   8   8   8
#     4  10  19  32  53  79 105 135 174 217 259 308
#     4  10  20  33  50  74 106 141 175 214 261 314
#     4  10  19  33  54  79 106 136 174 219 260 305
#     4   9  18  32  50  74 103 133 169 213 258 307
#     4  10  19  32  51  74 102 135 170 214 261 309
#     4   9  18  33  53  77 105 138 174 212 257 310
#
# _framework density 22.111076000000001
#
# number of rings (size 3 to 8) (size 9 to 14) (size 15 to 20)
#    0.000    2.333    1.667    1.500    0.000    3.667 
#    0.000    0.833    0.000    6.000    0.000    0.000 
#    0.000    0.000    0.000    0.000    0.000    0.000 
#
# Total GULP energy -267973.406973 kJ/mol
# GULP energy per Si atom -5582.779312 kJ/mol
# Density = 2.206075 g / cm^3
# Si number density = 22.111076 Si / 1000 Ang^3
#
#
#
# Elastic Constant Matrix: (Units=GPa)
#
#
# Indices 1 2 3 4 5 6 
#
# 1 58.6165 -12.9248 -9.5777 0.0000 0.0000 0.0000
# 2 -12.9248 28.6831 3.4104 0.0000 0.0000 0.0000
# 3 -9.5777 3.4104 114.1073 0.0000 0.0000 0.0000
# 4 0.0000 0.0000 0.0000 63.0153 0.0000 0.0000
# 5 0.0000 0.0000 0.0000 0.0000 3.7271 0.0000
# 6 0.0000 0.0000 0.0000 0.0000 0.0000 11.9664
#
#
#
# Elastic Compliance Matrix: (Units=1/GPa)
#
#
# Indices 1 2 3 4 5 6 
#
# 1 0.019148 0.008467 0.001354 0.000000 0.000000 0.000000
# 2 0.008467 0.038732 -0.000447 0.000000 0.000000 0.000000
# 3 0.001354 -0.000447 0.008891 0.000000 0.000000 0.000000
# 4 0.000000 0.000000 0.000000 0.015869 0.000000 0.000000
# 5 0.000000 0.000000 0.000000 0.000000 0.268306 0.000000
# 6 0.000000 0.000000 0.000000 0.000000 0.000000 0.083567
#
#
# Mechanical properties :
#
#
# Convention : Reuss Voigt Hill
#
# Bulk Modulus (GPa) = 11.69308 18.13583 14.91446
# Shear Modulus (GPa) = 11.25439 30.44170 20.84805
#
# Velocity S-wave (km/s) = 2.25854 3.71450 3.07396
# Velocity P-wave (km/s) = 3.47867 5.15913 4.39987
#
# Compressibility (1/GPa) = 0.08552066
#
# Stress axis : x y z
#
# Youngs Moduli (GPa) = 52.22386 25.81822 112.47701
#
# Poissons Ratio (x) = -0.21861 -0.15231
# Poissons Ratio (y) = -0.44220 0.05026
# Poissons Ratio (z) = -0.07072 0.01154
#
# Static dielectric constant tensor:
#      x y z
#    x 1.842460 0.000000 0.000000 
#    y 0.000000 1.784390 0.000000 
#    z 0.000000 0.000000 1.841920 
# 
# From -- ./inp_files/20374.got.cif
#   From: 2010.05.17/outbox.cif.g08.bks.cpg/sg59_11_cif.got.tgz:20374.got - 2010.06.03 14:40:33.
