data_PCOD9448482
_publ_section_title
;
Structure prediction by ZEFSAII (Michael W. Deem and Ramdas Pophale) SiO2 
 PCOD9448482
Probable space group: P M M N
;
_chemical_formula_sum "Si O2"
_cell_formula_units_Z 48
_cell_length_a 15.112679
_cell_length_b 15.234433
_cell_length_c 9.969457
_cell_angle_alpha 90.000000
_cell_angle_beta 90.000000
_cell_angle_gamma 90.000000
_cell_volume 2295.298947
_symmetry_space_group_name_H-M "P M M N"
_symmetry_group_IT_number 59
_space_group.IT_coordinate_system_code '2'
_symmetry_cell_setting 'orthorhombic'
loop_
_space_group_symop_operation_xyz
x,y,z
1/2-x,1/2-y,z
1/2+x,-y,-z
-x,1/2+y,-z
-x,-y,-z
1/2+x,1/2+y,-z
1/2-x,y,z
x,1/2-y,z
loop_
_atom_site_type_symbol
_atom_site_label
_atom_site_fract_x
_atom_site_fract_y
_atom_site_fract_z
Si Si1 0.642191 0.848125 0.376739
Si Si2 0.849406 0.882729 0.079596
Si Si3 0.454334 0.153395 0.187127
Si Si4 0.584796 0.062505 0.028078
Si Si5 0.857409 0.523943 0.610193
Si Si6 0.357209 0.849469 0.249241
O O1 0.750000 0.850487 0.372270
O O2 0.617755 0.750000 0.424887
O O3 0.610656 0.860059 0.224295
O O4 0.615783 0.928751 0.471841
O O5 0.750000 0.848572 0.072333
O O6 0.845855 0.988293 0.066887
O O7 0.904700 0.845787 0.956343
O O8 0.450610 0.250000 0.247354
O O9 0.553515 0.124051 0.149175
O O10 0.403723 0.082401 0.275822
O O11 0.610092 0.115660 0.895478
O O12 0.500000 0.000000 0.000000
O O13 0.750000 0.530847 0.622648
O O14 0.881948 0.422972 0.640057
O O15 0.250000 0.848151 0.244297
O O16 0.387999 0.750000 0.274945
#
# Coordination Sequence:
#
# PCOD9448482 Si02
#       6
#     8   8   8   8   8   8
#     4   9  18  32  51  78 113 144 170 213 271 324
#     4  10  19  33  54  79 107 140 181 218 262 317
#     4  11  21  32  53  80 109 140 172 218 267 321
#     4  10  19  33  51  75 107 139 170 219 268 312
#     4  10  19  33  53  80 107 137 176 219 269 316
#     4  10  19  33  55  78 102 137 182 225 262 309
#
# _framework density 20.912309
#
# number of rings (size 3 to 8) (size 9 to 14) (size 15 to 20)
#    0.000    2.000    3.333    2.500    0.000    2.667 
#    0.000    0.833    0.000    2.000    0.000    7.000 
#    0.000    0.000    0.000    0.000    0.000    0.000 
#
# Total GULP energy -267804.398822 kJ/mol
# GULP energy per Si atom -5579.258309 kJ/mol
# Density = 2.086471 g / cm^3
# Si number density = 20.912309 Si / 1000 Ang^3
#
#
#
# Elastic Constant Matrix: (Units=GPa)
#
#
# Indices 1 2 3 4 5 6 
#
# 1 35.6221 13.2723 -0.6974 0.0000 0.0000 0.0000
# 2 13.2723 163.3215 23.0129 0.0000 0.0000 0.0000
# 3 -0.6974 23.0129 62.6665 0.0000 0.0000 0.0000
# 4 0.0000 0.0000 0.0000 18.9770 0.0000 0.0000
# 5 0.0000 0.0000 0.0000 0.0000 -0.7101 0.0000
# 6 0.0000 0.0000 0.0000 0.0000 0.0000 -20.8184
#
#
#
# Elastic Compliance Matrix: (Units=1/GPa)
#
#
# Indices 1 2 3 4 5 6 
#
# 1 0.029042 -0.002537 0.001255 0.000000 0.000000 0.000000
# 2 -0.002537 0.006679 -0.002481 0.000000 0.000000 0.000000
# 3 0.001255 -0.002481 0.016882 0.000000 0.000000 0.000000
# 4 0.000000 0.000000 0.000000 0.052695 0.000000 0.000000
# 5 0.000000 0.000000 0.000000 0.000000 -1.408201 0.000000
# 6 0.000000 0.000000 0.000000 0.000000 0.000000 -0.048034
#
#
# Mechanical properties :
#
#
# Convention : Reuss Voigt Hill
#
# Bulk Modulus (GPa) = 22.18400 36.97618 29.58009
# Shear Modulus (GPa) = -3.76397 14.55785 5.39694
#
# Velocity S-wave (km/s) = -1.34305 2.64130 1.60821
# Velocity P-wave (km/s) = 2.86811 5.19826 4.19809
#
# Compressibility (1/GPa) = 0.04507753
#
# Stress axis : x y z
#
# Youngs Moduli (GPa) = 34.43264 149.73160 59.23297
#
# Poissons Ratio (x) = 0.37986 -0.07433
# Poissons Ratio (y) = 0.08735 0.14695
# Poissons Ratio (z) = -0.04321 0.37146
#
# Static dielectric constant tensor:
#      x y z
#    x -0.006100 0.000000 0.000000 
#    y 0.000000 1.813410 0.000000 
#    z 0.000000 0.000000 1.738960 
# 
# From -- ./inp_files/8998.got.cif
#   From: 2010.05.17/outbox.cif.g08.bks.cpg/sg59_5_cif.got.tgz:8998.got - 2010.06.03 14:40:33.
