data_PCOD9448488
_publ_section_title
;
Structure prediction by ZEFSAII (Michael W. Deem and Ramdas Pophale) SiO2 
 PCOD9448488
Probable space group: P M M N
;
_chemical_formula_sum "Si O2"
_cell_formula_units_Z 64
_cell_length_a 20.192851
_cell_length_b 9.756437
_cell_length_c 19.476147
_cell_angle_alpha 90.000000
_cell_angle_beta 90.000000
_cell_angle_gamma 90.000000
_cell_volume 3837.001147
_symmetry_space_group_name_H-M "P M M N"
_symmetry_group_IT_number 59
_space_group.IT_coordinate_system_code '2'
_symmetry_cell_setting 'orthorhombic'
loop_
_space_group_symop_operation_xyz
x,y,z
1/2-x,1/2-y,z
1/2+x,-y,-z
-x,1/2+y,-z
-x,-y,-z
1/2+x,1/2+y,-z
1/2-x,y,z
x,1/2-y,z
loop_
_atom_site_type_symbol
_atom_site_label
_atom_site_fract_x
_atom_site_fract_y
_atom_site_fract_z
Si Si1 0.540455 0.585134 0.205084
Si Si2 0.672878 0.411942 0.413633
Si Si3 0.060927 0.909638 0.477341
Si Si4 0.676886 0.408922 0.896973
Si Si5 0.673116 0.915119 0.275631
Si Si6 0.470631 0.913244 0.061834
Si Si7 0.570777 0.089448 0.685679
Si Si8 0.174528 0.092551 0.238186
O O1 0.541699 0.750000 0.200627
O O2 0.616154 0.542724 0.221170
O O3 0.503640 0.540948 0.134802
O O4 0.495230 0.551605 0.271407
O O5 0.750000 0.430765 0.432347
O O6 0.663826 0.250000 0.396677
O O7 0.625234 0.445945 0.477283
O O8 0.659763 0.505328 0.346916
O O9 0.047171 0.750000 0.491222
O O10 0.067253 0.924494 0.395749
O O11 0.000000 0.000000 0.500000
O O12 0.750000 0.425312 0.930477
O O13 0.673772 0.250000 0.872397
O O14 0.609063 0.430918 0.937695
O O15 0.673976 0.512916 0.833875
O O16 0.750000 0.943464 0.255785
O O17 0.667740 0.750000 0.286047
O O18 0.483615 0.750000 0.054148
O O19 0.500000 0.000000 0.000000
O O20 0.584475 0.250000 0.701593
O O21 0.627727 0.991777 0.712582
O O22 0.250000 0.091066 0.263495
O O23 0.153610 0.250000 0.229870
#
# Coordination Sequence:
#
# PCOD9448488 Si02
#       8
#     8   8   8   8   8   8   8   8
#     4   9  17  32  52  74 101 129 166 215 256 296
#     4   9  18  33  50  71 103 137 169 210 258 305
#     4  10  21  34  51  74 101 134 173 216 262 309
#     4   9  17  33  57  78 100 137 178 208 242 299
#     4   9  17  31  54  79  99 128 171 213 254 304
#     4  10  20  35  54  78 108 139 172 212 259 308
#     4  10  19  33  52  72  96 135 180 215 251 305
#     4  10  20  32  48  75 107 132 161 210 263 304
#
# _framework density 16.679691999999999
#
# number of rings (size 3 to 8) (size 9 to 14) (size 15 to 20)
#    0.000    2.500    1.250    1.125    0.000    3.750 
#    0.000    3.125    0.000    2.250    0.000    0.000 
#    0.000    0.000    0.000    0.000    0.000    0.000 
#
# Total GULP energy -356363.938236 kJ/mol
# GULP energy per Si atom -5568.186535 kJ/mol
# Density = 1.664173 g / cm^3
# Si number density = 16.679692 Si / 1000 Ang^3
#
#
#
# Elastic Constant Matrix: (Units=GPa)
#
#
# Indices 1 2 3 4 5 6 
#
# 1 133.5127 58.7294 72.2331 0.0000 0.0000 0.0000
# 2 58.7294 49.9235 34.4809 0.0000 0.0000 0.0000
# 3 72.2331 34.4809 71.6658 0.0000 0.0000 0.0000
# 4 0.0000 0.0000 0.0000 28.1048 0.0000 0.0000
# 5 0.0000 0.0000 0.0000 0.0000 22.9857 0.0000
# 6 0.0000 0.0000 0.0000 0.0000 0.0000 26.1011
#
#
#
# Elastic Compliance Matrix: (Units=1/GPa)
#
#
# Indices 1 2 3 4 5 6 
#
# 1 0.023008 -0.016549 -0.015228 0.000000 0.000000 0.000000
# 2 -0.016549 0.041903 -0.003481 0.000000 0.000000 0.000000
# 3 -0.015228 -0.003481 0.030977 0.000000 0.000000 0.000000
# 4 0.000000 0.000000 0.000000 0.035581 0.000000 0.000000
# 5 0.000000 0.000000 0.000000 0.000000 0.043505 0.000000
# 6 0.000000 0.000000 0.000000 0.000000 0.000000 0.038313
#
#
# Mechanical properties :
#
#
# Convention : Reuss Voigt Hill
#
# Bulk Modulus (GPa) = 39.41338 65.10987 52.26163
# Shear Modulus (GPa) = 17.10809 21.41556 19.26182
#
# Velocity S-wave (km/s) = 3.20610 3.58708 3.40193
# Velocity P-wave (km/s) = 6.11444 7.50176 6.84334
#
# Compressibility (1/GPa) = 0.02537210
#
# Stress axis : x y z
#
# Youngs Moduli (GPa) = 43.46326 23.86483 32.28205
#
# Poissons Ratio (x) = 0.39493 0.49159
# Poissons Ratio (y) = 0.71926 0.11238
# Poissons Ratio (z) = 0.66185 0.08308
#
# Static dielectric constant tensor:
#      x y z
#    x 1.591630 0.000000 0.000000 
#    y 0.000000 1.550930 0.000000 
#    z 0.000000 0.000000 1.031450 
# 
# From -- ./inp_files/26207.got.cif
#   From: 2010.05.17/outbox.cif.g08.bks.cpg/sg59_14_cif.got.tgz:26207.got - 2010.06.03 14:40:33.
