data_PCOD9448009
_publ_section_title
;
Structure prediction by ZEFSAII (Michael W. Deem and Ramdas Pophale) SiO2 
 PCOD9448009
Probable space group: P M M N
;
_chemical_formula_sum "Si O2"
_cell_formula_units_Z 48
_cell_length_a 9.155998
_cell_length_b 7.926085
_cell_length_c 35.489004
_cell_angle_alpha 90.000000
_cell_angle_beta 90.000000
_cell_angle_gamma 90.000000
_cell_volume 2575.480260
_symmetry_space_group_name_H-M "P M M N"
_symmetry_group_IT_number 59
_space_group.IT_coordinate_system_code '2'
_symmetry_cell_setting 'orthorhombic'
loop_
_space_group_symop_operation_xyz
x,y,z
1/2-x,1/2-y,z
1/2+x,-y,-z
-x,1/2+y,-z
-x,-y,-z
1/2+x,1/2+y,-z
1/2-x,y,z
x,1/2-y,z
loop_
_atom_site_type_symbol
_atom_site_label
_atom_site_fract_x
_atom_site_fract_y
_atom_site_fract_z
Si Si1 0.073723 0.445342 0.039118
Si Si2 0.425924 0.447657 0.234573
Si Si3 0.927586 0.250000 0.906356
Si Si4 0.414714 0.950835 0.537666
Si Si5 0.427712 0.750000 0.179758
Si Si6 0.914591 0.049232 0.612980
Si Si7 0.584606 0.047466 0.311608
O O1 0.250000 0.454994 0.035209
O O2 0.036879 0.250000 0.047883
O O3 0.029299 0.581725 0.070744
O O4 0.000000 0.500000 0.000000
O O5 0.250000 0.454793 0.238507
O O6 0.463535 0.250000 0.226824
O O7 0.470231 0.580694 0.202406
O O8 0.498758 0.502947 0.273902
O O9 0.750000 0.250000 0.905425
O O10 0.979592 0.250000 0.863315
O O11 0.250000 0.021764 0.537612
O O12 0.404509 0.750000 0.537877
O O13 0.500000 0.000000 0.500000
O O14 0.500246 0.001405 0.575194
O O15 0.250000 0.750000 0.178918
O O16 0.750000 0.978003 0.612787
O O17 0.904577 0.250000 0.613513
O O18 0.000151 0.996886 0.650391
O O19 0.750000 0.980405 0.312143
O O20 0.592093 0.250000 0.310186
#
# Coordination Sequence:
#
# PCOD9448009 Si02
#       7
#     8   8   4   8   4   8   8
#     4  10  19  31  51  77 106 143 185 229 282 339
#     4   9  18  33  54  79 107 141 181 228 279 331
#     4   9  18  32  49  77 111 141 181 237 285 331
#     4  11  24  41  61  85 113 146 185 226 270 324
#     4   9  18  32  53  79 109 143 185 231 279 337
#     4  11  24  39  57  84 115 145 182 227 272 324
#     4  10  21  37  57  82 111 143 180 224 274 328
#
# _framework density 18.637301000000001
#
# number of rings (size 3 to 8) (size 9 to 14) (size 15 to 20)
#    0.000    2.000    0.833    2.500    1.167    8.333 
#    0.000    3.333    0.000    2.000    0.000    2.333 
#    0.000    0.000    0.000    0.000    0.000    0.000 
#
# Total GULP energy -267910.241687 kJ/mol
# GULP energy per Si atom -5581.463368 kJ/mol
# Density = 1.859488 g / cm^3
# Si number density = 18.637301 Si / 1000 Ang^3
#
#
#
# Elastic Constant Matrix: (Units=GPa)
#
#
# Indices 1 2 3 4 5 6 
#
# 1 79.4155 36.1401 66.7334 0.0000 0.0000 0.0000
# 2 36.1401 100.1543 79.5287 0.0000 0.0000 0.0000
# 3 66.7334 79.5287 210.1243 0.0000 0.0000 0.0000
# 4 0.0000 0.0000 0.0000 37.8369 0.0000 0.0000
# 5 0.0000 0.0000 0.0000 0.0000 26.1822 0.0000
# 6 0.0000 0.0000 0.0000 0.0000 0.0000 18.5826
#
#
#
# Elastic Compliance Matrix: (Units=1/GPa)
#
#
# Indices 1 2 3 4 5 6 
#
# 1 0.017689 -0.002748 -0.004578 0.000000 0.000000 0.000000
# 2 -0.002748 0.014702 -0.004692 0.000000 0.000000 0.000000
# 3 -0.004578 -0.004692 0.007989 0.000000 0.000000 0.000000
# 4 0.000000 0.000000 0.000000 0.026429 0.000000 0.000000
# 5 0.000000 0.000000 0.000000 0.000000 0.038194 0.000000
# 6 0.000000 0.000000 0.000000 0.000000 0.000000 0.053814
#
#
# Mechanical properties :
#
#
# Convention : Reuss Voigt Hill
#
# Bulk Modulus (GPa) = 61.18181 83.83314 72.50747
# Shear Modulus (GPa) = 26.55341 30.33981 28.44661
#
# Velocity S-wave (km/s) = 3.77867 4.03911 3.91106
# Velocity P-wave (km/s) = 7.20671 8.17506 7.70611
#
# Compressibility (1/GPa) = 0.01634473
#
# Stress axis : x y z
#
# Youngs Moduli (GPa) = 56.53106 68.01985 125.17720
#
# Poissons Ratio (x) = 0.18692 0.57305
# Poissons Ratio (y) = 0.15535 0.58728
# Poissons Ratio (z) = 0.25879 0.31912
#
# Static dielectric constant tensor:
#      x y z
#    x 1.661920 0.000000 0.000000 
#    y 0.000000 1.654360 0.000000 
#    z 0.000000 0.000000 1.577950 
# 
# From -- ./inp_files/33032.got.cif
#   From: 2010.05.17/outbox.cif.g08.bks.cpg/sg59_17_cif.got.tgz:33032.got - 2010.06.03 14:40:33.
