data_PCOD9448662
_publ_section_title
;
Structure prediction by ZEFSAII (Michael W. Deem and Ramdas Pophale) SiO2 
 PCOD9448662
Probable space group: P M M N
;
_chemical_formula_sum "Si O2"
_cell_formula_units_Z 64
_cell_length_a 8.905687
_cell_length_b 24.763788
_cell_length_c 15.170441
_cell_angle_alpha 90.000000
_cell_angle_beta 90.000000
_cell_angle_gamma 90.000000
_cell_volume 3345.666983
_symmetry_space_group_name_H-M "P M M N"
_symmetry_group_IT_number 59
_space_group.IT_coordinate_system_code '2'
_symmetry_cell_setting 'orthorhombic'
loop_
_space_group_symop_operation_xyz
x,y,z
1/2-x,1/2-y,z
1/2+x,-y,-z
-x,1/2+y,-z
-x,-y,-z
1/2+x,1/2+y,-z
1/2-x,y,z
x,1/2-y,z
loop_
_atom_site_type_symbol
_atom_site_label
_atom_site_fract_x
_atom_site_fract_y
_atom_site_fract_z
Si Si1 0.570923 0.630530 0.551964
Si Si2 0.425411 0.977539 0.630196
Si Si3 0.576651 0.014428 0.157050
Si Si4 0.929780 0.092714 0.617616
Si Si5 0.570695 0.401649 0.822188
Si Si6 0.569923 0.187282 0.964572
Si Si7 0.573317 0.187148 0.289995
Si Si8 0.928317 0.875021 0.872883
O O1 0.750000 0.631375 0.550992
O O2 0.510454 0.574320 0.593363
O O3 0.504314 0.631789 0.453715
O O4 0.504934 0.675626 0.616861
O O5 0.250000 0.976860 0.603692
O O6 0.431061 0.977263 0.736735
O O7 0.505024 0.032733 0.600880
O O8 0.750000 0.016948 0.129912
O O9 0.486506 0.063873 0.115343
O O10 0.509333 0.955237 0.141364
O O11 0.750000 0.092655 0.608094
O O12 0.968387 0.105755 0.719176
O O13 0.750000 0.410869 0.825955
O O14 0.534666 0.349469 0.880010
O O15 0.750000 0.183729 0.980199
O O16 0.532043 0.250000 0.952333
O O17 0.485814 0.161767 0.047422
O O18 0.750000 0.173876 0.296425
O O19 0.558361 0.250000 0.265297
O O20 0.498921 0.149798 0.216020
O O21 0.750000 0.874515 0.866235
#
# Coordination Sequence:
#
# PCOD9448662 Si02
#       8
#     8   8   8   8   8   8   8   8
#     4  12  23  35  55  83 117 156 198 241 290 349
#     4  10  19  33  54  82 117 155 197 241 289 348
#     4  10  20  35  59  88 122 160 196 238 296 360
#     4  10  20  35  56  83 118 154 196 246 296 348
#     4   9  20  39  62  88 119 155 200 252 301 350
#     4  10  22  42  66  89 115 152 199 248 297 352
#     4  11  24  42  62  84 115 156 200 247 298 354
#     4  12  24  38  61  91 123 155 192 239 295 360
#
# _framework density 19.129221000000001
#
# number of rings (size 3 to 8) (size 9 to 14) (size 15 to 20)
#    0.000    1.500    1.250    4.500    0.000    5.250 
#    0.000    0.625    0.000    2.250    0.000    0.000 
#    0.000    0.000    0.000    0.000    0.000    0.000 
#
# Total GULP energy -357852.779418 kJ/mol
# GULP energy per Si atom -5591.449678 kJ/mol
# Density = 1.908568 g / cm^3
# Si number density = 19.129221 Si / 1000 Ang^3
#
#
#
# Elastic Constant Matrix: (Units=GPa)
#
#
# Indices 1 2 3 4 5 6 
#
# 1 111.2405 59.5584 52.8291 0.0000 0.0000 0.0000
# 2 59.5584 93.4300 59.1402 0.0000 0.0000 0.0000
# 3 52.8291 59.1402 59.7103 0.0000 0.0000 0.0000
# 4 0.0000 0.0000 0.0000 29.8205 0.0000 0.0000
# 5 0.0000 0.0000 0.0000 0.0000 20.2850 0.0000
# 6 0.0000 0.0000 0.0000 0.0000 0.0000 26.9981
#
#
#
# Elastic Compliance Matrix: (Units=1/GPa)
#
#
# Indices 1 2 3 4 5 6 
#
# 1 0.015873 -0.003294 -0.010781 0.000000 0.000000 0.000000
# 2 -0.003294 0.029374 -0.026179 0.000000 0.000000 0.000000
# 3 -0.010781 -0.026179 0.052216 0.000000 0.000000 0.000000
# 4 0.000000 0.000000 0.000000 0.033534 0.000000 0.000000
# 5 0.000000 0.000000 0.000000 0.000000 0.049298 0.000000
# 6 0.000000 0.000000 0.000000 0.000000 0.000000 0.037040
#
#
# Mechanical properties :
#
#
# Convention : Reuss Voigt Hill
#
# Bulk Modulus (GPa) = 58.98394 67.49292 63.23843
# Shear Modulus (GPa) = 16.47470 21.61093 19.04281
#
# Velocity S-wave (km/s) = 2.93786 3.36480 3.15855
# Velocity P-wave (km/s) = 6.51225 7.10317 6.81412
#
# Compressibility (1/GPa) = 0.01695377
#
# Stress axis : x y z
#
# Youngs Moduli (GPa) = 62.99824 34.04318 19.15136
#
# Poissons Ratio (x) = 0.11215 0.20648
# Poissons Ratio (y) = 0.20754 0.50137
# Poissons Ratio (z) = 0.67920 0.89123
#
# Static dielectric constant tensor:
#      x y z
#    x 1.636940 0.000000 0.000000 
#    y 0.000000 1.643790 0.000000 
#    z 0.000000 0.000000 1.687470 
# 
# From -- ./inp_files/21441.got.cif
#   From: 2010.05.17/outbox.cif.g08.bks.cpg/sg59_11_cif.got.tgz:21441.got - 2010.06.03 14:40:33.
