data_PCOD9448639
_publ_section_title
;
Structure prediction by ZEFSAII (Michael W. Deem and Ramdas Pophale) SiO2 
 PCOD9448639
Probable space group: P M M N
;
_chemical_formula_sum "Si O2"
_cell_formula_units_Z 64
_cell_length_a 7.595825
_cell_length_b 18.552316
_cell_length_c 20.513327
_cell_angle_alpha 90.000000
_cell_angle_beta 90.000000
_cell_angle_gamma 90.000000
_cell_volume 2890.741029
_symmetry_space_group_name_H-M "P M M N"
_symmetry_group_IT_number 59
_space_group.IT_coordinate_system_code '2'
_symmetry_cell_setting 'orthorhombic'
loop_
_space_group_symop_operation_xyz
x,y,z
1/2-x,1/2-y,z
1/2+x,-y,-z
-x,1/2+y,-z
-x,-y,-z
1/2+x,1/2+y,-z
1/2-x,y,z
x,1/2-y,z
loop_
_atom_site_type_symbol
_atom_site_label
_atom_site_fract_x
_atom_site_fract_y
_atom_site_fract_z
Si Si1 0.455289 0.607873 0.540456
Si Si2 0.544704 0.668165 0.886549
Si Si3 0.534354 0.168518 0.859918
Si Si4 0.049323 0.592284 0.263898
Si Si5 0.965839 0.328060 0.330903
Si Si6 0.465272 0.949183 0.406769
Si Si7 0.953706 0.440364 0.225475
Si Si8 0.540197 0.416733 0.984708
O O1 0.250000 0.626189 0.533208
O O2 0.528635 0.660632 0.595294
O O3 0.470603 0.528939 0.573895
O O4 0.525522 0.600583 0.467297
O O5 0.750000 0.671027 0.869365
O O6 0.473197 0.750000 0.882005
O O7 0.462238 0.609918 0.837754
O O8 0.527954 0.635813 0.958724
O O9 0.750000 0.165444 0.857865
O O10 0.485640 0.250000 0.877777
O O11 0.469641 0.147552 0.787791
O O12 0.475145 0.111922 0.914820
O O13 0.250000 0.615755 0.276345
O O14 0.973725 0.576312 0.335644
O O15 0.050193 0.516218 0.225278
O O16 0.750000 0.330568 0.330656
O O17 0.017832 0.250000 0.305121
O O18 0.025856 0.391932 0.284543
O O19 0.250000 0.952504 0.406821
O O20 0.750000 0.457722 0.238344
O O21 0.750000 0.409738 0.984786
O O22 0.500000 0.500000 0.000000
#
# Coordination Sequence:
#
# PCOD9448639 Si02
#       8
#     8   8   8   8   8   8   8   8
#     4   9  16  29  47  69  99 135 176 218 265 320
#     4  11  24  40  57  80 113 149 183 227 282 333
#     4   9  19  36  57  80 108 143 179 218 269 325
#     4  10  19  33  54  80 109 139 177 227 277 327
#     4   9  17  29  46  70 102 138 177 223 271 320
#     4   9  17  28  47  74 102 132 170 219 271 319
#     4  11  21  34  54  79 107 143 187 228 272 331
#     4  11  22  38  62  88 113 145 187 232 276 333
#
# _framework density 22.139651000000001
#
# number of rings (size 3 to 8) (size 9 to 14) (size 15 to 20)
#    0.000    2.125    1.250    2.625    0.000    3.000 
#    0.000    1.250    0.000    6.750    0.000    0.000 
#    0.000    3.000    0.000    0.000    0.000    0.000 
#
# Total GULP energy -357300.559347 kJ/mol
# GULP energy per Si atom -5582.821240 kJ/mol
# Density = 2.208926 g / cm^3
# Si number density = 22.139651 Si / 1000 Ang^3
#
#
#
# Elastic Constant Matrix: (Units=GPa)
#
#
# Indices 1 2 3 4 5 6 
#
# 1 57.0907 -8.0703 -8.4442 0.0000 0.0000 0.0000
# 2 -8.0703 61.6123 23.4509 0.0000 0.0000 0.0000
# 3 -8.4442 23.4509 138.1234 0.0000 0.0000 0.0000
# 4 0.0000 0.0000 0.0000 22.2588 0.0000 0.0000
# 5 0.0000 0.0000 0.0000 0.0000 6.9583 0.0000
# 6 0.0000 0.0000 0.0000 0.0000 0.0000 -0.6777
#
#
#
# Elastic Compliance Matrix: (Units=1/GPa)
#
#
# Indices 1 2 3 4 5 6 
#
# 1 0.017918 0.002063 0.000745 0.000000 0.000000 0.000000
# 2 0.002063 0.017589 -0.002860 0.000000 0.000000 0.000000
# 3 0.000745 -0.002860 0.007771 0.000000 0.000000 0.000000
# 4 0.000000 0.000000 0.000000 0.044926 0.000000 0.000000
# 5 0.000000 0.000000 0.000000 0.000000 0.143713 0.000000
# 6 0.000000 0.000000 0.000000 0.000000 0.000000 -1.475544
#
#
# Mechanical properties :
#
#
# Convention : Reuss Voigt Hill
#
# Bulk Modulus (GPa) = 23.16159 30.07766 26.61963
# Shear Modulus (GPa) = -4.06791 22.36722 9.14965
#
# Velocity S-wave (km/s) = -1.35697 3.18194 2.03511
# Velocity P-wave (km/s) = 2.83357 5.20716 4.19188
#
# Compressibility (1/GPa) = 0.04317492
#
# Stress axis : x y z
#
# Youngs Moduli (GPa) = 55.81015 56.85223 128.68236
#
# Poissons Ratio (x) = -0.11731 -0.09588
# Poissons Ratio (y) = -0.11516 0.36806
# Poissons Ratio (z) = -0.04158 0.16261
#
# Static dielectric constant tensor:
#      x y z
#    x 1.880120 0.000000 0.000000 
#    y 0.000000 1.785060 0.000000 
#    z 0.000000 0.000000 1.841110 
# 
# From -- ./inp_files/29522.got.cif
#   From: 2010.05.17/outbox.cif.g08.bks.cpg/sg59_15_cif.got.tgz:29522.got - 2010.06.03 14:40:33.
