data_PCOD9448793
_publ_section_title
;
Structure prediction by ZEFSAII (Michael W. Deem and Ramdas Pophale) SiO2 
 PCOD9448793
Probable space group: P M M N
;
_chemical_formula_sum "Si O2"
_cell_formula_units_Z 64
_cell_length_a 19.350181
_cell_length_b 9.123390
_cell_length_c 21.049094
_cell_angle_alpha 90.000000
_cell_angle_beta 90.000000
_cell_angle_gamma 90.000000
_cell_volume 3715.991222
_symmetry_space_group_name_H-M "P M M N"
_symmetry_group_IT_number 59
_space_group.IT_coordinate_system_code '2'
_symmetry_cell_setting 'orthorhombic'
loop_
_space_group_symop_operation_xyz
x,y,z
1/2-x,1/2-y,z
1/2+x,-y,-z
-x,1/2+y,-z
-x,-y,-z
1/2+x,1/2+y,-z
1/2-x,y,z
x,1/2-y,z
loop_
_atom_site_type_symbol
_atom_site_label
_atom_site_fract_x
_atom_site_fract_y
_atom_site_fract_z
Si Si1 0.168142 0.076058 0.072870
Si Si2 0.430051 0.573569 0.974017
Si Si3 0.169470 0.573375 0.718326
Si Si4 0.834178 0.917926 0.411544
Si Si5 0.409327 0.073586 0.204174
Si Si6 0.665844 0.080632 0.538166
Si Si7 0.168962 0.572919 0.320149
Si Si8 0.065540 0.572084 0.827732
O O1 0.250000 0.052361 0.074967
O O2 0.155204 0.250000 0.062116
O O3 0.133915 0.038454 0.140607
O O4 0.131628 0.983893 0.017953
O O5 0.435920 0.750000 0.977030
O O6 0.420432 0.529226 0.900406
O O7 0.500000 0.500000 0.000000
O O8 0.250000 0.533492 0.728303
O O9 0.166094 0.750000 0.714239
O O10 0.145621 0.506785 0.651273
O O11 0.122128 0.522826 0.776686
O O12 0.750000 0.921670 0.413045
O O13 0.855989 0.750000 0.406603
O O14 0.858024 0.988481 0.477746
O O15 0.407533 0.250000 0.212044
O O16 0.488465 0.027464 0.192616
O O17 0.375733 0.998257 0.265020
O O18 0.750000 0.079076 0.538322
O O19 0.644958 0.250000 0.530506
O O20 0.645895 0.028155 0.608626
O O21 0.250000 0.533018 0.312102
O O22 0.165107 0.750000 0.317722
O O23 0.066383 0.750000 0.827120
#
# Coordination Sequence:
#
# PCOD9448793 Si02
#       8
#     8   8   8   8   8   8   8   8
#     4  10  21  37  56  80 110 142 177 218 266 318
#     4  11  21  37  59  80 106 139 178 221 266 317
#     4   9  17  31  52  75  98 128 166 208 256 306
#     4   9  16  26  43  70 102 130 160 205 254 301
#     4  10  19  34  53  72 100 139 176 209 254 310
#     4   8  14  26  44  66  95 132 168 203 249 302
#     4   9  18  31  47  72 105 134 167 215 260 298
#     4   9  19  35  55  76 100 133 173 213 251 307
#
# _framework density 17.222860000000001
#
# number of rings (size 3 to 8) (size 9 to 14) (size 15 to 20)
#    0.000    2.625    1.250    1.875    0.000    4.000 
#    0.000    4.375    0.000    2.250    0.000    0.000 
#    0.000    0.000    0.000    0.000    0.000    0.000 
#
# Total GULP energy -356797.508689 kJ/mol
# GULP energy per Si atom -5574.961073 kJ/mol
# Density = 1.718366 g / cm^3
# Si number density = 17.222860 Si / 1000 Ang^3
#
#
#
# Elastic Constant Matrix: (Units=GPa)
#
#
# Indices 1 2 3 4 5 6 
#
# 1 74.1111 35.1089 77.9190 0.0000 0.0000 0.0000
# 2 35.1089 38.0405 60.4073 0.0000 0.0000 0.0000
# 3 77.9190 60.4073 200.5895 0.0000 0.0000 0.0000
# 4 0.0000 0.0000 0.0000 28.0539 0.0000 0.0000
# 5 0.0000 0.0000 0.0000 0.0000 10.8854 0.0000
# 6 0.0000 0.0000 0.0000 0.0000 0.0000 19.0237
#
#
#
# Elastic Compliance Matrix: (Units=1/GPa)
#
#
# Indices 1 2 3 4 5 6 
#
# 1 0.027017 -0.015849 -0.005722 0.000000 0.000000 0.000000
# 2 -0.015849 0.059678 -0.011815 0.000000 0.000000 0.000000
# 3 -0.005722 -0.011815 0.010766 0.000000 0.000000 0.000000
# 4 0.000000 0.000000 0.000000 0.035646 0.000000 0.000000
# 5 0.000000 0.000000 0.000000 0.000000 0.091866 0.000000
# 6 0.000000 0.000000 0.000000 0.000000 0.000000 0.052566
#
#
# Mechanical properties :
#
#
# Convention : Reuss Voigt Hill
#
# Bulk Modulus (GPa) = 32.58519 73.29017 52.93768
# Shear Modulus (GPa) = 14.10272 20.87966 17.49119
#
# Velocity S-wave (km/s) = 2.86464 3.48562 3.19027
# Velocity P-wave (km/s) = 5.46830 7.67110 6.66139
#
# Compressibility (1/GPa) = 0.03068879
#
# Stress axis : x y z
#
# Youngs Moduli (GPa) = 37.01307 16.75666 92.88296
#
# Poissons Ratio (x) = 0.26557 0.53148
# Poissons Ratio (y) = 0.58662 1.09745
# Poissons Ratio (z) = 0.21179 0.19799
#
# Static dielectric constant tensor:
#      x y z
#    x 1.574930 0.000000 0.000000 
#    y 0.000000 1.579610 0.000000 
#    z 0.000000 0.000000 1.575140 
# 
# From -- ./inp_files/30686.got.cif
#   From: 2010.05.17/outbox.cif.g08.bks.cpg/sg59_16_cif.got.tgz:30686.got - 2010.06.03 14:40:33.
