data_PCOD9448649
_publ_section_title
;
Structure prediction by ZEFSAII (Michael W. Deem and Ramdas Pophale) SiO2 
 PCOD9448649
Probable space group: P M M N
;
_chemical_formula_sum "Si O2"
_cell_formula_units_Z 48
_cell_length_a 19.489858
_cell_length_b 8.212394
_cell_length_c 15.228805
_cell_angle_alpha 90.000000
_cell_angle_beta 90.000000
_cell_angle_gamma 90.000000
_cell_volume 2437.498054
_symmetry_space_group_name_H-M "P M M N"
_symmetry_group_IT_number 59
_space_group.IT_coordinate_system_code '2'
_symmetry_cell_setting 'orthorhombic'
loop_
_space_group_symop_operation_xyz
x,y,z
1/2-x,1/2-y,z
1/2+x,-y,-z
-x,1/2+y,-z
-x,-y,-z
1/2+x,1/2+y,-z
1/2-x,y,z
x,1/2-y,z
loop_
_atom_site_type_symbol
_atom_site_label
_atom_site_fract_x
_atom_site_fract_y
_atom_site_fract_z
Si Si1 0.327481 0.058288 0.225314
Si Si2 0.827262 0.555006 0.467183
Si Si3 0.077381 0.940449 0.375881
Si Si4 0.900452 0.056388 0.938035
Si Si5 0.071670 0.449593 0.680807
Si Si6 0.445777 0.446560 0.880129
O O1 0.250000 0.005032 0.245566
O O2 0.332878 0.250000 0.245150
O O3 0.382378 0.965264 0.284634
O O4 0.345059 0.027982 0.123810
O O5 0.750000 0.490309 0.479385
O O6 0.822334 0.750000 0.460299
O O7 0.877002 0.519475 0.548580
O O8 0.865101 0.496028 0.378989
O O9 0.072443 0.750000 0.395870
O O10 0.000133 0.004295 0.362974
O O11 0.894734 0.250000 0.927484
O O12 0.975758 0.003913 0.902114
O O13 0.899731 0.012022 0.040434
O O14 0.070282 0.250000 0.681278
O O15 0.073662 0.500865 0.782360
O O16 0.443866 0.250000 0.882706
#
# Coordination Sequence:
#
# PCOD9448649 Si02
#       6
#     8   8   8   8   8   8
#     4  11  23  37  54  79 112 148 186 229 279 336
#     4  10  21  37  56  79 109 145 182 223 275 331
#     4  11  21  36  57  81 108 142 184 230 280 329
#     4  10  19  33  54  81 111 144 180 222 274 326
#     4   9  18  35  57  81 109 143 186 230 268 320
#     4   9  17  33  55  79 109 142 180 225 269 319
#
# _framework density 19.692323999999999
#
# number of rings (size 3 to 8) (size 9 to 14) (size 15 to 20)
#    0.000    2.000    1.667    2.500    0.000    4.333 
#    0.000    2.500    0.000    3.000    0.000    0.000 
#    0.000    0.000    0.000    0.000    0.000    0.000 
#
# Total GULP energy -268015.472210 kJ/mol
# GULP energy per Si atom -5583.655671 kJ/mol
# Density = 1.964750 g / cm^3
# Si number density = 19.692324 Si / 1000 Ang^3
#
#
#
# Elastic Constant Matrix: (Units=GPa)
#
#
# Indices 1 2 3 4 5 6 
#
# 1 40.5320 6.5425 30.2337 0.0000 0.0000 0.0000
# 2 6.5425 9.1054 -1.1546 0.0000 0.0000 0.0000
# 3 30.2337 -1.1546 123.5548 0.0000 0.0000 0.0000
# 4 0.0000 0.0000 0.0000 24.0041 0.0000 0.0000
# 5 0.0000 0.0000 0.0000 0.0000 11.6385 0.0000
# 6 0.0000 0.0000 0.0000 0.0000 0.0000 15.7361
#
#
#
# Elastic Compliance Matrix: (Units=1/GPa)
#
#
# Indices 1 2 3 4 5 6 
#
# 1 0.035699 -0.026790 -0.008986 0.000000 0.000000 0.000000
# 2 -0.026790 0.130060 0.007771 0.000000 0.000000 0.000000
# 3 -0.008986 0.007771 0.010365 0.000000 0.000000 0.000000
# 4 0.000000 0.000000 0.000000 0.041660 0.000000 0.000000
# 5 0.000000 0.000000 0.000000 0.000000 0.085922 0.000000
# 6 0.000000 0.000000 0.000000 0.000000 0.000000 0.063548
#
#
# Mechanical properties :
#
#
# Convention : Reuss Voigt Hill
#
# Bulk Modulus (GPa) = 8.32546 27.15949 17.74247
# Shear Modulus (GPa) = 10.79211 19.44711 15.11961
#
# Velocity S-wave (km/s) = 2.34356 3.14594 2.77391
# Velocity P-wave (km/s) = 3.39999 5.19786 4.39191
#
# Compressibility (1/GPa) = 0.12011350
#
# Stress axis : x y z
#
# Youngs Moduli (GPa) = 28.01205 7.68877 96.47842
#
# Poissons Ratio (x) = 0.20598 0.86694
# Poissons Ratio (y) = 0.75045 -0.74973
# Poissons Ratio (z) = 0.25171 -0.05975
#
# Static dielectric constant tensor:
#      x y z
#    x 1.685460 0.000000 0.000000 
#    y 0.000000 1.698490 0.000000 
#    z 0.000000 0.000000 1.693400 
# 
# From -- ./inp_files/20296.got.cif
#   From: 2010.05.17/outbox.cif.g08.bks.cpg/sg59_11_cif.got.tgz:20296.got - 2010.06.03 14:40:33.
