data_PCOD9448292
_publ_section_title
;
Structure prediction by ZEFSAII (Michael W. Deem and Ramdas Pophale) SiO2 
 PCOD9448292
Probable space group: P M M N
;
_chemical_formula_sum "Si O2"
_cell_formula_units_Z 48
_cell_length_a 18.210502
_cell_length_b 7.658330
_cell_length_c 15.251517
_cell_angle_alpha 90.000000
_cell_angle_beta 90.000000
_cell_angle_gamma 90.000000
_cell_volume 2127.007579
_symmetry_space_group_name_H-M "P M M N"
_symmetry_group_IT_number 59
_space_group.IT_coordinate_system_code '2'
_symmetry_cell_setting 'orthorhombic'
loop_
_space_group_symop_operation_xyz
x,y,z
1/2-x,1/2-y,z
1/2+x,-y,-z
-x,1/2+y,-z
-x,-y,-z
1/2+x,1/2+y,-z
1/2-x,y,z
x,1/2-y,z
loop_
_atom_site_type_symbol
_atom_site_label
_atom_site_fract_x
_atom_site_fract_y
_atom_site_fract_z
Si Si1 0.449269 0.550994 0.621632
Si Si2 0.668825 0.464452 0.517861
Si Si3 0.169587 0.451237 0.754093
Si Si4 0.894871 0.454353 0.070280
Si Si5 0.437246 0.536945 0.117507
Si Si6 0.603384 0.449897 0.692719
O O1 0.470550 0.750000 0.600752
O O2 0.398660 0.478781 0.543348
O O3 0.394771 0.549981 0.704607
O O4 0.522433 0.451750 0.648857
O O5 0.750000 0.516908 0.486932
O O6 0.666750 0.250000 0.516494
O O7 0.655276 0.525025 0.617385
O O8 0.250000 0.522627 0.733385
O O9 0.165683 0.250000 0.725549
O O10 0.155681 0.457075 0.857793
O O11 0.876950 0.250000 0.070312
O O12 0.978958 0.477948 0.102917
O O13 0.893696 0.517709 0.969875
O O14 0.439282 0.750000 0.119315
O O15 0.405705 0.472891 0.210217
O O16 0.627404 0.250000 0.705792
#
# Coordination Sequence:
#
# PCOD9448292 Si02
#       6
#     8   8   8   8   8   8
#     4  11  21  34  55  82 109 140 181 228 275 323
#     4   9  19  35  54  78 109 144 180 221 272 325
#     4  11  23  37  53  76 109 147 184 227 281 333
#     4  10  19  32  52  78 107 141 178 220 268 317
#     4   9  18  32  52  79 109 139 174 218 265 313
#     4  10  19  34  57  82 109 142 180 223 268 322
#
# _framework density 22.566915999999999
#
# number of rings (size 3 to 8) (size 9 to 14) (size 15 to 20)
#    0.000    2.000    1.667    2.500    0.000    2.667 
#    0.000    1.667    0.000    5.500    0.000    0.000 
#    0.000    0.000    0.000    0.000    0.000    0.000 
#
# Total GULP energy -268120.324584 kJ/mol
# GULP energy per Si atom -5585.840095 kJ/mol
# Density = 2.251555 g / cm^3
# Si number density = 22.566916 Si / 1000 Ang^3
#
#
#
# Elastic Constant Matrix: (Units=GPa)
#
#
# Indices 1 2 3 4 5 6 
#
# 1 36.4344 -6.8085 7.2700 0.0000 0.0000 0.0000
# 2 -6.8085 52.1633 -3.5964 0.0000 0.0000 0.0000
# 3 7.2700 -3.5964 148.0899 0.0000 0.0000 0.0000
# 4 0.0000 0.0000 0.0000 10.7768 0.0000 0.0000
# 5 0.0000 0.0000 0.0000 0.0000 -14.9225 0.0000
# 6 0.0000 0.0000 0.0000 0.0000 0.0000 148.8095
#
#
#
# Elastic Compliance Matrix: (Units=1/GPa)
#
#
# Indices 1 2 3 4 5 6 
#
# 1 0.028383 0.003615 -0.001306 0.000000 0.000000 0.000000
# 2 0.003615 0.019663 0.000300 0.000000 0.000000 0.000000
# 3 -0.001306 0.000300 0.006824 0.000000 0.000000 0.000000
# 4 0.000000 0.000000 0.000000 0.092792 0.000000 0.000000
# 5 0.000000 0.000000 0.000000 0.000000 -0.067013 0.000000
# 6 0.000000 0.000000 0.000000 0.000000 0.000000 0.006720
#
#
# Mechanical properties :
#
#
# Convention : Reuss Voigt Hill
#
# Bulk Modulus (GPa) = 16.64232 25.60198 21.12215
# Shear Modulus (GPa) = 48.93359 44.92094 46.92727
#
# Velocity S-wave (km/s) = 4.66164 4.46642 4.56507
# Velocity P-wave (km/s) = 6.03035 6.16182 6.09644
#
# Compressibility (1/GPa) = 0.06008776
#
# Stress axis : x y z
#
# Youngs Moduli (GPa) = 35.23292 50.85684 146.54088
#
# Poissons Ratio (x) = -0.18383 0.19132
# Poissons Ratio (y) = -0.12735 -0.04397
# Poissons Ratio (z) = 0.04600 -0.01526
#
# Static dielectric constant tensor:
#      x y z
#    x 1.785890 0.000000 0.000000 
#    y 0.000000 1.838640 0.000000 
#    z 0.000000 0.000000 1.881630 
# 
# From -- ./inp_files/23644.got.cif
#   From: 2010.05.17/outbox.cif.g08.bks.cpg/sg59_12_cif.got.tgz:23644.got - 2010.06.03 14:40:33.
