data_PCOD9448112
_publ_section_title
;
Structure prediction by ZEFSAII (Michael W. Deem and Ramdas Pophale) SiO2 
 PCOD9448112
Probable space group: P M M N
;
_chemical_formula_sum "Si O2"
_cell_formula_units_Z 48
_cell_length_a 8.718552
_cell_length_b 21.356899
_cell_length_c 15.269131
_cell_angle_alpha 90.000000
_cell_angle_beta 90.000000
_cell_angle_gamma 90.000000
_cell_volume 2843.131042
_symmetry_space_group_name_H-M "P M M N"
_symmetry_group_IT_number 59
_space_group.IT_coordinate_system_code '2'
_symmetry_cell_setting 'orthorhombic'
loop_
_space_group_symop_operation_xyz
x,y,z
1/2-x,1/2-y,z
1/2+x,-y,-z
-x,1/2+y,-z
-x,-y,-z
1/2+x,1/2+y,-z
1/2-x,y,z
x,1/2-y,z
loop_
_atom_site_type_symbol
_atom_site_label
_atom_site_fract_x
_atom_site_fract_y
_atom_site_fract_z
Si Si1 0.436594 0.448817 0.568054
Si Si2 0.571448 0.012487 0.257257
Si Si3 0.433612 0.317285 0.492161
Si Si4 0.572375 0.344149 0.308019
Si Si5 0.935444 0.180734 0.108840
Si Si6 0.931791 0.546310 0.927448
O O1 0.500000 0.500000 0.500000
O O2 0.250000 0.451722 0.564954
O O3 0.482303 0.465238 0.667566
O O4 0.490387 0.379966 0.539288
O O5 0.750000 0.999757 0.235114
O O6 0.566528 0.080712 0.302560
O O7 0.478825 0.019107 0.167779
O O8 0.250000 0.317758 0.500806
O O9 0.491392 0.250000 0.525583
O O10 0.475651 0.322068 0.389951
O O11 0.750000 0.325569 0.320345
O O12 0.522008 0.321486 0.212128
O O13 0.750000 0.175689 0.105399
O O14 0.978882 0.250000 0.074302
O O15 0.003378 0.117575 0.067239
O O16 0.750000 0.548758 0.935444
O O17 0.000000 0.500000 0.000000
#
# Coordination Sequence:
#
# PCOD9448112 Si02
#       6
#     8   8   8   8   8   8
#     4  10  19  32  50  70  98 134 174 212 249 298
#     4   9  18  33  51  72  98 132 173 216 260 307
#     4  10  20  30  42  66 100 134 168 210 257 298
#     4   9  16  28  46  69  98 133 169 201 243 301
#     4   9  18  33  52  75 107 141 169 204 256 315
#     4  11  22  36  56  80 106 135 172 218 265 319
#
# _framework density 16.882795000000002
#
# number of rings (size 3 to 8) (size 9 to 14) (size 15 to 20)
#    0.000    2.333    1.667    3.000    0.000    4.667 
#    0.000    0.000    0.000    1.000    0.000    2.333 
#    0.000    0.000    0.000    0.000    0.000    0.000 
#
# Total GULP energy -267547.949437 kJ/mol
# GULP energy per Si atom -5573.915613 kJ/mol
# Density = 1.684437 g / cm^3
# Si number density = 16.882795 Si / 1000 Ang^3
#
#
#
# Elastic Constant Matrix: (Units=GPa)
#
#
# Indices 1 2 3 4 5 6 
#
# 1 39.2846 40.7885 28.6861 0.0000 0.0000 0.0000
# 2 40.7885 165.4389 70.7987 0.0000 0.0000 0.0000
# 3 28.6861 70.7987 71.5122 0.0000 0.0000 0.0000
# 4 0.0000 0.0000 0.0000 15.5366 0.0000 0.0000
# 5 0.0000 0.0000 0.0000 0.0000 24.1758 0.0000
# 6 0.0000 0.0000 0.0000 0.0000 0.0000 18.3486
#
#
#
# Elastic Compliance Matrix: (Units=1/GPa)
#
#
# Indices 1 2 3 4 5 6 
#
# 1 0.038215 -0.004965 -0.010414 0.000000 0.000000 0.000000
# 2 -0.004965 0.011133 -0.009030 0.000000 0.000000 0.000000
# 3 -0.010414 -0.009030 0.027101 0.000000 0.000000 0.000000
# 4 0.000000 0.000000 0.000000 0.064364 0.000000 0.000000
# 5 0.000000 0.000000 0.000000 0.000000 0.041364 0.000000
# 6 0.000000 0.000000 0.000000 0.000000 0.000000 0.054500
#
#
# Mechanical properties :
#
#
# Convention : Reuss Voigt Hill
#
# Bulk Modulus (GPa) = 36.19165 61.86469 49.02817
# Shear Modulus (GPa) = 16.96608 20.67636 18.82122
#
# Velocity S-wave (km/s) = 3.17351 3.50337 3.34251
# Velocity P-wave (km/s) = 5.90862 7.28615 6.63324
#
# Compressibility (1/GPa) = 0.02763068
#
# Stress axis : x y z
#
# Youngs Moduli (GPa) = 26.16786 89.82148 36.89885
#
# Poissons Ratio (x) = 0.44599 0.38425
# Poissons Ratio (y) = 0.12993 0.33321
# Poissons Ratio (z) = 0.27250 0.81112
#
# Static dielectric constant tensor:
#      x y z
#    x 1.575880 0.000000 0.000000 
#    y 0.000000 1.617120 0.000000 
#    z 0.000000 0.000000 1.546760 
# 
# From -- ./inp_files/20695.got.cif
#   From: 2010.05.17/outbox.cif.g08.bks.cpg/sg59_11_cif.got.tgz:20695.got - 2010.06.03 14:40:33.
