data_PCOD9448186
_publ_section_title
;
Structure prediction by ZEFSAII (Michael W. Deem and Ramdas Pophale) SiO2 
 PCOD9448186
Probable space group: P M M N
;
_chemical_formula_sum "Si O2"
_cell_formula_units_Z 64
_cell_length_a 20.302644
_cell_length_b 9.077835
_cell_length_c 20.112204
_cell_angle_alpha 90.000000
_cell_angle_beta 90.000000
_cell_angle_gamma 90.000000
_cell_volume 3706.760698
_symmetry_space_group_name_H-M "P M M N"
_symmetry_group_IT_number 59
_space_group.IT_coordinate_system_code '2'
_symmetry_cell_setting 'orthorhombic'
loop_
_space_group_symop_operation_xyz
x,y,z
1/2-x,1/2-y,z
1/2+x,-y,-z
-x,1/2+y,-z
-x,-y,-z
1/2+x,1/2+y,-z
1/2-x,y,z
x,1/2-y,z
loop_
_atom_site_type_symbol
_atom_site_label
_atom_site_fract_x
_atom_site_fract_y
_atom_site_fract_z
Si Si1 0.823494 0.918734 0.440076
Si Si2 0.954137 0.924896 0.824134
Si Si3 0.539231 0.926624 0.061736
Si Si4 0.674853 0.423802 0.871332
Si Si5 0.045578 0.574926 0.705194
Si Si6 0.953229 0.075803 0.447180
Si Si7 0.674670 0.424769 0.031431
Si Si8 0.177875 0.421007 0.721306
O O1 0.750000 0.950040 0.464530
O O2 0.841031 0.750000 0.457469
O O3 0.820806 0.925097 0.359494
O O4 0.878451 0.030640 0.463327
O O5 0.959190 0.750000 0.838021
O O6 0.982550 0.952588 0.750775
O O7 0.880305 0.980203 0.835919
O O8 0.000684 0.014997 0.874112
O O9 0.536702 0.750000 0.056642
O O10 0.614641 0.983496 0.061774
O O11 0.500000 0.000000 0.000000
O O12 0.750000 0.460403 0.852583
O O13 0.663902 0.250000 0.858296
O O14 0.669624 0.442771 0.951297
O O15 0.056950 0.750000 0.702079
O O16 0.035955 0.523196 0.629211
O O17 0.111132 0.505546 0.738023
O O18 0.962459 0.250000 0.449038
O O19 0.000000 0.000000 0.500000
O O20 0.750000 0.465720 0.050620
O O21 0.666205 0.250000 0.045455
O O22 0.250000 0.477889 0.743988
O O23 0.172906 0.250000 0.741226
#
# Coordination Sequence:
#
# PCOD9448186 Si02
#       8
#     8   8   8   8   8   8   8   8
#     4   8  14  26  45  70  99 128 160 201 249 298
#     4  11  22  36  54  77 105 138 174 213 257 308
#     4  12  23  35  53  78 106 136 172 213 256 303
#     4   9  18  33  54  79 104 131 167 213 263 309
#     4   9  20  35  50  73 104 136 172 211 254 305
#     4  10  19  32  51  75 103 134 170 213 257 306
#     4   9  18  34  55  78 106 137 171 215 263 308
#     4   8  14  26  46  71  97 127 165 206 245 291
#
# _framework density 17.265749
#
# number of rings (size 3 to 8) (size 9 to 14) (size 15 to 20)
#    0.000    2.500    1.250    3.375    0.000    2.500 
#    0.000    4.375    0.000    1.500    0.000    1.750 
#    0.000    0.000    0.000    0.000    0.000    0.000 
#
# Total GULP energy -356748.599605 kJ/mol
# GULP energy per Si atom -5574.196869 kJ/mol
# Density = 1.722645 g / cm^3
# Si number density = 17.265749 Si / 1000 Ang^3
#
#
#
# Elastic Constant Matrix: (Units=GPa)
#
#
# Indices 1 2 3 4 5 6 
#
# 1 121.6047 62.3282 34.7347 0.0000 0.0000 0.0000
# 2 62.3282 69.1012 31.1665 0.0000 0.0000 0.0000
# 3 34.7347 31.1665 40.2879 0.0000 0.0000 0.0000
# 4 0.0000 0.0000 0.0000 17.5874 0.0000 0.0000
# 5 0.0000 0.0000 0.0000 0.0000 21.8864 0.0000
# 6 0.0000 0.0000 0.0000 0.0000 0.0000 36.5650
#
#
#
# Elastic Compliance Matrix: (Units=1/GPa)
#
#
# Indices 1 2 3 4 5 6 
#
# 1 0.015695 -0.012370 -0.003963 0.000000 0.000000 0.000000
# 2 -0.012370 0.031975 -0.014071 0.000000 0.000000 0.000000
# 3 -0.003963 -0.014071 0.039123 0.000000 0.000000 0.000000
# 4 0.000000 0.000000 0.000000 0.056859 0.000000 0.000000
# 5 0.000000 0.000000 0.000000 0.000000 0.045691 0.000000
# 6 0.000000 0.000000 0.000000 0.000000 0.000000 0.027349
#
#
# Mechanical properties :
#
#
# Convention : Reuss Voigt Hill
#
# Bulk Modulus (GPa) = 38.48146 54.16138 46.32142
# Shear Modulus (GPa) = 17.47267 22.05871 19.76569
#
# Velocity S-wave (km/s) = 3.18462 3.57823 3.38715
# Velocity P-wave (km/s) = 5.98820 6.96484 6.49490
#
# Compressibility (1/GPa) = 0.02598654
#
# Stress axis : x y z
#
# Youngs Moduli (GPa) = 63.71352 31.27430 25.56017
#
# Poissons Ratio (x) = 0.38685 0.10129
# Poissons Ratio (y) = 0.78811 0.35966
# Poissons Ratio (z) = 0.25249 0.44007
#
# Static dielectric constant tensor:
#      x y z
#    x 1.601640 0.000000 0.000000 
#    y 0.000000 1.581660 0.000000 
#    z 0.000000 0.000000 1.589020 
# 
# From -- ./inp_files/30792.got.cif
#   From: 2010.05.17/outbox.cif.g08.bks.cpg/sg59_16_cif.got.tgz:30792.got - 2010.06.03 14:40:33.
