data_PCOD9448495
_publ_section_title
;
Structure prediction by ZEFSAII (Michael W. Deem and Ramdas Pophale) SiO2 
 PCOD9448495
Probable space group: P M M N
;
_chemical_formula_sum "Si O2"
_cell_formula_units_Z 40
_cell_length_a 8.712658
_cell_length_b 26.387231
_cell_length_c 9.924561
_cell_angle_alpha 90.000000
_cell_angle_beta 90.000000
_cell_angle_gamma 90.000000
_cell_volume 2281.685546
_symmetry_space_group_name_H-M "P M M N"
_symmetry_group_IT_number 59
_space_group.IT_coordinate_system_code '2'
_symmetry_cell_setting 'orthorhombic'
loop_
_space_group_symop_operation_xyz
x,y,z
1/2-x,1/2-y,z
1/2+x,-y,-z
-x,1/2+y,-z
-x,-y,-z
1/2+x,1/2+y,-z
1/2-x,y,z
x,1/2-y,z
loop_
_atom_site_type_symbol
_atom_site_label
_atom_site_fract_x
_atom_site_fract_y
_atom_site_fract_z
Si Si1 0.434313 0.417765 0.752303
Si Si2 0.565912 0.530359 0.725150
Si Si3 0.565827 0.111113 0.476532
Si Si4 0.434991 0.692107 0.747287
Si Si5 0.434340 0.386969 0.050392
O O1 0.250000 0.418024 0.747385
O O2 0.494899 0.475058 0.738075
O O3 0.500281 0.386957 0.626243
O O4 0.483722 0.396015 0.897258
O O5 0.750000 0.526879 0.714005
O O6 0.500069 0.561395 0.598386
O O7 0.526462 0.564474 0.856247
O O8 0.750000 0.107923 0.479767
O O9 0.519708 0.158717 0.383024
O O10 0.250000 0.692282 0.751117
O O11 0.489024 0.750000 0.741502
O O12 0.495055 0.661715 0.876721
O O13 0.250000 0.382345 0.052750
#
# Coordination Sequence:
#
# PCOD9448495 Si02
#       5
#     8   8   8   8   8
#     4  11  21  33  49  74 108 138 167 205 248 294
#     4  10  19  33  52  74 102 138 176 207 244 294
#     4  10  20  34  52  75 103 135 170 207 250 298
#     4   9  19  37  59  78  96 124 166 213 256 300
#     4   9  20  35  52  76 104 134 168 207 249 299
#
# _framework density 17.530898000000001
#
# number of rings (size 3 to 8) (size 9 to 14) (size 15 to 20)
#    0.000    2.200    0.000    3.000    0.000    3.600 
#    0.000    1.000    0.000    3.600    0.000    0.000 
#    0.000    0.000    0.000    0.000    0.000    0.000 
#
# Total GULP energy -223329.276876 kJ/mol
# GULP energy per Si atom -5583.231922 kJ/mol
# Density = 1.749100 g / cm^3
# Si number density = 17.530898 Si / 1000 Ang^3
#
#
#
# Elastic Constant Matrix: (Units=GPa)
#
#
# Indices 1 2 3 4 5 6 
#
# 1 36.5962 25.5027 37.3893 0.0000 0.0000 0.0000
# 2 25.5027 119.0862 56.2666 0.0000 0.0000 0.0000
# 3 37.3893 56.2666 150.9178 0.0000 0.0000 0.0000
# 4 0.0000 0.0000 0.0000 5.4774 0.0000 0.0000
# 5 0.0000 0.0000 0.0000 0.0000 29.1444 0.0000
# 6 0.0000 0.0000 0.0000 0.0000 0.0000 24.3904
#
#
#
# Elastic Compliance Matrix: (Units=1/GPa)
#
#
# Indices 1 2 3 4 5 6 
#
# 1 0.038505 -0.004538 -0.007848 0.000000 0.000000 0.000000
# 2 -0.004538 0.010728 -0.002875 0.000000 0.000000 0.000000
# 3 -0.007848 -0.002875 0.009642 0.000000 0.000000 0.000000
# 4 0.000000 0.000000 0.000000 0.182569 0.000000 0.000000
# 5 0.000000 0.000000 0.000000 0.000000 0.034312 0.000000
# 6 0.000000 0.000000 0.000000 0.000000 0.000000 0.041000
#
#
# Mechanical properties :
#
#
# Convention : Reuss Voigt Hill
#
# Bulk Modulus (GPa) = 35.26924 60.54639 47.90782
# Shear Modulus (GPa) = 14.01623 24.29855 19.15739
#
# Velocity S-wave (km/s) = 2.83064 3.72700 3.30931
# Velocity P-wave (km/s) = 5.55386 7.28921 6.47989
#
# Compressibility (1/GPa) = 0.02835332
#
# Stress axis : x y z
#
# Youngs Moduli (GPa) = 25.97034 93.21689 103.70941
#
# Poissons Ratio (x) = 0.42304 0.81387
# Poissons Ratio (y) = 0.11786 0.29819
# Poissons Ratio (z) = 0.20381 0.26802
#
# Static dielectric constant tensor:
#      x y z
#    x 1.589170 0.000000 0.000000 
#    y 0.000000 1.571300 0.000000 
#    z 0.000000 0.000000 1.598800 
# 
# From -- ./inp_files/5630.got.cif
#   From: 2010.05.17/outbox.cif.g08.bks.cpg/sg59_3_cif.got.tgz:5630.got - 2010.06.03 14:40:33.
