data_PCOD9448526
_publ_section_title
;
Structure prediction by ZEFSAII (Michael W. Deem and Ramdas Pophale) SiO2 
 PCOD9448526
Probable space group: P M M N
;
_chemical_formula_sum "Si O2"
_cell_formula_units_Z 56
_cell_length_a 21.383266
_cell_length_b 7.477276
_cell_length_c 16.629094
_cell_angle_alpha 90.000000
_cell_angle_beta 90.000000
_cell_angle_gamma 90.000000
_cell_volume 2658.802254
_symmetry_space_group_name_H-M "P M M N"
_symmetry_group_IT_number 59
_space_group.IT_coordinate_system_code '2'
_symmetry_cell_setting 'orthorhombic'
loop_
_space_group_symop_operation_xyz
x,y,z
1/2-x,1/2-y,z
1/2+x,-y,-z
-x,1/2+y,-z
-x,-y,-z
1/2+x,1/2+y,-z
1/2-x,y,z
x,1/2-y,z
loop_
_atom_site_type_symbol
_atom_site_label
_atom_site_fract_x
_atom_site_fract_y
_atom_site_fract_z
Si Si1 0.449604 0.457571 0.877410
Si Si2 0.179841 0.531343 0.181170
Si Si3 0.001754 0.464010 0.594614
Si Si4 0.419185 0.966952 0.051246
Si Si5 0.366385 0.963467 0.353820
Si Si6 0.387234 0.030987 0.711964
Si Si7 0.250000 0.468985 0.653871
Si Si8 0.250000 0.038263 0.469663
O O1 0.462047 0.250000 0.858050
O O2 0.516380 0.533075 0.907143
O O3 0.415241 0.529107 0.798275
O O4 0.411023 0.469932 0.960010
O O5 0.250000 0.473350 0.168022
O O6 0.178927 0.750000 0.183073
O O7 0.135588 0.475793 0.109475
O O8 0.156923 0.468751 0.268050
O O9 0.002114 0.250000 0.605319
O O10 0.935387 0.534539 0.627157
O O11 0.000000 0.500000 0.500000
O O12 0.063273 0.527046 0.642820
O O13 0.421991 0.750000 0.048207
O O14 0.372880 0.750000 0.346787
O O15 0.312682 0.991225 0.420356
O O16 0.385814 0.250000 0.711760
O O17 0.315766 0.974745 0.694360
O O18 0.250000 0.250000 0.654605
O O19 0.250000 0.530938 0.560830
O O20 0.250000 0.250000 0.476364
#
# Coordination Sequence:
#
# PCOD9448526 Si02
#       8
#     8   8   8   8   8   8   4   4
#     4   9  17  31  51  73  96 125 163 203 242 290
#     4   9  16  29  50  73  96 127 167 203 237 292
#     4  10  20  33  52  77 104 133 172 221 263 302
#     4   9  17  30  50  74  98 125 158 198 246 293
#     4  10  19  33  53  75 100 135 175 212 250 302
#     4   9  17  32  51  72  98 133 175 209 245 299
#     4   9  18  31  49  70  97 132 168 207 249 295
#     4  11  21  33  51  76 105 136 168 209 261 311
#
# _framework density 21.062114999999999
#
# number of rings (size 3 to 8) (size 9 to 14) (size 15 to 20)
#    0.000    2.571    0.714    1.929    0.000    5.143 
#    1.286    1.429    0.000    5.143    0.000    0.000 
#    0.000    0.000    0.000    0.000    0.000    0.000 
#
# Total GULP energy -312499.988323 kJ/mol
# GULP energy per Si atom -5580.356934 kJ/mol
# Density = 2.101418 g / cm^3
# Si number density = 21.062115 Si / 1000 Ang^3
#
#
#
# Elastic Constant Matrix: (Units=GPa)
#
#
# Indices 1 2 3 4 5 6 
#
# 1 185.1119 3.2013 119.4805 0.0000 0.0000 0.0000
# 2 3.2013 57.8126 -6.6001 0.0000 0.0000 0.0000
# 3 119.4805 -6.6001 189.8527 0.0000 0.0000 0.0000
# 4 0.0000 0.0000 0.0000 10.0342 0.0000 0.0000
# 5 0.0000 0.0000 0.0000 0.0000 43.0396 0.0000
# 6 0.0000 0.0000 0.0000 0.0000 0.0000 -8.6771
#
#
#
# Elastic Compliance Matrix: (Units=1/GPa)
#
#
# Indices 1 2 3 4 5 6 
#
# 1 0.009176 -0.001172 -0.005816 0.000000 0.000000 0.000000
# 2 -0.001172 0.017516 0.001347 0.000000 0.000000 0.000000
# 3 -0.005816 0.001347 0.008974 0.000000 0.000000 0.000000
# 4 0.000000 0.000000 0.000000 0.099659 0.000000 0.000000
# 5 0.000000 0.000000 0.000000 0.000000 0.023234 0.000000
# 6 0.000000 0.000000 0.000000 0.000000 0.000000 -0.115246
#
#
# Mechanical properties :
#
#
# Convention : Reuss Voigt Hill
#
# Bulk Modulus (GPa) = 41.01080 73.88228 57.44654
# Shear Modulus (GPa) = 79.71540 29.99239 54.85390
#
# Velocity S-wave (km/s) = 6.15873 3.77768 5.10886
# Velocity P-wave (km/s) = 8.37179 7.36086 7.88255
#
# Compressibility (1/GPa) = 0.02438382
#
# Stress axis : x y z
#
# Youngs Moduli (GPa) = 108.97954 57.09102 111.43371
#
# Poissons Ratio (x) = 0.06691 0.64804
# Poissons Ratio (y) = 0.12773 -0.15005
# Poissons Ratio (z) = 0.63377 -0.07687
#
# Static dielectric constant tensor:
#      x y z
#    x 1.736860 0.000000 0.000000 
#    y 0.000000 1.812260 0.000000 
#    z 0.000000 0.000000 1.712360 
# 
# From -- ./inp_files/24328.got.cif
#   From: 2010.05.17/outbox.cif.g08.bks.cpg/sg59_13_cif.got.tgz:24328.got - 2010.06.03 14:40:33.
