data_PCOD9448916
_publ_section_title
;
Structure prediction by ZEFSAII (Michael W. Deem and Ramdas Pophale) SiO2 
 PCOD9448916
Probable space group: P M M N
;
_chemical_formula_sum "Si O2"
_cell_formula_units_Z 64
_cell_length_a 9.125248
_cell_length_b 19.418503
_cell_length_c 19.734918
_cell_angle_alpha 90.000000
_cell_angle_beta 90.000000
_cell_angle_gamma 90.000000
_cell_volume 3497.000939
_symmetry_space_group_name_H-M "P M M N"
_symmetry_group_IT_number 59
_space_group.IT_coordinate_system_code '2'
_symmetry_cell_setting 'orthorhombic'
loop_
_space_group_symop_operation_xyz
x,y,z
1/2-x,1/2-y,z
1/2+x,-y,-z
-x,1/2+y,-z
-x,-y,-z
1/2+x,1/2+y,-z
1/2-x,y,z
x,1/2-y,z
loop_
_atom_site_type_symbol
_atom_site_label
_atom_site_fract_x
_atom_site_fract_y
_atom_site_fract_z
Si Si1 0.575987 0.909979 0.566774
Si Si2 0.573489 0.170101 0.309630
Si Si3 0.417938 0.167112 0.836416
Si Si4 0.078032 0.829589 0.027133
Si Si5 0.076548 0.957151 0.940586
Si Si6 0.576059 0.425626 0.570902
Si Si7 0.426818 0.953288 0.785851
Si Si8 0.074900 0.916317 0.278526
O O1 0.750000 0.899423 0.569377
O O2 0.498669 0.865347 0.624703
O O3 0.512552 0.895459 0.492034
O O4 0.547728 0.991974 0.576656
O O5 0.750000 0.168197 0.317497
O O6 0.529637 0.250000 0.302115
O O7 0.537293 0.121577 0.245170
O O8 0.250000 0.143800 0.829954
O O9 0.422023 0.250000 0.834590
O O10 0.482926 0.145905 0.909089
O O11 0.513749 0.136536 0.776382
O O12 0.250000 0.833848 0.046414
O O13 0.043532 0.750000 0.013264
O O14 0.056439 0.877891 0.962917
O O15 0.250000 0.972640 0.942179
O O16 0.024810 0.965664 0.863495
O O17 0.000000 0.000000 0.000000
O O18 0.750000 0.417387 0.558414
O O19 0.538476 0.395660 0.644454
O O20 0.250000 0.960373 0.783889
O O21 0.501075 0.010966 0.739622
O O22 0.250000 0.922823 0.274028
#
# Coordination Sequence:
#
# PCOD9448916 Si02
#       8
#     8   8   8   8   8   8   8   8
#     4  10  19  34  56  82 109 140 181 225 269 319
#     4  10  21  37  57  81 113 153 192 232 279 330
#     4  10  21  36  54  78 108 140 176 220 272 331
#     4   9  18  34  55  76 100 136 181 224 269 323
#     4  10  21  35  52  78 108 140 177 225 277 325
#     4   9  19  34  54  81 110 140 177 221 269 321
#     4  10  21  36  55  80 111 146 188 230 276 329
#     4  11  21  35  56  82 111 142 180 225 272 325
#
# _framework density 18.301397000000001
#
# number of rings (size 3 to 8) (size 9 to 14) (size 15 to 20)
#    0.000    2.125    1.250    1.875    0.000    6.000 
#    0.000    3.125    0.000    0.750    0.000    3.500 
#    0.000    0.000    0.000    0.000    0.000    0.000 
#
# Total GULP energy -357153.889432 kJ/mol
# GULP energy per Si atom -5580.529522 kJ/mol
# Density = 1.825974 g / cm^3
# Si number density = 18.301397 Si / 1000 Ang^3
#
#
#
# Elastic Constant Matrix: (Units=GPa)
#
#
# Indices 1 2 3 4 5 6 
#
# 1 29.2958 17.0104 33.1558 0.0000 0.0000 0.0000
# 2 17.0104 48.4320 24.3966 0.0000 0.0000 0.0000
# 3 33.1558 24.3966 113.4288 0.0000 0.0000 0.0000
# 4 0.0000 0.0000 0.0000 27.1815 0.0000 0.0000
# 5 0.0000 0.0000 0.0000 0.0000 26.4355 0.0000
# 6 0.0000 0.0000 0.0000 0.0000 0.0000 23.2744
#
#
#
# Elastic Compliance Matrix: (Units=1/GPa)
#
#
# Indices 1 2 3 4 5 6 
#
# 1 0.057656 -0.013190 -0.014016 0.000000 0.000000 0.000000
# 2 -0.013190 0.026174 -0.001774 0.000000 0.000000 0.000000
# 3 -0.014016 -0.001774 0.013295 0.000000 0.000000 0.000000
# 4 0.000000 0.000000 0.000000 0.036790 0.000000 0.000000
# 5 0.000000 0.000000 0.000000 0.000000 0.037828 0.000000
# 6 0.000000 0.000000 0.000000 0.000000 0.000000 0.042966
#
#
# Mechanical properties :
#
#
# Convention : Reuss Voigt Hill
#
# Bulk Modulus (GPa) = 25.53342 37.80913 31.67128
# Shear Modulus (GPa) = 17.49945 23.15120 20.32532
#
# Velocity S-wave (km/s) = 3.09557 3.56054 3.33616
# Velocity P-wave (km/s) = 5.17288 6.13247 5.67300
#
# Compressibility (1/GPa) = 0.03916436
#
# Stress axis : x y z
#
# Youngs Moduli (GPa) = 17.34414 38.20627 75.21789
#
# Poissons Ratio (x) = 0.50393 1.05428
# Poissons Ratio (y) = 0.22877 0.13344
# Poissons Ratio (z) = 0.24310 0.06778
#
# Static dielectric constant tensor:
#      x y z
#    x 1.616720 0.000000 0.000000 
#    y 0.000000 1.641390 0.000000 
#    z 0.000000 0.000000 1.614400 
# 
# From -- ./inp_files/26216.got.cif
#   From: 2010.05.17/outbox.cif.g08.bks.cpg/sg59_14_cif.got.tgz:26216.got - 2010.06.03 14:40:33.
