data_PCOD9448527
_publ_section_title
;
Structure prediction by ZEFSAII (Michael W. Deem and Ramdas Pophale) SiO2 
 PCOD9448527
Probable space group: P M M N
;
_chemical_formula_sum "Si O2"
_cell_formula_units_Z 64
_cell_length_a 23.974213
_cell_length_b 7.937128
_cell_length_c 16.675644
_cell_angle_alpha 90.000000
_cell_angle_beta 90.000000
_cell_angle_gamma 90.000000
_cell_volume 3173.148219
_symmetry_space_group_name_H-M "P M M N"
_symmetry_group_IT_number 59
_space_group.IT_coordinate_system_code '2'
_symmetry_cell_setting 'orthorhombic'
loop_
_space_group_symop_operation_xyz
x,y,z
1/2-x,1/2-y,z
1/2+x,-y,-z
-x,1/2+y,-z
-x,-y,-z
1/2+x,1/2+y,-z
1/2-x,y,z
x,1/2-y,z
loop_
_atom_site_type_symbol
_atom_site_label
_atom_site_fract_x
_atom_site_fract_y
_atom_site_fract_z
Si Si1 0.312828 0.956043 0.148812
Si Si2 0.421261 0.953633 0.226183
Si Si3 0.007597 0.452744 0.907102
Si Si4 0.683175 0.444638 0.029264
Si Si5 0.619354 0.557917 0.178360
Si Si6 0.033237 0.447997 0.395908
Si Si7 0.412263 0.549999 0.553236
Si Si8 0.185823 0.549529 0.664349
O O1 0.250000 0.014330 0.162898
O O2 0.311600 0.750000 0.146388
O O3 0.357665 0.008263 0.213789
O O4 0.332017 0.006448 0.059460
O O5 0.422861 0.750000 0.231135
O O6 0.455169 0.003171 0.146880
O O7 0.448698 0.023543 0.305579
O O8 0.011941 0.250000 0.906471
O O9 0.062042 0.517100 0.858223
O O10 0.000000 0.500000 0.000000
O O11 0.750000 0.442764 0.031625
O O12 0.663960 0.250000 0.038590
O O13 0.659537 0.550625 0.101584
O O14 0.607994 0.750000 0.203180
O O15 0.651735 0.475317 0.252620
O O16 0.031170 0.250000 0.413791
O O17 0.077380 0.524206 0.458791
O O18 0.970518 0.518233 0.409447
O O19 0.411429 0.750000 0.569151
O O20 0.355929 0.482092 0.594601
O O21 0.250000 0.482147 0.667079
O O22 0.191372 0.750000 0.652554
#
# Coordination Sequence:
#
# PCOD9448527 Si02
#       8
#     8   8   8   8   8   8   8   8
#     4   8  15  29  50  73  93 120 164 212 250 285
#     4  10  19  33  53  75 101 132 167 207 251 301
#     4  10  22  36  51  75 106 143 183 222 268 318
#     4   9  17  31  51  71  93 129 178 221 252 291
#     4  11  22  33  47  73 108 140 173 215 265 319
#     4  10  20  34  56  83 106 131 165 206 255 310
#     4   9  19  37  58  79 103 131 166 210 256 301
#     4  10  21  37  57  80 106 140 182 221 260 315
#
# _framework density 20.169243000000002
#
# number of rings (size 3 to 8) (size 9 to 14) (size 15 to 20)
#    0.000    2.375    0.000    3.375    0.000    5.500 
#    0.000    1.250    0.000    4.875    0.000    0.000 
#    0.000    0.000    0.000    0.000    0.000    0.000 
#
# Total GULP energy -356892.571244 kJ/mol
# GULP energy per Si atom -5576.446426 kJ/mol
# Density = 2.012334 g / cm^3
# Si number density = 20.169243 Si / 1000 Ang^3
#
#
#
# Elastic Constant Matrix: (Units=GPa)
#
#
# Indices 1 2 3 4 5 6 
#
# 1 122.0563 13.9088 70.4529 0.0000 0.0000 0.0000
# 2 13.9088 15.8466 0.6942 0.0000 0.0000 0.0000
# 3 70.4529 0.6942 103.4929 0.0000 0.0000 0.0000
# 4 0.0000 0.0000 0.0000 17.9465 0.0000 0.0000
# 5 0.0000 0.0000 0.0000 0.0000 28.8148 0.0000
# 6 0.0000 0.0000 0.0000 0.0000 0.0000 13.8991
#
#
#
# Elastic Compliance Matrix: (Units=1/GPa)
#
#
# Indices 1 2 3 4 5 6 
#
# 1 0.015949 -0.013527 -0.010767 0.000000 0.000000 0.000000
# 2 -0.013527 0.074597 0.008708 0.000000 0.000000 0.000000
# 3 -0.010767 0.008708 0.016933 0.000000 0.000000 0.000000
# 4 0.000000 0.000000 0.000000 0.055721 0.000000 0.000000
# 5 0.000000 0.000000 0.000000 0.000000 0.034704 0.000000
# 6 0.000000 0.000000 0.000000 0.000000 0.000000 0.071947
#
#
# Mechanical properties :
#
#
# Convention : Reuss Voigt Hill
#
# Bulk Modulus (GPa) = 13.10477 45.72306 29.41392
# Shear Modulus (GPa) = 15.31587 22.55473 18.93530
#
# Velocity S-wave (km/s) = 2.75865 3.34769 3.06734
# Velocity P-wave (km/s) = 4.08147 6.13690 5.21153
#
# Compressibility (1/GPa) = 0.07630808
#
# Stress axis : x y z
#
# Youngs Moduli (GPa) = 62.69956 13.40545 59.05460
#
# Poissons Ratio (x) = 0.18134 0.63582
# Poissons Ratio (y) = 0.84814 -0.51426
# Poissons Ratio (z) = 0.67506 -0.11674
#
# Static dielectric constant tensor:
#      x y z
#    x 1.767700 0.000000 0.000000 
#    y 0.000000 1.756950 0.000000 
#    z 0.000000 0.000000 1.678870 
# 
# From -- ./inp_files/24780.got.cif
#   From: 2010.05.17/outbox.cif.g08.bks.cpg/sg59_13_cif.got.tgz:24780.got - 2010.06.03 14:40:33.
