data_PCOD9448984
_publ_section_title
;
Structure prediction by ZEFSAII (Michael W. Deem and Ramdas Pophale) SiO2 
 PCOD9448984
Probable space group: P M M N
;
_chemical_formula_sum "Si O2"
_cell_formula_units_Z 56
_cell_length_a 14.196542
_cell_length_b 22.803739
_cell_length_c 8.900588
_cell_angle_alpha 90.000000
_cell_angle_beta 90.000000
_cell_angle_gamma 90.000000
_cell_volume 2881.425078
_symmetry_space_group_name_H-M "P M M N"
_symmetry_group_IT_number 59
_space_group.IT_coordinate_system_code '2'
_symmetry_cell_setting 'orthorhombic'
loop_
_space_group_symop_operation_xyz
x,y,z
1/2-x,1/2-y,z
1/2+x,-y,-z
-x,1/2+y,-z
-x,-y,-z
1/2+x,1/2+y,-z
1/2-x,y,z
x,1/2-y,z
loop_
_atom_site_type_symbol
_atom_site_label
_atom_site_fract_x
_atom_site_fract_y
_atom_site_fract_z
Si Si1 0.137628 0.966950 0.016163
Si Si2 0.996163 0.396534 0.764449
Si Si3 0.139300 0.392667 0.004451
Si Si4 0.141819 0.366529 0.345328
Si Si5 0.361662 0.912162 0.692722
Si Si6 0.964810 0.317501 0.490565
Si Si7 0.139492 0.031270 0.558531
O O1 0.250000 0.958983 0.036311
O O2 0.080009 0.935085 0.146812
O O3 0.121150 0.036896 0.011225
O O4 0.110304 0.938249 0.855029
O O5 0.067956 0.437161 0.670102
O O6 0.951753 0.350425 0.648985
O O7 0.065614 0.367112 0.886450
O O8 0.250000 0.385119 0.964612
O O9 0.123667 0.366133 0.168879
O O10 0.250000 0.350991 0.372530
O O11 0.129737 0.433966 0.402999
O O12 0.073413 0.326593 0.442338
O O13 0.250000 0.903341 0.697712
O O14 0.410982 0.853694 0.638292
O O15 0.381759 0.962653 0.568327
O O16 0.938668 0.250000 0.496983
O O17 0.250000 0.037526 0.606660
#
# Coordination Sequence:
#
# PCOD9448984 Si02
#       7
#     8   8   8   8   8   8   8
#     4  10  21  35  55  90 125 150 178 225 292 363
#     4  11  21  34  59  83 120 152 185 232 294 341
#     4  10  19  34  57  91 125 146 173 220 293 370
#     4   9  20  36  60  89 120 152 185 230 287 347
#     4  10  21  39  61  84 116 152 189 236 288 342
#     4  11  26  42  57  79 110 156 210 248 274 320
#     4   9  18  33  55  90 122 148 183 229 290 354
#
# _framework density 19.434826999999999
#
# number of rings (size 3 to 8) (size 9 to 14) (size 15 to 20)
#    0.000    2.000    1.429    1.714    4.000    2.857 
#    0.000    2.857    0.000    1.714    0.000    0.000 
#    0.000    0.000    0.000    0.000    0.000    0.000 
#
# Total GULP energy -312813.543278 kJ/mol
# GULP energy per Si atom -5585.956130 kJ/mol
# Density = 1.939059 g / cm^3
# Si number density = 19.434827 Si / 1000 Ang^3
#
#
#
# Elastic Constant Matrix: (Units=GPa)
#
#
# Indices 1 2 3 4 5 6 
#
# 1 34.2805 0.0592 8.0597 0.0000 0.0000 0.0000
# 2 0.0592 57.3611 -7.4674 0.0000 0.0000 0.0000
# 3 8.0597 -7.4674 44.5995 0.0000 0.0000 0.0000
# 4 0.0000 0.0000 0.0000 14.5332 0.0000 0.0000
# 5 0.0000 0.0000 0.0000 0.0000 29.3573 0.0000
# 6 0.0000 0.0000 0.0000 0.0000 0.0000 7.8119
#
#
#
# Elastic Compliance Matrix: (Units=1/GPa)
#
#
# Indices 1 2 3 4 5 6 
#
# 1 0.030498 -0.000766 -0.005640 0.000000 0.000000 0.000000
# 2 -0.000766 0.017841 0.003126 0.000000 0.000000 0.000000
# 3 -0.005640 0.003126 0.023964 0.000000 0.000000 0.000000
# 4 0.000000 0.000000 0.000000 0.068808 0.000000 0.000000
# 5 0.000000 0.000000 0.000000 0.000000 0.034063 0.000000
# 6 0.000000 0.000000 0.000000 0.000000 0.000000 0.128009
#
#
# Mechanical properties :
#
#
# Convention : Reuss Voigt Hill
#
# Bulk Modulus (GPa) = 15.21048 15.28269 15.24659
# Shear Modulus (GPa) = 15.07576 19.37979 17.22777
#
# Velocity S-wave (km/s) = 2.78818 3.16122 2.98054
# Velocity P-wave (km/s) = 4.26716 4.60490 4.43924
#
# Compressibility (1/GPa) = 0.06574414
#
# Stress axis : x y z
#
# Youngs Moduli (GPa) = 32.78858 56.05035 41.72884
#
# Poissons Ratio (x) = 0.04292 0.23534
# Poissons Ratio (y) = 0.02511 -0.13043
# Poissons Ratio (z) = 0.18492 -0.17519
#
# Static dielectric constant tensor:
#      x y z
#    x 1.718470 0.000000 0.000000 
#    y 0.000000 1.650690 0.000000 
#    z 0.000000 0.000000 1.701280 
# 
# From -- ./inp_files/9388.got.cif
#   From: 2010.05.17/outbox.cif.g08.bks.cpg/sg59_5_cif.got.tgz:9388.got - 2010.06.03 14:40:33.
