data_PCOD9448058
_publ_section_title
;
Structure prediction by ZEFSAII (Michael W. Deem and Ramdas Pophale) SiO2 
 PCOD9448058
Probable space group: P M M N
;
_chemical_formula_sum "Si O2"
_cell_formula_units_Z 64
_cell_length_a 8.955783
_cell_length_b 19.364368
_cell_length_c 19.581675
_cell_angle_alpha 90.000000
_cell_angle_beta 90.000000
_cell_angle_gamma 90.000000
_cell_volume 3395.914346
_symmetry_space_group_name_H-M "P M M N"
_symmetry_group_IT_number 59
_space_group.IT_coordinate_system_code '2'
_symmetry_cell_setting 'orthorhombic'
loop_
_space_group_symop_operation_xyz
x,y,z
1/2-x,1/2-y,z
1/2+x,-y,-z
-x,1/2+y,-z
-x,-y,-z
1/2+x,1/2+y,-z
1/2-x,y,z
x,1/2-y,z
loop_
_atom_site_type_symbol
_atom_site_label
_atom_site_fract_x
_atom_site_fract_y
_atom_site_fract_z
Si Si1 0.070687 0.950675 0.714703
Si Si2 0.922850 0.167508 0.648596
Si Si3 0.572821 0.571993 0.081560
Si Si4 0.424130 0.167983 0.508276
Si Si5 0.927870 0.418435 0.782514
Si Si6 0.928661 0.579295 0.928712
Si Si7 0.570253 0.830598 0.796648
Si Si8 0.427094 0.546016 0.559233
O O1 0.250000 0.951478 0.718873
O O2 0.025460 0.969030 0.636940
O O3 0.008501 0.876994 0.739190
O O4 0.000765 0.008226 0.763870
O O5 0.750000 0.149534 0.631885
O O6 0.930620 0.250000 0.656726
O O7 0.963569 0.131209 0.719085
O O8 0.026917 0.148258 0.585154
O O9 0.750000 0.572527 0.091933
O O10 0.492329 0.606725 0.145596
O O11 0.514417 0.492859 0.080476
O O12 0.540376 0.602632 0.006515
O O13 0.250000 0.152346 0.497891
O O14 0.446655 0.250000 0.501012
O O15 0.524070 0.124020 0.457412
O O16 0.750000 0.425943 0.787193
O O17 0.750000 0.565417 0.924251
O O18 0.966236 0.633896 0.869768
O O19 0.750000 0.835244 0.788096
O O20 0.528757 0.750000 0.794849
O O21 0.500000 0.500000 0.500000
O O22 0.250000 0.538010 0.555225
#
# Coordination Sequence:
#
# PCOD9448058 Si02
#       8
#     8   8   8   8   8   8   8   8
#     4  11  24  39  56  82 113 145 187 234 280 334
#     4   9  19  36  57  80 108 145 186 228 279 337
#     4  10  19  31  53  82 111 143 181 227 273 324
#     4  10  21  37  58  83 110 143 185 230 277 337
#     4  11  21  34  55  82 112 147 185 229 278 333
#     4   9  18  34  54  79 109 143 184 227 274 326
#     4  10  21  38  60  84 113 151 193 236 283 336
#     4  11  24  40  59  84 114 147 185 235 290 342
#
# _framework density 18.846177000000001
#
# number of rings (size 3 to 8) (size 9 to 14) (size 15 to 20)
#    0.000    1.875    1.250    2.625    0.000    7.000 
#    0.000    3.125    0.000    0.750    0.000    0.000 
#    0.000    0.000    0.000    0.000    0.000    0.000 
#
# Total GULP energy -357389.352423 kJ/mol
# GULP energy per Si atom -5584.208632 kJ/mol
# Density = 1.880328 g / cm^3
# Si number density = 18.846177 Si / 1000 Ang^3
#
#
#
# Elastic Constant Matrix: (Units=GPa)
#
#
# Indices 1 2 3 4 5 6 
#
# 1 32.6568 12.5681 32.5102 0.0000 0.0000 0.0000
# 2 12.5681 35.5197 15.6325 0.0000 0.0000 0.0000
# 3 32.5102 15.6325 109.5874 0.0000 0.0000 0.0000
# 4 0.0000 0.0000 0.0000 30.5457 0.0000 0.0000
# 5 0.0000 0.0000 0.0000 0.0000 32.8137 0.0000
# 6 0.0000 0.0000 0.0000 0.0000 0.0000 21.1769
#
#
#
# Elastic Compliance Matrix: (Units=1/GPa)
#
#
# Indices 1 2 3 4 5 6 
#
# 1 0.047342 -0.011278 -0.012436 0.000000 0.000000 0.000000
# 2 -0.011278 0.032726 -0.001323 0.000000 0.000000 0.000000
# 3 -0.012436 -0.001323 0.013003 0.000000 0.000000 0.000000
# 4 0.000000 0.000000 0.000000 0.032738 0.000000 0.000000
# 5 0.000000 0.000000 0.000000 0.000000 0.030475 0.000000
# 6 0.000000 0.000000 0.000000 0.000000 0.000000 0.047221
#
#
# Mechanical properties :
#
#
# Convention : Reuss Voigt Hill
#
# Bulk Modulus (GPa) = 23.25682 33.24284 28.24983
# Shear Modulus (GPa) = 18.66299 24.71080 21.68689
#
# Velocity S-wave (km/s) = 3.15029 3.62496 3.39592
# Velocity P-wave (km/s) = 5.05960 5.93277 5.51350
#
# Compressibility (1/GPa) = 0.04299815
#
# Stress axis : x y z
#
# Youngs Moduli (GPa) = 21.12307 30.55674 76.90565
#
# Poissons Ratio (x) = 0.34462 0.95637
# Poissons Ratio (y) = 0.23823 0.10171
# Poissons Ratio (z) = 0.26268 0.04041
#
# Static dielectric constant tensor:
#      x y z
#    x 1.631500 0.000000 0.000000 
#    y 0.000000 1.648370 0.000000 
#    z 0.000000 0.000000 1.674790 
# 
# From -- ./inp_files/26292.got.cif
#   From: 2010.05.17/outbox.cif.g08.bks.cpg/sg59_14_cif.got.tgz:26292.got - 2010.06.03 14:40:33.
