data_PCOD9448801
_publ_section_title
;
Structure prediction by ZEFSAII (Michael W. Deem and Ramdas Pophale) SiO2 
 PCOD9448801
Probable space group: P M M N
;
_chemical_formula_sum "Si O2"
_cell_formula_units_Z 48
_cell_length_a 10.158819
_cell_length_b 7.676173
_cell_length_c 29.959156
_cell_angle_alpha 90.000000
_cell_angle_beta 90.000000
_cell_angle_gamma 90.000000
_cell_volume 2336.240514
_symmetry_space_group_name_H-M "P M M N"
_symmetry_group_IT_number 59
_space_group.IT_coordinate_system_code '2'
_symmetry_cell_setting 'orthorhombic'
loop_
_space_group_symop_operation_xyz
x,y,z
1/2-x,1/2-y,z
1/2+x,-y,-z
-x,1/2+y,-z
-x,-y,-z
1/2+x,1/2+y,-z
1/2-x,y,z
x,1/2-y,z
loop_
_atom_site_type_symbol
_atom_site_label
_atom_site_fract_x
_atom_site_fract_y
_atom_site_fract_z
Si Si1 0.507668 0.455978 0.107539
Si Si2 0.900273 0.955360 0.459825
Si Si3 0.250000 0.464567 0.057795
Si Si4 0.398325 0.459575 0.382372
Si Si5 0.601097 0.537496 0.719601
Si Si6 0.099051 0.963719 0.795624
Si Si7 0.750000 0.958936 0.044801
O O1 0.486226 0.250000 0.114044
O O2 0.377211 0.526359 0.084558
O O3 0.547042 0.524848 0.156163
O O4 0.624536 0.479689 0.072521
O O5 0.750000 0.030434 0.461906
O O6 0.884471 0.750000 0.462053
O O7 0.000000 0.000000 0.500000
O O8 0.982888 0.995392 0.415140
O O9 0.250000 0.250000 0.056903
O O10 0.250000 0.520786 0.006283
O O11 0.250000 0.520043 0.396294
O O12 0.391768 0.250000 0.381647
O O13 0.422202 0.519036 0.331476
O O14 0.750000 0.486730 0.732113
O O15 0.597840 0.750000 0.719346
O O16 0.494730 0.478547 0.755473
O O17 0.250000 0.017364 0.789638
O O18 0.098175 0.750000 0.795975
O O19 0.750000 0.750000 0.044272
#
# Coordination Sequence:
#
# PCOD9448801 Si02
#       7
#     8   8   4   8   8   8   4
#     4  10  19  34  53  76 102 131 169 217 264 310
#     4  11  24  39  56  81 111 144 185 228 267 312
#     4   9  20  33  51  77 101 129 171 217 262 313
#     4   9  18  34  55  81 112 143 176 215 262 317
#     4   8  15  27  46  75 108 135 162 207 263 311
#     4   9  16  26  44  72 101 129 164 208 258 309
#     4  11  21  35  51  71 101 137 173 209 258 321
#
# _framework density 20.545828
#
# number of rings (size 3 to 8) (size 9 to 14) (size 15 to 20)
#    0.000    2.500    0.833    2.750    1.167    4.333 
#    0.000    2.917    0.000    1.000    0.000    0.000 
#    0.000    0.000    0.000    0.000    0.000    0.000 
#
# Total GULP energy -267852.466603 kJ/mol
# GULP energy per Si atom -5580.259721 kJ/mol
# Density = 2.049906 g / cm^3
# Si number density = 20.545828 Si / 1000 Ang^3
#
#
#
# Elastic Constant Matrix: (Units=GPa)
#
#
# Indices 1 2 3 4 5 6 
#
# 1 221.7312 -2.8576 142.6617 0.0000 0.0000 0.0000
# 2 -2.8576 32.0387 5.9792 0.0000 0.0000 0.0000
# 3 142.6617 5.9792 172.3078 0.0000 0.0000 0.0000
# 4 0.0000 0.0000 0.0000 13.5654 0.0000 0.0000
# 5 0.0000 0.0000 0.0000 0.0000 34.6395 0.0000
# 6 0.0000 0.0000 0.0000 0.0000 0.0000 16.7368
#
#
#
# Elastic Compliance Matrix: (Units=1/GPa)
#
#
# Indices 1 2 3 4 5 6 
#
# 1 0.009833 0.002412 -0.008225 0.000000 0.000000 0.000000
# 2 0.002412 0.032007 -0.003108 0.000000 0.000000 0.000000
# 3 -0.008225 -0.003108 0.012721 0.000000 0.000000 0.000000
# 4 0.000000 0.000000 0.000000 0.073717 0.000000 0.000000
# 5 0.000000 0.000000 0.000000 0.000000 0.028869 0.000000
# 6 0.000000 0.000000 0.000000 0.000000 0.000000 0.059748
#
#
# Mechanical properties :
#
#
# Convention : Reuss Voigt Hill
#
# Bulk Modulus (GPa) = 27.23287 79.73826 53.48557
# Shear Modulus (GPa) = 20.24482 31.67464 25.95973
#
# Velocity S-wave (km/s) = 3.14243 3.93065 3.55844
# Velocity P-wave (km/s) = 5.14295 7.71325 6.55531
#
# Compressibility (1/GPa) = 0.03672033
#
# Stress axis : x y z
#
# Youngs Moduli (GPa) = 101.69960 31.24285 78.60955
#
# Poissons Ratio (x) = -0.07536 0.64655
# Poissons Ratio (y) = -0.24530 0.24429
# Poissons Ratio (z) = 0.83646 0.09709
#
# Static dielectric constant tensor:
#      x y z
#    x 1.663650 0.000000 0.000000 
#    y 0.000000 1.782580 0.000000 
#    z 0.000000 0.000000 1.720530 
# 
# From -- ./inp_files/33095.got.cif
#   From: 2010.05.17/outbox.cif.g08.bks.cpg/sg59_17_cif.got.tgz:33095.got - 2010.06.03 14:40:33.
