data_PCOD9448194
_publ_section_title
;
Structure prediction by ZEFSAII (Michael W. Deem and Ramdas Pophale) SiO2 
 PCOD9448194
Probable space group: P M M N
;
_chemical_formula_sum "Si O2"
_cell_formula_units_Z 40
_cell_length_a 8.301788
_cell_length_b 14.390890
_cell_length_c 14.525782
_cell_angle_alpha 90.000000
_cell_angle_beta 90.000000
_cell_angle_gamma 90.000000
_cell_volume 1735.396888
_symmetry_space_group_name_H-M "P M M N"
_symmetry_group_IT_number 59
_space_group.IT_coordinate_system_code '2'
_symmetry_cell_setting 'orthorhombic'
loop_
_space_group_symop_operation_xyz
x,y,z
1/2-x,1/2-y,z
1/2+x,-y,-z
-x,1/2+y,-z
-x,-y,-z
1/2+x,1/2+y,-z
1/2-x,y,z
x,1/2-y,z
loop_
_atom_site_type_symbol
_atom_site_label
_atom_site_fract_x
_atom_site_fract_y
_atom_site_fract_z
Si Si1 0.250000 0.363828 0.364822
Si Si2 0.070785 0.115155 0.089628
Si Si3 0.077204 0.856719 0.723060
Si Si4 0.434930 0.859778 0.312922
Si Si5 0.750000 0.636427 0.420191
Si Si6 0.566282 0.108214 0.897878
O O1 0.250000 0.250000 0.354653
O O2 0.414129 0.399255 0.317623
O O3 0.250000 0.386105 0.472144
O O4 0.250000 0.145752 0.116032
O O5 0.946793 0.146170 0.167046
O O6 0.066569 0.003379 0.094355
O O7 0.033030 0.142833 0.985285
O O8 0.250000 0.900420 0.700674
O O9 0.082262 0.750000 0.689708
O O10 0.250000 0.896675 0.323679
O O11 0.423586 0.750000 0.333905
O O12 0.583334 0.896849 0.373356
O O13 0.484218 0.868256 0.205432
O O14 0.750000 0.750000 0.412226
O O15 0.750000 0.140517 0.908236
#
# Coordination Sequence:
#
# PCOD9448194 Si02
#       6
#     4   8   8   8   4   8
#     4   9  18  34  53  77 105 129 165 214 260 308
#     4  10  19  32  51  75 105 139 174 210 250 303
#     4  10  20  34  53  77 103 134 171 211 258 304
#     4   9  18  33  52  76 104 134 169 209 254 300
#     4   9  18  32  53  79 103 129 167 212 258 308
#     4   9  19  33  49  75 106 138 175 208 248 304
#
# _framework density 23.049482999999999
#
# number of rings (size 3 to 8) (size 9 to 14) (size 15 to 20)
#    0.000    2.600    1.000    0.600    1.400    2.400 
#    0.000    6.000    0.000    1.200    0.000    0.000 
#    0.000    0.000    0.000    0.000    0.000    0.000 
#
# Total GULP energy -223368.961651 kJ/mol
# GULP energy per Si atom -5584.224041 kJ/mol
# Density = 2.299702 g / cm^3
# Si number density = 23.049483 Si / 1000 Ang^3
#
#
#
# Elastic Constant Matrix: (Units=GPa)
#
#
# Indices 1 2 3 4 5 6 
#
# 1 193.1817 11.8949 100.4885 0.0000 0.0000 0.0000
# 2 11.8949 67.0731 -9.0235 0.0000 0.0000 0.0000
# 3 100.4885 -9.0235 123.0309 0.0000 0.0000 0.0000
# 4 0.0000 0.0000 0.0000 19.5137 0.0000 0.0000
# 5 0.0000 0.0000 0.0000 0.0000 23.7265 0.0000
# 6 0.0000 0.0000 0.0000 0.0000 0.0000 14.8536
#
#
#
# Elastic Compliance Matrix: (Units=1/GPa)
#
#
# Indices 1 2 3 4 5 6 
#
# 1 0.009477 -0.002749 -0.007942 0.000000 0.000000 0.000000
# 2 -0.002749 0.015855 0.003408 0.000000 0.000000 0.000000
# 3 -0.007942 0.003408 0.014865 0.000000 0.000000 0.000000
# 4 0.000000 0.000000 0.000000 0.051246 0.000000 0.000000
# 5 0.000000 0.000000 0.000000 0.000000 0.042147 0.000000
# 6 0.000000 0.000000 0.000000 0.000000 0.000000 0.067324
#
#
# Mechanical properties :
#
#
# Convention : Reuss Voigt Hill
#
# Bulk Modulus (GPa) = 39.01513 65.55617 52.28565
# Shear Modulus (GPa) = 22.31900 30.28048 26.29974
#
# Velocity S-wave (km/s) = 3.11514 3.62845 3.38155
# Velocity P-wave (km/s) = 5.46829 6.78657 6.16278
#
# Compressibility (1/GPa) = 0.02563108
#
# Stress axis : x y z
#
# Youngs Moduli (GPa) = 105.51673 63.07087 67.27156
#
# Poissons Ratio (x) = 0.17339 0.53429
# Poissons Ratio (y) = 0.29009 -0.22929
# Poissons Ratio (z) = 0.83805 -0.21497
#
# Static dielectric constant tensor:
#      x y z
#    x 1.860130 0.000000 0.000000 
#    y 0.000000 1.917040 0.000000 
#    z 0.000000 0.000000 1.808520 
# 
# From -- ./inp_files/14127.got.cif
#   From: 2010.05.17/outbox.cif.g08.bks.cpg/sg59_8_cif.got.tgz:14127.got - 2010.06.03 14:40:33.
