data_PCOD9448234
_publ_section_title
;
Structure prediction by ZEFSAII (Michael W. Deem and Ramdas Pophale) SiO2 
 PCOD9448234
Probable space group: P M M N
;
_chemical_formula_sum "Si O2"
_cell_formula_units_Z 64
_cell_length_a 17.241530
_cell_length_b 12.725099
_cell_length_c 17.101879
_cell_angle_alpha 90.000000
_cell_angle_beta 90.000000
_cell_angle_gamma 90.000000
_cell_volume 3752.155265
_symmetry_space_group_name_H-M "P M M N"
_symmetry_group_IT_number 59
_space_group.IT_coordinate_system_code '2'
_symmetry_cell_setting 'orthorhombic'
loop_
_space_group_symop_operation_xyz
x,y,z
1/2-x,1/2-y,z
1/2+x,-y,-z
-x,1/2+y,-z
-x,-y,-z
1/2+x,1/2+y,-z
1/2-x,y,z
x,1/2-y,z
loop_
_atom_site_type_symbol
_atom_site_label
_atom_site_fract_x
_atom_site_fract_y
_atom_site_fract_z
Si Si1 0.553059 0.506856 0.156648
Si Si2 0.099302 0.374330 0.134660
Si Si3 0.841131 0.966469 0.703051
Si Si4 0.661435 0.625052 0.036234
Si Si5 0.075505 0.982552 0.586084
Si Si6 0.158662 0.873725 0.725637
Si Si7 0.477049 0.626315 0.297066
Si Si8 0.582255 0.871237 0.551485
O O1 0.481635 0.436008 0.128172
O O2 0.601262 0.560213 0.087870
O O3 0.608882 0.433974 0.209220
O O4 0.516639 0.593724 0.215023
O O5 0.085414 0.250000 0.141424
O O6 0.141546 0.413687 0.213058
O O7 0.147554 0.393522 0.055807
O O8 0.750000 0.982759 0.692682
O O9 0.876084 0.894359 0.633824
O O10 0.892615 0.072267 0.700319
O O11 0.750000 0.598071 0.057058
O O12 0.650710 0.750000 0.049764
O O13 0.110843 0.044941 0.513002
O O14 0.028657 0.069256 0.636870
O O15 0.135092 0.924875 0.642872
O O16 0.009136 0.899800 0.560230
O O17 0.250000 0.885922 0.739759
O O18 0.139572 0.750000 0.725449
O O19 0.474414 0.750000 0.307748
O O20 0.592639 0.750000 0.529129
#
# Coordination Sequence:
#
# PCOD9448234 Si02
#       8
#     8   8   8   8   8   8   8   8
#     4  10  19  33  53  77 102 129 169 212 248 293
#     4  10  20  34  53  75 101 136 174 210 250 297
#     4  10  21  34  50  75 103 132 170 214 256 298
#     4  10  20  33  51  76 105 135 166 205 254 302
#     4   9  19  33  51  74 101 130 168 211 249 300
#     4  10  20  34  53  76 104 136 166 203 254 305
#     4   9  18  33  53  73  96 130 167 204 251 305
#     4  10  19  32  52  74  98 132 171 212 255 297
#
# _framework density 17.056864000000001
#
# number of rings (size 3 to 8) (size 9 to 14) (size 15 to 20)
#    0.000    2.250    0.000    3.750    0.000    2.250 
#    0.000    0.625    0.000    7.875    0.000    0.000 
#    0.000    0.000    0.000    0.000    0.000    0.000 
#
# Total GULP energy -357110.278001 kJ/mol
# GULP energy per Si atom -5579.848094 kJ/mol
# Density = 1.701804 g / cm^3
# Si number density = 17.056864 Si / 1000 Ang^3
#
#
#
# Elastic Constant Matrix: (Units=GPa)
#
#
# Indices 1 2 3 4 5 6 
#
# 1 74.6971 30.8845 19.5577 0.0000 0.0000 0.0000
# 2 30.8845 75.5869 18.9252 0.0000 0.0000 0.0000
# 3 19.5577 18.9252 67.4332 0.0000 0.0000 0.0000
# 4 0.0000 0.0000 0.0000 16.9708 0.0000 0.0000
# 5 0.0000 0.0000 0.0000 0.0000 16.4550 0.0000
# 6 0.0000 0.0000 0.0000 0.0000 0.0000 13.2084
#
#
#
# Elastic Compliance Matrix: (Units=1/GPa)
#
#
# Indices 1 2 3 4 5 6 
#
# 1 0.016709 -0.006038 -0.003152 0.000000 0.000000 0.000000
# 2 -0.006038 0.016412 -0.002855 0.000000 0.000000 0.000000
# 3 -0.003152 -0.002855 0.016545 0.000000 0.000000 0.000000
# 4 0.000000 0.000000 0.000000 0.058925 0.000000 0.000000
# 5 0.000000 0.000000 0.000000 0.000000 0.060772 0.000000
# 6 0.000000 0.000000 0.000000 0.000000 0.000000 0.075709
#
#
# Mechanical properties :
#
#
# Convention : Reuss Voigt Hill
#
# Bulk Modulus (GPa) = 39.09812 39.60579 39.35196
# Shear Modulus (GPa) = 18.00595 19.21683 18.61139
#
# Velocity S-wave (km/s) = 3.25259 3.36018 3.30682
# Velocity P-wave (km/s) = 6.08915 6.19069 6.14013
#
# Compressibility (1/GPa) = 0.02557668
#
# Stress axis : x y z
#
# Youngs Moduli (GPa) = 59.84753 60.93200 60.44228
#
# Poissons Ratio (x) = 0.36792 0.19049
# Poissons Ratio (y) = 0.36137 0.17255
# Poissons Ratio (z) = 0.18861 0.17394
#
# Static dielectric constant tensor:
#      x y z
#    x 1.553920 0.000000 0.000000 
#    y 0.000000 1.546630 0.000000 
#    z 0.000000 0.000000 1.584190 
# 
# From -- ./inp_files/22728.got.cif
#   From: 2010.05.17/outbox.cif.g08.bks.cpg/sg59_12_cif.got.tgz:22728.got - 2010.06.03 14:40:33.
