data_PCOD9448082
_publ_section_title
;
Structure prediction by ZEFSAII (Michael W. Deem and Ramdas Pophale) SiO2 
 PCOD9448082
Probable space group: P M M N
;
_chemical_formula_sum "Si O2"
_cell_formula_units_Z 40
_cell_length_a 13.015639
_cell_length_b 8.877796
_cell_length_c 21.372835
_cell_angle_alpha 90.000000
_cell_angle_beta 90.000000
_cell_angle_gamma 90.000000
_cell_volume 2469.635099
_symmetry_space_group_name_H-M "P M M N"
_symmetry_group_IT_number 59
_space_group.IT_coordinate_system_code '2'
_symmetry_cell_setting 'orthorhombic'
loop_
_space_group_symop_operation_xyz
x,y,z
1/2-x,1/2-y,z
1/2+x,-y,-z
-x,1/2+y,-z
-x,-y,-z
1/2+x,1/2+y,-z
1/2-x,y,z
x,1/2-y,z
loop_
_atom_site_type_symbol
_atom_site_label
_atom_site_fract_x
_atom_site_fract_y
_atom_site_fract_z
Si Si1 0.924873 0.429460 0.589457
Si Si2 0.250000 0.433676 0.181140
Si Si3 0.864491 0.568790 0.052771
Si Si4 0.428749 0.431206 0.088825
Si Si5 0.133951 0.930703 0.554599
Si Si6 0.250000 0.430938 0.325495
O O1 0.921877 0.250000 0.597463
O O2 0.883092 0.463497 0.519283
O O3 0.849926 0.507170 0.638750
O O4 0.041489 0.489200 0.590799
O O5 0.250000 0.250000 0.179875
O O6 0.350675 0.482231 0.142539
O O7 0.250000 0.480022 0.253100
O O8 0.750000 0.520220 0.071211
O O9 0.869434 0.750000 0.056586
O O10 0.957621 0.498782 0.091435
O O11 0.883234 0.528348 0.979653
O O12 0.434928 0.250000 0.090881
O O13 0.250000 0.975507 0.572056
O O14 0.124743 0.750000 0.561960
O O15 0.250000 0.250000 0.327916
#
# Coordination Sequence:
#
# PCOD9448082 Si02
#       6
#     8   4   8   8   8   4
#     4  10  19  32  48  72 102 129 160 198 246 292
#     4   9  18  33  51  69  93 129 168 201 232 277
#     4   9  16  27  45  69  98 125 148 188 245 292
#     4   9  16  29  47  67  93 124 159 195 234 280
#     4   9  17  31  50  73 101 129 157 195 240 291
#     4  11  21  33  51  71  95 131 172 205 238 283
#
# _framework density 16.196725000000001
#
# number of rings (size 3 to 8) (size 9 to 14) (size 15 to 20)
#    0.000    2.600    2.000    0.900    0.000    1.600 
#    0.000    2.500    0.000    1.200    0.000    2.800 
#    0.000    0.000    0.000    0.000    0.000    0.000 
#
# Total GULP energy -222952.426201 kJ/mol
# GULP energy per Si atom -5573.810655 kJ/mol
# Density = 1.615986 g / cm^3
# Si number density = 16.196725 Si / 1000 Ang^3
#
#
#
# Elastic Constant Matrix: (Units=GPa)
#
#
# Indices 1 2 3 4 5 6 
#
# 1 189.4422 44.8476 72.0346 0.0000 0.0000 0.0000
# 2 44.8476 21.9314 31.6995 0.0000 0.0000 0.0000
# 3 72.0346 31.6995 88.0482 0.0000 0.0000 0.0000
# 4 0.0000 0.0000 0.0000 15.6687 0.0000 0.0000
# 5 0.0000 0.0000 0.0000 0.0000 16.7181 0.0000
# 6 0.0000 0.0000 0.0000 0.0000 0.0000 31.1873
#
#
#
# Elastic Compliance Matrix: (Units=1/GPa)
#
#
# Indices 1 2 3 4 5 6 
#
# 1 0.010363 -0.018632 -0.001770 0.000000 0.000000 0.000000
# 2 -0.018632 0.128570 -0.031045 0.000000 0.000000 0.000000
# 3 -0.001770 -0.031045 0.023982 0.000000 0.000000 0.000000
# 4 0.000000 0.000000 0.000000 0.063821 0.000000 0.000000
# 5 0.000000 0.000000 0.000000 0.000000 0.059815 0.000000
# 6 0.000000 0.000000 0.000000 0.000000 0.000000 0.032064
#
#
# Mechanical properties :
#
#
# Convention : Reuss Voigt Hill
#
# Bulk Modulus (GPa) = 16.66084 66.28724 41.47404
# Shear Modulus (GPa) = 11.32460 22.77082 17.04771
#
# Velocity S-wave (km/s) = 2.64709 3.75359 3.24781
# Velocity P-wave (km/s) = 4.43302 7.73312 6.30289
#
# Compressibility (1/GPa) = 0.06002097
#
# Stress axis : x y z
#
# Youngs Moduli (GPa) = 96.50162 7.77786 41.69768
#
# Poissons Ratio (x) = 0.14492 0.07379
# Poissons Ratio (y) = 1.79805 1.29449
# Poissons Ratio (z) = 0.17078 0.24146
#
# Static dielectric constant tensor:
#      x y z
#    x 1.550540 0.000000 0.000000 
#    y 0.000000 1.541800 0.000000 
#    z 0.000000 0.000000 1.518940 
# 
# From -- ./inp_files/29959.got.cif
#   From: 2010.05.17/outbox.cif.g08.bks.cpg/sg59_15_cif.got.tgz:29959.got - 2010.06.03 14:40:33.
