data_PCOD9448148
_publ_section_title
;
Structure prediction by ZEFSAII (Michael W. Deem and Ramdas Pophale) SiO2 
 PCOD9448148
Probable space group: P M M N
;
_chemical_formula_sum "Si O2"
_cell_formula_units_Z 48
_cell_length_a 14.624607
_cell_length_b 16.111814
_cell_length_c 9.334579
_cell_angle_alpha 90.000000
_cell_angle_beta 90.000000
_cell_angle_gamma 90.000000
_cell_volume 2199.497028
_symmetry_space_group_name_H-M "P M M N"
_symmetry_group_IT_number 59
_space_group.IT_coordinate_system_code '2'
_symmetry_cell_setting 'orthorhombic'
loop_
_space_group_symop_operation_xyz
x,y,z
1/2-x,1/2-y,z
1/2+x,-y,-z
-x,1/2+y,-z
-x,-y,-z
1/2+x,1/2+y,-z
1/2-x,y,z
x,1/2-y,z
loop_
_atom_site_type_symbol
_atom_site_label
_atom_site_fract_x
_atom_site_fract_y
_atom_site_fract_z
Si Si1 0.638095 0.906114 0.510265
Si Si2 0.146988 0.750000 0.619818
Si Si3 0.137416 0.927055 0.649874
Si Si4 0.643672 0.918347 0.831218
Si Si5 0.100679 0.250000 0.012943
Si Si6 0.138831 0.250000 0.679329
Si Si7 0.857844 0.433275 0.022252
Si Si8 0.110311 0.750000 0.954110
O O1 0.750000 0.901788 0.510780
O O2 0.604806 0.900853 0.673723
O O3 0.609088 0.830795 0.408971
O O4 0.611862 0.993768 0.442089
O O5 0.250000 0.750000 0.560287
O O6 0.104661 0.839090 0.586362
O O7 0.152910 0.750000 0.794702
O O8 0.250000 0.922795 0.652380
O O9 0.106140 0.936290 0.814733
O O10 0.750000 0.939948 0.805414
O O11 0.641782 0.834818 0.924847
O O12 0.602991 0.996301 0.918084
O O13 0.997276 0.250000 0.065203
O O14 0.105060 0.250000 0.841806
O O15 0.250000 0.250000 0.687430
O O16 0.750000 0.451524 0.035531
O O17 0.866082 0.337576 0.972691
#
# Coordination Sequence:
#
# PCOD9448148 Si02
#       8
#     8   4   8   8   4   4   8   4
#     4   9  17  30  50  75 100 126 163 213 260 299
#     4   8  14  28  52  75  95 123 167 217 253 293
#     4   8  13  24  46  75  98 120 156 202 249 292
#     4  10  20  34  53  78 105 133 168 213 263 306
#     4  12  23  33  51  75 107 142 172 212 252 306
#     4  10  19  32  51  72  95 130 174 212 248 296
#     4   9  17  33  58  81 102 130 170 218 258 300
#     4  10  20  33  52  78 107 137 173 209 255 305
#
# _framework density 21.823170999999999
#
# number of rings (size 3 to 8) (size 9 to 14) (size 15 to 20)
#    0.000    2.667    0.000    4.000    0.000    4.667 
#    0.000    0.833    0.000   17.000    0.000    0.000 
#    0.000    0.000    0.000    0.000    0.000    0.000 
#
# Total GULP energy -267879.650734 kJ/mol
# GULP energy per Si atom -5580.826057 kJ/mol
# Density = 2.177350 g / cm^3
# Si number density = 21.823171 Si / 1000 Ang^3
#
#
#
# Elastic Constant Matrix: (Units=GPa)
#
#
# Indices 1 2 3 4 5 6 
#
# 1 43.4225 -19.3937 -2.8650 0.0000 0.0000 0.0000
# 2 -19.3937 195.2481 87.9329 0.0000 0.0000 0.0000
# 3 -2.8650 87.9329 127.2363 0.0000 0.0000 0.0000
# 4 0.0000 0.0000 0.0000 -11.4683 0.0000 0.0000
# 5 0.0000 0.0000 0.0000 0.0000 5.0990 0.0000
# 6 0.0000 0.0000 0.0000 0.0000 0.0000 45.3578
#
#
#
# Elastic Compliance Matrix: (Units=1/GPa)
#
#
# Indices 1 2 3 4 5 6 
#
# 1 0.024329 0.003150 -0.001629 0.000000 0.000000 0.000000
# 2 0.003150 0.007844 -0.005350 0.000000 0.000000 0.000000
# 3 -0.001629 -0.005350 0.011520 0.000000 0.000000 0.000000
# 4 0.000000 0.000000 0.000000 -0.087197 0.000000 0.000000
# 5 0.000000 0.000000 0.000000 0.000000 0.196115 0.000000
# 6 0.000000 0.000000 0.000000 0.000000 0.000000 0.022047
#
#
# Mechanical properties :
#
#
# Convention : Reuss Voigt Hill
#
# Bulk Modulus (GPa) = 27.75073 55.25061 41.50067
# Shear Modulus (GPa) = 25.72959 27.81321 26.77140
#
# Velocity S-wave (km/s) = 3.43739 3.57386 3.50629
# Velocity P-wave (km/s) = 5.33835 6.51171 5.95400
#
# Compressibility (1/GPa) = 0.03603509
#
# Stress axis : x y z
#
# Youngs Moduli (GPa) = 41.10305 127.48394 86.80423
#
# Poissons Ratio (x) = -0.40163 0.14144
# Poissons Ratio (y) = -0.12949 0.46441
# Poissons Ratio (z) = 0.06697 0.68206
#
# Static dielectric constant tensor:
#      x y z
#    x 1.822270 0.000000 0.000000 
#    y 0.000000 1.806700 0.000000 
#    z 0.000000 0.000000 1.756820 
# 
# From -- ./inp_files/10310.got.cif
#   From: 2010.05.17/outbox.cif.g08.bks.cpg/sg59_6_cif.got.tgz:10310.got - 2010.06.03 14:40:33.
