data_PCOD9448333
_publ_section_title
;
Structure prediction by ZEFSAII (Michael W. Deem and Ramdas Pophale) SiO2 
 PCOD9448333
Probable space group: P M M N
;
_chemical_formula_sum "Si O2"
_cell_formula_units_Z 64
_cell_length_a 18.702418
_cell_length_b 7.430951
_cell_length_c 20.663949
_cell_angle_alpha 90.000000
_cell_angle_beta 90.000000
_cell_angle_gamma 90.000000
_cell_volume 2871.808510
_symmetry_space_group_name_H-M "P M M N"
_symmetry_group_IT_number 59
_space_group.IT_coordinate_system_code '2'
_symmetry_cell_setting 'orthorhombic'
loop_
_space_group_symop_operation_xyz
x,y,z
1/2-x,1/2-y,z
1/2+x,-y,-z
-x,1/2+y,-z
-x,-y,-z
1/2+x,1/2+y,-z
1/2-x,y,z
x,1/2-y,z
loop_
_atom_site_type_symbol
_atom_site_label
_atom_site_fract_x
_atom_site_fract_y
_atom_site_fract_z
Si Si1 0.669516 0.470862 0.982107
Si Si2 0.331949 0.034282 0.539961
Si Si3 0.438986 0.971122 0.284924
Si Si4 0.831035 0.035635 0.604830
Si Si5 0.670500 0.967828 0.200153
Si Si6 0.592680 0.045096 0.858329
Si Si7 0.403823 0.469232 0.670224
Si Si8 0.559184 0.043601 0.089561
O O1 0.750000 0.525401 0.999919
O O2 0.668114 0.250000 0.983331
O O3 0.647775 0.532406 0.910278
O O4 0.608490 0.531250 0.032098
O O5 0.250000 0.966660 0.544314
O O6 0.328740 0.250000 0.545722
O O7 0.379072 0.967814 0.599747
O O8 0.359166 0.994921 0.467840
O O9 0.440452 0.750000 0.283206
O O10 0.382151 0.030608 0.338558
O O11 0.419038 0.034374 0.212816
O O12 0.517935 0.027853 0.306894
O O13 0.750000 0.963101 0.607930
O O14 0.826732 0.250000 0.613327
O O15 0.750000 0.027340 0.181517
O O16 0.668359 0.750000 0.196750
O O17 0.651870 0.019184 0.273596
O O18 0.609817 0.036801 0.152395
O O19 0.616648 0.250000 0.847317
O O20 0.515454 0.047594 0.893443
O O21 0.405347 0.250000 0.668454
O O22 0.541592 0.250000 0.073925
#
# Coordination Sequence:
#
# PCOD9448333 Si02
#       8
#     8   8   8   8   8   8   8   8
#     4   9  19  34  53  79 107 135 171 216 263 307
#     4   9  17  30  49  71  95 128 166 202 246 300
#     4   9  17  30  51  75  98 126 163 211 256 291
#     4   9  18  32  49  71  99 129 162 204 255 305
#     4  10  19  32  53  78 102 134 177 217 250 294
#     4  10  19  35  58  78 100 135 179 220 253 300
#     4   9  16  29  49  73 100 127 164 211 252 292
#     4  11  21  34  52  76 110 144 168 204 261 317
#
# _framework density 22.285610999999999
#
# number of rings (size 3 to 8) (size 9 to 14) (size 15 to 20)
#    0.000    2.500    1.250    1.500    0.000    3.250 
#    0.000    4.375    0.000    3.375    0.000    0.000 
#    0.000    0.000    0.000    0.000    0.000    0.000 
#
# Total GULP energy -357503.160996 kJ/mol
# GULP energy per Si atom -5585.986891 kJ/mol
# Density = 2.223489 g / cm^3
# Si number density = 22.285611 Si / 1000 Ang^3
#
#
#
# Elastic Constant Matrix: (Units=GPa)
#
#
# Indices 1 2 3 4 5 6 
#
# 1 30.5580 -6.5073 29.0060 0.0000 0.0000 0.0000
# 2 -6.5073 70.6964 -4.2397 0.0000 0.0000 0.0000
# 3 29.0060 -4.2397 149.4047 0.0000 0.0000 0.0000
# 4 0.0000 0.0000 0.0000 14.7448 0.0000 0.0000
# 5 0.0000 0.0000 0.0000 0.0000 49.1176 0.0000
# 6 0.0000 0.0000 0.0000 0.0000 0.0000 -21.8499
#
#
#
# Elastic Compliance Matrix: (Units=1/GPa)
#
#
# Indices 1 2 3 4 5 6 
#
# 1 0.040868 0.003292 -0.007841 0.000000 0.000000 0.000000
# 2 0.003292 0.014434 -0.000229 0.000000 0.000000 0.000000
# 3 -0.007841 -0.000229 0.008209 0.000000 0.000000 0.000000
# 4 0.000000 0.000000 0.000000 0.067821 0.000000 0.000000
# 5 0.000000 0.000000 0.000000 0.000000 0.020359 0.000000
# 6 0.000000 0.000000 0.000000 0.000000 0.000000 -0.045767
#
#
# Mechanical properties :
#
#
# Convention : Reuss Voigt Hill
#
# Bulk Modulus (GPa) = 18.53434 31.90857 25.22145
# Shear Modulus (GPa) = 37.46248 23.89584 30.67916
#
# Velocity S-wave (km/s) = 4.10447 3.27808 3.71433
# Velocity P-wave (km/s) = 5.54950 5.35508 5.45316
#
# Compressibility (1/GPa) = 0.05395391
#
# Stress axis : x y z
#
# Youngs Moduli (GPa) = 24.46883 69.27981 121.81771
#
# Poissons Ratio (x) = -0.22804 0.95516
# Poissons Ratio (y) = -0.08054 0.02795
# Poissons Ratio (z) = 0.19186 0.01590
#
# Static dielectric constant tensor:
#      x y z
#    x 1.777830 0.000000 0.000000 
#    y 0.000000 1.869730 0.000000 
#    z 0.000000 0.000000 1.801920 
# 
# From -- ./inp_files/26175.got.cif
#   From: 2010.05.17/outbox.cif.g08.bks.cpg/sg59_14_cif.got.tgz:26175.got - 2010.06.03 14:40:33.
