data_PCOD9448817
_publ_section_title
;
Structure prediction by ZEFSAII (Michael W. Deem and Ramdas Pophale) SiO2 
 PCOD9448817
Probable space group: P M M N
;
_chemical_formula_sum "Si O2"
_cell_formula_units_Z 64
_cell_length_a 7.559377
_cell_length_b 31.669130
_cell_length_c 12.728258
_cell_angle_alpha 90.000000
_cell_angle_beta 90.000000
_cell_angle_gamma 90.000000
_cell_volume 3047.130874
_symmetry_space_group_name_H-M "P M M N"
_symmetry_group_IT_number 59
_space_group.IT_coordinate_system_code '2'
_symmetry_cell_setting 'orthorhombic'
loop_
_space_group_symop_operation_xyz
x,y,z
1/2-x,1/2-y,z
1/2+x,-y,-z
-x,1/2+y,-z
-x,-y,-z
1/2+x,1/2+y,-z
1/2-x,y,z
x,1/2-y,z
loop_
_atom_site_type_symbol
_atom_site_label
_atom_site_fract_x
_atom_site_fract_y
_atom_site_fract_z
Si Si1 0.045850 0.129417 0.080771
Si Si2 0.537319 0.549313 0.518763
Si Si3 0.960430 0.986838 0.119714
Si Si4 0.960526 0.201975 0.231615
Si Si5 0.961967 0.701563 0.531469
Si Si6 0.033113 0.127325 0.621941
Si Si7 0.465699 0.110239 0.853106
Si Si8 0.046504 0.065863 0.250836
O O1 0.250000 0.115303 0.067137
O O2 0.962555 0.096149 0.162719
O O3 0.040122 0.173238 0.141483
O O4 0.972637 0.130418 0.963041
O O5 0.500000 0.500000 0.500000
O O6 0.750000 0.552421 0.521753
O O7 0.477608 0.582909 0.431207
O O8 0.467554 0.563486 0.633187
O O9 0.750000 0.989018 0.135310
O O10 0.016198 0.938955 0.139929
O O11 0.045019 0.019615 0.199974
O O12 0.000000 0.000000 0.000000
O O13 0.750000 0.201803 0.218102
O O14 0.025899 0.250000 0.226362
O O15 0.999861 0.186588 0.349710
O O16 0.750000 0.703639 0.520898
O O17 0.029676 0.750000 0.520024
O O18 0.026264 0.667081 0.448077
O O19 0.250000 0.127654 0.620824
O O20 0.973963 0.129255 0.742706
O O21 0.250000 0.112378 0.849690
O O22 0.250000 0.080452 0.264450
#
# Coordination Sequence:
#
# PCOD9448817 Si02
#       8
#     8   8   8   8   8   8   8   8
#     4  10  19  34  54  76 103 134 172 214 255 306
#     4  10  20  33  50  71 103 142 176 216 262 312
#     4  11  20  33  52  74 102 139 180 221 261 309
#     4  10  21  36  54  78 107 134 164 209 262 315
#     4   9  17  32  57  84 105 130 168 211 257 314
#     4   9  17  32  53  77 105 138 172 212 265 312
#     4   9  18  32  51  75 105 139 175 216 259 305
#     4  10  20  34  51  75 105 136 173 219 266 308
#
# _framework density 21.003364999999999
#
# number of rings (size 3 to 8) (size 9 to 14) (size 15 to 20)
#    0.000    2.250    1.250    2.250    0.000    4.750 
#    0.000    2.500    0.000    5.250    0.000    1.750 
#    0.000    0.000    0.000    0.000    0.000    0.000 
#
# Total GULP energy -357334.143626 kJ/mol
# GULP energy per Si atom -5583.345994 kJ/mol
# Density = 2.095556 g / cm^3
# Si number density = 21.003365 Si / 1000 Ang^3
#
#
#
# Elastic Constant Matrix: (Units=GPa)
#
#
# Indices 1 2 3 4 5 6 
#
# 1 51.8693 -3.3909 0.3734 0.0000 0.0000 0.0000
# 2 -3.3909 91.8466 82.2665 0.0000 0.0000 0.0000
# 3 0.3734 82.2665 207.6256 0.0000 0.0000 0.0000
# 4 0.0000 0.0000 0.0000 37.1531 0.0000 0.0000
# 5 0.0000 0.0000 0.0000 0.0000 1.9626 0.0000
# 6 0.0000 0.0000 0.0000 0.0000 0.0000 16.1899
#
#
#
# Elastic Compliance Matrix: (Units=1/GPa)
#
#
# Indices 1 2 3 4 5 6 
#
# 1 0.019358 0.001156 -0.000493 0.000000 0.000000 0.000000
# 2 0.001156 0.016947 -0.006717 0.000000 0.000000 0.000000
# 3 -0.000493 -0.006717 0.007479 0.000000 0.000000 0.000000
# 4 0.000000 0.000000 0.000000 0.026916 0.000000 0.000000
# 5 0.000000 0.000000 0.000000 0.000000 0.509522 0.000000
# 6 0.000000 0.000000 0.000000 0.000000 0.000000 0.061767
#
#
# Mechanical properties :
#
#
# Convention : Reuss Voigt Hill
#
# Bulk Modulus (GPa) = 31.56906 56.64885 44.10896
# Shear Modulus (GPa) = 7.52271 29.20062 18.36166
#
# Velocity S-wave (km/s) = 1.89458 3.73269 2.95994
# Velocity P-wave (km/s) = 4.45523 6.75331 5.72085
#
# Compressibility (1/GPa) = 0.03167658
#
# Stress axis : x y z
#
# Youngs Moduli (GPa) = 51.65726 59.00909 133.71513
#
# Poissons Ratio (x) = -0.06823 0.06591
# Poissons Ratio (y) = -0.05973 0.89813
# Poissons Ratio (z) = 0.02546 0.39635
#
# Static dielectric constant tensor:
#      x y z
#    x 1.820100 0.000000 0.000000 
#    y 0.000000 1.716480 0.000000 
#    z 0.000000 0.000000 1.756870 
# 
# From -- ./inp_files/14920.got.cif
#   From: 2010.05.17/outbox.cif.g08.bks.cpg/sg59_8_cif.got.tgz:14920.got - 2010.06.03 14:40:33.
