data_PCOD9448465
_publ_section_title
;
Structure prediction by ZEFSAII (Michael W. Deem and Ramdas Pophale) SiO2 
 PCOD9448465
Probable space group: P M M N
;
_chemical_formula_sum "Si O2"
_cell_formula_units_Z 56
_cell_length_a 10.846873
_cell_length_b 13.336312
_cell_length_c 22.040112
_cell_angle_alpha 90.000000
_cell_angle_beta 90.000000
_cell_angle_gamma 90.000000
_cell_volume 3188.262709
_symmetry_space_group_name_H-M "P M M N"
_symmetry_group_IT_number 59
_space_group.IT_coordinate_system_code '2'
_symmetry_cell_setting 'orthorhombic'
loop_
_space_group_symop_operation_xyz
x,y,z
1/2-x,1/2-y,z
1/2+x,-y,-z
-x,1/2+y,-z
-x,-y,-z
1/2+x,1/2+y,-z
1/2-x,y,z
x,1/2-y,z
loop_
_atom_site_type_symbol
_atom_site_label
_atom_site_fract_x
_atom_site_fract_y
_atom_site_fract_z
Si Si1 0.603671 0.862971 0.295381
Si Si2 0.534751 0.016361 0.601148
Si Si3 0.884889 0.863634 0.699534
Si Si4 0.610299 0.862468 0.005584
Si Si5 0.390736 0.934612 0.922512
Si Si6 0.606673 0.443547 0.221180
Si Si7 0.891994 0.363467 0.485620
O O1 0.750000 0.857876 0.304320
O O2 0.557030 0.750000 0.285188
O O3 0.545517 0.913631 0.354719
O O4 0.583887 0.940566 0.240221
O O5 0.611086 0.945840 0.646461
O O6 0.458036 0.937575 0.560891
O O7 0.599837 0.087757 0.552421
O O8 0.750000 0.872176 0.730439
O O9 0.894307 0.750000 0.675446
O O10 0.002366 0.883155 0.742470
O O11 0.750000 0.872420 0.979311
O O12 0.600760 0.750000 0.030788
O O13 0.500564 0.878717 0.957521
O O14 0.599559 0.949768 0.055445
O O15 0.250000 0.900990 0.938006
O O16 0.404706 0.927475 0.850418
O O17 0.750000 0.419816 0.238520
O O18 0.750000 0.358451 0.467685
O O19 0.943186 0.250000 0.485700
#
# Coordination Sequence:
#
# PCOD9448465 Si02
#       7
#     8   8   8   8   8   8   8
#     4   9  17  30  49  72  96 124 161 204 247 290
#     4  10  19  33  50  69  96 127 160 198 243 294
#     4  10  21  36  53  73  98 130 166 204 248 295
#     4   9  18  32  51  75 102 134 170 206 246 291
#     4   9  18  33  51  73 102 133 166 205 248 293
#     4   9  19  34  52  75 101 130 165 205 248 293
#     4  10  20  32  48  71  96 124 159 199 243 291
#
# _framework density 17.564423999999999
#
# number of rings (size 3 to 8) (size 9 to 14) (size 15 to 20)
#    0.000    2.571    0.000    1.714    0.000    2.857 
#    0.000    5.714    0.000   10.714    0.000    6.000 
#    0.000    0.000    0.000    0.000    0.000    0.000 
#
# Total GULP energy -311804.759890 kJ/mol
# GULP energy per Si atom -5567.942141 kJ/mol
# Density = 1.752445 g / cm^3
# Si number density = 17.564424 Si / 1000 Ang^3
#
#
#
# Elastic Constant Matrix: (Units=GPa)
#
#
# Indices 1 2 3 4 5 6 
#
# 1 66.8476 9.7484 12.5478 0.0000 0.0000 0.0000
# 2 9.7484 64.3261 -22.6547 0.0000 0.0000 0.0000
# 3 12.5478 -22.6547 26.0256 0.0000 0.0000 0.0000
# 4 0.0000 0.0000 0.0000 3.9684 0.0000 0.0000
# 5 0.0000 0.0000 0.0000 0.0000 10.4388 0.0000
# 6 0.0000 0.0000 0.0000 0.0000 0.0000 18.8915
#
#
#
# Elastic Compliance Matrix: (Units=1/GPa)
#
#
# Indices 1 2 3 4 5 6 
#
# 1 0.019524 -0.009048 -0.017289 0.000000 0.000000 0.000000
# 2 -0.009048 0.026611 0.027527 0.000000 0.000000 0.000000
# 3 -0.017289 0.027527 0.070721 0.000000 0.000000 0.000000
# 4 0.000000 0.000000 0.000000 0.251990 0.000000 0.000000
# 5 0.000000 0.000000 0.000000 0.000000 0.095796 0.000000
# 6 0.000000 0.000000 0.000000 0.000000 0.000000 0.052934
#
#
# Mechanical properties :
#
#
# Convention : Reuss Voigt Hill
#
# Bulk Modulus (GPa) = 8.38669 17.38693 12.88681
# Shear Modulus (GPa) = 9.00995 17.16361 13.08678
#
# Velocity S-wave (km/s) = 2.26733 3.12938 2.73256
# Velocity P-wave (km/s) = 3.41168 4.79352 4.16037
#
# Compressibility (1/GPa) = 0.11923655
#
# Stress axis : x y z
#
# Youngs Moduli (GPa) = 51.21871 37.57776 14.14011
#
# Poissons Ratio (x) = 0.33999 0.24447
# Poissons Ratio (y) = 0.46341 -0.38923
# Poissons Ratio (z) = 0.88552 -1.03440
#
# Static dielectric constant tensor:
#      x y z
#    x 1.610890 0.000000 0.000000 
#    y 0.000000 1.609960 0.000000 
#    z 0.000000 0.000000 1.564280 
# 
# From -- ./inp_files/30093.got.cif
#   From: 2010.05.17/outbox.cif.g08.bks.cpg/sg59_16_cif.got.tgz:30093.got - 2010.06.03 14:40:33.
