data_PCOD9448143
_publ_section_title
;
Structure prediction by ZEFSAII (Michael W. Deem and Ramdas Pophale) SiO2 
 PCOD9448143
Probable space group: P M M N
;
_chemical_formula_sum "Si O2"
_cell_formula_units_Z 64
_cell_length_a 7.744292
_cell_length_b 22.100743
_cell_length_c 15.904655
_cell_angle_alpha 90.000000
_cell_angle_beta 90.000000
_cell_angle_gamma 90.000000
_cell_volume 2722.154979
_symmetry_space_group_name_H-M "P M M N"
_symmetry_group_IT_number 59
_space_group.IT_coordinate_system_code '2'
_symmetry_cell_setting 'orthorhombic'
loop_
_space_group_symop_operation_xyz
x,y,z
1/2-x,1/2-y,z
1/2+x,-y,-z
-x,1/2+y,-z
-x,-y,-z
1/2+x,1/2+y,-z
1/2-x,y,z
x,1/2-y,z
loop_
_atom_site_type_symbol
_atom_site_label
_atom_site_fract_x
_atom_site_fract_y
_atom_site_fract_z
Si Si1 0.040582 0.314896 0.029809
Si Si2 0.452052 0.908974 0.107088
Si Si3 0.540519 0.873471 0.429224
Si Si4 0.043953 0.997383 0.626806
Si Si5 0.552950 0.656153 0.790487
Si Si6 0.950712 0.640760 0.607831
Si Si7 0.957109 0.182092 0.750637
Si Si8 0.946742 0.475607 0.185410
O O1 0.250000 0.317940 0.031456
O O2 0.990781 0.250000 0.990710
O O3 0.975213 0.316075 0.125664
O O4 0.976165 0.371975 0.978081
O O5 0.250000 0.918252 0.122809
O O6 0.525598 0.865249 0.180490
O O7 0.531883 0.975394 0.113012
O O8 0.750000 0.875492 0.432894
O O9 0.480066 0.943485 0.421791
O O10 0.476363 0.843656 0.516101
O O11 0.492471 0.839617 0.344037
O O12 0.250000 0.990716 0.612836
O O13 0.017745 0.009394 0.726192
O O14 0.959047 0.932718 0.609774
O O15 0.750000 0.678233 0.784378
O O16 0.473047 0.662230 0.697228
O O17 0.557475 0.584671 0.812407
O O18 0.750000 0.659185 0.608461
O O19 0.750000 0.183815 0.761776
O O20 0.024824 0.250000 0.763220
O O21 0.750000 0.453956 0.187955
#
# Coordination Sequence:
#
# PCOD9448143 Si02
#       8
#     8   8   8   8   8   8   8   8
#     4  10  22  40  61  82 105 140 185 230 277 328
#     4  11  22  37  59  84 111 141 178 227 280 334
#     4  10  19  32  50  77 109 142 181 222 264 313
#     4   9  17  29  47  75 111 144 177 217 261 312
#     4   9  19  37  57  81 114 147 183 227 274 326
#     4   9  18  31  51  78 109 142 180 220 263 314
#     4  10  22  38  54  75 106 144 183 224 273 330
#     4  10  19  33  55  84 117 149 181 220 270 330
#
# _framework density 23.510784999999998
#
# number of rings (size 3 to 8) (size 9 to 14) (size 15 to 20)
#    0.000    2.250    1.250    1.500    0.000    4.000 
#    0.000    0.625    0.000    2.250    0.000    0.000 
#    0.000    0.000    0.000    0.000    0.000    0.000 
#
# Total GULP energy -357382.491968 kJ/mol
# GULP energy per Si atom -5584.101437 kJ/mol
# Density = 2.345727 g / cm^3
# Si number density = 23.510785 Si / 1000 Ang^3
#
#
#
# Elastic Constant Matrix: (Units=GPa)
#
#
# Indices 1 2 3 4 5 6 
#
# 1 41.3960 2.9696 -1.4511 0.0000 0.0000 0.0000
# 2 2.9696 50.7382 17.9331 0.0000 0.0000 0.0000
# 3 -1.4511 17.9331 103.5896 0.0000 0.0000 0.0000
# 4 0.0000 0.0000 0.0000 4.6317 0.0000 0.0000
# 5 0.0000 0.0000 0.0000 0.0000 11.7737 0.0000
# 6 0.0000 0.0000 0.0000 0.0000 0.0000 3.0244
#
#
#
# Elastic Compliance Matrix: (Units=1/GPa)
#
#
# Indices 1 2 3 4 5 6 
#
# 1 0.024297 -0.001643 0.000625 0.000000 0.000000 0.000000
# 2 -0.001643 0.021105 -0.003677 0.000000 0.000000 0.000000
# 3 0.000625 -0.003677 0.010299 0.000000 0.000000 0.000000
# 4 0.000000 0.000000 0.000000 0.215902 0.000000 0.000000
# 5 0.000000 0.000000 0.000000 0.000000 0.084935 0.000000
# 6 0.000000 0.000000 0.000000 0.000000 0.000000 0.330640
#
#
# Mechanical properties :
#
#
# Convention : Reuss Voigt Hill
#
# Bulk Modulus (GPa) = 21.59330 26.06967 23.83148
# Shear Modulus (GPa) = 7.02244 15.63745 11.32995
#
# Velocity S-wave (km/s) = 1.73014 2.58179 2.19761
# Velocity P-wave (km/s) = 3.63257 4.47213 4.07403
#
# Compressibility (1/GPa) = 0.04631067
#
# Stress axis : x y z
#
# Youngs Moduli (GPa) = 41.15788 47.38295 97.09958
#
# Poissons Ratio (x) = 0.07784 -0.06066
# Poissons Ratio (y) = 0.06762 0.35699
# Poissons Ratio (z) = -0.02571 0.17421
#
# Static dielectric constant tensor:
#      x y z
#    x 1.851440 0.000000 0.000000 
#    y 0.000000 1.873260 0.000000 
#    z 0.000000 0.000000 1.939260 
# 
# From -- ./inp_files/21561.got.cif
#   From: 2010.05.17/outbox.cif.g08.bks.cpg/sg59_11_cif.got.tgz:21561.got - 2010.06.03 14:40:33.
