data_PCOD9448868
_publ_section_title
;
Structure prediction by ZEFSAII (Michael W. Deem and Ramdas Pophale) SiO2 
 PCOD9448868
Probable space group: P M M N
;
_chemical_formula_sum "Si O2"
_cell_formula_units_Z 48
_cell_length_a 8.450273
_cell_length_b 21.078532
_cell_length_c 14.946749
_cell_angle_alpha 90.000000
_cell_angle_beta 90.000000
_cell_angle_gamma 90.000000
_cell_volume 2662.305214
_symmetry_space_group_name_H-M "P M M N"
_symmetry_group_IT_number 59
_space_group.IT_coordinate_system_code '2'
_symmetry_cell_setting 'orthorhombic'
loop_
_space_group_symop_operation_xyz
x,y,z
1/2-x,1/2-y,z
1/2+x,-y,-z
-x,1/2+y,-z
-x,-y,-z
1/2+x,1/2+y,-z
1/2-x,y,z
x,1/2-y,z
loop_
_atom_site_type_symbol
_atom_site_label
_atom_site_fract_x
_atom_site_fract_y
_atom_site_fract_z
Si Si1 0.060691 0.178662 0.059076
Si Si2 0.058400 0.981837 0.248339
Si Si3 0.558538 0.060097 0.556776
Si Si4 0.560542 0.061136 0.945546
Si Si5 0.556883 0.321401 0.439663
Si Si6 0.060204 0.626299 0.753773
O O1 0.250000 0.177408 0.055662
O O2 0.005349 0.250000 0.037563
O O3 0.008189 0.160556 0.159291
O O4 0.997273 0.124982 0.992624
O O5 0.250000 0.985257 0.248322
O O6 0.007872 0.948475 0.340448
O O7 0.008763 0.946584 0.157528
O O8 0.993597 0.053284 0.246495
O O9 0.750000 0.059744 0.554903
O O10 0.504054 0.124714 0.509072
O O11 0.500000 0.000000 0.500000
O O12 0.750000 0.060073 0.948111
O O13 0.500000 0.000000 0.000000
O O14 0.750000 0.321503 0.440699
O O15 0.504257 0.250000 0.460142
O O16 0.509204 0.341539 0.339365
O O17 0.250000 0.628877 0.758369
#
# Coordination Sequence:
#
# PCOD9448868 Si02
#       6
#     8   8   8   8   8   8
#     4  11  24  40  57  81 115 152 187 230 286 339
#     4  10  21  35  54  82 114 142 181 233 281 332
#     4  10  19  34  55  79 109 145 182 224 273 324
#     4  11  22  37  58  83 112 148 191 235 279 332
#     4   9  18  32  51  79 112 143 180 223 270 325
#     4  11  20  32  56  85 112 144 182 229 279 334
#
# _framework density 18.029488000000001
#
# number of rings (size 3 to 8) (size 9 to 14) (size 15 to 20)
#    0.000    1.667    3.333    2.000    0.000    2.667 
#    0.000    0.833    0.000    4.500    0.000    0.000 
#    0.000    0.000    0.000    0.000    0.000    0.000 
#
# Total GULP energy -268074.866898 kJ/mol
# GULP energy per Si atom -5584.893060 kJ/mol
# Density = 1.798845 g / cm^3
# Si number density = 18.029488 Si / 1000 Ang^3
#
#
#
# Elastic Constant Matrix: (Units=GPa)
#
#
# Indices 1 2 3 4 5 6 
#
# 1 17.8689 24.4930 28.7200 0.0000 0.0000 0.0000
# 2 24.4930 192.1560 107.1213 0.0000 0.0000 0.0000
# 3 28.7200 107.1213 171.5377 0.0000 0.0000 0.0000
# 4 0.0000 0.0000 0.0000 14.6806 0.0000 0.0000
# 5 0.0000 0.0000 0.0000 0.0000 17.1011 0.0000
# 6 0.0000 0.0000 0.0000 0.0000 0.0000 23.5780
#
#
#
# Elastic Compliance Matrix: (Units=1/GPa)
#
#
# Indices 1 2 3 4 5 6 
#
# 1 0.078634 -0.004117 -0.010595 0.000000 0.000000 0.000000
# 2 -0.004117 0.008199 -0.004431 0.000000 0.000000 0.000000
# 3 -0.010595 -0.004431 0.010370 0.000000 0.000000 0.000000
# 4 0.000000 0.000000 0.000000 0.068117 0.000000 0.000000
# 5 0.000000 0.000000 0.000000 0.000000 0.058476 0.000000
# 6 0.000000 0.000000 0.000000 0.000000 0.000000 0.042412
#
#
# Mechanical properties :
#
#
# Convention : Reuss Voigt Hill
#
# Bulk Modulus (GPa) = 16.97241 78.02570 47.49905
# Shear Modulus (GPa) = 15.42576 25.82047 20.62311
#
# Velocity S-wave (km/s) = 2.92821 3.78845 3.38576
# Velocity P-wave (km/s) = 4.56801 7.90614 6.45654
#
# Compressibility (1/GPa) = 0.05891915
#
# Stress axis : x y z
#
# Youngs Moduli (GPa) = 12.71708 121.96818 96.42890
#
# Poissons Ratio (x) = 0.50213 1.02163
# Poissons Ratio (y) = 0.05235 0.42725
# Poissons Ratio (z) = 0.13473 0.54041
#
# Static dielectric constant tensor:
#      x y z
#    x 1.621410 0.000000 0.000000 
#    y 0.000000 1.548940 0.000000 
#    z 0.000000 0.000000 1.614700 
# 
# From -- ./inp_files/20370.got.cif
#   From: 2010.05.17/outbox.cif.g08.bks.cpg/sg59_11_cif.got.tgz:20370.got - 2010.06.03 14:40:33.
