data_PCOD9448410
_publ_section_title
;
Structure prediction by ZEFSAII (Michael W. Deem and Ramdas Pophale) SiO2 
 PCOD9448410
Probable space group: P M M N
;
_chemical_formula_sum "Si O2"
_cell_formula_units_Z 64
_cell_length_a 18.215292
_cell_length_b 9.034836
_cell_length_c 22.080391
_cell_angle_alpha 90.000000
_cell_angle_beta 90.000000
_cell_angle_gamma 90.000000
_cell_volume 3633.817992
_symmetry_space_group_name_H-M "P M M N"
_symmetry_group_IT_number 59
_space_group.IT_coordinate_system_code '2'
_symmetry_cell_setting 'orthorhombic'
loop_
_space_group_symop_operation_xyz
x,y,z
1/2-x,1/2-y,z
1/2+x,-y,-z
-x,1/2+y,-z
-x,-y,-z
1/2+x,1/2+y,-z
1/2-x,y,z
x,1/2-y,z
loop_
_atom_site_type_symbol
_atom_site_label
_atom_site_fract_x
_atom_site_fract_y
_atom_site_fract_z
Si Si1 0.835877 0.928024 0.722292
Si Si2 0.335548 0.071958 0.501242
Si Si3 0.080351 0.927296 0.390359
Si Si4 0.668940 0.572496 0.128285
Si Si5 0.019121 0.427233 0.936324
Si Si6 0.952280 0.574217 0.821166
Si Si7 0.106276 0.925165 0.754797
Si Si8 0.909122 0.572532 0.372090
O O1 0.750000 0.964893 0.725287
O O2 0.842587 0.750000 0.714126
O O3 0.879927 0.965992 0.783501
O O4 0.874867 0.006912 0.666111
O O5 0.250000 0.034436 0.492490
O O6 0.343065 0.250000 0.494681
O O7 0.362335 0.032822 0.568678
O O8 0.385325 0.993562 0.451312
O O9 0.086114 0.750000 0.390878
O O10 0.994435 0.966500 0.383807
O O11 0.750000 0.534030 0.105160
O O12 0.665060 0.750000 0.135681
O O13 0.601594 0.529552 0.084977
O O14 0.655459 0.498525 0.193276
O O15 0.015228 0.250000 0.940446
O O16 0.966757 0.485509 0.882533
O O17 0.000000 0.500000 0.000000
O O18 0.950824 0.750000 0.834682
O O19 0.022246 0.547794 0.777116
O O20 0.118138 0.750000 0.753058
O O21 0.116864 0.995059 0.689143
O O22 0.904841 0.750000 0.364060
#
# Coordination Sequence:
#
# PCOD9448410 Si02
#       8
#     8   8   8   8   8   8   8   8
#     4  10  20  35  56  80 107 142 181 220 267 325
#     4  10  22  39  55  71  97 136 180 224 271 327
#     4  11  22  35  54  78 105 136 175 225 275 325
#     4   9  19  36  57  81 111 147 185 223 264 317
#     4  10  20  35  58  84 110 146 186 223 264 312
#     4   9  18  34  54  78 108 140 176 218 261 312
#     4  10  19  32  54  82 109 138 173 220 271 317
#     4  10  21  36  54  77 104 139 180 219 267 330
#
# _framework density 17.612328999999999
#
# number of rings (size 3 to 8) (size 9 to 14) (size 15 to 20)
#    0.000    2.125    1.250    1.875    0.000    5.250 
#    0.000    1.875    0.000    3.750    0.000    0.000 
#    0.000    0.000    0.000    0.000    0.000    0.000 
#
# Total GULP energy -357303.378720 kJ/mol
# GULP energy per Si atom -5582.865292 kJ/mol
# Density = 1.757224 g / cm^3
# Si number density = 17.612329 Si / 1000 Ang^3
#
#
#
# Elastic Constant Matrix: (Units=GPa)
#
#
# Indices 1 2 3 4 5 6 
#
# 1 52.0494 17.6250 24.2471 0.0000 0.0000 0.0000
# 2 17.6250 22.0191 39.1620 0.0000 0.0000 0.0000
# 3 24.2471 39.1620 127.1332 0.0000 0.0000 0.0000
# 4 0.0000 0.0000 0.0000 36.2034 0.0000 0.0000
# 5 0.0000 0.0000 0.0000 0.0000 15.7387 0.0000
# 6 0.0000 0.0000 0.0000 0.0000 0.0000 22.5956
#
#
#
# Elastic Compliance Matrix: (Units=1/GPa)
#
#
# Indices 1 2 3 4 5 6 
#
# 1 0.026980 -0.027523 0.003332 0.000000 0.000000 0.000000
# 2 -0.027523 0.128521 -0.034340 0.000000 0.000000 0.000000
# 3 0.003332 -0.034340 0.017808 0.000000 0.000000 0.000000
# 4 0.000000 0.000000 0.000000 0.027622 0.000000 0.000000
# 5 0.000000 0.000000 0.000000 0.000000 0.063538 0.000000
# 6 0.000000 0.000000 0.000000 0.000000 0.000000 0.044256
#
#
# Mechanical properties :
#
#
# Convention : Reuss Voigt Hill
#
# Bulk Modulus (GPa) = 17.77832 40.36331 29.07082
# Shear Modulus (GPa) = 11.24768 22.91872 17.08320
#
# Velocity S-wave (km/s) = 2.52985 3.61125 3.11779
# Velocity P-wave (km/s) = 4.31852 6.35260 5.43163
#
# Compressibility (1/GPa) = 0.05624827
#
# Stress axis : x y z
#
# Youngs Moduli (GPa) = 37.06465 7.78081 56.15337
#
# Poissons Ratio (x) = 0.21415 -0.18712
# Poissons Ratio (y) = 1.02012 1.92833
# Poissons Ratio (z) = -0.12351 0.26720
#
# Static dielectric constant tensor:
#      x y z
#    x 1.602980 0.000000 0.000000 
#    y 0.000000 1.588750 0.000000 
#    z 0.000000 0.000000 1.561860 
# 
# From -- ./inp_files/30783.got.cif
#   From: 2010.05.17/outbox.cif.g08.bks.cpg/sg59_16_cif.got.tgz:30783.got - 2010.06.03 14:40:33.
