data_PCOD9448531
_publ_section_title
;
Structure prediction by ZEFSAII (Michael W. Deem and Ramdas Pophale) SiO2 
 PCOD9448531
Probable space group: P M M N
;
_chemical_formula_sum "Si O2"
_cell_formula_units_Z 56
_cell_length_a 18.765503
_cell_length_b 8.224826
_cell_length_c 19.826806
_cell_angle_alpha 90.000000
_cell_angle_beta 90.000000
_cell_angle_gamma 90.000000
_cell_volume 3060.128659
_symmetry_space_group_name_H-M "P M M N"
_symmetry_group_IT_number 59
_space_group.IT_coordinate_system_code '2'
_symmetry_cell_setting 'orthorhombic'
loop_
_space_group_symop_operation_xyz
x,y,z
1/2-x,1/2-y,z
1/2+x,-y,-z
-x,1/2+y,-z
-x,-y,-z
1/2+x,1/2+y,-z
1/2-x,y,z
x,1/2-y,z
loop_
_atom_site_type_symbol
_atom_site_label
_atom_site_fract_x
_atom_site_fract_y
_atom_site_fract_z
Si Si1 0.604938 0.446870 0.274005
Si Si2 0.525031 0.555712 0.073067
Si Si3 0.078506 0.945937 0.579955
Si Si4 0.914775 0.052864 0.569020
Si Si5 0.669803 0.054245 0.699809
Si Si6 0.171706 0.445290 0.861933
Si Si7 0.955773 0.943821 0.792518
O O1 0.608525 0.250000 0.272075
O O2 0.615568 0.502550 0.351014
O O3 0.656301 0.513004 0.216162
O O4 0.524963 0.496912 0.251093
O O5 0.527751 0.750000 0.073891
O O6 0.603797 0.493066 0.095261
O O7 0.471299 0.499600 0.131629
O O8 0.500000 0.500000 0.000000
O O9 0.082141 0.750000 0.580503
O O10 0.106006 0.001502 0.506712
O O11 0.995271 0.994336 0.582363
O O12 0.915349 0.250000 0.569429
O O13 0.863869 0.995742 0.628988
O O14 0.750000 0.993285 0.709739
O O15 0.672406 0.250000 0.696254
O O16 0.615615 0.008854 0.758935
O O17 0.250000 0.507130 0.881831
O O18 0.172273 0.250000 0.868416
O O19 0.953968 0.750000 0.790636
#
# Coordination Sequence:
#
# PCOD9448531 Si02
#       7
#     8   8   8   8   8   8   8
#     4   9  17  29  48  74 102 130 166 211 254 299
#     4  10  20  36  59  84 109 137 170 208 250 298
#     4   9  16  28  45  69  97 126 166 217 262 305
#     4   9  17  28  45  67  94 129 171 215 264 311
#     4  10  20  33  48  69 100 137 178 223 268 314
#     4   9  19  35  54  77 105 136 168 203 247 300
#     4  10  19  33  53  76 102 132 170 212 254 305
#
# _framework density 18.299885
#
# number of rings (size 3 to 8) (size 9 to 14) (size 15 to 20)
#    0.000    2.571    1.429    0.857    0.000    2.286 
#    0.000    1.429    0.000    5.143    0.000    0.000 
#    0.000    0.000    0.000    0.000    0.000    0.000 
#
# Total GULP energy -312180.312799 kJ/mol
# GULP energy per Si atom -5574.648443 kJ/mol
# Density = 1.825823 g / cm^3
# Si number density = 18.299885 Si / 1000 Ang^3
#
#
#
# Elastic Constant Matrix: (Units=GPa)
#
#
# Indices 1 2 3 4 5 6 
#
# 1 116.8439 10.8970 69.7516 0.0000 0.0000 0.0000
# 2 10.8970 3.6276 8.8266 0.0000 0.0000 0.0000
# 3 69.7516 8.8266 152.9422 0.0000 0.0000 0.0000
# 4 0.0000 0.0000 0.0000 21.6999 0.0000 0.0000
# 5 0.0000 0.0000 0.0000 0.0000 16.7967 0.0000
# 6 0.0000 0.0000 0.0000 0.0000 0.0000 14.7290
#
#
#
# Elastic Compliance Matrix: (Units=1/GPa)
#
#
# Indices 1 2 3 4 5 6 
#
# 1 0.014308 -0.031531 -0.004706 0.000000 0.000000 0.000000
# 2 -0.031531 0.390180 -0.008138 0.000000 0.000000 0.000000
# 3 -0.004706 -0.008138 0.009154 0.000000 0.000000 0.000000
# 4 0.000000 0.000000 0.000000 0.046083 0.000000 0.000000
# 5 0.000000 0.000000 0.000000 0.000000 0.059536 0.000000
# 6 0.000000 0.000000 0.000000 0.000000 0.000000 0.067893
#
#
# Mechanical properties :
#
#
# Convention : Reuss Voigt Hill
#
# Bulk Modulus (GPa) = 3.07793 50.26269 26.67031
# Shear Modulus (GPa) = 6.37592 22.90766 14.64179
#
# Velocity S-wave (km/s) = 1.86861 3.54191 2.83168
# Velocity P-wave (km/s) = 2.51817 6.65226 5.02960
#
# Compressibility (1/GPa) = 0.32489324
#
# Stress axis : x y z
#
# Youngs Moduli (GPa) = 69.89009 2.56292 109.23914
#
# Poissons Ratio (x) = 0.08081 0.51405
# Poissons Ratio (y) = 2.20367 0.88900
# Poissons Ratio (z) = 0.32889 0.02086
#
# Static dielectric constant tensor:
#      x y z
#    x 1.626500 0.000000 0.000000 
#    y 0.000000 1.632920 0.000000 
#    z 0.000000 0.000000 1.630010 
# 
# From -- ./inp_files/30596.got.cif
#   From: 2010.05.17/outbox.cif.g08.bks.cpg/sg59_16_cif.got.tgz:30596.got - 2010.06.03 14:40:33.
