data_PCOD9448747
_publ_section_title
;
Structure prediction by ZEFSAII (Michael W. Deem and Ramdas Pophale) SiO2 
 PCOD9448747
Probable space group: P M M N
;
_chemical_formula_sum "Si O2"
_cell_formula_units_Z 64
_cell_length_a 8.583597
_cell_length_b 18.382067
_cell_length_c 22.237998
_cell_angle_alpha 90.000000
_cell_angle_beta 90.000000
_cell_angle_gamma 90.000000
_cell_volume 3508.805951
_symmetry_space_group_name_H-M "P M M N"
_symmetry_group_IT_number 59
_space_group.IT_coordinate_system_code '2'
_symmetry_cell_setting 'orthorhombic'
loop_
_space_group_symop_operation_xyz
x,y,z
1/2-x,1/2-y,z
1/2+x,-y,-z
-x,1/2+y,-z
-x,-y,-z
1/2+x,1/2+y,-z
1/2-x,y,z
x,1/2-y,z
loop_
_atom_site_type_symbol
_atom_site_label
_atom_site_fract_x
_atom_site_fract_y
_atom_site_fract_z
Si Si1 0.561603 0.166028 0.728751
Si Si2 0.563203 0.521056 0.935079
Si Si3 0.062056 0.169724 0.126498
Si Si4 0.438284 0.833662 0.505902
Si Si5 0.436286 0.602386 0.754316
Si Si6 0.436381 0.450996 0.816815
Si Si7 0.939833 0.423117 0.610621
Si Si8 0.436647 0.409363 0.375726
O O1 0.750000 0.164671 0.729650
O O2 0.511768 0.250000 0.728156
O O3 0.499777 0.121052 0.785410
O O4 0.510239 0.123854 0.668322
O O5 0.750000 0.519839 0.935810
O O6 0.510576 0.602227 0.914853
O O7 0.503379 0.467675 0.882622
O O8 0.500000 0.500000 0.000000
O O9 0.250000 0.168069 0.128109
O O10 0.012373 0.250000 0.106148
O O11 0.000634 0.154074 0.193446
O O12 0.250000 0.836260 0.507529
O O13 0.483998 0.750000 0.495139
O O14 0.491262 0.884870 0.450986
O O15 0.501939 0.862445 0.568893
O O16 0.250000 0.606351 0.753074
O O17 0.482420 0.520457 0.775253
O O18 0.502892 0.617404 0.688665
O O19 0.250000 0.449081 0.819851
O O20 0.750000 0.422982 0.610581
O O21 0.990426 0.506724 0.615806
O O22 0.250000 0.408606 0.375546
#
# Coordination Sequence:
#
# PCOD9448747 Si02
#       8
#     8   8   8   8   8   8   8   8
#     4  10  19  33  56  83 110 141 180 226 277 332
#     4  10  20  36  60  86 114 150 190 228 269 322
#     4   9  19  36  58  84 113 145 182 226 275 322
#     4  10  21  37  54  73 102 139 179 225 276 331
#     4  10  20  34  54  80 108 141 179 220 269 324
#     4  10  20  35  55  80 112 145 180 223 268 321
#     4   9  18  34  56  79 102 136 181 224 272 331
#     4  11  21  34  55  79 105 138 178 226 275 328
#
# _framework density 18.239822
#
# number of rings (size 3 to 8) (size 9 to 14) (size 15 to 20)
#    0.000    2.125    1.250    2.250    0.000    4.250 
#    0.000    1.875    0.000    3.750    0.000    0.000 
#    0.000    0.000    0.000    0.000    0.000    0.000 
#
# Total GULP energy -357328.299321 kJ/mol
# GULP energy per Si atom -5583.254677 kJ/mol
# Density = 1.819831 g / cm^3
# Si number density = 18.239822 Si / 1000 Ang^3
#
#
#
# Elastic Constant Matrix: (Units=GPa)
#
#
# Indices 1 2 3 4 5 6 
#
# 1 12.7961 10.2947 15.1212 0.0000 0.0000 0.0000
# 2 10.2947 61.5440 29.2255 0.0000 0.0000 0.0000
# 3 15.1212 29.2255 133.6461 0.0000 0.0000 0.0000
# 4 0.0000 0.0000 0.0000 17.8362 0.0000 0.0000
# 5 0.0000 0.0000 0.0000 0.0000 26.4306 0.0000
# 6 0.0000 0.0000 0.0000 0.0000 0.0000 18.9519
#
#
#
# Elastic Compliance Matrix: (Units=1/GPa)
#
#
# Indices 1 2 3 4 5 6 
#
# 1 0.098040 -0.012422 -0.008376 0.000000 0.000000 0.000000
# 2 -0.012422 0.019705 -0.002904 0.000000 0.000000 0.000000
# 3 -0.008376 -0.002904 0.009065 0.000000 0.000000 0.000000
# 4 0.000000 0.000000 0.000000 0.056066 0.000000 0.000000
# 5 0.000000 0.000000 0.000000 0.000000 0.037835 0.000000
# 6 0.000000 0.000000 0.000000 0.000000 0.000000 0.052765
#
#
# Mechanical properties :
#
#
# Convention : Reuss Voigt Hill
#
# Bulk Modulus (GPa) = 12.59334 35.25212 23.92273
# Shear Modulus (GPa) = 14.39474 22.86674 18.63074
#
# Velocity S-wave (km/s) = 2.81231 3.54456 3.19945
# Velocity P-wave (km/s) = 4.17908 6.01006 5.17618
#
# Compressibility (1/GPa) = 0.07940708
#
# Stress axis : x y z
#
# Youngs Moduli (GPa) = 10.19989 50.74786 110.31288
#
# Poissons Ratio (x) = 0.63039 0.92400
# Poissons Ratio (y) = 0.12670 0.32031
# Poissons Ratio (z) = 0.08544 0.14735
#
# Static dielectric constant tensor:
#      x y z
#    x 1.612690 0.000000 0.000000 
#    y 0.000000 1.631580 0.000000 
#    z 0.000000 0.000000 1.588870 
# 
# From -- ./inp_files/29383.got.cif
#   From: 2010.05.17/outbox.cif.g08.bks.cpg/sg59_15_cif.got.tgz:29383.got - 2010.06.03 14:40:33.
