data_PCOD9448125
_publ_section_title
;
Structure prediction by ZEFSAII (Michael W. Deem and Ramdas Pophale) SiO2 
 PCOD9448125
Probable space group: P M M N
;
_chemical_formula_sum "Si O2"
_cell_formula_units_Z 64
_cell_length_a 20.548481
_cell_length_b 7.653786
_cell_length_c 19.665824
_cell_angle_alpha 90.000000
_cell_angle_beta 90.000000
_cell_angle_gamma 90.000000
_cell_volume 3092.916436
_symmetry_space_group_name_H-M "P M M N"
_symmetry_group_IT_number 59
_space_group.IT_coordinate_system_code '2'
_symmetry_cell_setting 'orthorhombic'
loop_
_space_group_symop_operation_xyz
x,y,z
1/2-x,1/2-y,z
1/2+x,-y,-z
-x,1/2+y,-z
-x,-y,-z
1/2+x,1/2+y,-z
1/2-x,y,z
x,1/2-y,z
loop_
_atom_site_type_symbol
_atom_site_label
_atom_site_fract_x
_atom_site_fract_y
_atom_site_fract_z
Si Si1 0.319565 0.540604 0.089329
Si Si2 0.534174 0.954134 0.929866
Si Si3 0.947732 0.550820 0.675129
Si Si4 0.039719 0.534419 0.794366
Si Si5 0.571705 0.959891 0.525898
Si Si6 0.324256 0.038635 0.584891
Si Si7 0.321094 0.960865 0.247952
Si Si8 0.176450 0.542475 0.742306
O O1 0.250000 0.475141 0.060754
O O2 0.316993 0.750000 0.086601
O O3 0.389472 0.491829 0.061340
O O4 0.321622 0.490359 0.168704
O O5 0.528132 0.750000 0.919905
O O6 0.498949 0.028881 0.861821
O O7 0.500000 0.000000 0.000000
O O8 0.969520 0.750000 0.661383
O O9 0.929941 0.468602 0.602724
O O10 0.880696 0.549785 0.716014
O O11 0.001081 0.474369 0.726595
O O12 0.038613 0.750000 0.793746
O O13 0.115077 0.478544 0.786664
O O14 0.582159 0.750000 0.529376
O O15 0.625127 0.025777 0.471947
O O16 0.500000 0.000000 0.500000
O O17 0.250000 0.982595 0.570199
O O18 0.325542 0.250000 0.584531
O O19 0.339470 0.983877 0.662289
O O20 0.250000 0.006198 0.276383
O O21 0.328421 0.750000 0.251824
O O22 0.250000 0.470959 0.754069
O O23 0.180087 0.750000 0.754057
#
# Coordination Sequence:
#
# PCOD9448125 Si02
#       8
#     8   8   8   8   8   8   8   8
#     4   9  18  35  58  82 110 143 179 219 265 320
#     4  11  22  37  57  82 114 149 184 223 271 326
#     4  10  19  32  50  73 100 135 178 221 262 311
#     4   9  18  33  52  76 105 133 169 220 267 311
#     4  10  21  34  50  72 101 136 174 217 264 313
#     4   9  18  33  50  71 103 139 173 211 260 315
#     4   9  18  32  50  75 106 135 167 213 263 311
#     4   9  17  32  56  80  99 128 173 220 263 309
#
# _framework density 20.692443999999998
#
# number of rings (size 3 to 8) (size 9 to 14) (size 15 to 20)
#    0.000    2.500    1.250    1.875    0.000    3.000 
#    0.000    5.000    0.000    3.750    0.000    0.000 
#    0.000    0.000    0.000    0.000    0.000    0.000 
#
# Total GULP energy -356753.496399 kJ/mol
# GULP energy per Si atom -5574.273381 kJ/mol
# Density = 2.064535 g / cm^3
# Si number density = 20.692444 Si / 1000 Ang^3
#
#
#
# Elastic Constant Matrix: (Units=GPa)
#
#
# Indices 1 2 3 4 5 6 
#
# 1 175.1739 5.7246 71.8066 0.0000 0.0000 0.0000
# 2 5.7246 33.7584 1.8835 0.0000 0.0000 0.0000
# 3 71.8066 1.8835 62.5781 0.0000 0.0000 0.0000
# 4 0.0000 0.0000 0.0000 15.2020 0.0000 0.0000
# 5 0.0000 0.0000 0.0000 0.0000 35.4324 0.0000
# 6 0.0000 0.0000 0.0000 0.0000 0.0000 19.1131
#
#
#
# Elastic Compliance Matrix: (Units=1/GPa)
#
#
# Indices 1 2 3 4 5 6 
#
# 1 0.010822 -0.001144 -0.012384 0.000000 0.000000 0.000000
# 2 -0.001144 0.029793 0.000416 0.000000 0.000000 0.000000
# 3 -0.012384 0.000416 0.030178 0.000000 0.000000 0.000000
# 4 0.000000 0.000000 0.000000 0.065781 0.000000 0.000000
# 5 0.000000 0.000000 0.000000 0.000000 0.028223 0.000000
# 6 0.000000 0.000000 0.000000 0.000000 0.000000 0.052320
#
#
# Mechanical properties :
#
#
# Convention : Reuss Voigt Hill
#
# Bulk Modulus (GPa) = 22.43694 47.81553 35.12623
# Shear Modulus (GPa) = 19.36504 26.75588 23.06046
#
# Velocity S-wave (km/s) = 3.06249 3.59977 3.34194
# Velocity P-wave (km/s) = 4.83443 6.35890 5.64833
#
# Compressibility (1/GPa) = 0.04456936
#
# Stress axis : x y z
#
# Youngs Moduli (GPa) = 92.40098 33.56488 33.13701
#
# Poissons Ratio (x) = 0.03841 0.41037
# Poissons Ratio (y) = 0.10573 -0.01380
# Poissons Ratio (z) = 1.14429 -0.01397
#
# Static dielectric constant tensor:
#      x y z
#    x 1.774020 0.000000 0.000000 
#    y 0.000000 1.799620 0.000000 
#    z 0.000000 0.000000 1.765370 
# 
# From -- ./inp_files/27949.got.cif
#   From: 2010.05.17/outbox.cif.g08.bks.cpg/sg59_14_cif.got.tgz:27949.got - 2010.06.03 14:40:33.
