data_PCOD9448212
_publ_section_title
;
Structure prediction by ZEFSAII (Michael W. Deem and Ramdas Pophale) SiO2 
 PCOD9448212
Probable space group: P M M N
;
_chemical_formula_sum "Si O2"
_cell_formula_units_Z 48
_cell_length_a 9.382436
_cell_length_b 7.987830
_cell_length_c 35.380190
_cell_angle_alpha 90.000000
_cell_angle_beta 90.000000
_cell_angle_gamma 90.000000
_cell_volume 2651.579086
_symmetry_space_group_name_H-M "P M M N"
_symmetry_group_IT_number 59
_space_group.IT_coordinate_system_code '2'
_symmetry_cell_setting 'orthorhombic'
loop_
_space_group_symop_operation_xyz
x,y,z
1/2-x,1/2-y,z
1/2+x,-y,-z
-x,1/2+y,-z
-x,-y,-z
1/2+x,1/2+y,-z
1/2-x,y,z
x,1/2-y,z
loop_
_atom_site_type_symbol
_atom_site_label
_atom_site_fract_x
_atom_site_fract_y
_atom_site_fract_z
Si Si1 0.415545 0.949952 0.962745
Si Si2 0.588715 0.051105 0.463592
Si Si3 0.078571 0.250000 0.250565
Si Si4 0.412674 0.049332 0.618244
Si Si5 0.579268 0.445891 0.693585
Si Si6 0.576987 0.250000 0.170650
Si Si7 0.423378 0.435692 0.880763
O O1 0.250000 0.999235 0.967466
O O2 0.420654 0.750000 0.957685
O O3 0.470423 0.031243 0.923882
O O4 0.500000 0.000000 0.000000
O O5 0.750000 0.980448 0.465856
O O6 0.597464 0.250000 0.463554
O O7 0.500000 0.000000 0.500000
O O8 0.527826 0.998998 0.422818
O O9 0.250000 0.250000 0.244632
O O10 0.042763 0.417876 0.274462
O O11 0.995741 0.250000 0.211262
O O12 0.250000 0.983301 0.620833
O O13 0.406195 0.250000 0.619089
O O14 0.504326 0.000395 0.654517
O O15 0.750000 0.449919 0.688675
O O16 0.540449 0.250000 0.702005
O O17 0.750000 0.250000 0.174027
O O18 0.533742 0.414435 0.146781
O O19 0.250000 0.440275 0.881795
O O20 0.467376 0.250000 0.868395
#
# Coordination Sequence:
#
# PCOD9448212 Si02
#       7
#     8   8   4   8   8   4   8
#     4  10  19  32  51  77 109 143 182 227 272 321
#     4  10  21  35  51  74 104 139 178 218 261 311
#     4  10  22  38  56  80 110 140 172 216 272 322
#     4   9  18  33  53  77 105 134 167 214 266 307
#     4   9  19  36  56  78 106 139 174 210 256 321
#     4  10  20  36  56  80 104 136 182 222 260 320
#     4   9  17  32  54  77 105 140 177 221 270 315
#
# _framework density 18.102422000000001
#
# number of rings (size 3 to 8) (size 9 to 14) (size 15 to 20)
#    0.000    2.500    0.833    1.000    1.167    4.000 
#    0.000    2.500    0.000    1.000    0.000    0.000 
#    0.000    0.000    0.000    0.000    0.000    0.000 
#
# Total GULP energy -267629.565122 kJ/mol
# GULP energy per Si atom -5575.615940 kJ/mol
# Density = 1.806122 g / cm^3
# Si number density = 18.102422 Si / 1000 Ang^3
#
#
#
# Elastic Constant Matrix: (Units=GPa)
#
#
# Indices 1 2 3 4 5 6 
#
# 1 24.3161 29.1429 51.5131 0.0000 0.0000 0.0000
# 2 29.1429 103.1413 82.6877 0.0000 0.0000 0.0000
# 3 51.5131 82.6877 184.1496 0.0000 0.0000 0.0000
# 4 0.0000 0.0000 0.0000 32.9634 0.0000 0.0000
# 5 0.0000 0.0000 0.0000 0.0000 35.3167 0.0000
# 6 0.0000 0.0000 0.0000 0.0000 0.0000 14.9274
#
#
#
# Elastic Compliance Matrix: (Units=1/GPa)
#
#
# Indices 1 2 3 4 5 6 
#
# 1 0.106854 -0.009732 -0.025521 0.000000 0.000000 0.000000
# 2 -0.009732 0.016035 -0.004478 0.000000 0.000000 0.000000
# 3 -0.025521 -0.004478 0.014580 0.000000 0.000000 0.000000
# 4 0.000000 0.000000 0.000000 0.030337 0.000000 0.000000
# 5 0.000000 0.000000 0.000000 0.000000 0.028315 0.000000
# 6 0.000000 0.000000 0.000000 0.000000 0.000000 0.066991
#
#
# Mechanical properties :
#
#
# Convention : Reuss Voigt Hill
#
# Bulk Modulus (GPa) = 17.23901 70.92162 44.08032
# Shear Modulus (GPa) = 13.81560 26.52572 20.17066
#
# Velocity S-wave (km/s) = 2.76559 3.83209 3.34166
# Velocity P-wave (km/s) = 4.44316 7.67092 6.26836
#
# Compressibility (1/GPa) = 0.05800796
#
# Stress axis : x y z
#
# Youngs Moduli (GPa) = 9.35853 62.36346 68.58670
#
# Poissons Ratio (x) = 0.60693 1.75040
# Poissons Ratio (y) = 0.09108 0.30711
# Poissons Ratio (z) = 0.23884 0.27925
#
# Static dielectric constant tensor:
#      x y z
#    x 1.616710 0.000000 0.000000 
#    y 0.000000 1.619920 0.000000 
#    z 0.000000 0.000000 1.598270 
# 
# From -- ./inp_files/32939.got.cif
#   From: 2010.05.17/outbox.cif.g08.bks.cpg/sg59_17_cif.got.tgz:32939.got - 2010.06.03 14:40:33.
