data_PCOD9448153
_publ_section_title
;
Structure prediction by ZEFSAII (Michael W. Deem and Ramdas Pophale) SiO2 
 PCOD9448153
Probable space group: P M M N
;
_chemical_formula_sum "Si O2"
_cell_formula_units_Z 64
_cell_length_a 7.445205
_cell_length_b 19.173782
_cell_length_c 20.734319
_cell_angle_alpha 90.000000
_cell_angle_beta 90.000000
_cell_angle_gamma 90.000000
_cell_volume 2959.880800
_symmetry_space_group_name_H-M "P M M N"
_symmetry_group_IT_number 59
_space_group.IT_coordinate_system_code '2'
_symmetry_cell_setting 'orthorhombic'
loop_
_space_group_symop_operation_xyz
x,y,z
1/2-x,1/2-y,z
1/2+x,-y,-z
-x,1/2+y,-z
-x,-y,-z
1/2+x,1/2+y,-z
1/2-x,y,z
x,1/2-y,z
loop_
_atom_site_type_symbol
_atom_site_label
_atom_site_fract_x
_atom_site_fract_y
_atom_site_fract_z
Si Si1 0.464215 0.034025 0.777001
Si Si2 0.469783 0.170858 0.524195
Si Si3 0.465225 0.554593 0.082262
Si Si4 0.454245 0.604594 0.951737
Si Si5 0.467463 0.879662 0.815511
Si Si6 0.961232 0.823400 0.682137
Si Si7 0.042708 0.414823 0.640127
Si Si8 0.967416 0.562587 0.586576
O O1 0.250000 0.027231 0.768955
O O2 0.496267 0.074716 0.844074
O O3 0.536208 0.066048 0.710318
O O4 0.533975 0.956035 0.792194
O O5 0.250000 0.170565 0.523329
O O6 0.525020 0.250000 0.508777
O O7 0.532296 0.145918 0.594807
O O8 0.523571 0.111215 0.473104
O O9 0.250000 0.547639 0.075224
O O10 0.546164 0.477847 0.068409
O O11 0.531104 0.603894 0.023924
O O12 0.250000 0.630367 0.957259
O O13 0.535445 0.637834 0.887230
O O14 0.250000 0.882502 0.819553
O O15 0.516873 0.828811 0.758273
O O16 0.750000 0.822641 0.666407
O O17 0.037830 0.750000 0.658488
O O18 0.030977 0.892532 0.648323
O O19 0.250000 0.396063 0.651987
O O20 0.037766 0.484934 0.596436
O O21 0.750000 0.556279 0.585136
#
# Coordination Sequence:
#
# PCOD9448153 Si02
#       8
#     8   8   8   8   8   8   8   8
#     4   9  17  28  41  62  94 123 149 190 237 276
#     4   9  18  33  53  75  97 125 161 198 239 288
#     4   9  15  23  39  62  87 117 152 187 226 276
#     4   8  15  26  38  57  87 119 150 188 230 272
#     4   9  16  28  43  59  86 121 154 192 233 277
#     4  10  20  31  43  63  92 124 158 197 240 286
#     4  10  19  32  51  73  98 128 161 198 238 285
#     4  10  19  32  51  73  97 124 157 199 242 287
#
# _framework density 21.622492999999999
#
# number of rings (size 3 to 8) (size 9 to 14) (size 15 to 20)
#    0.000    2.750    1.250    1.875    0.000    4.750 
#    0.000    0.000    0.000    2.250    0.000    0.875 
#    0.000    3.000    0.000    0.000    0.000    0.000 
#
# Total GULP energy -356680.159617 kJ/mol
# GULP energy per Si atom -5573.127494 kJ/mol
# Density = 2.157328 g / cm^3
# Si number density = 21.622493 Si / 1000 Ang^3
#
#
#
# Elastic Constant Matrix: (Units=GPa)
#
#
# Indices 1 2 3 4 5 6 
#
# 1 70.5399 -10.1161 -10.0566 0.0000 0.0000 0.0000
# 2 -10.1161 29.6560 29.4270 0.0000 0.0000 0.0000
# 3 -10.0566 29.4270 151.6218 0.0000 0.0000 0.0000
# 4 0.0000 0.0000 0.0000 -30.3564 0.0000 0.0000
# 5 0.0000 0.0000 0.0000 0.0000 -5.4009 0.0000
# 6 0.0000 0.0000 0.0000 0.0000 0.0000 5.0402
#
#
#
# Elastic Compliance Matrix: (Units=1/GPa)
#
#
# Indices 1 2 3 4 5 6 
#
# 1 0.014906 0.005082 0.000002 0.000000 0.000000 0.000000
# 2 0.005082 0.043496 -0.008105 0.000000 0.000000 0.000000
# 3 0.000002 -0.008105 0.008168 0.000000 0.000000 0.000000
# 4 0.000000 0.000000 0.000000 -0.032942 0.000000 0.000000
# 5 0.000000 0.000000 0.000000 0.000000 -0.185154 0.000000
# 6 0.000000 0.000000 0.000000 0.000000 0.000000 0.198404
#
#
# Mechanical properties :
#
#
# Convention : Reuss Voigt Hill
#
# Bulk Modulus (GPa) = 16.52084 30.03625 23.27855
# Shear Modulus (GPa) = 68.40463 10.02747 39.21605
#
# Velocity S-wave (km/s) = 5.63068 2.15583 4.26334
# Velocity P-wave (km/s) = 7.06611 4.48533 5.91811
#
# Compressibility (1/GPa) = 0.06052961
#
# Stress axis : x y z
#
# Youngs Moduli (GPa) = 67.08912 22.99073 122.42188
#
# Poissons Ratio (x) = -0.11685 -0.00028
# Poissons Ratio (y) = -0.34097 0.99219
# Poissons Ratio (z) = -0.00015 0.18633
#
# Static dielectric constant tensor:
#      x y z
#    x 1.838600 0.000000 0.000000 
#    y 0.000000 1.701220 0.000000 
#    z 0.000000 0.000000 1.870740 
# 
# From -- ./inp_files/29479.got.cif
#   From: 2010.05.17/outbox.cif.g08.bks.cpg/sg59_15_cif.got.tgz:29479.got - 2010.06.03 14:40:33.
