data_PCOD9448477
_publ_section_title
;
Structure prediction by ZEFSAII (Michael W. Deem and Ramdas Pophale) SiO2 
 PCOD9448477
Probable space group: P M M N
;
_chemical_formula_sum "Si O2"
_cell_formula_units_Z 56
_cell_length_a 10.453270
_cell_length_b 18.914778
_cell_length_c 16.846767
_cell_angle_alpha 90.000000
_cell_angle_beta 90.000000
_cell_angle_gamma 90.000000
_cell_volume 3330.964359
_symmetry_space_group_name_H-M "P M M N"
_symmetry_group_IT_number 59
_space_group.IT_coordinate_system_code '2'
_symmetry_cell_setting 'orthorhombic'
loop_
_space_group_symop_operation_xyz
x,y,z
1/2-x,1/2-y,z
1/2+x,-y,-z
-x,1/2+y,-z
-x,-y,-z
1/2+x,1/2+y,-z
1/2-x,y,z
x,1/2-y,z
loop_
_atom_site_type_symbol
_atom_site_label
_atom_site_fract_x
_atom_site_fract_y
_atom_site_fract_z
Si Si1 0.901938 0.520630 0.068743
Si Si2 0.097997 0.541566 0.760960
Si Si3 0.610652 0.170426 0.720859
Si Si4 0.519843 0.451127 0.619369
Si Si5 0.098866 0.666335 0.647075
Si Si6 0.392385 0.408595 0.462690
Si Si7 0.896285 0.830160 0.145956
O O1 0.750000 0.505834 0.052467
O O2 0.941020 0.479532 0.150080
O O3 0.912367 0.604617 0.086465
O O4 0.000000 0.500000 0.000000
O O5 0.250000 0.533560 0.760630
O O6 0.069398 0.619606 0.725870
O O7 0.042859 0.488034 0.695788
O O8 0.750000 0.163694 0.760517
O O9 0.600088 0.250000 0.688852
O O10 0.600490 0.113565 0.652130
O O11 0.497832 0.160981 0.783876
O O12 0.420671 0.420559 0.555340
O O13 0.596971 0.513281 0.575859
O O14 0.250000 0.653657 0.627562
O O15 0.082011 0.750000 0.658656
O O16 0.004036 0.637051 0.579074
O O17 0.250000 0.379818 0.449316
O O18 0.750000 0.835314 0.176543
O O19 0.912076 0.750000 0.113561
#
# Coordination Sequence:
#
# PCOD9448477 Si02
#       7
#     8   8   8   8   8   8   8
#     4  10  20  35  55  82 111 139 175 220 266 316
#     4   9  17  33  56  77 100 135 180 220 258 313
#     4  10  20  32  49  75 104 133 168 212 259 309
#     4  10  19  33  51  73 105 140 178 215 265 319
#     4   9  19  36  56  76 103 141 180 221 272 324
#     4  10  21  33  51  77 104 138 181 228 269 309
#     4   9  18  34  55  77 105 140 172 205 253 313
#
# _framework density 16.811948999999998
#
# number of rings (size 3 to 8) (size 9 to 14) (size 15 to 20)
#    0.000    2.429    1.429    0.857    0.000    6.000 
#    0.000    2.857    0.000    0.857    0.000    0.000 
#    0.000    0.000    0.000    0.000    0.000    0.000 
#
# Total GULP energy -311849.149987 kJ/mol
# GULP energy per Si atom -5568.734821 kJ/mol
# Density = 1.677368 g / cm^3
# Si number density = 16.811949 Si / 1000 Ang^3
#
#
#
# Elastic Constant Matrix: (Units=GPa)
#
#
# Indices 1 2 3 4 5 6 
#
# 1 92.0022 59.9507 62.8891 0.0000 0.0000 0.0000
# 2 59.9507 113.3457 47.6646 0.0000 0.0000 0.0000
# 3 62.8891 47.6646 105.3051 0.0000 0.0000 0.0000
# 4 0.0000 0.0000 0.0000 14.7734 0.0000 0.0000
# 5 0.0000 0.0000 0.0000 0.0000 10.9693 0.0000
# 6 0.0000 0.0000 0.0000 0.0000 0.0000 7.7580
#
#
#
# Elastic Compliance Matrix: (Units=1/GPa)
#
#
# Indices 1 2 3 4 5 6 
#
# 1 0.022913 -0.007861 -0.010126 0.000000 0.000000 0.000000
# 2 -0.007861 0.013594 -0.001458 0.000000 0.000000 0.000000
# 3 -0.010126 -0.001458 0.016203 0.000000 0.000000 0.000000
# 4 0.000000 0.000000 0.000000 0.067689 0.000000 0.000000
# 5 0.000000 0.000000 0.000000 0.000000 0.091164 0.000000
# 6 0.000000 0.000000 0.000000 0.000000 0.000000 0.128899
#
#
# Mechanical properties :
#
#
# Convention : Reuss Voigt Hill
#
# Bulk Modulus (GPa) = 72.35811 72.40685 72.38248
# Shear Modulus (GPa) = 13.02219 16.04338 14.53279
#
# Velocity S-wave (km/s) = 2.78615 3.09250 2.94331
# Velocity P-wave (km/s) = 7.31323 7.47754 7.39584
#
# Compressibility (1/GPa) = 0.01382015
#
# Stress axis : x y z
#
# Youngs Moduli (GPa) = 43.64240 73.56342 61.71506
#
# Poissons Ratio (x) = 0.57830 0.62492
# Poissons Ratio (y) = 0.34308 0.08999
# Poissons Ratio (z) = 0.44192 0.10727
#
# Static dielectric constant tensor:
#      x y z
#    x 1.579170 0.000000 0.000000 
#    y 0.000000 1.590930 0.000000 
#    z 0.000000 0.000000 1.550260 
# 
# From -- ./inp_files/26108.got.cif
#   From: 2010.05.17/outbox.cif.g08.bks.cpg/sg59_14_cif.got.tgz:26108.got - 2010.06.03 14:40:33.
