data_PCOD9448967
_publ_section_title
;
Structure prediction by ZEFSAII (Michael W. Deem and Ramdas Pophale) SiO2 
 PCOD9448967
Probable space group: P M M N
;
_chemical_formula_sum "Si O2"
_cell_formula_units_Z 64
_cell_length_a 19.548043
_cell_length_b 8.720428
_cell_length_c 19.721775
_cell_angle_alpha 90.000000
_cell_angle_beta 90.000000
_cell_angle_gamma 90.000000
_cell_volume 3361.917765
_symmetry_space_group_name_H-M "P M M N"
_symmetry_group_IT_number 59
_space_group.IT_coordinate_system_code '2'
_symmetry_cell_setting 'orthorhombic'
loop_
_space_group_symop_operation_xyz
x,y,z
1/2-x,1/2-y,z
1/2+x,-y,-z
-x,1/2+y,-z
-x,-y,-z
1/2+x,1/2+y,-z
1/2-x,y,z
x,1/2-y,z
loop_
_atom_site_type_symbol
_atom_site_label
_atom_site_fract_x
_atom_site_fract_y
_atom_site_fract_z
Si Si1 0.170997 0.564686 0.197508
Si Si2 0.588225 0.567645 0.929030
Si Si3 0.548035 0.432615 0.709736
Si Si4 0.826859 0.563592 0.486155
Si Si5 0.832350 0.928395 0.335723
Si Si6 0.542700 0.566470 0.562873
Si Si7 0.073389 0.566556 0.929618
Si Si8 0.919652 0.431473 0.219045
O O1 0.250000 0.512741 0.202897
O O2 0.171163 0.750000 0.197127
O O3 0.134778 0.508973 0.128327
O O4 0.121062 0.515445 0.259341
O O5 0.593575 0.750000 0.921934
O O6 0.507480 0.526077 0.922599
O O7 0.605243 0.515824 0.005533
O O8 0.549080 0.250000 0.703111
O O9 0.528198 0.503000 0.637224
O O10 0.489470 0.482563 0.762101
O O11 0.750000 0.507842 0.497283
O O12 0.824527 0.750000 0.482765
O O13 0.851719 0.515412 0.411221
O O14 0.879373 0.521973 0.544140
O O15 0.750000 0.932278 0.333315
O O16 0.853937 0.750000 0.328726
O O17 0.865672 0.024730 0.276439
O O18 0.500000 0.500000 0.500000
O O19 0.535797 0.750000 0.562939
O O20 0.077187 0.750000 0.940563
O O21 0.104701 0.527682 0.856573
O O22 0.933560 0.250000 0.219457
#
# Coordination Sequence:
#
# PCOD9448967 Si02
#       8
#     8   8   8   8   8   8   8   8
#     4  10  22  40  60  82 114 157 199 241 293 348
#     4  10  19  34  57  84 111 141 185 233 279 334
#     4  11  23  38  57  81 113 151 192 233 284 344
#     4   8  16  33  55  76 100 136 180 222 269 327
#     4   9  18  34  56  81 110 144 182 225 277 339
#     4  11  22  36  57  84 114 145 183 234 288 342
#     4   9  19  34  54  81 113 145 181 227 280 334
#     4  11  21  35  56  83 114 146 186 235 280 331
#
# _framework density 19.036753999999998
#
# number of rings (size 3 to 8) (size 9 to 14) (size 15 to 20)
#    0.000    2.125    1.250    3.000    0.000    4.000 
#    0.000    1.250    0.000    3.375    0.000    0.000 
#    0.000    0.000    0.000    0.000    0.000    0.000 
#
# Total GULP energy -357135.213226 kJ/mol
# GULP energy per Si atom -5580.237707 kJ/mol
# Density = 1.899343 g / cm^3
# Si number density = 19.036754 Si / 1000 Ang^3
#
#
#
# Elastic Constant Matrix: (Units=GPa)
#
#
# Indices 1 2 3 4 5 6 
#
# 1 43.1141 12.2261 18.1495 0.0000 0.0000 0.0000
# 2 12.2261 32.2565 22.4078 0.0000 0.0000 0.0000
# 3 18.1495 22.4078 99.6872 0.0000 0.0000 0.0000
# 4 0.0000 0.0000 0.0000 25.8612 0.0000 0.0000
# 5 0.0000 0.0000 0.0000 0.0000 27.8422 0.0000
# 6 0.0000 0.0000 0.0000 0.0000 0.0000 19.5273
#
#
#
# Elastic Compliance Matrix: (Units=1/GPa)
#
#
# Indices 1 2 3 4 5 6 
#
# 1 0.026758 -0.008008 -0.003072 0.000000 0.000000 0.000000
# 2 -0.008008 0.039135 -0.007339 0.000000 0.000000 0.000000
# 3 -0.003072 -0.007339 0.012240 0.000000 0.000000 0.000000
# 4 0.000000 0.000000 0.000000 0.038668 0.000000 0.000000
# 5 0.000000 0.000000 0.000000 0.000000 0.035917 0.000000
# 6 0.000000 0.000000 0.000000 0.000000 0.000000 0.051210
#
#
# Mechanical properties :
#
#
# Convention : Reuss Voigt Hill
#
# Bulk Modulus (GPa) = 24.21540 31.18049 27.69794
# Shear Modulus (GPa) = 19.64396 22.79776 21.22086
#
# Velocity S-wave (km/s) = 3.21580 3.46434 3.34238
# Velocity P-wave (km/s) = 5.15135 5.69358 5.42924
#
# Compressibility (1/GPa) = 0.04129603
#
# Stress axis : x y z
#
# Youngs Moduli (GPa) = 37.37160 25.55265 81.69790
#
# Poissons Ratio (x) = 0.20463 0.25094
# Poissons Ratio (y) = 0.29928 0.59956
# Poissons Ratio (z) = 0.11479 0.18752
#
# Static dielectric constant tensor:
#      x y z
#    x 1.677890 0.000000 0.000000 
#    y 0.000000 1.648130 0.000000 
#    z 0.000000 0.000000 1.656430 
# 
# From -- ./inp_files/28134.got.cif
#   From: 2010.05.17/outbox.cif.g08.bks.cpg/sg59_15_cif.got.tgz:28134.got - 2010.06.03 14:40:33.
