data_PCOD9448087
_publ_section_title
;
Structure prediction by ZEFSAII (Michael W. Deem and Ramdas Pophale) SiO2 
 PCOD9448087
Probable space group: P M M N
;
_chemical_formula_sum "Si O2"
_cell_formula_units_Z 64
_cell_length_a 8.761099
_cell_length_b 19.957465
_cell_length_c 19.434687
_cell_angle_alpha 90.000000
_cell_angle_beta 90.000000
_cell_angle_gamma 90.000000
_cell_volume 3398.141936
_symmetry_space_group_name_H-M "P M M N"
_symmetry_group_IT_number 59
_space_group.IT_coordinate_system_code '2'
_symmetry_cell_setting 'orthorhombic'
loop_
_space_group_symop_operation_xyz
x,y,z
1/2-x,1/2-y,z
1/2+x,-y,-z
-x,1/2+y,-z
-x,-y,-z
1/2+x,1/2+y,-z
1/2-x,y,z
x,1/2-y,z
loop_
_atom_site_type_symbol
_atom_site_label
_atom_site_fract_x
_atom_site_fract_y
_atom_site_fract_z
Si Si1 0.067441 0.328284 0.415623
Si Si2 0.433171 0.174638 0.006017
Si Si3 0.065884 0.173363 0.706768
Si Si4 0.936002 0.542334 0.217275
Si Si5 0.065436 0.590482 0.711299
Si Si6 0.430171 0.670484 0.847573
Si Si7 0.434206 0.041692 0.936631
Si Si8 0.075685 0.668809 0.439279
O O1 0.250000 0.329691 0.416767
O O2 0.020031 0.250000 0.404432
O O3 0.005054 0.374827 0.355120
O O4 0.004520 0.351194 0.489772
O O5 0.250000 0.177562 0.006172
O O6 0.492227 0.250000 0.993521
O O7 0.477584 0.119022 0.950952
O O8 0.486832 0.152476 0.081736
O O9 0.250000 0.174754 0.707442
O O10 0.013099 0.250000 0.720211
O O11 0.014587 0.116485 0.760132
O O12 0.011539 0.151762 0.630791
O O13 0.750000 0.542676 0.215584
O O14 0.980093 0.485946 0.272543
O O15 0.985588 0.522857 0.140162
O O16 0.250000 0.593757 0.705704
O O17 0.019824 0.631708 0.779717
O O18 0.250000 0.657188 0.857118
O O19 0.451123 0.750000 0.836872
O O20 0.250000 0.035907 0.938862
O O21 0.500000 0.000000 0.000000
O O22 0.250000 0.645058 0.437162
O O23 0.077202 0.750000 0.440622
#
# Coordination Sequence:
#
# PCOD9448087 Si02
#       8
#     8   8   8   8   8   8   8   8
#     4  10  20  33  51  77 106 134 166 204 244 288
#     4   9  18  31  48  72  99 125 158 205 256 301
#     4   9  17  32  55  79 102 130 166 209 256 304
#     4   9  19  34  52  75 101 131 168 209 253 301
#     4  10  19  32  49  69  98 134 171 209 246 290
#     4   9  17  29  47  70  96 130 168 203 245 299
#     4  10  20  35  54  74  99 133 171 209 251 301
#     4   9  17  31  53  79 105 133 166 204 246 294
#
# _framework density 18.833822000000001
#
# number of rings (size 3 to 8) (size 9 to 14) (size 15 to 20)
#    0.000    2.625    0.000    1.875    0.000    5.250 
#    0.000    6.250    0.000    0.000    0.000    3.500 
#    0.000    0.000    0.000    0.000    0.000    0.000 
#
# Total GULP energy -356860.326071 kJ/mol
# GULP energy per Si atom -5575.942595 kJ/mol
# Density = 1.879096 g / cm^3
# Si number density = 18.833822 Si / 1000 Ang^3
#
#
#
# Elastic Constant Matrix: (Units=GPa)
#
#
# Indices 1 2 3 4 5 6 
#
# 1 9.4433 18.6062 13.4325 0.0000 0.0000 0.0000
# 2 18.6062 68.9001 48.2361 0.0000 0.0000 0.0000
# 3 13.4325 48.2361 95.5557 0.0000 0.0000 0.0000
# 4 0.0000 0.0000 0.0000 30.5665 0.0000 0.0000
# 5 0.0000 0.0000 0.0000 0.0000 25.4862 0.0000
# 6 0.0000 0.0000 0.0000 0.0000 0.0000 14.5194
#
#
#
# Elastic Compliance Matrix: (Units=1/GPa)
#
#
# Indices 1 2 3 4 5 6 
#
# 1 0.226442 -0.060107 -0.001490 0.000000 0.000000 0.000000
# 2 -0.060107 0.038401 -0.010935 0.000000 0.000000 0.000000
# 3 -0.001490 -0.010935 0.016195 0.000000 0.000000 0.000000
# 4 0.000000 0.000000 0.000000 0.032716 0.000000 0.000000
# 5 0.000000 0.000000 0.000000 0.000000 0.039237 0.000000
# 6 0.000000 0.000000 0.000000 0.000000 0.000000 0.068873
#
#
# Mechanical properties :
#
#
# Convention : Reuss Voigt Hill
#
# Bulk Modulus (GPa) = 7.35435 37.16096 22.25766
# Shear Modulus (GPa) = 8.16658 20.35605 14.26131
#
# Velocity S-wave (km/s) = 2.08459 3.29116 2.75475
# Velocity P-wave (km/s) = 3.11567 5.84945 4.68633
#
# Compressibility (1/GPa) = 0.13597391
#
# Stress axis : x y z
#
# Youngs Moduli (GPa) = 4.41614 26.04100 61.74883
#
# Poissons Ratio (x) = 1.56524 0.09200
# Poissons Ratio (y) = 0.26544 0.67524
# Poissons Ratio (z) = 0.00658 0.28477
#
# Static dielectric constant tensor:
#      x y z
#    x 1.643320 0.000000 0.000000 
#    y 0.000000 1.682840 0.000000 
#    z 0.000000 0.000000 1.626270 
# 
# From -- ./inp_files/26244.got.cif
#   From: 2010.05.17/outbox.cif.g08.bks.cpg/sg59_14_cif.got.tgz:26244.got - 2010.06.03 14:40:33.
