data_PCOD9448392
_publ_section_title
;
Structure prediction by ZEFSAII (Michael W. Deem and Ramdas Pophale) SiO2 
 PCOD9448392
Probable space group: P M M N
;
_chemical_formula_sum "Si O2"
_cell_formula_units_Z 64
_cell_length_a 7.458956
_cell_length_b 19.043683
_cell_length_c 20.577292
_cell_angle_alpha 90.000000
_cell_angle_beta 90.000000
_cell_angle_gamma 90.000000
_cell_volume 2922.921887
_symmetry_space_group_name_H-M "P M M N"
_symmetry_group_IT_number 59
_space_group.IT_coordinate_system_code '2'
_symmetry_cell_setting 'orthorhombic'
loop_
_space_group_symop_operation_xyz
x,y,z
1/2-x,1/2-y,z
1/2+x,-y,-z
-x,1/2+y,-z
-x,-y,-z
1/2+x,1/2+y,-z
1/2-x,y,z
x,1/2-y,z
loop_
_atom_site_type_symbol
_atom_site_label
_atom_site_fract_x
_atom_site_fract_y
_atom_site_fract_z
Si Si1 0.967115 0.935239 0.286013
Si Si2 0.466146 0.421402 0.861366
Si Si3 0.965055 0.579943 0.521662
Si Si4 0.530711 0.669540 0.399227
Si Si5 0.532231 0.830192 0.794178
Si Si6 0.041404 0.568230 0.913722
Si Si7 0.537225 0.328135 0.978446
Si Si8 0.960165 0.907504 0.666870
O O1 0.750000 0.935136 0.286014
O O2 0.029107 0.919820 0.212902
O O3 0.026697 0.877827 0.338376
O O4 0.023912 0.012630 0.308304
O O5 0.250000 0.426129 0.858645
O O6 0.535862 0.492185 0.896422
O O7 0.512629 0.355219 0.905457
O O8 0.750000 0.587118 0.524470
O O9 0.029585 0.632178 0.465609
O O10 0.036280 0.595209 0.593991
O O11 0.000000 0.500000 0.500000
O O12 0.750000 0.669054 0.399424
O O13 0.473594 0.750000 0.394702
O O14 0.750000 0.832398 0.794762
O O15 0.477120 0.750000 0.806585
O O16 0.469172 0.883103 0.849901
O O17 0.467990 0.857700 0.723903
O O18 0.250000 0.555738 0.929674
O O19 0.961209 0.613185 0.972671
O O20 0.750000 0.324446 0.991459
O O21 0.463853 0.250000 0.988784
O O22 0.750000 0.889838 0.661545
#
# Coordination Sequence:
#
# PCOD9448392 Si02
#       8
#     8   8   8   8   8   8   8   8
#     4  10  19  34  56  81 107 138 180 225 266 318
#     4  10  21  35  56  84 108 138 183 229 271 319
#     4  10  19  32  54  79 104 140 181 220 263 316
#     4   9  18  32  52  79 108 140 179 222 267 312
#     4  10  21  35  52  79 113 145 177 217 268 322
#     4  10  20  37  59  82 108 141 182 224 268 323
#     4  10  22  38  55  78 110 146 181 220 271 328
#     4  10  20  33  52  79 108 140 177 220 268 317
#
# _framework density 21.895897999999999
#
# number of rings (size 3 to 8) (size 9 to 14) (size 15 to 20)
#    0.000    2.125    2.500    0.750    0.000    3.500 
#    0.000    3.750    0.000    1.500    0.000    1.750 
#    0.000    0.000    0.000    0.000    0.000    0.000 
#
# Total GULP energy -357658.961453 kJ/mol
# GULP energy per Si atom -5588.421273 kJ/mol
# Density = 2.184606 g / cm^3
# Si number density = 21.895898 Si / 1000 Ang^3
#
#
#
# Elastic Constant Matrix: (Units=GPa)
#
#
# Indices 1 2 3 4 5 6 
#
# 1 65.2997 -9.1143 -3.7891 0.0000 0.0000 0.0000
# 2 -9.1143 62.4951 5.5532 0.0000 0.0000 0.0000
# 3 -3.7891 5.5532 114.4952 0.0000 0.0000 0.0000
# 4 0.0000 0.0000 0.0000 30.7953 0.0000 0.0000
# 5 0.0000 0.0000 0.0000 0.0000 -28.2655 0.0000
# 6 0.0000 0.0000 0.0000 0.0000 0.0000 10.0146
#
#
#
# Elastic Compliance Matrix: (Units=1/GPa)
#
#
# Indices 1 2 3 4 5 6 
#
# 1 0.015651 0.002246 0.000409 0.000000 0.000000 0.000000
# 2 0.002246 0.016393 -0.000721 0.000000 0.000000 0.000000
# 3 0.000409 -0.000721 0.008782 0.000000 0.000000 0.000000
# 4 0.000000 0.000000 0.000000 0.032473 0.000000 0.000000
# 5 0.000000 0.000000 0.000000 0.000000 -0.035379 0.000000
# 6 0.000000 0.000000 0.000000 0.000000 0.000000 0.099854
#
#
# Mechanical properties :
#
#
# Convention : Reuss Voigt Hill
#
# Bulk Modulus (GPa) = 22.37351 25.28771 23.83061
# Shear Modulus (GPa) = 33.60121 19.15156 26.37639
#
# Velocity S-wave (km/s) = 3.92163 2.96068 3.47454
# Velocity P-wave (km/s) = 5.54490 4.82303 5.19652
#
# Compressibility (1/GPa) = 0.04469571
#
# Stress axis : x y z
#
# Youngs Moduli (GPa) = 63.89257 61.00202 113.86306
#
# Poissons Ratio (x) = -0.13703 -0.04657
# Poissons Ratio (y) = -0.14352 0.08207
# Poissons Ratio (z) = -0.02613 0.04397
#
# Static dielectric constant tensor:
#      x y z
#    x 1.842890 0.000000 0.000000 
#    y 0.000000 1.746340 0.000000 
#    z 0.000000 0.000000 1.789630 
# 
# From -- ./inp_files/29414.got.cif
#   From: 2010.05.17/outbox.cif.g08.bks.cpg/sg59_15_cif.got.tgz:29414.got - 2010.06.03 14:40:33.
