data_PCOD9448802
_publ_section_title
;
Structure prediction by ZEFSAII (Michael W. Deem and Ramdas Pophale) SiO2 
 PCOD9448802
Probable space group: P M M N
;
_chemical_formula_sum "Si O2"
_cell_formula_units_Z 56
_cell_length_a 13.119749
_cell_length_b 16.175256
_cell_length_c 14.367061
_cell_angle_alpha 90.000000
_cell_angle_beta 90.000000
_cell_angle_gamma 90.000000
_cell_volume 3048.910142
_symmetry_space_group_name_H-M "P M M N"
_symmetry_group_IT_number 59
_space_group.IT_coordinate_system_code '2'
_symmetry_cell_setting 'orthorhombic'
loop_
_space_group_symop_operation_xyz
x,y,z
1/2-x,1/2-y,z
1/2+x,-y,-z
-x,1/2+y,-z
-x,-y,-z
1/2+x,1/2+y,-z
1/2-x,y,z
x,1/2-y,z
loop_
_atom_site_type_symbol
_atom_site_label
_atom_site_fract_x
_atom_site_fract_y
_atom_site_fract_z
Si Si1 0.135385 0.651805 0.329594
Si Si2 0.866642 0.999294 0.328247
Si Si3 0.131177 0.105454 0.168976
Si Si4 0.014307 0.560999 0.168782
Si Si5 0.563409 0.654350 0.444530
Si Si6 0.994973 0.656378 0.649363
Si Si7 0.634215 0.843950 0.037881
O O1 0.250000 0.618227 0.344718
O O2 0.142849 0.750000 0.321263
O O3 0.084245 0.617372 0.235737
O O4 0.053946 0.636980 0.412129
O O5 0.750000 0.018182 0.311661
O O6 0.924414 0.082185 0.360086
O O7 0.923980 0.971397 0.235028
O O8 0.876294 0.920286 0.396809
O O9 0.250000 0.098563 0.193909
O O10 0.069712 0.140792 0.257016
O O11 0.123111 0.156164 0.073616
O O12 0.083944 0.016557 0.143178
O O13 0.957249 0.606178 0.085085
O O14 0.587298 0.750000 0.414574
O O15 0.571745 0.651495 0.555506
O O16 0.038069 0.750000 0.651883
O O17 0.750000 0.875946 0.057561
O O18 0.629840 0.750000 0.073217
#
# Coordination Sequence:
#
# PCOD9448802 Si02
#       7
#     8   8   8   8   8   8   8
#     4   9  17  30  50  77 107 138 175 219 266 320
#     4  10  21  35  52  77 108 140 177 221 267 321
#     4  10  21  36  55  79 106 138 179 224 267 316
#     4  10  19  34  53  76 105 138 172 216 270 323
#     4   9  19  35  54  79 110 142 178 222 272 323
#     4  10  21  37  56  78 107 144 184 225 268 315
#     4  10  20  34  54  79 105 136 175 218 266 321
#
# _framework density 18.367218999999999
#
# number of rings (size 3 to 8) (size 9 to 14) (size 15 to 20)
#    0.000    2.286    0.000    2.571    0.000    3.143 
#    0.000    2.857    0.000    0.857    0.000    0.000 
#    0.000    0.000    0.000    0.000    0.000    0.000 
#
# Total GULP energy -312099.430270 kJ/mol
# GULP energy per Si atom -5573.204112 kJ/mol
# Density = 1.832541 g / cm^3
# Si number density = 18.367219 Si / 1000 Ang^3
#
#
#
# Elastic Constant Matrix: (Units=GPa)
#
#
# Indices 1 2 3 4 5 6 
#
# 1 55.9379 28.6390 9.8563 0.0000 0.0000 0.0000
# 2 28.6390 69.1202 15.9167 0.0000 0.0000 0.0000
# 3 9.8563 15.9167 51.9018 0.0000 0.0000 0.0000
# 4 0.0000 0.0000 0.0000 42.9982 0.0000 0.0000
# 5 0.0000 0.0000 0.0000 0.0000 -4.8991 0.0000
# 6 0.0000 0.0000 0.0000 0.0000 0.0000 -33.1006
#
#
#
# Elastic Compliance Matrix: (Units=1/GPa)
#
#
# Indices 1 2 3 4 5 6 
#
# 1 0.022804 -0.009094 -0.001542 0.000000 0.000000 0.000000
# 2 -0.009094 0.019193 -0.004159 0.000000 0.000000 0.000000
# 3 -0.001542 -0.004159 0.020835 0.000000 0.000000 0.000000
# 4 0.000000 0.000000 0.000000 0.023257 0.000000 0.000000
# 5 0.000000 0.000000 0.000000 0.000000 -0.204119 0.000000
# 6 0.000000 0.000000 0.000000 0.000000 0.000000 -0.030211
#
#
# Mechanical properties :
#
#
# Convention : Reuss Voigt Hill
#
# Bulk Modulus (GPa) = 30.08079 31.75377 30.91728
# Shear Modulus (GPa) = -46.48126 9.16955 -18.65586
#
# Velocity S-wave (km/s) = -5.03603 2.23678 -3.19049
# Velocity P-wave (km/s) = 4.17162 4.89864 1.81580
#
# Compressibility (1/GPa) = 0.03324381
#
# Stress axis : x y z
#
# Youngs Moduli (GPa) = 43.85115 52.10204 47.99524
#
# Poissons Ratio (x) = 0.47380 0.07400
# Poissons Ratio (y) = 0.39877 0.19961
# Poissons Ratio (z) = 0.06761 0.21669
#
# Static dielectric constant tensor:
#      x y z
#    x 1.623120 0.000000 0.000000 
#    y 0.000000 1.661470 0.000000 
#    z 0.000000 0.000000 1.628270 
# 
# From -- ./inp_files/22516.got.cif
#   From: 2010.05.17/outbox.cif.g08.bks.cpg/sg59_12_cif.got.tgz:22516.got - 2010.06.03 14:40:33.
