data_PCOD9448281
_publ_section_title
;
Structure prediction by ZEFSAII (Michael W. Deem and Ramdas Pophale) SiO2 
 PCOD9448281
Probable space group: P M M N
;
_chemical_formula_sum "Si O2"
_cell_formula_units_Z 48
_cell_length_a 8.913799
_cell_length_b 23.280404
_cell_length_c 13.430263
_cell_angle_alpha 90.000000
_cell_angle_beta 90.000000
_cell_angle_gamma 90.000000
_cell_volume 2787.005764
_symmetry_space_group_name_H-M "P M M N"
_symmetry_group_IT_number 59
_space_group.IT_coordinate_system_code '2'
_symmetry_cell_setting 'orthorhombic'
loop_
_space_group_symop_operation_xyz
x,y,z
1/2-x,1/2-y,z
1/2+x,-y,-z
-x,1/2+y,-z
-x,-y,-z
1/2+x,1/2+y,-z
1/2-x,y,z
x,1/2-y,z
loop_
_atom_site_type_symbol
_atom_site_label
_atom_site_fract_x
_atom_site_fract_y
_atom_site_fract_z
Si Si1 0.428494 0.682050 0.940680
Si Si2 0.075727 0.372881 0.251502
Si Si3 0.069939 0.110271 0.655827
Si Si4 0.928247 0.119333 0.452918
Si Si5 0.929908 0.816912 0.149280
Si Si6 0.425784 0.014014 0.358517
O O1 0.250000 0.675276 0.939473
O O2 0.529314 0.750000 0.164982
O O3 0.500326 0.649291 0.847991
O O4 0.493384 0.663099 0.047247
O O5 0.250000 0.356430 0.255038
O O6 0.067896 0.442260 0.264057
O O7 0.992682 0.351671 0.352471
O O8 0.250000 0.106594 0.647436
O O9 0.030432 0.146123 0.754116
O O10 0.003313 0.138540 0.555559
O O11 0.999045 0.046828 0.662352
O O12 0.750000 0.122911 0.456772
O O13 0.982608 0.052961 0.437569
O O14 0.750000 0.819810 0.136669
O O15 0.036168 0.750000 0.930743
O O16 0.250000 0.008665 0.386702
#
# Coordination Sequence:
#
# PCOD9448281 Si02
#       6
#     8   8   8   8   8   8
#     4  10  20  35  57  81 103 132 173 219 265 313
#     4   9  19  34  53  77 105 137 173 214 257 307
#     4  11  20  32  53  79 106 141 180 215 260 313
#     4  10  19  32  52  77 108 140 171 211 259 307
#     4   9  20  38  57  76 101 136 178 219 257 307
#     4   9  19  33  51  78 108 139 176 214 257 311
#
# _framework density 17.222783
#
# number of rings (size 3 to 8) (size 9 to 14) (size 15 to 20)
#    1.000    1.333    0.000    3.500    0.000    2.333 
#    0.000    1.667    0.000    3.000    0.000    0.000 
#    0.000    0.000    0.000    0.000    0.000    0.000 
#
# Total GULP energy -267383.372457 kJ/mol
# GULP energy per Si atom -5570.486926 kJ/mol
# Density = 1.718358 g / cm^3
# Si number density = 17.222783 Si / 1000 Ang^3
#
#
#
# Elastic Constant Matrix: (Units=GPa)
#
#
# Indices 1 2 3 4 5 6 
#
# 1 89.8534 30.6314 76.2757 0.0000 0.0000 0.0000
# 2 30.6314 29.5167 54.8017 0.0000 0.0000 0.0000
# 3 76.2757 54.8017 180.8602 0.0000 0.0000 0.0000
# 4 0.0000 0.0000 0.0000 30.7248 0.0000 0.0000
# 5 0.0000 0.0000 0.0000 0.0000 27.8756 0.0000
# 6 0.0000 0.0000 0.0000 0.0000 0.0000 18.5534
#
#
#
# Elastic Compliance Matrix: (Units=1/GPa)
#
#
# Indices 1 2 3 4 5 6 
#
# 1 0.018760 -0.010925 -0.004601 0.000000 0.000000 0.000000
# 2 -0.010925 0.083813 -0.020788 0.000000 0.000000 0.000000
# 3 -0.004601 -0.020788 0.013769 0.000000 0.000000 0.000000
# 4 0.000000 0.000000 0.000000 0.032547 0.000000 0.000000
# 5 0.000000 0.000000 0.000000 0.000000 0.035874 0.000000
# 6 0.000000 0.000000 0.000000 0.000000 0.000000 0.053898
#
#
# Mechanical properties :
#
#
# Convention : Reuss Voigt Hill
#
# Bulk Modulus (GPa) = 22.87708 69.29421 46.08564
# Shear Modulus (GPa) = 15.34397 24.66553 20.00475
#
# Velocity S-wave (km/s) = 2.98805 3.78848 3.41182
# Velocity P-wave (km/s) = 5.02160 7.71091 6.50671
#
# Compressibility (1/GPa) = 0.04371188
#
# Stress axis : x y z
#
# Youngs Moduli (GPa) = 53.30579 11.93129 72.62882
#
# Poissons Ratio (x) = 0.13035 0.33418
# Poissons Ratio (y) = 0.58238 1.50983
# Poissons Ratio (z) = 0.24527 0.24803
#
# Static dielectric constant tensor:
#      x y z
#    x 1.573050 0.000000 0.000000 
#    y 0.000000 1.583080 0.000000 
#    z 0.000000 0.000000 1.588790 
# 
# From -- ./inp_files/14528.got.cif
#   From: 2010.05.17/outbox.cif.g08.bks.cpg/sg59_8_cif.got.tgz:14528.got - 2010.06.03 14:40:33.
