data_PCOD9448938
_publ_section_title
;
Structure prediction by ZEFSAII (Michael W. Deem and Ramdas Pophale) SiO2 
 PCOD9448938
Probable space group: P M M N
;
_chemical_formula_sum "Si O2"
_cell_formula_units_Z 56
_cell_length_a 18.892549
_cell_length_b 8.458790
_cell_length_c 19.701173
_cell_angle_alpha 90.000000
_cell_angle_beta 90.000000
_cell_angle_gamma 90.000000
_cell_volume 3148.407115
_symmetry_space_group_name_H-M "P M M N"
_symmetry_group_IT_number 59
_space_group.IT_coordinate_system_code '2'
_symmetry_cell_setting 'orthorhombic'
loop_
_space_group_symop_operation_xyz
x,y,z
1/2-x,1/2-y,z
1/2+x,-y,-z
-x,1/2+y,-z
-x,-y,-z
1/2+x,1/2+y,-z
1/2-x,y,z
x,1/2-y,z
loop_
_atom_site_type_symbol
_atom_site_label
_atom_site_fract_x
_atom_site_fract_y
_atom_site_fract_z
Si Si1 0.925063 0.937238 0.641690
Si Si2 0.481733 0.059713 0.217637
Si Si3 0.331345 0.562364 0.473586
Si Si4 0.868292 0.933845 0.261155
Si Si5 0.324913 0.938160 0.876990
Si Si6 0.023072 0.560209 0.927204
Si Si7 0.579589 0.939068 0.401323
O O1 0.916619 0.750000 0.632513
O O2 0.925658 0.970954 0.722751
O O3 0.864887 0.024336 0.599477
O O4 0.002641 0.984462 0.611927
O O5 0.498108 0.250000 0.221520
O O6 0.473096 0.021894 0.137935
O O7 0.549876 0.960561 0.240702
O O8 0.250000 0.506174 0.479365
O O9 0.332092 0.750000 0.484513
O O10 0.383419 0.485338 0.528892
O O11 0.848491 0.750000 0.256798
O O12 0.867899 0.986439 0.339294
O O13 0.828204 0.029216 0.203465
O O14 0.250000 0.002205 0.903540
O O15 0.325526 0.750000 0.887258
O O16 0.397761 0.000372 0.908947
O O17 0.025764 0.750000 0.930276
O O18 0.000000 0.500000 0.000000
O O19 0.570298 0.750000 0.397471
#
# Coordination Sequence:
#
# PCOD9448938 Si02
#       7
#     8   8   8   8   8   8   8
#     4  10  19  34  57  77  95 125 166 208 248 294
#     4   8  16  31  50  72  96 123 155 190 231 285
#     4  11  24  38  50  68  97 131 167 210 258 302
#     4   9  17  28  45  71  98 122 152 193 236 278
#     4   9  18  32  48  66  94 133 168 195 231 286
#     4   9  17  30  49  74 101 127 158 195 235 280
#     4  10  20  34  52  74 101 131 164 203 246 295
#
# _framework density 17.786771999999999
#
# number of rings (size 3 to 8) (size 9 to 14) (size 15 to 20)
#    0.000    2.571    0.000    3.000    0.000    6.571 
#    0.000    2.857    0.000    0.857    0.000    4.000 
#    0.000    0.000    0.000    0.000    0.000    0.000 
#
# Total GULP energy -311831.986035 kJ/mol
# GULP energy per Si atom -5568.428322 kJ/mol
# Density = 1.774629 g / cm^3
# Si number density = 17.786772 Si / 1000 Ang^3
#
#
#
# Elastic Constant Matrix: (Units=GPa)
#
#
# Indices 1 2 3 4 5 6 
#
# 1 36.1964 -0.6206 18.1544 0.0000 0.0000 0.0000
# 2 -0.6206 8.0001 5.5186 0.0000 0.0000 0.0000
# 3 18.1544 5.5186 113.1941 0.0000 0.0000 0.0000
# 4 0.0000 0.0000 0.0000 27.6891 0.0000 0.0000
# 5 0.0000 0.0000 0.0000 0.0000 4.8579 0.0000
# 6 0.0000 0.0000 0.0000 0.0000 0.0000 13.8225
#
#
#
# Elastic Compliance Matrix: (Units=1/GPa)
#
#
# Indices 1 2 3 4 5 6 
#
# 1 0.030311 0.005903 -0.005149 0.000000 0.000000 0.000000
# 2 0.005903 0.130499 -0.007309 0.000000 0.000000 0.000000
# 3 -0.005149 -0.007309 0.010017 0.000000 0.000000 0.000000
# 4 0.000000 0.000000 0.000000 0.036115 0.000000 0.000000
# 5 0.000000 0.000000 0.000000 0.000000 0.205848 0.000000
# 6 0.000000 0.000000 0.000000 0.000000 0.000000 0.072346
#
#
# Mechanical properties :
#
#
# Convention : Reuss Voigt Hill
#
# Bulk Modulus (GPa) = 6.34050 22.61058 14.47554
# Shear Modulus (GPa) = 9.07742 18.22979 13.65360
#
# Velocity S-wave (km/s) = 2.26154 3.20489 2.77361
# Velocity P-wave (km/s) = 3.22364 5.14147 4.29107
#
# Compressibility (1/GPa) = 0.15771625
#
# Stress axis : x y z
#
# Youngs Moduli (GPa) = 32.99146 7.66292 99.83468
#
# Poissons Ratio (x) = -0.04524 0.51406
# Poissons Ratio (y) = -0.19476 0.72970
# Poissons Ratio (z) = 0.16988 0.05601
#
# Static dielectric constant tensor:
#      x y z
#    x 1.628040 0.000000 0.000000 
#    y 0.000000 1.612550 0.000000 
#    z 0.000000 0.000000 1.634100 
# 
# From -- ./inp_files/30622.got.cif
#   From: 2010.05.17/outbox.cif.g08.bks.cpg/sg59_16_cif.got.tgz:30622.got - 2010.06.03 14:40:33.
