data_PCOD9448387
_publ_section_title
;
Structure prediction by ZEFSAII (Michael W. Deem and Ramdas Pophale) SiO2 
 PCOD9448387
Probable space group: P M M N
;
_chemical_formula_sum "Si O2"
_cell_formula_units_Z 64
_cell_length_a 15.044333
_cell_length_b 24.280937
_cell_length_c 9.467760
_cell_angle_alpha 90.000000
_cell_angle_beta 90.000000
_cell_angle_gamma 90.000000
_cell_volume 3458.482801
_symmetry_space_group_name_H-M "P M M N"
_symmetry_group_IT_number 59
_space_group.IT_coordinate_system_code '2'
_symmetry_cell_setting 'orthorhombic'
loop_
_space_group_symop_operation_xyz
x,y,z
1/2-x,1/2-y,z
1/2+x,-y,-z
-x,1/2+y,-z
-x,-y,-z
1/2+x,1/2+y,-z
1/2-x,y,z
x,1/2-y,z
loop_
_atom_site_type_symbol
_atom_site_label
_atom_site_fract_x
_atom_site_fract_y
_atom_site_fract_z
Si Si1 0.850429 0.929714 0.281066
Si Si2 0.031155 0.813125 0.542366
Si Si3 0.528104 0.011348 0.786124
Si Si4 0.147688 0.911415 0.046355
Si Si5 0.850975 0.811410 0.383970
Si Si6 0.356112 0.814427 0.262433
Si Si7 0.921331 0.090417 0.259361
Si Si8 0.350945 0.984785 0.486645
O O1 0.750000 0.944047 0.231649
O O2 0.860618 0.864051 0.283135
O O3 0.932987 0.958075 0.205381
O O4 0.856437 0.954690 0.440926
O O5 0.053345 0.750000 0.575125
O O6 0.088490 0.828501 0.402996
O O7 0.052058 0.852989 0.669542
O O8 0.928147 0.816580 0.498596
O O9 0.589727 0.036663 0.905359
O O10 0.577942 0.023128 0.637016
O O11 0.505602 0.946993 0.785056
O O12 0.250000 0.922692 0.077989
O O13 0.121325 0.857896 0.139617
O O14 0.135330 0.901496 0.880900
O O15 0.750000 0.814501 0.440155
O O16 0.861726 0.750000 0.319473
O O17 0.250000 0.818498 0.289840
O O18 0.374893 0.750000 0.227085
O O19 0.871830 0.055540 0.382149
O O20 0.250000 0.975789 0.436190
#
# Coordination Sequence:
#
# PCOD9448387 Si02
#       8
#     8   8   8   8   8   8   8   8
#     4   9  17  29  48  75 102 132 170 215 264 308
#     4  10  20  35  57  82 107 138 177 220 266 315
#     4  11  21  36  54  75 104 141 180 221 265 316
#     4  11  23  37  55  78 109 145 179 217 265 321
#     4   9  16  27  46  74 105 132 164 212 265 313
#     4   9  19  36  57  81 109 143 181 218 259 315
#     4  11  22  36  52  77 111 142 176 224 273 317
#     4  10  19  32  54  78 102 134 175 219 264 316
#
# _framework density 18.505224999999999
#
# number of rings (size 3 to 8) (size 9 to 14) (size 15 to 20)
#    0.000    2.000    0.000    5.625    0.000    3.000 
#    0.000    0.625    0.000    0.750    0.000    0.000 
#    0.000    4.000    0.000    0.000    0.000    0.000 
#
# Total GULP energy -357059.162867 kJ/mol
# GULP energy per Si atom -5579.049420 kJ/mol
# Density = 1.846311 g / cm^3
# Si number density = 18.505225 Si / 1000 Ang^3
#
#
#
# Elastic Constant Matrix: (Units=GPa)
#
#
# Indices 1 2 3 4 5 6 
#
# 1 74.8865 30.9160 25.7224 0.0000 0.0000 0.0000
# 2 30.9160 89.9081 36.9027 0.0000 0.0000 0.0000
# 3 25.7224 36.9027 69.9462 0.0000 0.0000 0.0000
# 4 0.0000 0.0000 0.0000 16.7948 0.0000 0.0000
# 5 0.0000 0.0000 0.0000 0.0000 11.7659 0.0000
# 6 0.0000 0.0000 0.0000 0.0000 0.0000 17.4554
#
#
#
# Elastic Compliance Matrix: (Units=1/GPa)
#
#
# Indices 1 2 3 4 5 6 
#
# 1 0.016352 -0.004027 -0.003889 0.000000 0.000000 0.000000
# 2 -0.004027 0.015188 -0.006532 0.000000 0.000000 0.000000
# 3 -0.003889 -0.006532 0.019173 0.000000 0.000000 0.000000
# 4 0.000000 0.000000 0.000000 0.059542 0.000000 0.000000
# 5 0.000000 0.000000 0.000000 0.000000 0.084992 0.000000
# 6 0.000000 0.000000 0.000000 0.000000 0.000000 0.057289
#
#
# Mechanical properties :
#
#
# Convention : Reuss Voigt Hill
#
# Bulk Modulus (GPa) = 45.83477 46.86922 46.35200
# Shear Modulus (GPa) = 17.31877 18.61652 17.96764
#
# Velocity S-wave (km/s) = 3.06254 3.17521 3.11939
# Velocity P-wave (km/s) = 6.10966 6.23099 6.17062
#
# Compressibility (1/GPa) = 0.02181750
#
# Stress axis : x y z
#
# Youngs Moduli (GPa) = 61.15605 65.84033 52.15606
#
# Poissons Ratio (x) = 0.26511 0.20283
# Poissons Ratio (y) = 0.24625 0.34070
# Poissons Ratio (z) = 0.23783 0.43010
#
# Static dielectric constant tensor:
#      x y z
#    x 1.657160 0.000000 0.000000 
#    y 0.000000 1.678600 0.000000 
#    z 0.000000 0.000000 1.614180 
# 
# From -- ./inp_files/9593.got.cif
#   From: 2010.05.17/outbox.cif.g08.bks.cpg/sg59_5_cif.got.tgz:9593.got - 2010.06.03 14:40:33.
