data_PCOD9448794
_publ_section_title
;
Structure prediction by ZEFSAII (Michael W. Deem and Ramdas Pophale) SiO2 
 PCOD9448794
Probable space group: P M M N
;
_chemical_formula_sum "Si O2"
_cell_formula_units_Z 56
_cell_length_a 20.779541
_cell_length_b 8.584187
_cell_length_c 17.678166
_cell_angle_alpha 90.000000
_cell_angle_beta 90.000000
_cell_angle_gamma 90.000000
_cell_volume 3153.351093
_symmetry_space_group_name_H-M "P M M N"
_symmetry_group_IT_number 59
_space_group.IT_coordinate_system_code '2'
_symmetry_cell_setting 'orthorhombic'
loop_
_space_group_symop_operation_xyz
x,y,z
1/2-x,1/2-y,z
1/2+x,-y,-z
-x,1/2+y,-z
-x,-y,-z
1/2+x,1/2+y,-z
1/2-x,y,z
x,1/2-y,z
loop_
_atom_site_type_symbol
_atom_site_label
_atom_site_fract_x
_atom_site_fract_y
_atom_site_fract_z
Si Si1 0.001944 0.932527 0.282321
Si Si2 0.820554 0.939611 0.480670
Si Si3 0.001621 0.436143 0.116599
Si Si4 0.051144 0.437000 0.438984
Si Si5 0.250000 0.570278 0.804860
Si Si6 0.349860 0.066508 0.691669
Si Si7 0.105368 0.438372 0.990017
Si Si8 0.750000 0.933959 0.031991
O O1 0.017487 0.750000 0.278803
O O2 0.925676 0.947943 0.297223
O O3 0.015048 0.009228 0.201431
O O4 0.036148 0.007001 0.354706
O O5 0.750000 0.992413 0.504947
O O6 0.821258 0.750000 0.481460
O O7 0.878987 0.991791 0.532651
O O8 0.832195 0.983523 0.393340
O O9 0.997129 0.250000 0.113919
O O10 0.059969 0.485200 0.060632
O O11 0.934721 0.504128 0.083196
O O12 0.048814 0.250000 0.441383
O O13 0.000000 0.500000 0.500000
O O14 0.250000 0.750000 0.828203
O O15 0.188901 0.530604 0.752969
O O16 0.250000 0.462822 0.878332
O O17 0.332506 0.250000 0.699706
O O18 0.106987 0.250000 0.986810
O O19 0.179575 0.494733 0.994856
O O20 0.750000 0.750000 0.014785
#
# Coordination Sequence:
#
# PCOD9448794 Si02
#       8
#     8   8   8   8   4   8   8   4
#     4  11  22  36  55  80 108 143 185 226 271 323
#     4   9  17  33  56  76  98 136 183 220 258 315
#     4  10  20  35  56  83 111 140 178 226 274 320
#     4  11  21  35  56  83 110 140 182 230 277 323
#     4  12  24  32  44  78 117 142 171 216 271 321
#     4  10  19  34  53  72 101 145 184 213 255 321
#     4   9  19  36  58  82 108 141 181 220 267 326
#     4  10  20  36  56  76 103 144 181 214 257 321
#
# _framework density 17.758884999999999
#
# number of rings (size 3 to 8) (size 9 to 14) (size 15 to 20)
#    0.000    1.857    2.143    2.786    0.000    5.714 
#    0.000    0.000    1.571    0.000    0.000    0.000 
#    0.000    0.000    0.000    0.000    0.000    0.000 
#
# Total GULP energy -312555.488223 kJ/mol
# GULP energy per Si atom -5581.348004 kJ/mol
# Density = 1.771846 g / cm^3
# Si number density = 17.758885 Si / 1000 Ang^3
#
#
#
# Elastic Constant Matrix: (Units=GPa)
#
#
# Indices 1 2 3 4 5 6 
#
# 1 127.8823 18.8617 55.6527 0.0000 0.0000 0.0000
# 2 18.8617 19.6105 11.6273 0.0000 0.0000 0.0000
# 3 55.6527 11.6273 103.9797 0.0000 0.0000 0.0000
# 4 0.0000 0.0000 0.0000 25.5231 0.0000 0.0000
# 5 0.0000 0.0000 0.0000 0.0000 167.7332 0.0000
# 6 0.0000 0.0000 0.0000 0.0000 0.0000 21.0135
#
#
#
# Elastic Compliance Matrix: (Units=1/GPa)
#
#
# Indices 1 2 3 4 5 6 
#
# 1 0.011189 -0.007723 -0.005125 0.000000 0.000000 0.000000
# 2 -0.007723 0.059945 -0.002570 0.000000 0.000000 0.000000
# 3 -0.005125 -0.002570 0.012648 0.000000 0.000000 0.000000
# 4 0.000000 0.000000 0.000000 0.039180 0.000000 0.000000
# 5 0.000000 0.000000 0.000000 0.000000 0.005962 0.000000
# 6 0.000000 0.000000 0.000000 0.000000 0.000000 0.047588
#
#
# Mechanical properties :
#
#
# Convention : Reuss Voigt Hill
#
# Bulk Modulus (GPa) = 18.88716 47.08401 32.98558
# Shear Modulus (GPa) = 22.22254 53.87600 38.04927
#
# Velocity S-wave (km/s) = 3.54128 5.51392 4.63379
# Velocity P-wave (km/s) = 5.23252 8.19196 6.87341
#
# Compressibility (1/GPa) = 0.05294603
#
# Stress axis : x y z
#
# Youngs Moduli (GPa) = 89.37191 16.68199 79.06574
#
# Poissons Ratio (x) = 0.12884 0.40522
# Poissons Ratio (y) = 0.69024 0.20316
# Poissons Ratio (z) = 0.45804 0.04286
#
# Static dielectric constant tensor:
#      x y z
#    x 1.660430 0.000000 0.000000 
#    y 0.000000 1.611790 0.000000 
#    z 0.000000 0.000000 1.580610 
# 
# From -- ./inp_files/24351.got.cif
#   From: 2010.05.17/outbox.cif.g08.bks.cpg/sg59_13_cif.got.tgz:24351.got - 2010.06.03 14:40:33.
