data_PCOD9448657
_publ_section_title
;
Structure prediction by ZEFSAII (Michael W. Deem and Ramdas Pophale) SiO2 
 PCOD9448657
Probable space group: P M M N
;
_chemical_formula_sum "Si O2"
_cell_formula_units_Z 48
_cell_length_a 32.336369
_cell_length_b 8.801495
_cell_length_c 9.185421
_cell_angle_alpha 90.000000
_cell_angle_beta 90.000000
_cell_angle_gamma 90.000000
_cell_volume 2614.247883
_symmetry_space_group_name_H-M "P M M N"
_symmetry_group_IT_number 59
_space_group.IT_coordinate_system_code '2'
_symmetry_cell_setting 'orthorhombic'
loop_
_space_group_symop_operation_xyz
x,y,z
1/2-x,1/2-y,z
1/2+x,-y,-z
-x,1/2+y,-z
-x,-y,-z
1/2+x,1/2+y,-z
1/2-x,y,z
x,1/2-y,z
loop_
_atom_site_type_symbol
_atom_site_label
_atom_site_fract_x
_atom_site_fract_y
_atom_site_fract_z
Si Si1 0.038901 0.068035 0.912988
Si Si2 0.382193 0.931913 0.074346
Si Si3 0.294747 0.428850 0.422815
Si Si4 0.119888 0.931738 0.415093
Si Si5 0.204265 0.429438 0.070173
Si Si6 0.538135 0.433572 0.409752
O O1 0.036447 0.250000 0.911688
O O2 0.037501 0.001943 0.750789
O O3 0.081304 0.013236 0.987993
O O4 0.000000 0.000000 0.000000
O O5 0.386676 0.750000 0.063535
O O6 0.385423 0.976932 0.245478
O O7 0.336468 0.981391 0.021471
O O8 0.250000 0.488475 0.474415
O O9 0.296500 0.250000 0.455310
O O10 0.336652 0.506234 0.473977
O O11 0.294786 0.443960 0.246535
O O12 0.121970 0.750000 0.415959
O O13 0.080572 0.978639 0.509129
O O14 0.250000 0.479334 0.017840
O O15 0.199805 0.250000 0.037762
O O16 0.500000 0.500000 0.500000
O O17 0.535904 0.250000 0.404917
#
# Coordination Sequence:
#
# PCOD9448657 Si02
#       6
#     8   8   8   8   8   8
#     4  12  25  41  60  82 108 141 181 225 276 331
#     4  10  19  33  54  82 113 144 181 224 271 324
#     4   8  14  25  44  72 105 140 178 218 259 306
#     4   9  19  33  52  79 110 142 177 218 264 316
#     4   8  14  26  45  72 107 145 183 222 265 314
#     4  11  23  40  60  83 111 143 180 223 271 325
#
# _framework density 18.360921000000001
#
# number of rings (size 3 to 8) (size 9 to 14) (size 15 to 20)
#    0.000    2.333    0.000    4.500    0.000    4.000 
#    0.000    3.333    0.000    1.000    0.000    4.667 
#    0.000    0.000    0.000    0.000    0.000    0.000 
#
# Total GULP energy -267761.397912 kJ/mol
# GULP energy per Si atom -5578.362457 kJ/mol
# Density = 1.831913 g / cm^3
# Si number density = 18.360921 Si / 1000 Ang^3
#
#
#
# Elastic Constant Matrix: (Units=GPa)
#
#
# Indices 1 2 3 4 5 6 
#
# 1 215.1328 71.0312 80.9285 0.0000 0.0000 0.0000
# 2 71.0312 71.1432 40.5905 0.0000 0.0000 0.0000
# 3 80.9285 40.5905 80.0435 0.0000 0.0000 0.0000
# 4 0.0000 0.0000 0.0000 22.0635 0.0000 0.0000
# 5 0.0000 0.0000 0.0000 0.0000 21.9380 0.0000
# 6 0.0000 0.0000 0.0000 0.0000 0.0000 38.9438
#
#
#
# Elastic Compliance Matrix: (Units=1/GPa)
#
#
# Indices 1 2 3 4 5 6 
#
# 1 0.008657 -0.005135 -0.006148 0.000000 0.000000 0.000000
# 2 -0.005135 0.022825 -0.006383 0.000000 0.000000 0.000000
# 3 -0.006148 -0.006383 0.021946 0.000000 0.000000 0.000000
# 4 0.000000 0.000000 0.000000 0.045324 0.000000 0.000000
# 5 0.000000 0.000000 0.000000 0.000000 0.045583 0.000000
# 6 0.000000 0.000000 0.000000 0.000000 0.000000 0.025678
#
#
# Mechanical properties :
#
#
# Convention : Reuss Voigt Hill
#
# Bulk Modulus (GPa) = 55.26259 83.49110 69.37685
# Shear Modulus (GPa) = 23.65449 28.17367 25.91408
#
# Velocity S-wave (km/s) = 3.59319 3.92144 3.76090
# Velocity P-wave (km/s) = 6.88317 8.12862 7.53168
#
# Compressibility (1/GPa) = 0.01809543
#
# Stress axis : x y z
#
# Youngs Moduli (GPa) = 115.51812 43.81194 45.56601
#
# Poissons Ratio (x) = 0.22498 0.28015
# Poissons Ratio (y) = 0.59320 0.29083
# Poissons Ratio (z) = 0.71024 0.27964
#
# Static dielectric constant tensor:
#      x y z
#    x 1.647180 0.000000 0.000000 
#    y 0.000000 1.615750 0.000000 
#    z 0.000000 0.000000 1.626710 
# 
# From -- ./inp_files/6312.got.cif
#   From: 2010.05.17/outbox.cif.g08.bks.cpg/sg59_4_cif.got.tgz:6312.got - 2010.06.03 14:40:33.
