data_PCOD9448218
_publ_section_title
;
Structure prediction by ZEFSAII (Michael W. Deem and Ramdas Pophale) SiO2 
 PCOD9448218
Probable space group: P M M N
;
_chemical_formula_sum "Si O2"
_cell_formula_units_Z 56
_cell_length_a 27.601523
_cell_length_b 17.633440
_cell_length_c 4.950046
_cell_angle_alpha 90.000000
_cell_angle_beta 90.000000
_cell_angle_gamma 90.000000
_cell_volume 2409.235897
_symmetry_space_group_name_H-M "P M M N"
_symmetry_group_IT_number 59
_space_group.IT_coordinate_system_code '2'
_symmetry_cell_setting 'orthorhombic'
loop_
_space_group_symop_operation_xyz
x,y,z
1/2-x,1/2-y,z
1/2+x,-y,-z
-x,1/2+y,-z
-x,-y,-z
1/2+x,1/2+y,-z
1/2-x,y,z
x,1/2-y,z
loop_
_atom_site_type_symbol
_atom_site_label
_atom_site_fract_x
_atom_site_fract_y
_atom_site_fract_z
Si Si1 0.909821 0.112315 0.199884
Si Si2 0.156594 0.332696 0.697832
Si Si3 0.693606 0.078679 0.077366
Si Si4 0.041913 0.455301 0.849784
Si Si5 0.405996 0.332963 0.199282
Si Si6 0.697599 0.976633 0.598119
Si Si7 0.470686 0.836817 0.312837
O O1 0.854307 0.130034 0.117650
O O2 0.928178 0.150033 0.472855
O O3 0.920066 0.020642 0.240351
O O4 0.946104 0.144016 0.972936
O O5 0.179258 0.250000 0.649135
O O6 0.108054 0.334929 0.512209
O O7 0.182777 0.403493 0.570542
O O8 0.142846 0.336983 0.012293
O O9 0.750000 0.103410 0.003457
O O10 0.698801 0.040494 0.368975
O O11 0.674202 0.017188 0.856016
O O12 0.013259 0.399308 0.644730
O O13 0.064704 0.400984 0.075306
O O14 0.000000 0.500000 0.000000
O O15 0.427902 0.250000 0.142686
O O16 0.750000 0.957032 0.713031
O O17 0.487950 0.750000 0.326356
#
# Coordination Sequence:
#
# PCOD9448218 Si02
#       7
#     8   8   8   8   8   8   8
#     4  11  22  39  64  89 118 156 199 243 289 347
#     4  10  20  33  50  73 103 146 192 229 273 335
#     4  10  21  37  60  87 114 146 189 245 299 345
#     4  10  22  38  60  89 117 152 197 241 287 347
#     4  10  21  36  54  76 109 149 188 233 282 334
#     4  10  19  32  51  78 111 144 181 234 293 338
#     4  11  24  41  60  87 124 159 192 237 296 354
#
# _framework density 23.243886
#
# number of rings (size 3 to 8) (size 9 to 14) (size 15 to 20)
#    0.000    1.714    0.000    4.714    0.000    6.000 
#    0.000    4.286    0.000    7.714    0.000    0.000 
#    0.000    0.000    0.000    0.000    0.000    0.000 
#
# Total GULP energy -312277.269439 kJ/mol
# GULP energy per Si atom -5576.379811 kJ/mol
# Density = 2.319098 g / cm^3
# Si number density = 23.243886 Si / 1000 Ang^3
#
#
#
# Elastic Constant Matrix: (Units=GPa)
#
#
# Indices 1 2 3 4 5 6 
#
# 1 45.3000 2.0556 -3.9343 0.0000 0.0000 0.0000
# 2 2.0556 66.8732 7.9725 0.0000 0.0000 0.0000
# 3 -3.9343 7.9725 58.3345 0.0000 0.0000 0.0000
# 4 0.0000 0.0000 0.0000 16.7364 0.0000 0.0000
# 5 0.0000 0.0000 0.0000 0.0000 28.8339 0.0000
# 6 0.0000 0.0000 0.0000 0.0000 0.0000 -18.7491
#
#
#
# Elastic Compliance Matrix: (Units=1/GPa)
#
#
# Indices 1 2 3 4 5 6 
#
# 1 0.022256 -0.000877 0.001621 0.000000 0.000000 0.000000
# 2 -0.000877 0.015236 -0.002141 0.000000 0.000000 0.000000
# 3 0.001621 -0.002141 0.017544 0.000000 0.000000 0.000000
# 4 0.000000 0.000000 0.000000 0.059750 0.000000 0.000000
# 5 0.000000 0.000000 0.000000 0.000000 0.034681 0.000000
# 6 0.000000 0.000000 0.000000 0.000000 0.000000 -0.053336
#
#
# Mechanical properties :
#
#
# Convention : Reuss Voigt Hill
#
# Bulk Modulus (GPa) = 19.14233 20.29949 19.72091
# Shear Modulus (GPa) = 42.97716 16.32517 29.65116
#
# Velocity S-wave (km/s) = 4.30463 2.65305 3.57550
# Velocity P-wave (km/s) = 5.74105 4.25877 5.05454
#
# Compressibility (1/GPa) = 0.05224025
#
# Stress axis : x y z
#
# Youngs Moduli (GPa) = 44.93247 65.63425 56.99793
#
# Poissons Ratio (x) = 0.05759 -0.09239
# Poissons Ratio (y) = 0.03942 0.12206
# Poissons Ratio (z) = -0.07283 0.14055
#
# Static dielectric constant tensor:
#      x y z
#    x 2.006910 0.000000 0.000000 
#    y 0.000000 2.053420 0.000000 
#    z 0.000000 0.000000 1.830560 
# 
# From -- ./inp_files/4573.got.cif
#   From: 2010.05.17/outbox.cif.g08.bks.cpg/sg59_3_cif.got.tgz:4573.got - 2010.06.03 14:40:33.
