data_PCOD9448180
_publ_section_title
;
Structure prediction by ZEFSAII (Michael W. Deem and Ramdas Pophale) SiO2 
 PCOD9448180
Probable space group: P M M N
;
_chemical_formula_sum "Si O2"
_cell_formula_units_Z 64
_cell_length_a 7.732721
_cell_length_b 18.228486
_cell_length_c 22.271998
_cell_angle_alpha 90.000000
_cell_angle_beta 90.000000
_cell_angle_gamma 90.000000
_cell_volume 3139.367218
_symmetry_space_group_name_H-M "P M M N"
_symmetry_group_IT_number 59
_space_group.IT_coordinate_system_code '2'
_symmetry_cell_setting 'orthorhombic'
loop_
_space_group_symop_operation_xyz
x,y,z
1/2-x,1/2-y,z
1/2+x,-y,-z
-x,1/2+y,-z
-x,-y,-z
1/2+x,1/2+y,-z
1/2-x,y,z
x,1/2-y,z
loop_
_atom_site_type_symbol
_atom_site_label
_atom_site_fract_x
_atom_site_fract_y
_atom_site_fract_z
Si Si1 0.953093 0.552992 0.188786
Si Si2 0.959972 0.398693 0.243595
Si Si3 0.038528 0.667279 0.499025
Si Si4 0.546889 0.104503 0.376422
Si Si5 0.953567 0.167607 0.718860
Si Si6 0.539586 0.435055 0.610507
Si Si7 0.956013 0.670520 0.879438
Si Si8 0.543996 0.518589 0.932008
O O1 0.750000 0.556176 0.200172
O O2 0.021449 0.480013 0.223093
O O3 0.028768 0.625847 0.218025
O O4 0.981076 0.538515 0.118403
O O5 0.750000 0.400632 0.244565
O O6 0.024406 0.379768 0.310030
O O7 0.014683 0.344247 0.191018
O O8 0.250000 0.666029 0.499566
O O9 0.986678 0.750000 0.482758
O O10 0.975377 0.645693 0.565379
O O11 0.986112 0.607758 0.449638
O O12 0.750000 0.123535 0.374065
O O13 0.529230 0.017364 0.386511
O O14 0.750000 0.174086 0.705778
O O15 0.026705 0.250000 0.718441
O O16 0.022158 0.113278 0.667237
O O17 0.750000 0.439542 0.611735
O O18 0.750000 0.672004 0.890038
O O19 0.027524 0.750000 0.896698
O O20 0.026792 0.598898 0.913307
O O21 0.750000 0.520650 0.926076
O O22 0.500000 0.500000 0.000000
#
# Coordination Sequence:
#
# PCOD9448180 Si02
#       8
#     8   8   8   8   8   8   8   8
#     4  10  19  34  54  77 107 139 174 216 261 315
#     4   9  18  31  49  75 104 135 171 213 259 312
#     4   9  18  32  49  70  98 134 176 220 267 320
#     4  10  19  32  51  75 101 132 172 219 266 318
#     4  10  20  33  51  76 104 135 175 223 273 323
#     4  10  19  32  52  74  98 133 176 221 268 322
#     4   9  19  35  55  80 109 140 175 216 260 306
#     4  10  20  36  59  84 111 146 184 220 259 309
#
# _framework density 20.386272999999999
#
# number of rings (size 3 to 8) (size 9 to 14) (size 15 to 20)
#    0.000    2.375    1.250    1.500    0.000    4.000 
#    0.000    1.875    0.000    4.500    0.000    0.000 
#    0.000    0.000    0.000    0.000    0.000    0.000 
#
# Total GULP energy -357210.287947 kJ/mol
# GULP energy per Si atom -5581.410749 kJ/mol
# Density = 2.033987 g / cm^3
# Si number density = 20.386273 Si / 1000 Ang^3
#
#
#
# Elastic Constant Matrix: (Units=GPa)
#
#
# Indices 1 2 3 4 5 6 
#
# 1 30.0892 -11.6234 -13.5923 0.0000 0.0000 0.0000
# 2 -11.6234 45.1802 7.7602 0.0000 0.0000 0.0000
# 3 -13.5923 7.7602 105.8170 0.0000 0.0000 0.0000
# 4 0.0000 0.0000 0.0000 12.4329 0.0000 0.0000
# 5 0.0000 0.0000 0.0000 0.0000 11.1175 0.0000
# 6 0.0000 0.0000 0.0000 0.0000 0.0000 12.3792
#
#
#
# Elastic Compliance Matrix: (Units=1/GPa)
#
#
# Indices 1 2 3 4 5 6 
#
# 1 0.038742 0.009229 0.004300 0.000000 0.000000 0.000000
# 2 0.009229 0.024614 -0.000620 0.000000 0.000000 0.000000
# 3 0.004300 -0.000620 0.010048 0.000000 0.000000 0.000000
# 4 0.000000 0.000000 0.000000 0.080432 0.000000 0.000000
# 5 0.000000 0.000000 0.000000 0.000000 0.089948 0.000000
# 6 0.000000 0.000000 0.000000 0.000000 0.000000 0.080781
#
#
# Mechanical properties :
#
#
# Convention : Reuss Voigt Hill
#
# Bulk Modulus (GPa) = 10.07852 16.24169 13.16010
# Shear Modulus (GPa) = 15.06836 20.42206 17.74521
#
# Velocity S-wave (km/s) = 2.72167 3.16849 2.95354
# Velocity P-wave (km/s) = 3.85112 4.62277 4.25448
#
# Compressibility (1/GPa) = 0.09922096
#
# Stress axis : x y z
#
# Youngs Moduli (GPa) = 25.81195 40.62687 99.52214
#
# Poissons Ratio (x) = -0.37493 -0.42791
# Poissons Ratio (y) = -0.23821 0.06167
# Poissons Ratio (z) = -0.11098 0.02518
#
# Static dielectric constant tensor:
#      x y z
#    x 1.745660 0.000000 0.000000 
#    y 0.000000 1.719060 0.000000 
#    z 0.000000 0.000000 2.584130 
# 
# From -- ./inp_files/29605.got.cif
#   From: 2010.05.17/outbox.cif.g08.bks.cpg/sg59_15_cif.got.tgz:29605.got - 2010.06.03 14:40:33.
