data_PCOD9448742
_publ_section_title
;
Structure prediction by ZEFSAII (Michael W. Deem and Ramdas Pophale) SiO2 
 PCOD9448742
Probable space group: P M M N
;
_chemical_formula_sum "Si O2"
_cell_formula_units_Z 44
_cell_length_a 13.739718
_cell_length_b 10.440546
_cell_length_c 16.810664
_cell_angle_alpha 90.000000
_cell_angle_beta 90.000000
_cell_angle_gamma 90.000000
_cell_volume 2411.492404
_symmetry_space_group_name_H-M "P M M N"
_symmetry_group_IT_number 59
_space_group.IT_coordinate_system_code '2'
_symmetry_cell_setting 'orthorhombic'
loop_
_space_group_symop_operation_xyz
x,y,z
1/2-x,1/2-y,z
1/2+x,-y,-z
-x,1/2+y,-z
-x,-y,-z
1/2+x,1/2+y,-z
1/2-x,y,z
x,1/2-y,z
loop_
_atom_site_type_symbol
_atom_site_label
_atom_site_fract_x
_atom_site_fract_y
_atom_site_fract_z
Si Si1 0.994595 0.250000 0.891361
Si Si2 0.866909 0.896631 0.521037
Si Si3 0.560890 0.603188 0.693620
Si Si4 0.365041 0.507651 0.144198
Si Si5 0.137826 0.987443 0.644661
Si Si6 0.364273 0.250000 0.042212
Si Si7 0.140972 0.250000 0.743736
O O1 0.927088 0.375560 0.890240
O O2 0.060343 0.250000 0.811674
O O3 0.066084 0.250000 0.966456
O O4 0.750000 0.889428 0.520069
O O5 0.903912 0.750000 0.509307
O O6 0.899347 0.940842 0.607979
O O7 0.891502 0.987328 0.447094
O O8 0.593395 0.750000 0.705136
O O9 0.600424 0.519880 0.765842
O O10 0.444068 0.596531 0.686801
O O11 0.250000 0.535703 0.142899
O O12 0.381605 0.377126 0.094675
O O13 0.250000 0.941749 0.648409
O O14 0.134016 0.125198 0.688231
O O15 0.250000 0.250000 0.019145
O O16 0.250000 0.250000 0.779642
#
# Coordination Sequence:
#
# PCOD9448742 Si02
#       7
#     4   8   8   8   8   4   4
#     4  12  22  40  64  90 118 147 190 237 295 335
#     4   9  17  30  52  79 107 146 197 243 283 338
#     4  11  21  34  55  82 112 156 197 234 285 349
#     4  11  23  40  62  90 121 152 189 236 286 343
#     4  10  19  34  53  77 111 148 193 245 289 332
#     4  10  23  43  66  90 118 150 187 229 285 357
#     4  10  19  33  56  82 106 141 191 236 280 336
#
# _framework density 18.245961999999999
#
# number of rings (size 3 to 8) (size 9 to 14) (size 15 to 20)
#    0.000    1.636    3.636    2.182    0.000    1.091 
#    0.000    0.000    0.000    1.091    0.000    0.000 
#    0.000    0.000    0.000    0.000    0.000    0.000 
#
# Total GULP energy -245601.351889 kJ/mol
# GULP energy per Si atom -5581.848907 kJ/mol
# Density = 1.820443 g / cm^3
# Si number density = 18.245962 Si / 1000 Ang^3
#
#
#
# Elastic Constant Matrix: (Units=GPa)
#
#
# Indices 1 2 3 4 5 6 
#
# 1 74.6445 43.3220 56.6590 0.0000 0.0000 0.0000
# 2 43.3220 76.2137 33.7470 0.0000 0.0000 0.0000
# 3 56.6590 33.7470 104.0410 0.0000 0.0000 0.0000
# 4 0.0000 0.0000 0.0000 9.2504 0.0000 0.0000
# 5 0.0000 0.0000 0.0000 0.0000 32.5030 0.0000
# 6 0.0000 0.0000 0.0000 0.0000 0.0000 24.3119
#
#
#
# Elastic Compliance Matrix: (Units=1/GPa)
#
#
# Indices 1 2 3 4 5 6 
#
# 1 0.029192 -0.011157 -0.012279 0.000000 0.000000 0.000000
# 2 -0.011157 0.019585 -0.000277 0.000000 0.000000 0.000000
# 3 -0.012279 -0.000277 0.016388 0.000000 0.000000 0.000000
# 4 0.000000 0.000000 0.000000 0.108103 0.000000 0.000000
# 5 0.000000 0.000000 0.000000 0.000000 0.030766 0.000000
# 6 0.000000 0.000000 0.000000 0.000000 0.000000 0.041132
#
#
# Mechanical properties :
#
#
# Convention : Reuss Voigt Hill
#
# Bulk Modulus (GPa) = 56.36690 58.03947 57.20319
# Shear Modulus (GPa) = 16.75008 21.29114 19.02061
#
# Velocity S-wave (km/s) = 3.03316 3.41969 3.23221
# Velocity P-wave (km/s) = 6.57470 6.88992 6.73415
#
# Compressibility (1/GPa) = 0.01774091
#
# Stress axis : x y z
#
# Youngs Moduli (GPa) = 34.25591 51.05833 61.01939
#
# Poissons Ratio (x) = 0.56964 0.74924
# Poissons Ratio (y) = 0.38218 0.01691
# Poissons Ratio (z) = 0.42062 0.01415
#
# Static dielectric constant tensor:
#      x y z
#    x 1.632880 0.000000 0.000000 
#    y 0.000000 1.620320 0.000000 
#    z 0.000000 0.000000 1.605040 
# 
# From -- ./inp_files/27335.got.cif
#   From: 2010.05.17/outbox.cif.g08.bks.cpg/sg59_14_cif.got.tgz:27335.got - 2010.06.03 14:40:33.
