data_PCOD9448381
_publ_section_title
;
Structure prediction by ZEFSAII (Michael W. Deem and Ramdas Pophale) SiO2 
 PCOD9448381
Probable space group: P M M N
;
_chemical_formula_sum "Si O2"
_cell_formula_units_Z 64
_cell_length_a 29.213919
_cell_length_b 7.898080
_cell_length_c 12.730856
_cell_angle_alpha 90.000000
_cell_angle_beta 90.000000
_cell_angle_gamma 90.000000
_cell_volume 2937.439665
_symmetry_space_group_name_H-M "P M M N"
_symmetry_group_IT_number 59
_space_group.IT_coordinate_system_code '2'
_symmetry_cell_setting 'orthorhombic'
loop_
_space_group_symop_operation_xyz
x,y,z
1/2-x,1/2-y,z
1/2+x,-y,-z
-x,1/2+y,-z
-x,-y,-z
1/2+x,1/2+y,-z
1/2-x,y,z
x,1/2-y,z
loop_
_atom_site_type_symbol
_atom_site_label
_atom_site_fract_x
_atom_site_fract_y
_atom_site_fract_z
Si Si1 0.007102 0.048935 0.664010
Si Si2 0.827818 0.943526 0.472861
Si Si3 0.425865 0.553919 0.485447
Si Si4 0.799574 0.958133 0.693436
Si Si5 0.625437 0.552409 0.851174
Si Si6 0.695190 0.945178 0.249709
Si Si7 0.197547 0.946814 0.981341
Si Si8 0.977140 0.952317 0.889426
O O1 0.011871 0.250000 0.647765
O O2 0.959266 0.997154 0.608551
O O3 0.046008 0.962436 0.594051
O O4 0.005262 0.010940 0.786979
O O5 0.811098 0.750000 0.459952
O O6 0.802021 0.016526 0.573058
O O7 0.823330 0.022431 0.357852
O O8 0.880492 0.946148 0.505748
O O9 0.413622 0.750000 0.468472
O O10 0.750000 0.005468 0.739874
O O11 0.801321 0.750000 0.693433
O O12 0.843657 0.021348 0.756954
O O13 0.618257 0.750000 0.826307
O O14 0.575169 0.480184 0.875464
O O15 0.659700 0.539098 0.949721
O O16 0.750000 0.943411 0.260523
O O17 0.678996 0.750000 0.238561
O O18 0.685003 0.037438 0.141249
O O19 0.250000 0.012818 0.993328
O O20 0.197503 0.750000 0.011480
O O21 0.975455 0.750000 0.887112
O O22 0.000000 0.000000 0.000000
#
# Coordination Sequence:
#
# PCOD9448381 Si02
#       8
#     8   8   8   8   8   8   8   8
#     4  10  21  39  61  83 109 143 185 231 280 336
#     4  10  19  32  53  82 114 145 180 222 268 324
#     4  10  21  36  57  84 112 145 183 227 279 332
#     4   9  17  31  55  86 116 146 182 226 275 328
#     4  10  21  37  59  84 110 145 189 233 279 339
#     4   9  18  33  53  76 104 141 182 222 265 316
#     4  10  21  36  55  80 110 145 186 233 284 336
#     4  11  24  41  61  86 116 151 192 240 295 351
#
# _framework density 21.787682
#
# number of rings (size 3 to 8) (size 9 to 14) (size 15 to 20)
#    0.000    2.125    0.000    3.000    0.000    7.750 
#    0.000    1.875    0.000    1.875    0.000    0.000 
#    0.000    0.000    0.000    0.000    0.000    0.000 
#
# Total GULP energy -357347.400843 kJ/mol
# GULP energy per Si atom -5583.553138 kJ/mol
# Density = 2.173809 g / cm^3
# Si number density = 21.787682 Si / 1000 Ang^3
#
#
#
# Elastic Constant Matrix: (Units=GPa)
#
#
# Indices 1 2 3 4 5 6 
#
# 1 63.6170 -2.5192 18.8312 0.0000 0.0000 0.0000
# 2 -2.5192 33.9907 -9.3918 0.0000 0.0000 0.0000
# 3 18.8312 -9.3918 119.1133 0.0000 0.0000 0.0000
# 4 0.0000 0.0000 0.0000 10.4094 0.0000 0.0000
# 5 0.0000 0.0000 0.0000 0.0000 -2.8957 0.0000
# 6 0.0000 0.0000 0.0000 0.0000 0.0000 3.7766
#
#
#
# Elastic Compliance Matrix: (Units=1/GPa)
#
#
# Indices 1 2 3 4 5 6 
#
# 1 0.016500 0.000513 -0.002568 0.000000 0.000000 0.000000
# 2 0.000513 0.030091 0.002291 0.000000 0.000000 0.000000
# 3 -0.002568 0.002291 0.008982 0.000000 0.000000 0.000000
# 4 0.000000 0.000000 0.000000 0.096067 0.000000 0.000000
# 5 0.000000 0.000000 0.000000 0.000000 -0.345342 0.000000
# 6 0.000000 0.000000 0.000000 0.000000 0.000000 0.264791
#
#
# Mechanical properties :
#
#
# Convention : Reuss Voigt Hill
#
# Bulk Modulus (GPa) = 17.84248 25.61794 21.73021
# Shear Modulus (GPa) = 55.99318 16.24478 36.11898
#
# Velocity S-wave (km/s) = 5.07496 2.73352 4.07599
# Velocity P-wave (km/s) = 6.52284 4.66330 5.66982
#
# Compressibility (1/GPa) = 0.05604601
#
# Stress axis : x y z
#
# Youngs Moduli (GPa) = 60.60770 33.23257 111.33333
#
# Poissons Ratio (x) = -0.01706 0.28591
# Poissons Ratio (y) = -0.03111 -0.25511
# Poissons Ratio (z) = 0.15564 -0.07615
#
# Static dielectric constant tensor:
#      x y z
#    x 1.795190 0.000000 0.000000 
#    y 0.000000 1.801870 0.000000 
#    z 0.000000 0.000000 1.815200 
# 
# From -- ./inp_files/19389.got.cif
#   From: 2010.05.17/outbox.cif.g08.bks.cpg/sg59_10_cif.got.tgz:19389.got - 2010.06.03 14:40:33.
