data_PCOD9448375
_publ_section_title
;
Structure prediction by ZEFSAII (Michael W. Deem and Ramdas Pophale) SiO2 
 PCOD9448375
Probable space group: P M M N
;
_chemical_formula_sum "Si O2"
_cell_formula_units_Z 48
_cell_length_a 22.879407
_cell_length_b 7.570704
_cell_length_c 12.294812
_cell_angle_alpha 90.000000
_cell_angle_beta 90.000000
_cell_angle_gamma 90.000000
_cell_volume 2129.623952
_symmetry_space_group_name_H-M "P M M N"
_symmetry_group_IT_number 59
_space_group.IT_coordinate_system_code '2'
_symmetry_cell_setting 'orthorhombic'
loop_
_space_group_symop_operation_xyz
x,y,z
1/2-x,1/2-y,z
1/2+x,-y,-z
-x,1/2+y,-z
-x,-y,-z
1/2+x,1/2+y,-z
1/2-x,y,z
x,1/2-y,z
loop_
_atom_site_type_symbol
_atom_site_label
_atom_site_fract_x
_atom_site_fract_y
_atom_site_fract_z
Si Si1 0.187734 0.459440 0.610083
Si Si2 0.344574 0.536757 0.365750
Si Si3 0.023998 0.961332 0.380184
Si Si4 0.917387 0.534284 0.239011
Si Si5 0.314265 0.533701 0.125335
Si Si6 0.569076 0.051592 0.994472
O O1 0.250000 0.534219 0.646166
O O2 0.188212 0.250000 0.629752
O O3 0.181914 0.483868 0.481011
O O4 0.132625 0.526547 0.677507
O O5 0.344384 0.750000 0.365593
O O6 0.411084 0.469712 0.366438
O O7 0.315962 0.483032 0.252622
O O8 0.026690 0.750000 0.369566
O O9 0.978874 0.024658 0.289835
O O10 0.000000 0.000000 0.500000
O O11 0.917388 0.750000 0.233113
O O12 0.910210 0.461598 0.118949
O O13 0.250000 0.478600 0.080343
O O14 0.314987 0.750000 0.118306
O O15 0.375814 0.469606 0.072224
O O16 0.565926 0.250000 0.951120
O O17 0.500000 0.000000 0.000000
#
# Coordination Sequence:
#
# PCOD9448375 Si02
#       6
#     8   8   8   8   8   8
#     4  10  21  36  54  79 114 153 186 223 280 342
#     4  10  19  33  57  84 110 143 187 234 282 341
#     4  10  19  32  53  81 112 146 183 226 279 338
#     4  10  21  38  57  80 114 150 185 230 284 339
#     4   9  19  37  60  85 114 151 195 245 299 347
#     4  11  23  40  63  88 116 151 195 245 296 352
#
# _framework density 22.539190999999999
#
# number of rings (size 3 to 8) (size 9 to 14) (size 15 to 20)
#    0.000    2.000    1.667    2.000    0.000    5.667 
#    0.000    3.333    0.000    3.500    0.000    0.000 
#    0.000    0.000    0.000    0.000    0.000    0.000 
#
# Total GULP energy -267859.404531 kJ/mol
# GULP energy per Si atom -5580.404261 kJ/mol
# Density = 2.248789 g / cm^3
# Si number density = 22.539191 Si / 1000 Ang^3
#
#
#
# Elastic Constant Matrix: (Units=GPa)
#
#
# Indices 1 2 3 4 5 6 
#
# 1 197.0499 10.1651 42.8192 0.0000 0.0000 0.0000
# 2 10.1651 48.1682 -15.6364 0.0000 0.0000 0.0000
# 3 42.8192 -15.6364 89.0189 0.0000 0.0000 0.0000
# 4 0.0000 0.0000 0.0000 17.6839 0.0000 0.0000
# 5 0.0000 0.0000 0.0000 0.0000 17.3841 0.0000
# 6 0.0000 0.0000 0.0000 0.0000 0.0000 3.0230
#
#
#
# Elastic Compliance Matrix: (Units=1/GPa)
#
#
# Indices 1 2 3 4 5 6 
#
# 1 0.005897 -0.002296 -0.003240 0.000000 0.000000 0.000000
# 2 -0.002296 0.022910 0.005129 0.000000 0.000000 0.000000
# 3 -0.003240 0.005129 0.013693 0.000000 0.000000 0.000000
# 4 0.000000 0.000000 0.000000 0.056549 0.000000 0.000000
# 5 0.000000 0.000000 0.000000 0.000000 0.057524 0.000000
# 6 0.000000 0.000000 0.000000 0.000000 0.000000 0.330796
#
#
# Mechanical properties :
#
#
# Convention : Reuss Voigt Hill
#
# Bulk Modulus (GPa) = 23.98931 45.43696 34.71314
# Shear Modulus (GPa) = 9.95860 27.41081 18.68470
#
# Velocity S-wave (km/s) = 2.10427 3.49110 2.88234
# Velocity P-wave (km/s) = 4.07068 6.03765 5.14896
#
# Compressibility (1/GPa) = 0.04168524
#
# Stress axis : x y z
#
# Youngs Moduli (GPa) = 169.56652 43.64883 73.03013
#
# Poissons Ratio (x) = 0.10023 0.23662
# Poissons Ratio (y) = 0.38938 -0.37456
# Poissons Ratio (z) = 0.54941 -0.22387
#
# Static dielectric constant tensor:
#      x y z
#    x 1.876250 0.000000 0.000000 
#    y 0.000000 1.874380 0.000000 
#    z 0.000000 0.000000 1.785260 
# 
# From -- ./inp_files/18592.got.cif
#   From: 2010.05.17/outbox.cif.g08.bks.cpg/sg59_10_cif.got.tgz:18592.got - 2010.06.03 14:40:33.
