data_PCOD9448253
_publ_section_title
;
Structure prediction by ZEFSAII (Michael W. Deem and Ramdas Pophale) SiO2 
 PCOD9448253
Probable space group: P M M N
;
_chemical_formula_sum "Si O2"
_cell_formula_units_Z 48
_cell_length_a 7.591664
_cell_length_b 18.456457
_cell_length_c 15.599894
_cell_angle_alpha 90.000000
_cell_angle_beta 90.000000
_cell_angle_gamma 90.000000
_cell_volume 2185.782583
_symmetry_space_group_name_H-M "P M M N"
_symmetry_group_IT_number 59
_space_group.IT_coordinate_system_code '2'
_symmetry_cell_setting 'orthorhombic'
loop_
_space_group_symop_operation_xyz
x,y,z
1/2-x,1/2-y,z
1/2+x,-y,-z
-x,1/2+y,-z
-x,-y,-z
1/2+x,1/2+y,-z
1/2-x,y,z
x,1/2-y,z
loop_
_atom_site_type_symbol
_atom_site_label
_atom_site_fract_x
_atom_site_fract_y
_atom_site_fract_z
Si Si1 0.465471 0.114013 0.652064
Si Si2 0.956861 0.449131 0.330787
Si Si3 0.533716 0.829891 0.975993
Si Si4 0.952846 0.874894 0.159440
Si Si5 0.962707 0.829319 0.529499
Si Si6 0.048200 0.459527 0.143177
O O1 0.250000 0.117123 0.654017
O O2 0.528884 0.139149 0.745897
O O3 0.523753 0.155688 0.567581
O O4 0.516829 0.029641 0.642770
O O5 0.750000 0.454415 0.312446
O O6 0.984593 0.392005 0.405556
O O7 0.044472 0.430071 0.240399
O O8 0.750000 0.832478 0.975465
O O9 0.483186 0.750000 0.944020
O O10 0.474327 0.898128 0.919469
O O11 0.471781 0.839838 0.073871
O O12 0.750000 0.850866 0.163303
O O13 0.957162 0.962074 0.145421
O O14 0.750000 0.829402 0.527335
O O15 0.022699 0.750000 0.558179
O O16 0.250000 0.473988 0.117828
#
# Coordination Sequence:
#
# PCOD9448253 Si02
#       6
#     8   8   8   8   8   8
#     4   8  16  31  51  75  99 126 162 203 246 293
#     4  10  20  35  54  74  98 130 171 214 252 294
#     4   9  18  31  49  75 104 134 168 206 249 297
#     4   9  17  32  54  77 101 130 167 209 250 296
#     4  10  20  33  50  74 103 132 162 200 250 306
#     4  10  19  32  52  76 102 133 170 211 253 297
#
# _framework density 21.960100000000001
#
# number of rings (size 3 to 8) (size 9 to 14) (size 15 to 20)
#    0.000    2.667    0.000    3.000    0.000    1.667 
#    0.000    9.167    0.000    4.000    0.000    0.000 
#    0.000    0.000    0.000    0.000    0.000    0.000 
#
# Total GULP energy -267949.790162 kJ/mol
# GULP energy per Si atom -5582.287295 kJ/mol
# Density = 2.191012 g / cm^3
# Si number density = 21.960100 Si / 1000 Ang^3
#
#
#
# Elastic Constant Matrix: (Units=GPa)
#
#
# Indices 1 2 3 4 5 6 
#
# 1 50.4818 -1.9792 -6.1045 0.0000 0.0000 0.0000
# 2 -1.9792 29.3897 11.9267 0.0000 0.0000 0.0000
# 3 -6.1045 11.9267 60.7527 0.0000 0.0000 0.0000
# 4 0.0000 0.0000 0.0000 -27.0210 0.0000 0.0000
# 5 0.0000 0.0000 0.0000 0.0000 9.9561 0.0000
# 6 0.0000 0.0000 0.0000 0.0000 0.0000 9.0049
#
#
#
# Elastic Compliance Matrix: (Units=1/GPa)
#
#
# Indices 1 2 3 4 5 6 
#
# 1 0.020062 0.000579 0.001902 0.000000 0.000000 0.000000
# 2 0.000579 0.036988 -0.007203 0.000000 0.000000 0.000000
# 3 0.001902 -0.007203 0.018065 0.000000 0.000000 0.000000
# 4 0.000000 0.000000 0.000000 -0.037008 0.000000 0.000000
# 5 0.000000 0.000000 0.000000 0.000000 0.100441 0.000000
# 6 0.000000 0.000000 0.000000 0.000000 0.000000 0.111051
#
#
# Mechanical properties :
#
#
# Convention : Reuss Voigt Hill
#
# Bulk Modulus (GPa) = 15.22736 16.47890 15.85313
# Shear Modulus (GPa) = 17.79784 7.50673 12.65228
#
# Velocity S-wave (km/s) = 2.84995 1.85088 2.40291
# Velocity P-wave (km/s) = 4.21649 3.47678 3.86438
#
# Compressibility (1/GPa) = 0.06567125
#
# Stress axis : x y z
#
# Youngs Moduli (GPa) = 49.84584 27.03610 55.35446
#
# Poissons Ratio (x) = -0.01566 -0.10529
# Poissons Ratio (y) = -0.02887 0.39872
# Poissons Ratio (z) = -0.09481 0.19474
#
# Static dielectric constant tensor:
#      x y z
#    x 1.849050 0.000000 0.000000 
#    y 0.000000 1.775110 0.000000 
#    z 0.000000 0.000000 1.791720 
# 
# From -- ./inp_files/20357.got.cif
#   From: 2010.05.17/outbox.cif.g08.bks.cpg/sg59_11_cif.got.tgz:20357.got - 2010.06.03 14:40:33.
