data_PCOD9448402
_publ_section_title
;
Structure prediction by ZEFSAII (Michael W. Deem and Ramdas Pophale) SiO2 
 PCOD9448402
Probable space group: P M M N
;
_chemical_formula_sum "Si O2"
_cell_formula_units_Z 48
_cell_length_a 8.817994
_cell_length_b 18.529030
_cell_length_c 16.819601
_cell_angle_alpha 90.000000
_cell_angle_beta 90.000000
_cell_angle_gamma 90.000000
_cell_volume 2748.135691
_symmetry_space_group_name_H-M "P M M N"
_symmetry_group_IT_number 59
_space_group.IT_coordinate_system_code '2'
_symmetry_cell_setting 'orthorhombic'
loop_
_space_group_symop_operation_xyz
x,y,z
1/2-x,1/2-y,z
1/2+x,-y,-z
-x,1/2+y,-z
-x,-y,-z
1/2+x,1/2+y,-z
1/2-x,y,z
x,1/2-y,z
loop_
_atom_site_type_symbol
_atom_site_label
_atom_site_fract_x
_atom_site_fract_y
_atom_site_fract_z
Si Si1 0.067717 0.667030 0.641310
Si Si2 0.930450 0.919557 0.494085
Si Si3 0.067352 0.668280 0.161684
Si Si4 0.431315 0.539811 0.752824
Si Si5 0.430861 0.471263 0.918611
Si Si6 0.569605 0.401426 0.671520
O O1 0.250000 0.665049 0.629485
O O2 0.020842 0.750000 0.649046
O O3 0.034748 0.618680 0.718963
O O4 0.990667 0.628200 0.566696
O O5 0.750000 0.925128 0.496161
O O6 0.985257 0.886213 0.410493
O O7 0.000000 0.000000 0.500000
O O8 0.250000 0.662823 0.154521
O O9 0.021565 0.750000 0.142572
O O10 0.030408 0.649630 0.253757
O O11 0.993336 0.606984 0.107294
O O12 0.250000 0.526858 0.743027
O O13 0.469042 0.524053 0.844401
O O14 0.519594 0.481009 0.700398
O O15 0.250000 0.468034 0.925351
O O16 0.500000 0.500000 0.000000
O O17 0.750000 0.398822 0.658826
#
# Coordination Sequence:
#
# PCOD9448402 Si02
#       6
#     8   8   8   8   8   8
#     4  10  21  37  56  78 106 141 182 230 281 327
#     4  12  23  35  53  78 109 147 190 232 275 323
#     4   9  19  36  57  82 113 146 181 225 279 333
#     4   9  18  34  55  77 104 140 181 222 267 326
#     4  10  20  35  57  85 113 145 185 225 271 330
#     4  10  19  32  54  81 106 141 183 224 272 327
#
# _framework density 17.466386
#
# number of rings (size 3 to 8) (size 9 to 14) (size 15 to 20)
#    0.000    2.000    1.667    2.500    0.000    2.667 
#    0.000    2.500    0.000    3.000    0.000    0.000 
#    0.000    0.000    0.000    0.000    0.000    0.000 
#
# Total GULP energy -267934.132969 kJ/mol
# GULP energy per Si atom -5581.961104 kJ/mol
# Density = 1.742663 g / cm^3
# Si number density = 17.466386 Si / 1000 Ang^3
#
#
#
# Elastic Constant Matrix: (Units=GPa)
#
#
# Indices 1 2 3 4 5 6 
#
# 1 49.1486 53.3817 52.9250 0.0000 0.0000 0.0000
# 2 53.3817 148.5820 86.8613 0.0000 0.0000 0.0000
# 3 52.9250 86.8613 141.4149 0.0000 0.0000 0.0000
# 4 0.0000 0.0000 0.0000 19.4257 0.0000 0.0000
# 5 0.0000 0.0000 0.0000 0.0000 29.3671 0.0000
# 6 0.0000 0.0000 0.0000 0.0000 0.0000 24.1124
#
#
#
# Elastic Compliance Matrix: (Units=1/GPa)
#
#
# Indices 1 2 3 4 5 6 
#
# 1 0.040378 -0.008851 -0.009675 0.000000 0.000000 0.000000
# 2 -0.008851 0.012441 -0.004329 0.000000 0.000000 0.000000
# 3 -0.009675 -0.004329 0.013352 0.000000 0.000000 0.000000
# 4 0.000000 0.000000 0.000000 0.051478 0.000000 0.000000
# 5 0.000000 0.000000 0.000000 0.000000 0.034052 0.000000
# 6 0.000000 0.000000 0.000000 0.000000 0.000000 0.041472
#
#
# Mechanical properties :
#
#
# Convention : Reuss Voigt Hill
#
# Bulk Modulus (GPa) = 48.87520 80.60906 64.74213
# Shear Modulus (GPa) = 20.34974 24.31287 22.33130
#
# Velocity S-wave (km/s) = 3.41703 3.73497 3.57953
# Velocity P-wave (km/s) = 6.60389 8.05302 7.36419
#
# Compressibility (1/GPa) = 0.02046027
#
# Stress axis : x y z
#
# Youngs Moduli (GPa) = 24.76592 80.37953 74.89756
#
# Poissons Ratio (x) = 0.71141 0.72466
# Poissons Ratio (y) = 0.21919 0.32425
# Poissons Ratio (z) = 0.23962 0.34798
#
# Static dielectric constant tensor:
#      x y z
#    x 1.587640 0.000000 0.000000 
#    y 0.000000 1.584440 0.000000 
#    z 0.000000 0.000000 1.586070 
# 
# From -- ./inp_files/20308.got.cif
#   From: 2010.05.17/outbox.cif.g08.bks.cpg/sg59_11_cif.got.tgz:20308.got - 2010.06.03 14:40:33.
