data_PCOD9448481
_publ_section_title
;
Structure prediction by ZEFSAII (Michael W. Deem and Ramdas Pophale) SiO2 
 PCOD9448481
Probable space group: P M M N
;
_chemical_formula_sum "Si O2"
_cell_formula_units_Z 48
_cell_length_a 7.451372
_cell_length_b 21.144872
_cell_length_c 14.690004
_cell_angle_alpha 90.000000
_cell_angle_beta 90.000000
_cell_angle_gamma 90.000000
_cell_volume 2314.532162
_symmetry_space_group_name_H-M "P M M N"
_symmetry_group_IT_number 59
_space_group.IT_coordinate_system_code '2'
_symmetry_cell_setting 'orthorhombic'
loop_
_space_group_symop_operation_xyz
x,y,z
1/2-x,1/2-y,z
1/2+x,-y,-z
-x,1/2+y,-z
-x,-y,-z
1/2+x,1/2+y,-z
1/2-x,y,z
x,1/2-y,z
loop_
_atom_site_type_symbol
_atom_site_label
_atom_site_fract_x
_atom_site_fract_y
_atom_site_fract_z
Si Si1 0.539226 0.920382 0.902382
Si Si2 0.543208 0.629233 0.286872
Si Si3 0.970603 0.750000 0.397491
Si Si4 0.463026 0.996869 0.392975
Si Si5 0.969171 0.750000 0.607519
Si Si6 0.531682 0.931386 0.104394
Si Si7 0.469973 0.123334 0.289049
O O1 0.750000 0.905554 0.907496
O O2 0.467577 0.883073 0.815287
O O3 0.520706 0.995328 0.882411
O O4 0.466704 0.910658 0.004298
O O5 0.750000 0.646463 0.268979
O O6 0.467696 0.687675 0.343660
O O7 0.540057 0.566137 0.347822
O O8 0.465411 0.610146 0.188815
O O9 0.750000 0.750000 0.400362
O O10 0.027497 0.750000 0.502569
O O11 0.250000 0.993428 0.379129
O O12 0.500000 0.000000 0.500000
O O13 0.527350 0.060613 0.343513
O O14 0.750000 0.750000 0.607366
O O15 0.026382 0.813215 0.659965
O O16 0.750000 0.930597 0.104261
O O17 0.250000 0.122996 0.288576
#
# Coordination Sequence:
#
# PCOD9448481 Si02
#       7
#     8   8   4   8   4   8   8
#     4   9  16  29  47  71 100 127 157 200 251 299
#     4  10  19  33  51  74  99 131 171 208 250 302
#     4   9  18  32  50  68  98 137 171 207 252 305
#     4  11  21  33  50  74 100 129 165 214 257 297
#     4   9  16  28  45  66  92 129 167 199 240 295
#     4   9  17  28  47  73 100 127 159 200 249 300
#     4   9  17  29  47  70  96 125 162 200 243 293
#
# _framework density 20.738530000000001
#
# number of rings (size 3 to 8) (size 9 to 14) (size 15 to 20)
#    0.000    2.500    1.667    1.500    0.000    2.667 
#    0.000    1.250    0.000    5.000    0.000    4.667 
#    0.000    5.333    0.000    0.000    0.000    0.000 
#
# Total GULP energy -267965.477906 kJ/mol
# GULP energy per Si atom -5582.614123 kJ/mol
# Density = 2.069133 g / cm^3
# Si number density = 20.738530 Si / 1000 Ang^3
#
#
#
# Elastic Constant Matrix: (Units=GPa)
#
#
# Indices 1 2 3 4 5 6 
#
# 1 60.9726 -7.8466 -4.9463 0.0000 0.0000 0.0000
# 2 -7.8466 153.7852 110.6609 0.0000 0.0000 0.0000
# 3 -4.9463 110.6609 232.6236 0.0000 0.0000 0.0000
# 4 0.0000 0.0000 0.0000 37.4014 0.0000 0.0000
# 5 0.0000 0.0000 0.0000 0.0000 6.1465 0.0000
# 6 0.0000 0.0000 0.0000 0.0000 0.0000 8.1706
#
#
#
# Elastic Compliance Matrix: (Units=1/GPa)
#
#
# Indices 1 2 3 4 5 6 
#
# 1 0.016510 0.000897 -0.000076 0.000000 0.000000 0.000000
# 2 0.000897 0.009936 -0.004707 0.000000 0.000000 0.000000
# 3 -0.000076 -0.004707 0.006537 0.000000 0.000000 0.000000
# 4 0.000000 0.000000 0.000000 0.026737 0.000000 0.000000
# 5 0.000000 0.000000 0.000000 0.000000 0.162694 0.000000
# 6 0.000000 0.000000 0.000000 0.000000 0.000000 0.122391
#
#
# Mechanical properties :
#
#
# Convention : Reuss Voigt Hill
#
# Bulk Modulus (GPa) = 39.66693 71.45750 55.56221
# Shear Modulus (GPa) = 13.85120 33.64459 23.74789
#
# Velocity S-wave (km/s) = 2.58717 4.03218 3.38762
# Velocity P-wave (km/s) = 5.30031 7.49727 6.49240
#
# Compressibility (1/GPa) = 0.02520991
#
# Stress axis : x y z
#
# Youngs Moduli (GPa) = 60.56901 100.64709 152.98596
#
# Poissons Ratio (x) = -0.09025 0.01156
# Poissons Ratio (y) = -0.05431 0.72017
# Poissons Ratio (z) = 0.00457 0.47379
#
# Static dielectric constant tensor:
#      x y z
#    x 1.836500 0.000000 0.000000 
#    y 0.000000 1.676950 0.000000 
#    z 0.000000 0.000000 1.730570 
# 
# From -- ./inp_files/20547.got.cif
#   From: 2010.05.17/outbox.cif.g08.bks.cpg/sg59_11_cif.got.tgz:20547.got - 2010.06.03 14:40:33.
