data_PCOD9448564
_publ_section_title
;
Structure prediction by ZEFSAII (Michael W. Deem and Ramdas Pophale) SiO2 
 PCOD9448564
Probable space group: P M M N
;
_chemical_formula_sum "Si O2"
_cell_formula_units_Z 40
_cell_length_a 16.818242
_cell_length_b 8.119048
_cell_length_c 14.293172
_cell_angle_alpha 90.000000
_cell_angle_beta 90.000000
_cell_angle_gamma 90.000000
_cell_volume 1951.705681
_symmetry_space_group_name_H-M "P M M N"
_symmetry_group_IT_number 59
_space_group.IT_coordinate_system_code '2'
_symmetry_cell_setting 'orthorhombic'
loop_
_space_group_symop_operation_xyz
x,y,z
1/2-x,1/2-y,z
1/2+x,-y,-z
-x,1/2+y,-z
-x,-y,-z
1/2+x,1/2+y,-z
1/2-x,y,z
x,1/2-y,z
loop_
_atom_site_type_symbol
_atom_site_label
_atom_site_fract_x
_atom_site_fract_y
_atom_site_fract_z
Si Si1 0.439505 0.940612 0.230692
Si Si2 0.250000 0.058777 0.716683
Si Si3 0.076974 0.057553 0.440168
Si Si4 0.606794 0.056648 0.165610
Si Si5 0.250000 0.443016 0.494170
Si Si6 0.911466 0.052444 0.967196
O O1 0.417249 0.750000 0.246436
O O2 0.394451 0.010060 0.137792
O O3 0.433949 0.031289 0.329244
O O4 0.530853 0.952666 0.197215
O O5 0.250000 0.250000 0.745940
O O6 0.250000 0.053754 0.605756
O O7 0.173960 0.970909 0.759117
O O8 0.082265 0.250000 0.462293
O O9 0.164538 0.983757 0.463519
O O10 0.000000 0.000000 0.500000
O O11 0.583668 0.250000 0.162225
O O12 0.636664 0.009131 0.061042
O O13 0.250000 0.250000 0.462245
O O14 0.909463 0.250000 0.957409
O O15 0.000000 0.000000 0.000000
#
# Coordination Sequence:
#
# PCOD9448564 Si02
#       6
#     8   4   8   8   4   8
#     4  10  19  34  55  81 110 143 181 227 279 333
#     4  11  21  35  54  77 106 142 179 229 290 339
#     4  11  22  39  61  85 112 149 193 240 290 345
#     4  10  19  33  53  80 109 143 184 225 271 335
#     4   9  22  41  58  77 110 148 185 231 286 339
#     4   8  16  30  50  74 104 137 173 217 268 324
#
# _framework density 20.494893999999999
#
# number of rings (size 3 to 8) (size 9 to 14) (size 15 to 20)
#    0.000    2.200    0.000    3.300    0.000    3.200 
#    0.000    6.000    0.000    3.600    0.000    0.000 
#    0.000    0.000    0.000    0.000    0.000    0.000 
#
# Total GULP energy -222744.701429 kJ/mol
# GULP energy per Si atom -5568.617536 kJ/mol
# Density = 2.044825 g / cm^3
# Si number density = 20.494894 Si / 1000 Ang^3
#
#
#
# Elastic Constant Matrix: (Units=GPa)
#
#
# Indices 1 2 3 4 5 6 
#
# 1 79.2887 6.2111 43.4163 0.0000 0.0000 0.0000
# 2 6.2111 28.4281 1.9266 0.0000 0.0000 0.0000
# 3 43.4163 1.9266 111.5226 0.0000 0.0000 0.0000
# 4 0.0000 0.0000 0.0000 24.0826 0.0000 0.0000
# 5 0.0000 0.0000 0.0000 0.0000 -11.8906 0.0000
# 6 0.0000 0.0000 0.0000 0.0000 0.0000 12.2645
#
#
#
# Elastic Compliance Matrix: (Units=1/GPa)
#
#
# Indices 1 2 3 4 5 6 
#
# 1 0.016304 -0.003136 -0.006293 0.000000 0.000000 0.000000
# 2 -0.003136 0.035821 0.000602 0.000000 0.000000 0.000000
# 3 -0.006293 0.000602 0.011406 0.000000 0.000000 0.000000
# 4 0.000000 0.000000 0.000000 0.041524 0.000000 0.000000
# 5 0.000000 0.000000 0.000000 0.000000 -0.084100 0.000000
# 6 0.000000 0.000000 0.000000 0.000000 0.000000 0.081536
#
#
# Mechanical properties :
#
#
# Convention : Reuss Voigt Hill
#
# Bulk Modulus (GPa) = 21.79724 35.81639 28.80682
# Shear Modulus (GPa) = 36.91776 16.07033 26.49405
#
# Velocity S-wave (km/s) = 4.24879 2.80324 3.59933
# Velocity P-wave (km/s) = 5.89306 5.29068 5.59998
#
# Compressibility (1/GPa) = 0.04587736
#
# Stress axis : x y z
#
# Youngs Moduli (GPa) = 61.33620 27.91677 87.67126
#
# Poissons Ratio (x) = 0.08754 0.55171
# Poissons Ratio (y) = 0.19233 -0.05277
# Poissons Ratio (z) = 0.38598 -0.01680
#
# Static dielectric constant tensor:
#      x y z
#    x 1.768520 0.000000 0.000000 
#    y 0.000000 1.791260 0.000000 
#    z 0.000000 0.000000 1.776620 
# 
# From -- ./inp_files/22995.got.cif
#   From: 2010.05.17/outbox.cif.g08.bks.cpg/sg59_12_cif.got.tgz:22995.got - 2010.06.03 14:40:33.
