data_PCOD9448993
_publ_section_title
;
Structure prediction by ZEFSAII (Michael W. Deem and Ramdas Pophale) SiO2 
 PCOD9448993
Probable space group: P M M N
;
_chemical_formula_sum "Si O2"
_cell_formula_units_Z 64
_cell_length_a 7.834755
_cell_length_b 21.397521
_cell_length_c 18.310723
_cell_angle_alpha 90.000000
_cell_angle_beta 90.000000
_cell_angle_gamma 90.000000
_cell_volume 3069.688974
_symmetry_space_group_name_H-M "P M M N"
_symmetry_group_IT_number 59
_space_group.IT_coordinate_system_code '2'
_symmetry_cell_setting 'orthorhombic'
loop_
_space_group_symop_operation_xyz
x,y,z
1/2-x,1/2-y,z
1/2+x,-y,-z
-x,1/2+y,-z
-x,-y,-z
1/2+x,1/2+y,-z
1/2-x,y,z
x,1/2-y,z
loop_
_atom_site_type_symbol
_atom_site_label
_atom_site_fract_x
_atom_site_fract_y
_atom_site_fract_z
Si Si1 0.060005 0.524143 0.922394
Si Si2 0.556433 0.603793 0.161341
Si Si3 0.949362 0.821599 0.025454
Si Si4 0.060332 0.352583 0.132184
Si Si5 0.547515 0.678464 0.564352
Si Si6 0.049269 0.891260 0.711572
Si Si7 0.040001 0.463246 0.701314
Si Si8 0.544456 0.934167 0.462530
O O1 0.250000 0.551994 0.927991
O O2 0.071236 0.465778 0.870027
O O3 0.935932 0.574824 0.889948
O O4 0.000000 0.500000 0.000000
O O5 0.750000 0.630128 0.171218
O O6 0.478251 0.588187 0.239753
O O7 0.473408 0.640946 0.093671
O O8 0.750000 0.844005 0.018438
O O9 0.947912 0.750000 0.046690
O O10 0.020095 0.825624 0.942789
O O11 0.250000 0.325706 0.139960
O O12 0.977172 0.354982 0.211773
O O13 0.750000 0.683040 0.550783
O O14 0.478983 0.750000 0.560591
O O15 0.525679 0.647913 0.644483
O O16 0.478602 0.626299 0.507199
O O17 0.250000 0.896098 0.698230
O O18 0.986007 0.963957 0.714021
O O19 0.250000 0.463210 0.706287
O O20 0.988094 0.441075 0.621077
O O21 0.750000 0.929747 0.461975
O O22 0.500000 0.000000 0.500000
#
# Coordination Sequence:
#
# PCOD9448993 Si02
#       8
#     8   8   8   8   8   8   8   8
#     4  11  19  30  49  76 105 137 178 228 280 326
#     4   9  16  29  49  74 103 134 170 221 276 321
#     4   9  18  32  49  70 100 142 187 223 262 321
#     4  11  21  33  51  79 111 144 182 226 277 334
#     4  10  22  39  57  81 117 155 188 228 281 344
#     4  11  21  35  56  83 113 145 183 232 284 338
#     4   9  17  30  51  81 112 136 169 227 288 328
#     4  10  19  34  58  85 112 146 186 228 280 338
#
# _framework density 20.849018000000001
#
# number of rings (size 3 to 8) (size 9 to 14) (size 15 to 20)
#    0.000    2.000    3.750    1.125    0.000    0.750 
#    0.000    1.875    0.000    4.875    0.000    0.000 
#    0.000    0.000    0.000    0.000    0.000    0.000 
#
# Total GULP energy -356519.850471 kJ/mol
# GULP energy per Si atom -5570.622664 kJ/mol
# Density = 2.080156 g / cm^3
# Si number density = 20.849018 Si / 1000 Ang^3
#
#
#
# Elastic Constant Matrix: (Units=GPa)
#
#
# Indices 1 2 3 4 5 6 
#
# 1 35.1026 7.5341 1.0414 0.0000 0.0000 0.0000
# 2 7.5341 114.3000 65.7343 0.0000 0.0000 0.0000
# 3 1.0414 65.7343 173.5590 0.0000 0.0000 0.0000
# 4 0.0000 0.0000 0.0000 5.4131 0.0000 0.0000
# 5 0.0000 0.0000 0.0000 0.0000 7.6177 0.0000
# 6 0.0000 0.0000 0.0000 0.0000 0.0000 13.5137
#
#
#
# Elastic Compliance Matrix: (Units=1/GPa)
#
#
# Indices 1 2 3 4 5 6 
#
# 1 0.028964 -0.002313 0.000702 0.000000 0.000000 0.000000
# 2 -0.002313 0.011370 -0.004292 0.000000 0.000000 0.000000
# 3 0.000702 -0.004292 0.007383 0.000000 0.000000 0.000000
# 4 0.000000 0.000000 0.000000 0.184739 0.000000 0.000000
# 5 0.000000 0.000000 0.000000 0.000000 0.131274 0.000000
# 6 0.000000 0.000000 0.000000 0.000000 0.000000 0.073999
#
#
# Mechanical properties :
#
#
# Convention : Reuss Voigt Hill
#
# Bulk Modulus (GPa) = 27.84710 52.39791 40.12250
# Shear Modulus (GPa) = 10.83414 21.88568 16.35991
#
# Velocity S-wave (km/s) = 2.28205 3.24346 2.80426
# Velocity P-wave (km/s) = 4.50879 6.26205 5.45631
#
# Compressibility (1/GPa) = 0.03591039
#
# Stress axis : x y z
#
# Youngs Moduli (GPa) = 34.52616 87.95114 135.44197
#
# Poissons Ratio (x) = 0.20343 -0.09511
# Poissons Ratio (y) = 0.07986 0.58137
# Poissons Ratio (z) = -0.02425 0.37752
#
# Static dielectric constant tensor:
#      x y z
#    x 1.782810 0.000000 0.000000 
#    y 0.000000 1.761270 0.000000 
#    z 0.000000 0.000000 1.806220 
# 
# From -- ./inp_files/26346.got.cif
#   From: 2010.05.17/outbox.cif.g08.bks.cpg/sg59_14_cif.got.tgz:26346.got - 2010.06.03 14:40:33.
