data_PCOD9448472
_publ_section_title
;
Structure prediction by ZEFSAII (Michael W. Deem and Ramdas Pophale) SiO2 
 PCOD9448472
Probable space group: P M M N
;
_chemical_formula_sum "Si O2"
_cell_formula_units_Z 56
_cell_length_a 7.573851
_cell_length_b 22.332467
_cell_length_c 17.361313
_cell_angle_alpha 90.000000
_cell_angle_beta 90.000000
_cell_angle_gamma 90.000000
_cell_volume 2936.540702
_symmetry_space_group_name_H-M "P M M N"
_symmetry_group_IT_number 59
_space_group.IT_coordinate_system_code '2'
_symmetry_cell_setting 'orthorhombic'
loop_
_space_group_symop_operation_xyz
x,y,z
1/2-x,1/2-y,z
1/2+x,-y,-z
-x,1/2+y,-z
-x,-y,-z
1/2+x,1/2+y,-z
1/2-x,y,z
x,1/2-y,z
loop_
_atom_site_type_symbol
_atom_site_label
_atom_site_fract_x
_atom_site_fract_y
_atom_site_fract_z
Si Si1 0.541500 0.467521 0.376603
Si Si2 0.462030 0.937923 0.954878
Si Si3 0.044820 0.816862 0.035012
Si Si4 0.535934 0.412177 0.529698
Si Si5 0.043497 0.376423 0.811185
Si Si6 0.036232 0.817608 0.350986
Si Si7 0.966663 0.487626 0.204901
O O1 0.750000 0.455394 0.369563
O O2 0.469966 0.423526 0.443016
O O3 0.519076 0.532661 0.415611
O O4 0.470652 0.468373 0.289796
O O5 0.250000 0.933519 0.954823
O O6 0.521119 0.946796 0.866708
O O7 0.531098 0.876548 0.993534
O O8 0.500000 0.000000 0.000000
O O9 0.250000 0.813464 0.011715
O O10 0.968348 0.750000 0.022120
O O11 0.039802 0.833210 0.125514
O O12 0.750000 0.413176 0.527142
O O13 0.477862 0.352658 0.572909
O O14 0.250000 0.378564 0.830107
O O15 0.974674 0.444399 0.812992
O O16 0.020930 0.352127 0.725396
O O17 0.250000 0.817291 0.350920
O O18 0.972499 0.750000 0.348601
O O19 0.750000 0.488959 0.206981
#
# Coordination Sequence:
#
# PCOD9448472 Si02
#       7
#     8   8   8   8   8   8   8
#     4   9  16  29  47  66  89 115 143 186 233 268
#     4  10  19  33  51  70  94 124 159 197 238 285
#     4  10  21  35  50  69  96 130 162 195 238 289
#     4   9  17  28  45  66  87 117 154 183 218 268
#     4  11  20  31  48  71  97 125 159 194 233 282
#     4  10  20  32  44  63  96 131 158 186 224 275
#     4   9  17  29  47  70  95 119 147 192 241 276
#
# _framework density 19.070056999999998
#
# number of rings (size 3 to 8) (size 9 to 14) (size 15 to 20)
#    0.000    2.286    2.857    0.857    0.000    2.286 
#    0.000    0.714    0.000    0.857    0.000    6.000 
#    0.000    0.000    0.000    5.857    0.000    6.857 
#
# Total GULP energy -312319.937359 kJ/mol
# GULP energy per Si atom -5577.141739 kJ/mol
# Density = 1.902665 g / cm^3
# Si number density = 19.070057 Si / 1000 Ang^3
#
#
#
# Elastic Constant Matrix: (Units=GPa)
#
#
# Indices 1 2 3 4 5 6 
#
# 1 43.8807 7.0359 5.3615 0.0000 0.0000 0.0000
# 2 7.0359 127.7285 65.9587 0.0000 0.0000 0.0000
# 3 5.3615 65.9587 135.4735 0.0000 0.0000 0.0000
# 4 0.0000 0.0000 0.0000 19.2174 0.0000 0.0000
# 5 0.0000 0.0000 0.0000 0.0000 10.8210 0.0000
# 6 0.0000 0.0000 0.0000 0.0000 0.0000 10.0237
#
#
#
# Elastic Compliance Matrix: (Units=1/GPa)
#
#
# Indices 1 2 3 4 5 6 
#
# 1 0.023008 -0.001065 -0.000392 0.000000 0.000000 0.000000
# 2 -0.001065 0.010508 -0.005074 0.000000 0.000000 0.000000
# 3 -0.000392 -0.005074 0.009867 0.000000 0.000000 0.000000
# 4 0.000000 0.000000 0.000000 0.052036 0.000000 0.000000
# 5 0.000000 0.000000 0.000000 0.000000 0.092413 0.000000
# 6 0.000000 0.000000 0.000000 0.000000 0.000000 0.099763
#
#
# Mechanical properties :
#
#
# Convention : Reuss Voigt Hill
#
# Bulk Modulus (GPa) = 32.98015 51.53277 42.25646
# Shear Modulus (GPa) = 16.08934 23.26086 19.67510
#
# Velocity S-wave (km/s) = 2.90780 3.49629 3.21554
# Velocity P-wave (km/s) = 5.34841 6.58637 5.99941
#
# Compressibility (1/GPa) = 0.03032126
#
# Stress axis : x y z
#
# Youngs Moduli (GPa) = 43.46366 95.16629 101.34391
#
# Poissons Ratio (x) = 0.10134 0.03973
# Poissons Ratio (y) = 0.04629 0.51421
# Poissons Ratio (z) = 0.01704 0.48286
#
# Static dielectric constant tensor:
#      x y z
#    x 1.718050 0.000000 0.000000 
#    y 0.000000 1.662970 0.000000 
#    z 0.000000 0.000000 1.666830 
# 
# From -- ./inp_files/26005.got.cif
#   From: 2010.05.17/outbox.cif.g08.bks.cpg/sg59_14_cif.got.tgz:26005.got - 2010.06.03 14:40:33.
