data_PCOD9448927
_publ_section_title
;
Structure prediction by ZEFSAII (Michael W. Deem and Ramdas Pophale) SiO2 
 PCOD9448927
Probable space group: P M M N
;
_chemical_formula_sum "Si O2"
_cell_formula_units_Z 64
_cell_length_a 18.408149
_cell_length_b 8.777637
_cell_length_c 20.310195
_cell_angle_alpha 90.000000
_cell_angle_beta 90.000000
_cell_angle_gamma 90.000000
_cell_volume 3281.722319
_symmetry_space_group_name_H-M "P M M N"
_symmetry_group_IT_number 59
_space_group.IT_coordinate_system_code '2'
_symmetry_cell_setting 'orthorhombic'
loop_
_space_group_symop_operation_xyz
x,y,z
1/2-x,1/2-y,z
1/2+x,-y,-z
-x,1/2+y,-z
-x,-y,-z
1/2+x,1/2+y,-z
1/2-x,y,z
x,1/2-y,z
loop_
_atom_site_type_symbol
_atom_site_label
_atom_site_fract_x
_atom_site_fract_y
_atom_site_fract_z
Si Si1 0.104018 0.428615 0.952625
Si Si2 0.085156 0.566235 0.237204
Si Si3 0.564595 0.431334 0.912885
Si Si4 0.924765 0.570248 0.281853
Si Si5 0.665681 0.431353 0.400253
Si Si6 0.667746 0.566441 0.645081
Si Si7 0.165865 0.574805 0.830193
Si Si8 0.921901 0.932430 0.519252
O O1 0.120669 0.250000 0.947267
O O2 0.154973 0.526605 0.905528
O O3 0.021715 0.453185 0.925361
O O4 0.104190 0.481975 0.028036
O O5 0.088997 0.750000 0.237685
O O6 0.085309 0.518480 0.160703
O O7 0.146258 0.498013 0.283965
O O8 0.007596 0.522672 0.269104
O O9 0.578078 0.250000 0.918674
O O10 0.923210 0.750000 0.296528
O O11 0.884747 0.480496 0.339590
O O12 0.881528 0.535343 0.214953
O O13 0.750000 0.469909 0.387304
O O14 0.660485 0.250000 0.409781
O O15 0.635588 0.515821 0.464337
O O16 0.750000 0.521209 0.626782
O O17 0.665306 0.750000 0.647098
O O18 0.609812 0.515530 0.589789
O O19 0.250000 0.562978 0.811360
O O20 0.142609 0.750000 0.820344
O O21 0.927743 0.750000 0.520054
O O22 0.000000 0.000000 0.500000
#
# Coordination Sequence:
#
# PCOD9448927 Si02
#       8
#     8   8   8   8   8   8   8   8
#     4  10  19  34  56  83 112 147 194 243 293 351
#     4  10  21  38  60  88 118 150 192 241 293 350
#     4   9  18  35  56  82 115 146 186 241 295 349
#     4  11  22  38  59  86 118 154 198 245 293 352
#     4  11  24  40  58  85 121 158 198 243 292 351
#     4  10  23  42  62  87 120 156 196 242 294 352
#     4  11  23  37  54  80 117 159 199 242 297 356
#     4  11  23  41  65  91 120 156 198 248 302 356
#
# _framework density 19.501954999999999
#
# number of rings (size 3 to 8) (size 9 to 14) (size 15 to 20)
#    0.000    1.625    1.250    3.375    0.000    9.250 
#    0.000    0.625    0.000    0.750    0.000    0.000 
#    0.000    0.000    0.000    0.000    0.000    0.000 
#
# Total GULP energy -357638.160870 kJ/mol
# GULP energy per Si atom -5588.096264 kJ/mol
# Density = 1.945757 g / cm^3
# Si number density = 19.501955 Si / 1000 Ang^3
#
#
#
# Elastic Constant Matrix: (Units=GPa)
#
#
# Indices 1 2 3 4 5 6 
#
# 1 47.5082 13.1128 19.9918 0.0000 0.0000 0.0000
# 2 13.1128 21.8749 7.2858 0.0000 0.0000 0.0000
# 3 19.9918 7.2858 117.0362 0.0000 0.0000 0.0000
# 4 0.0000 0.0000 0.0000 36.6323 0.0000 0.0000
# 5 0.0000 0.0000 0.0000 0.0000 -3.0268 0.0000
# 6 0.0000 0.0000 0.0000 0.0000 0.0000 23.4858
#
#
#
# Elastic Compliance Matrix: (Units=1/GPa)
#
#
# Indices 1 2 3 4 5 6 
#
# 1 0.026654 -0.014767 -0.003634 0.000000 0.000000 0.000000
# 2 -0.014767 0.054864 -0.000893 0.000000 0.000000 0.000000
# 3 -0.003634 -0.000893 0.009221 0.000000 0.000000 0.000000
# 4 0.000000 0.000000 0.000000 0.027298 0.000000 0.000000
# 5 0.000000 0.000000 0.000000 0.000000 -0.330386 0.000000
# 6 0.000000 0.000000 0.000000 0.000000 0.000000 0.042579
#
#
# Mechanical properties :
#
#
# Convention : Reuss Voigt Hill
#
# Bulk Modulus (GPa) = 19.17513 29.68890 24.43202
# Shear Modulus (GPa) = -43.93725 21.15354 -11.39186
#
# Velocity S-wave (km/s) = -4.75169 3.29703 -2.41952
# Velocity P-wave (km/s) = 4.50011 5.45440 2.17939
#
# Compressibility (1/GPa) = 0.05215088
#
# Stress axis : x y z
#
# Youngs Moduli (GPa) = 37.51778 18.22687 108.45236
#
# Poissons Ratio (x) = 0.26916 0.39408
# Poissons Ratio (y) = 0.55404 0.09684
# Poissons Ratio (z) = 0.13633 0.01627
#
# Static dielectric constant tensor:
#      x y z
#    x 1.673570 0.000000 0.000000 
#    y 0.000000 1.652540 0.000000 
#    z 0.000000 0.000000 1.687710 
# 
# From -- ./inp_files/28138.got.cif
#   From: 2010.05.17/outbox.cif.g08.bks.cpg/sg59_15_cif.got.tgz:28138.got - 2010.06.03 14:40:33.
