data_PCOD9448418
_publ_section_title
;
Structure prediction by ZEFSAII (Michael W. Deem and Ramdas Pophale) SiO2 
 PCOD9448418
Probable space group: P M M N
;
_chemical_formula_sum "Si O2"
_cell_formula_units_Z 64
_cell_length_a 8.594466
_cell_length_b 20.335253
_cell_length_c 20.782787
_cell_angle_alpha 90.000000
_cell_angle_beta 90.000000
_cell_angle_gamma 90.000000
_cell_volume 3632.220996
_symmetry_space_group_name_H-M "P M M N"
_symmetry_group_IT_number 59
_space_group.IT_coordinate_system_code '2'
_symmetry_cell_setting 'orthorhombic'
loop_
_space_group_symop_operation_xyz
x,y,z
1/2-x,1/2-y,z
1/2+x,-y,-z
-x,1/2+y,-z
-x,-y,-z
1/2+x,1/2+y,-z
1/2-x,y,z
x,1/2-y,z
loop_
_atom_site_type_symbol
_atom_site_label
_atom_site_fract_x
_atom_site_fract_y
_atom_site_fract_z
Si Si1 0.437830 0.174823 0.579954
Si Si2 0.564154 0.915247 0.302308
Si Si3 0.936855 0.429215 0.977488
Si Si4 0.438641 0.174702 0.079626
Si Si5 0.438613 0.091395 0.199802
Si Si6 0.065268 0.929147 0.521992
Si Si7 0.936481 0.941697 0.660985
Si Si8 0.937533 0.441339 0.832040
O O1 0.250000 0.174176 0.575348
O O2 0.491267 0.250000 0.574082
O O3 0.478664 0.142933 0.648932
O O4 0.503012 0.127192 0.525096
O O5 0.750000 0.924598 0.304863
O O6 0.511848 0.905154 0.228869
O O7 0.483805 0.982336 0.327021
O O8 0.750000 0.431197 0.980042
O O9 0.982979 0.418072 0.903001
O O10 0.000000 0.500000 0.000000
O O11 0.999773 0.373008 0.024217
O O12 0.250000 0.172618 0.078548
O O13 0.487948 0.250000 0.071483
O O14 0.491047 0.145123 0.148471
O O15 0.250000 0.093095 0.200552
O O16 0.488341 0.096084 0.274070
O O17 0.482006 0.018508 0.174919
O O18 0.250000 0.931942 0.518530
O O19 0.011644 0.917812 0.595167
O O20 0.000000 0.000000 0.500000
O O21 0.750000 0.937898 0.655722
O O22 0.750000 0.437840 0.826313
#
# Coordination Sequence:
#
# PCOD9448418 Si02
#       8
#     8   8   8   8   8   8   8   8
#     4  10  22  40  59  81 113 150 185 229 288 347
#     4  10  19  32  54  83 111 140 181 231 278 332
#     4  11  21  35  56  82 113 148 190 237 287 338
#     4  10  20  36  57  81 112 149 189 233 283 342
#     4   8  15  31  52  77 107 140 180 221 272 332
#     4  12  23  36  57  85 115 149 191 236 284 334
#     4  10  19  33  55  81 113 146 182 231 280 330
#     4   9  18  33  53  76 108 143 179 228 280 333
#
# _framework density 17.620073000000001
#
# number of rings (size 3 to 8) (size 9 to 14) (size 15 to 20)
#    0.000    2.000    2.500    3.000    0.000    2.000 
#    0.000    1.875    0.000    4.500    0.000    0.000 
#    0.000    0.000    0.000    0.000    0.000    0.000 
#
# Total GULP energy -357142.459431 kJ/mol
# GULP energy per Si atom -5580.350929 kJ/mol
# Density = 1.757997 g / cm^3
# Si number density = 17.620073 Si / 1000 Ang^3
#
#
#
# Elastic Constant Matrix: (Units=GPa)
#
#
# Indices 1 2 3 4 5 6 
#
# 1 34.4978 33.3096 37.1106 0.0000 0.0000 0.0000
# 2 33.3096 128.8204 95.1453 0.0000 0.0000 0.0000
# 3 37.1106 95.1453 184.4898 0.0000 0.0000 0.0000
# 4 0.0000 0.0000 0.0000 24.9350 0.0000 0.0000
# 5 0.0000 0.0000 0.0000 0.0000 32.2609 0.0000
# 6 0.0000 0.0000 0.0000 0.0000 0.0000 20.9780
#
#
#
# Elastic Compliance Matrix: (Units=1/GPa)
#
#
# Indices 1 2 3 4 5 6 
#
# 1 0.040791 -0.007248 -0.004467 0.000000 0.000000 0.000000
# 2 -0.007248 0.013827 -0.005673 0.000000 0.000000 0.000000
# 3 -0.004467 -0.005673 0.009245 0.000000 0.000000 0.000000
# 4 0.000000 0.000000 0.000000 0.040104 0.000000 0.000000
# 5 0.000000 0.000000 0.000000 0.000000 0.030997 0.000000
# 6 0.000000 0.000000 0.000000 0.000000 0.000000 0.047669
#
#
# Mechanical properties :
#
#
# Convention : Reuss Voigt Hill
#
# Bulk Modulus (GPa) = 34.38038 75.43766 54.90902
# Shear Modulus (GPa) = 22.01624 27.78429 24.90026
#
# Velocity S-wave (km/s) = 3.53866 3.97527 3.76330
# Velocity P-wave (km/s) = 6.02084 7.99855 7.07910
#
# Compressibility (1/GPa) = 0.02908635
#
# Stress axis : x y z
#
# Youngs Moduli (GPa) = 24.51495 72.32338 108.17207
#
# Poissons Ratio (x) = 0.52421 0.48323
# Poissons Ratio (y) = 0.17769 0.61364
# Poissons Ratio (z) = 0.10951 0.41027
#
# Static dielectric constant tensor:
#      x y z
#    x 1.617730 0.000000 0.000000 
#    y 0.000000 1.573490 0.000000 
#    z 0.000000 0.000000 1.614980 
# 
# From -- ./inp_files/29465.got.cif
#   From: 2010.05.17/outbox.cif.g08.bks.cpg/sg59_15_cif.got.tgz:29465.got - 2010.06.03 14:40:33.
