data_PCOD9448816
_publ_section_title
;
Structure prediction by ZEFSAII (Michael W. Deem and Ramdas Pophale) SiO2 
 PCOD9448816
Probable space group: P M M N
;
_chemical_formula_sum "Si O2"
_cell_formula_units_Z 48
_cell_length_a 14.058160
_cell_length_b 17.207340
_cell_length_c 11.404961
_cell_angle_alpha 90.000000
_cell_angle_beta 90.000000
_cell_angle_gamma 90.000000
_cell_volume 2758.900427
_symmetry_space_group_name_H-M "P M M N"
_symmetry_group_IT_number 59
_space_group.IT_coordinate_system_code '2'
_symmetry_cell_setting 'orthorhombic'
loop_
_space_group_symop_operation_xyz
x,y,z
1/2-x,1/2-y,z
1/2+x,-y,-z
-x,1/2+y,-z
-x,-y,-z
1/2+x,1/2+y,-z
1/2-x,y,z
x,1/2-y,z
loop_
_atom_site_type_symbol
_atom_site_label
_atom_site_fract_x
_atom_site_fract_y
_atom_site_fract_z
Si Si1 0.858093 0.120291 0.060640
Si Si2 0.494918 0.553223 0.269065
Si Si3 0.138088 0.658893 0.430849
Si Si4 0.860851 0.077258 0.323926
Si Si5 0.858586 0.533519 0.911233
Si Si6 0.952509 0.837596 0.061383
O O1 0.750000 0.147730 0.039499
O O2 0.877676 0.119391 0.199103
O O3 0.938984 0.162540 0.986973
O O4 0.863187 0.031162 0.014684
O O5 0.428663 0.603797 0.353892
O O6 0.570253 0.496828 0.331153
O O7 0.427704 0.498340 0.189017
O O8 0.546421 0.612818 0.180482
O O9 0.250000 0.647276 0.400735
O O10 0.116320 0.750000 0.413794
O O11 0.125985 0.634100 0.566323
O O12 0.750000 0.052593 0.322472
O O13 0.750000 0.537529 0.870477
O O14 0.893581 0.613908 0.965744
O O15 0.919123 0.750000 0.077400
#
# Coordination Sequence:
#
# PCOD9448816 Si02
#       6
#     8   8   8   8   8   8
#     4   9  17  33  54  76 102 136 177 216 258 314
#     4  11  19  37  56  80 102 143 181 220 254 318
#     4  10  22  37  54  81 110 135 171 221 275 319
#     4  10  19  34  58  80 105 141 179 220 263 314
#     4  10  19  34  54  75 105 142 179 215 255 310
#     4  11  21  32  50  78 110 139 171 216 268 311
#
# _framework density 17.398235
#
# number of rings (size 3 to 8) (size 9 to 14) (size 15 to 20)
#    0.000    1.833    3.333    2.500    0.000    2.000 
#    0.000    1.667    0.000    1.500    0.000    0.000 
#    0.000    0.000    0.000    0.000    0.000    0.000 
#
# Total GULP energy -267878.497705 kJ/mol
# GULP energy per Si atom -5580.802036 kJ/mol
# Density = 1.735864 g / cm^3
# Si number density = 17.398235 Si / 1000 Ang^3
#
#
#
# Elastic Constant Matrix: (Units=GPa)
#
#
# Indices 1 2 3 4 5 6 
#
# 1 27.5386 6.8028 0.3182 0.0000 0.0000 0.0000
# 2 6.8028 55.4793 -13.7226 0.0000 0.0000 0.0000
# 3 0.3182 -13.7226 30.5736 0.0000 0.0000 0.0000
# 4 0.0000 0.0000 0.0000 7.3759 0.0000 0.0000
# 5 0.0000 0.0000 0.0000 0.0000 27.5189 0.0000
# 6 0.0000 0.0000 0.0000 0.0000 0.0000 14.4680
#
#
#
# Elastic Compliance Matrix: (Units=1/GPa)
#
#
# Indices 1 2 3 4 5 6 
#
# 1 0.037655 -0.005303 -0.002772 0.000000 0.000000 0.000000
# 2 -0.005303 0.021022 0.009491 0.000000 0.000000 0.000000
# 3 -0.002772 0.009491 0.036997 0.000000 0.000000 0.000000
# 4 0.000000 0.000000 0.000000 0.135576 0.000000 0.000000
# 5 0.000000 0.000000 0.000000 0.000000 0.036339 0.000000
# 6 0.000000 0.000000 0.000000 0.000000 0.000000 0.069118
#
#
# Mechanical properties :
#
#
# Convention : Reuss Voigt Hill
#
# Bulk Modulus (GPa) = 10.15166 11.15425 10.65296
# Shear Modulus (GPa) = 13.63477 17.88544 15.76011
#
# Velocity S-wave (km/s) = 2.80248 3.20973 3.01299
# Velocity P-wave (km/s) = 4.03973 4.49016 4.27088
#
# Compressibility (1/GPa) = 0.09850605
#
# Stress axis : x y z
#
# Youngs Moduli (GPa) = 26.55718 47.56808 27.02945
#
# Poissons Ratio (x) = 0.25224 0.07492
# Poissons Ratio (y) = 0.14083 -0.25653
# Poissons Ratio (z) = 0.07362 -0.45146
#
# Static dielectric constant tensor:
#      x y z
#    x 1.602330 0.000000 0.000000 
#    y 0.000000 1.581450 0.000000 
#    z 0.000000 0.000000 1.587010 
# 
# From -- ./inp_files/16801.got.cif
#   From: 2010.05.17/outbox.cif.g08.bks.cpg/sg59_9_cif.got.tgz:16801.got - 2010.06.03 14:40:33.
