data_PCOD9448604
_publ_section_title
;
Structure prediction by ZEFSAII (Michael W. Deem and Ramdas Pophale) SiO2 
 PCOD9448604
Probable space group: P M M N
;
_chemical_formula_sum "Si O2"
_cell_formula_units_Z 56
_cell_length_a 15.094672
_cell_length_b 9.134696
_cell_length_c 22.303188
_cell_angle_alpha 90.000000
_cell_angle_beta 90.000000
_cell_angle_gamma 90.000000
_cell_volume 3075.280429
_symmetry_space_group_name_H-M "P M M N"
_symmetry_group_IT_number 59
_space_group.IT_coordinate_system_code '2'
_symmetry_cell_setting 'orthorhombic'
loop_
_space_group_symop_operation_xyz
x,y,z
1/2-x,1/2-y,z
1/2+x,-y,-z
-x,1/2+y,-z
-x,-y,-z
1/2+x,1/2+y,-z
1/2-x,y,z
x,1/2-y,z
loop_
_atom_site_type_symbol
_atom_site_label
_atom_site_fract_x
_atom_site_fract_y
_atom_site_fract_z
Si Si1 0.146883 0.917734 0.184132
Si Si2 0.392107 0.919108 0.941578
Si Si3 0.646142 0.426485 0.498958
Si Si4 0.512119 0.926220 0.589815
Si Si5 0.893324 0.917869 0.938552
Si Si6 0.152877 0.571826 0.808183
Si Si7 0.987137 0.573140 0.729008
O O1 0.250000 0.918547 0.199527
O O2 0.115411 0.750000 0.181175
O O3 0.135484 0.991360 0.119191
O O4 0.092889 0.005945 0.233623
O O5 0.363607 0.750000 0.948597
O O6 0.499228 0.919684 0.939387
O O7 0.360917 0.975670 0.876967
O O8 0.363170 0.011193 0.999004
O O9 0.750000 0.470777 0.493851
O O10 0.645241 0.250000 0.505420
O O11 0.581838 0.462501 0.442396
O O12 0.592955 0.498816 0.554188
O O13 0.522321 0.750000 0.585882
O O14 0.511875 0.968840 0.659429
O O15 0.864604 0.750000 0.933321
O O16 0.250000 0.528180 0.787065
O O17 0.149262 0.750000 0.810135
O O18 0.075510 0.524539 0.764073
O O19 0.982716 0.750000 0.731904
#
# Coordination Sequence:
#
# PCOD9448604 Si02
#       7
#     8   8   8   8   8   8   8
#     4  11  24  39  55  76 103 140 184 227 275 328
#     4   9  17  31  51  77 107 137 172 214 268 329
#     4   9  18  34  56  83 115 147 180 218 258 306
#     4   9  19  34  55  82 112 144 180 220 264 310
#     4  10  19  33  54  78 104 135 176 224 274 326
#     4   9  17  31  53  79 105 135 172 216 267 322
#     4  10  20  37  57  80 109 141 179 222 266 317
#
# _framework density 18.209721999999999
#
# number of rings (size 3 to 8) (size 9 to 14) (size 15 to 20)
#    0.000    2.429    1.429    0.857    0.000    4.286 
#    0.000    7.143    0.000    1.286    0.000    2.000 
#    0.000    0.000    0.000    0.000    0.000    0.000 
#
# Total GULP energy -312387.511232 kJ/mol
# GULP energy per Si atom -5578.348415 kJ/mol
# Density = 1.816828 g / cm^3
# Si number density = 18.209722 Si / 1000 Ang^3
#
#
#
# Elastic Constant Matrix: (Units=GPa)
#
#
# Indices 1 2 3 4 5 6 
#
# 1 113.4719 28.6559 65.0415 0.0000 0.0000 0.0000
# 2 28.6559 34.2575 43.0256 0.0000 0.0000 0.0000
# 3 65.0415 43.0256 161.3881 0.0000 0.0000 0.0000
# 4 0.0000 0.0000 0.0000 26.8285 0.0000 0.0000
# 5 0.0000 0.0000 0.0000 0.0000 -63.5985 0.0000
# 6 0.0000 0.0000 0.0000 0.0000 0.0000 19.0375
#
#
#
# Elastic Compliance Matrix: (Units=1/GPa)
#
#
# Indices 1 2 3 4 5 6 
#
# 1 0.012249 -0.006083 -0.003315 0.000000 0.000000 0.000000
# 2 -0.006083 0.046905 -0.010053 0.000000 0.000000 0.000000
# 3 -0.003315 -0.010053 0.010212 0.000000 0.000000 0.000000
# 4 0.000000 0.000000 0.000000 0.037274 0.000000 0.000000
# 5 0.000000 0.000000 0.000000 0.000000 -0.015724 0.000000
# 6 0.000000 0.000000 0.000000 0.000000 0.000000 0.052528
#
#
# Mechanical properties :
#
#
# Convention : Reuss Voigt Hill
#
# Bulk Modulus (GPa) = 32.82494 64.72928 48.77711
# Shear Modulus (GPa) = 25.97380 7.94647 16.96014
#
# Velocity S-wave (km/s) = 3.78083 2.09125 3.05516
# Velocity P-wave (km/s) = 6.09301 6.43854 6.26816
#
# Compressibility (1/GPa) = 0.03046464
#
# Stress axis : x y z
#
# Youngs Moduli (GPa) = 81.63985 21.31952 97.92045
#
# Poissons Ratio (x) = 0.12968 0.32459
# Poissons Ratio (y) = 0.49660 0.98443
# Poissons Ratio (z) = 0.27062 0.21433
#
# Static dielectric constant tensor:
#      x y z
#    x 1.638820 0.000000 0.000000 
#    y 0.000000 1.619380 0.000000 
#    z 0.000000 0.000000 1.598760 
# 
# From -- ./inp_files/30395.got.cif
#   From: 2010.05.17/outbox.cif.g08.bks.cpg/sg59_16_cif.got.tgz:30395.got - 2010.06.03 14:40:33.
