data_PCOD9448089
_publ_section_title
;
Structure prediction by ZEFSAII (Michael W. Deem and Ramdas Pophale) SiO2 
 PCOD9448089
Probable space group: P M M N
;
_chemical_formula_sum "Si O2"
_cell_formula_units_Z 56
_cell_length_a 26.867202
_cell_length_b 8.595509
_cell_length_c 14.835936
_cell_angle_alpha 90.000000
_cell_angle_beta 90.000000
_cell_angle_gamma 90.000000
_cell_volume 3426.170656
_symmetry_space_group_name_H-M "P M M N"
_symmetry_group_IT_number 59
_space_group.IT_coordinate_system_code '2'
_symmetry_cell_setting 'orthorhombic'
loop_
_space_group_symop_operation_xyz
x,y,z
1/2-x,1/2-y,z
1/2+x,-y,-z
-x,1/2+y,-z
-x,-y,-z
1/2+x,1/2+y,-z
1/2-x,y,z
x,1/2-y,z
loop_
_atom_site_type_symbol
_atom_site_label
_atom_site_fract_x
_atom_site_fract_y
_atom_site_fract_z
Si Si1 0.887481 0.435491 0.481150
Si Si2 0.932223 0.565226 0.310581
Si Si3 0.382132 0.565772 0.241774
Si Si4 0.454507 0.936486 0.883005
Si Si5 0.808204 0.936167 0.620881
Si Si6 0.430833 0.064085 0.074926
Si Si7 0.463090 0.434554 0.377208
O O1 0.887214 0.250000 0.484529
O O2 0.891894 0.494592 0.379178
O O3 0.840816 0.501263 0.537257
O O4 0.936102 0.497701 0.534776
O O5 0.928195 0.750000 0.308947
O O6 0.931748 0.498734 0.209595
O O7 0.985606 0.515130 0.351286
O O8 0.389446 0.750000 0.253921
O O9 0.331174 0.514121 0.289478
O O10 0.390711 0.517922 0.138811
O O11 0.424233 0.472490 0.297474
O O12 0.451446 0.750000 0.885866
O O13 0.513466 0.978255 0.889255
O O14 0.429632 0.008385 0.971879
O O15 0.750000 0.970237 0.610614
O O16 0.815039 0.750000 0.626649
O O17 0.425791 0.250000 0.080297
O O18 0.470394 0.250000 0.385878
#
# Coordination Sequence:
#
# PCOD9448089 Si02
#       7
#     8   8   8   8   8   8   8
#     4  11  22  35  51  72  99 131 168 209 254 303
#     4  12  22  33  48  69 100 137 175 211 250 297
#     4  11  20  31  51  76 103 135 171 210 254 305
#     4  10  20  32  48  70 100 137 176 214 249 292
#     4  10  21  38  58  79 103 130 164 209 260 312
#     4  10  19  32  49  70 101 137 173 212 251 296
#     4  11  20  32  47  68  99 134 172 210 249 296
#
# _framework density 16.344778999999999
#
# number of rings (size 3 to 8) (size 9 to 14) (size 15 to 20)
#    0.000    1.286    1.429    8.571    0.000    2.286 
#    0.000    0.000    0.000    0.000    0.000    1.000 
#    0.000    8.000    0.000    0.000    0.000    0.000 
#
# Total GULP energy -312863.208748 kJ/mol
# GULP energy per Si atom -5586.843013 kJ/mol
# Density = 1.630758 g / cm^3
# Si number density = 16.344779 Si / 1000 Ang^3
#
#
#
# Elastic Constant Matrix: (Units=GPa)
#
#
# Indices 1 2 3 4 5 6 
#
# 1 56.1988 16.4739 40.2528 0.0000 0.0000 0.0000
# 2 16.4739 72.1143 31.4627 0.0000 0.0000 0.0000
# 3 40.2528 31.4627 137.9927 0.0000 0.0000 0.0000
# 4 0.0000 0.0000 0.0000 31.5624 0.0000 0.0000
# 5 0.0000 0.0000 0.0000 0.0000 10.9542 0.0000
# 6 0.0000 0.0000 0.0000 0.0000 0.0000 19.6069
#
#
#
# Elastic Compliance Matrix: (Units=1/GPa)
#
#
# Indices 1 2 3 4 5 6 
#
# 1 0.022916 -0.002575 -0.006098 0.000000 0.000000 0.000000
# 2 -0.002575 0.015688 -0.002826 0.000000 0.000000 0.000000
# 3 -0.006098 -0.002826 0.009670 0.000000 0.000000 0.000000
# 4 0.000000 0.000000 0.000000 0.031683 0.000000 0.000000
# 5 0.000000 0.000000 0.000000 0.000000 0.091289 0.000000
# 6 0.000000 0.000000 0.000000 0.000000 0.000000 0.051002
#
#
# Mechanical properties :
#
#
# Convention : Reuss Voigt Hill
#
# Bulk Modulus (GPa) = 39.56084 49.18717 44.37401
# Shear Modulus (GPa) = 19.71061 24.29915 22.00488
#
# Velocity S-wave (km/s) = 3.47641 3.85991 3.67317
# Velocity P-wave (km/s) = 6.35377 7.07277 6.72289
#
# Compressibility (1/GPa) = 0.02527752
#
# Stress axis : x y z
#
# Youngs Moduli (GPa) = 43.63729 63.74327 103.41513
#
# Poissons Ratio (x) = 0.16412 0.63059
# Poissons Ratio (y) = 0.11235 0.29224
# Poissons Ratio (z) = 0.26609 0.18013
#
# Static dielectric constant tensor:
#      x y z
#    x 1.532500 0.000000 0.000000 
#    y 0.000000 1.539580 0.000000 
#    z 0.000000 0.000000 1.576800 
# 
# From -- ./inp_files/24944.got.cif
#   From: 2010.05.17/outbox.cif.g08.bks.cpg/sg59_13_cif.got.tgz:24944.got - 2010.06.03 14:40:33.
