data_PCOD9448335
_publ_section_title
;
Structure prediction by ZEFSAII (Michael W. Deem and Ramdas Pophale) SiO2 
 PCOD9448335
Probable space group: P M M N
;
_chemical_formula_sum "Si O2"
_cell_formula_units_Z 64
_cell_length_a 15.672178
_cell_length_b 21.835687
_cell_length_c 9.080094
_cell_angle_alpha 90.000000
_cell_angle_beta 90.000000
_cell_angle_gamma 90.000000
_cell_volume 3107.324151
_symmetry_space_group_name_H-M "P M M N"
_symmetry_group_IT_number 59
_space_group.IT_coordinate_system_code '2'
_symmetry_cell_setting 'orthorhombic'
loop_
_space_group_symop_operation_xyz
x,y,z
1/2-x,1/2-y,z
1/2+x,-y,-z
-x,1/2+y,-z
-x,-y,-z
1/2+x,1/2+y,-z
1/2-x,y,z
x,1/2-y,z
loop_
_atom_site_type_symbol
_atom_site_label
_atom_site_fract_x
_atom_site_fract_y
_atom_site_fract_z
Si Si1 0.414878 0.059120 0.183544
Si Si2 0.347971 0.432310 0.866594
Si Si3 0.122162 0.684026 0.670931
Si Si4 0.851300 0.054810 0.639392
Si Si5 0.650986 0.184664 0.679808
Si Si6 0.852790 0.819200 0.332968
Si Si7 0.393335 0.948407 0.697575
Si Si8 0.083635 0.181991 0.336137
O O1 0.511870 0.052286 0.237062
O O2 0.383687 0.125504 0.240480
O O3 0.365283 0.003947 0.260968
O O4 0.404178 0.056136 0.009653
O O5 0.250000 0.421410 0.913787
O O6 0.378604 0.372970 0.776728
O O7 0.349451 0.491873 0.762982
O O8 0.150066 0.750000 0.734484
O O9 0.148217 0.684430 0.498932
O O10 0.148298 0.618002 0.733844
O O11 0.019126 0.683172 0.675467
O O12 0.750000 0.062522 0.611609
O O13 0.884323 0.117540 0.716734
O O14 0.894837 0.047420 0.480055
O O15 0.750000 0.185877 0.726642
O O16 0.611071 0.250000 0.726628
O O17 0.750000 0.822710 0.349072
O O18 0.874139 0.750000 0.283417
O O19 0.893198 0.828441 0.493455
O O20 0.115642 0.250000 0.294820
#
# Coordination Sequence:
#
# PCOD9448335 Si02
#       8
#     8   8   8   8   8   8   8   8
#     4  11  22  35  52  77 108 140 175 219 267 312
#     4  11  23  37  53  73 103 141 179 219 262 311
#     4   8  15  29  50  76 102 127 161 207 255 302
#     4  10  19  32  53  78 103 133 172 216 263 315
#     4   8  14  25  43  69  97 123 155 199 249 298
#     4   9  19  36  56  77 102 135 175 216 258 309
#     4  10  20  35  54  76 103 139 176 215 259 313
#     4   9  18  33  54  78 102 130 167 213 262 310
#
# _framework density 20.596499999999999
#
# number of rings (size 3 to 8) (size 9 to 14) (size 15 to 20)
#    0.000    2.500    0.000    2.250    0.000    5.000 
#    0.000    0.000    0.000    0.750    0.000    0.000 
#    0.000    0.000    0.000    0.000    0.000    0.000 
#
# Total GULP energy -356922.922071 kJ/mol
# GULP energy per Si atom -5576.920657 kJ/mol
# Density = 2.054962 g / cm^3
# Si number density = 20.596500 Si / 1000 Ang^3
#
#
#
# Elastic Constant Matrix: (Units=GPa)
#
#
# Indices 1 2 3 4 5 6 
#
# 1 28.6148 16.0884 3.3292 0.0000 0.0000 0.0000
# 2 16.0884 189.5682 62.0775 0.0000 0.0000 0.0000
# 3 3.3292 62.0775 47.8462 0.0000 0.0000 0.0000
# 4 0.0000 0.0000 0.0000 6.6366 0.0000 0.0000
# 5 0.0000 0.0000 0.0000 0.0000 7.4339 0.0000
# 6 0.0000 0.0000 0.0000 0.0000 0.0000 17.3658
#
#
#
# Elastic Compliance Matrix: (Units=1/GPa)
#
#
# Indices 1 2 3 4 5 6 
#
# 1 0.036883 -0.003981 0.002599 0.000000 0.000000 0.000000
# 2 -0.003981 0.009602 -0.012181 0.000000 0.000000 0.000000
# 3 0.002599 -0.012181 0.036523 0.000000 0.000000 0.000000
# 4 0.000000 0.000000 0.000000 0.150680 0.000000 0.000000
# 5 0.000000 0.000000 0.000000 0.000000 0.134519 0.000000
# 6 0.000000 0.000000 0.000000 0.000000 0.000000 0.057584
#
#
# Mechanical properties :
#
#
# Convention : Reuss Voigt Hill
#
# Bulk Modulus (GPa) = 17.89477 47.66882 32.78180
# Shear Modulus (GPa) = 10.60345 18.58954 14.59649
#
# Velocity S-wave (km/s) = 2.27142 3.00752 2.66501
# Velocity P-wave (km/s) = 3.94794 5.93756 5.04187
#
# Compressibility (1/GPa) = 0.05588225
#
# Stress axis : x y z
#
# Youngs Moduli (GPa) = 27.11276 104.14658 27.37985
#
# Poissons Ratio (x) = 0.41465 -0.07117
# Poissons Ratio (y) = 0.10795 0.33351
# Poissons Ratio (z) = -0.07047 1.26859
#
# Static dielectric constant tensor:
#      x y z
#    x 1.783260 0.000000 0.000000 
#    y 0.000000 1.815980 0.000000 
#    z 0.000000 0.000000 1.666450 
# 
# From -- ./inp_files/10724.got.cif
#   From: 2010.05.17/outbox.cif.g08.bks.cpg/sg59_6_cif.got.tgz:10724.got - 2010.06.03 14:40:33.
