data_PCOD9448722
_publ_section_title
;
Structure prediction by ZEFSAII (Michael W. Deem and Ramdas Pophale) SiO2 
 PCOD9448722
Probable space group: P M M N
;
_chemical_formula_sum "Si O2"
_cell_formula_units_Z 48
_cell_length_a 8.134830
_cell_length_b 19.461927
_cell_length_c 15.143951
_cell_angle_alpha 90.000000
_cell_angle_beta 90.000000
_cell_angle_gamma 90.000000
_cell_volume 2397.582260
_symmetry_space_group_name_H-M "P M M N"
_symmetry_group_IT_number 59
_space_group.IT_coordinate_system_code '2'
_symmetry_cell_setting 'orthorhombic'
loop_
_space_group_symop_operation_xyz
x,y,z
1/2-x,1/2-y,z
1/2+x,-y,-z
-x,1/2+y,-z
-x,-y,-z
1/2+x,1/2+y,-z
1/2-x,y,z
x,1/2-y,z
loop_
_atom_site_type_symbol
_atom_site_label
_atom_site_fract_x
_atom_site_fract_y
_atom_site_fract_z
Si Si1 0.054359 0.827339 0.528653
Si Si2 0.554391 0.904855 0.051614
Si Si3 0.948272 0.173479 0.783890
Si Si4 0.548732 0.426058 0.627255
Si Si5 0.555933 0.449031 0.130115
Si Si6 0.443886 0.077094 0.325267
O O1 0.250000 0.823209 0.513815
O O2 0.987711 0.750000 0.518680
O O3 0.991124 0.882525 0.457051
O O4 0.023949 0.859288 0.624557
O O5 0.750000 0.910124 0.041457
O O6 0.510183 0.844949 0.118972
O O7 0.493984 0.975634 0.098614
O O8 0.477607 0.901383 0.954608
O O9 0.750000 0.171834 0.784602
O O10 0.999657 0.250000 0.756597
O O11 0.003758 0.116261 0.714030
O O12 0.750000 0.427832 0.626777
O O13 0.492159 0.504634 0.634433
O O14 0.750000 0.454071 0.145916
O O15 0.474280 0.425862 0.220720
O O16 0.250000 0.080679 0.341519
#
# Coordination Sequence:
#
# PCOD9448722 Si02
#       6
#     8   8   8   8   8   8
#     4  10  21  38  58  80 111 151 192 232 277 335
#     4  10  20  34  54  81 113 146 181 228 279 329
#     4  10  19  33  55  82 115 153 191 230 276 336
#     4   9  18  34  57  84 111 146 190 232 276 331
#     4  10  20  35  57  82 109 144 186 228 273 331
#     4  11  21  35  58  86 115 145 184 238 286 331
#
# _framework density 20.02017
#
# number of rings (size 3 to 8) (size 9 to 14) (size 15 to 20)
#    0.000    2.000    1.667    2.500    0.000    4.000 
#    0.000    2.500    0.000    7.000    0.000    0.000 
#    0.000    0.000    0.000    0.000    0.000    0.000 
#
# Total GULP energy -268028.248240 kJ/mol
# GULP energy per Si atom -5583.921838 kJ/mol
# Density = 1.997460 g / cm^3
# Si number density = 20.020170 Si / 1000 Ang^3
#
#
#
# Elastic Constant Matrix: (Units=GPa)
#
#
# Indices 1 2 3 4 5 6 
#
# 1 10.0960 1.2961 -9.8446 0.0000 0.0000 0.0000
# 2 1.2961 51.4393 20.3110 0.0000 0.0000 0.0000
# 3 -9.8446 20.3110 92.1267 0.0000 0.0000 0.0000
# 4 0.0000 0.0000 0.0000 19.2900 0.0000 0.0000
# 5 0.0000 0.0000 0.0000 0.0000 18.5998 0.0000
# 6 0.0000 0.0000 0.0000 0.0000 0.0000 17.4672
#
#
#
# Elastic Compliance Matrix: (Units=1/GPa)
#
#
# Indices 1 2 3 4 5 6 
#
# 1 0.113790 -0.008400 0.014011 0.000000 0.000000 0.000000
# 2 -0.008400 0.021914 -0.005729 0.000000 0.000000 0.000000
# 3 0.014011 -0.005729 0.013615 0.000000 0.000000 0.000000
# 4 0.000000 0.000000 0.000000 0.051840 0.000000 0.000000
# 5 0.000000 0.000000 0.000000 0.000000 0.053764 0.000000
# 6 0.000000 0.000000 0.000000 0.000000 0.000000 0.057250
#
#
# Mechanical properties :
#
#
# Convention : Reuss Voigt Hill
#
# Bulk Modulus (GPa) = 6.70761 19.68744 13.19753
# Shear Modulus (GPa) = 13.80824 20.53136 17.16980
#
# Velocity S-wave (km/s) = 2.62909 3.20587 2.93170
# Velocity P-wave (km/s) = 3.54597 4.85372 4.25044
#
# Compressibility (1/GPa) = 0.14908449
#
# Stress axis : x y z
#
# Youngs Moduli (GPa) = 8.78813 45.63264 73.44896
#
# Poissons Ratio (x) = 0.38329 -1.02912
# Poissons Ratio (y) = 0.07382 0.42078
# Poissons Ratio (z) = -0.12313 0.26143
#
# Static dielectric constant tensor:
#      x y z
#    x 1.700710 0.000000 0.000000 
#    y 0.000000 1.706550 0.000000 
#    z 0.000000 0.000000 1.697010 
# 
# From -- ./inp_files/20407.got.cif
#   From: 2010.05.17/outbox.cif.g08.bks.cpg/sg59_11_cif.got.tgz:20407.got - 2010.06.03 14:40:33.
