data_PCOD9448537
_publ_section_title
;
Structure prediction by ZEFSAII (Michael W. Deem and Ramdas Pophale) SiO2 
 PCOD9448537
Probable space group: P M M N
;
_chemical_formula_sum "Si O2"
_cell_formula_units_Z 56
_cell_length_a 8.497171
_cell_length_b 20.416333
_cell_length_c 17.858485
_cell_angle_alpha 90.000000
_cell_angle_beta 90.000000
_cell_angle_gamma 90.000000
_cell_volume 3098.109134
_symmetry_space_group_name_H-M "P M M N"
_symmetry_group_IT_number 59
_space_group.IT_coordinate_system_code '2'
_symmetry_cell_setting 'orthorhombic'
loop_
_space_group_symop_operation_xyz
x,y,z
1/2-x,1/2-y,z
1/2+x,-y,-z
-x,1/2+y,-z
-x,-y,-z
1/2+x,1/2+y,-z
1/2-x,y,z
x,1/2-y,z
loop_
_atom_site_type_symbol
_atom_site_label
_atom_site_fract_x
_atom_site_fract_y
_atom_site_fract_z
Si Si1 0.060315 0.949858 0.102799
Si Si2 0.942503 0.439156 0.726322
Si Si3 0.941917 0.324174 0.616737
Si Si4 0.062684 0.824456 0.817605
Si Si5 0.562375 0.584591 0.685897
Si Si6 0.939796 0.175478 0.444717
Si Si7 0.437293 0.096573 0.049570
O O1 0.250000 0.945375 0.098444
O O2 0.009961 0.932866 0.186881
O O3 0.018015 0.025459 0.084432
O O4 0.987721 0.906462 0.036819
O O5 0.750000 0.439263 0.725950
O O6 0.995976 0.379630 0.674035
O O7 0.994578 0.509883 0.695319
O O8 0.750000 0.324673 0.617511
O O9 0.990884 0.250000 0.636286
O O10 0.988861 0.337244 0.530613
O O11 0.250000 0.826486 0.807371
O O12 0.008697 0.750000 0.804956
O O13 0.986419 0.873721 0.758426
O O14 0.019377 0.848679 0.900478
O O15 0.750000 0.582492 0.682371
O O16 0.500290 0.622352 0.613343
O O17 0.750000 0.174947 0.442739
O O18 0.989875 0.250000 0.424590
O O19 0.250000 0.103408 0.055879
#
# Coordination Sequence:
#
# PCOD9448537 Si02
#       7
#     8   8   8   8   8   8   8
#     4   9  17  32  52  75 105 137 169 211 257 305
#     4   9  17  31  50  75 106 135 171 220 262 302
#     4   8  15  30  53  76  99 133 173 212 259 312
#     4  11  23  37  53  75 105 140 178 221 264 310
#     4  11  21  33  50  76 106 138 174 213 263 316
#     4   9  18  33  51  73 102 136 175 215 256 307
#     4  10  19  33  53  77 103 137 175 210 257 311
#
# _framework density 18.075541000000001
#
# number of rings (size 3 to 8) (size 9 to 14) (size 15 to 20)
#    0.000    2.429    1.429    2.571    0.000    4.286 
#    0.000    0.714    0.000    4.286    0.000    0.000 
#    0.000    0.000    0.000    0.000    0.000    0.000 
#
# Total GULP energy -312424.757443 kJ/mol
# GULP energy per Si atom -5579.013526 kJ/mol
# Density = 1.803440 g / cm^3
# Si number density = 18.075541 Si / 1000 Ang^3
#
#
#
# Elastic Constant Matrix: (Units=GPa)
#
#
# Indices 1 2 3 4 5 6 
#
# 1 7.5881 12.3554 12.5042 0.0000 0.0000 0.0000
# 2 12.3554 121.8658 89.7797 0.0000 0.0000 0.0000
# 3 12.5042 89.7797 140.8795 0.0000 0.0000 0.0000
# 4 0.0000 0.0000 0.0000 19.9959 0.0000 0.0000
# 5 0.0000 0.0000 0.0000 0.0000 19.2873 0.0000
# 6 0.0000 0.0000 0.0000 0.0000 0.0000 16.0522
#
#
#
# Elastic Compliance Matrix: (Units=1/GPa)
#
#
# Indices 1 2 3 4 5 6 
#
# 1 0.161796 -0.010978 -0.007364 0.000000 0.000000 0.000000
# 2 -0.010978 0.016213 -0.009358 0.000000 0.000000 0.000000
# 3 -0.007364 -0.009358 0.013715 0.000000 0.000000 0.000000
# 4 0.000000 0.000000 0.000000 0.050010 0.000000 0.000000
# 5 0.000000 0.000000 0.000000 0.000000 0.051847 0.000000
# 6 0.000000 0.000000 0.000000 0.000000 0.000000 0.062297
#
#
# Mechanical properties :
#
#
# Convention : Reuss Voigt Hill
#
# Bulk Modulus (GPa) = 7.33549 55.51245 31.42397
# Shear Modulus (GPa) = 10.94761 21.44669 16.19715
#
# Velocity S-wave (km/s) = 2.46368 3.44830 2.99671
# Velocity P-wave (km/s) = 3.48712 6.82879 5.42183
#
# Compressibility (1/GPa) = 0.13632348
#
# Stress axis : x y z
#
# Youngs Moduli (GPa) = 6.18061 61.68051 72.91134
#
# Poissons Ratio (x) = 0.67715 0.53695
# Poissons Ratio (y) = 0.06785 0.68227
# Poissons Ratio (z) = 0.04552 0.57718
#
# Static dielectric constant tensor:
#      x y z
#    x 1.618510 0.000000 0.000000 
#    y 0.000000 1.612130 0.000000 
#    z 0.000000 0.000000 1.610990 
# 
# From -- ./inp_files/26072.got.cif
#   From: 2010.05.17/outbox.cif.g08.bks.cpg/sg59_14_cif.got.tgz:26072.got - 2010.06.03 14:40:33.
