data_PCOD9448252
_publ_section_title
;
Structure prediction by ZEFSAII (Michael W. Deem and Ramdas Pophale) SiO2 
 PCOD9448252
Probable space group: P M M N
;
_chemical_formula_sum "Si O2"
_cell_formula_units_Z 64
_cell_length_a 19.445389
_cell_length_b 9.119780
_cell_length_c 21.921524
_cell_angle_alpha 90.000000
_cell_angle_beta 90.000000
_cell_angle_gamma 90.000000
_cell_volume 3887.511982
_symmetry_space_group_name_H-M "P M M N"
_symmetry_group_IT_number 59
_space_group.IT_coordinate_system_code '2'
_symmetry_cell_setting 'orthorhombic'
loop_
_space_group_symop_operation_xyz
x,y,z
1/2-x,1/2-y,z
1/2+x,-y,-z
-x,1/2+y,-z
-x,-y,-z
1/2+x,1/2+y,-z
1/2-x,y,z
x,1/2-y,z
loop_
_atom_site_type_symbol
_atom_site_label
_atom_site_fract_x
_atom_site_fract_y
_atom_site_fract_z
Si Si1 0.676222 0.574521 0.607040
Si Si2 0.329668 0.573676 0.902117
Si Si3 0.058387 0.573992 0.802215
Si Si4 0.330611 0.074335 0.029942
Si Si5 0.861773 0.083275 0.728389
Si Si6 0.479926 0.082051 0.682379
Si Si7 0.973975 0.573343 0.561764
Si Si8 0.903927 0.574279 0.846222
O O1 0.750000 0.535433 0.578084
O O2 0.673390 0.750000 0.613590
O O3 0.673559 0.503900 0.673897
O O4 0.606506 0.532175 0.572272
O O5 0.250000 0.533875 0.889666
O O6 0.333324 0.750000 0.907776
O O7 0.380876 0.530114 0.847995
O O8 0.349569 0.502573 0.966617
O O9 0.060852 0.750000 0.792909
O O10 0.061636 0.494672 0.736934
O O11 0.984316 0.541409 0.833554
O O12 0.250000 0.041270 0.042505
O O13 0.336522 0.250000 0.022780
O O14 0.377141 0.029478 0.087287
O O15 0.837336 0.250000 0.732492
O O16 0.941940 0.085605 0.708041
O O17 0.860378 0.002915 0.793075
O O18 0.458331 0.250000 0.671301
O O19 0.484699 0.990166 0.620020
O O20 0.979419 0.750000 0.559737
O O21 0.000000 0.500000 0.500000
O O22 0.895566 0.750000 0.840878
#
# Coordination Sequence:
#
# PCOD9448252 Si02
#       8
#     8   8   8   8   8   8   8   8
#     4   9  18  32  49  69  95 129 165 196 227 268
#     4   9  18  32  48  65  86 114 149 191 241 291
#     4   9  17  30  48  68  90 117 149 188 233 278
#     4   9  18  31  44  59  83 116 152 189 229 277
#     4   9  17  28  43  66  94 121 150 187 229 270
#     4   9  17  30  48  71  97 121 149 186 226 270
#     4  10  19  32  52  76 102 132 163 194 230 274
#     4   9  17  29  44  63  89 121 154 186 225 276
#
# _framework density 16.462972000000001
#
# number of rings (size 3 to 8) (size 9 to 14) (size 15 to 20)
#    0.000    2.875    0.000    1.125    0.000    5.750 
#    0.000    1.250    0.000    0.750    0.000    0.000 
#    0.000    0.000    0.000    0.000    0.000    0.000 
#
# Total GULP energy -356555.788718 kJ/mol
# GULP energy per Si atom -5571.184199 kJ/mol
# Density = 1.642550 g / cm^3
# Si number density = 16.462972 Si / 1000 Ang^3
#
#
#
# Elastic Constant Matrix: (Units=GPa)
#
#
# Indices 1 2 3 4 5 6 
#
# 1 70.0111 34.0218 70.8246 0.0000 0.0000 0.0000
# 2 34.0218 37.8968 56.9997 0.0000 0.0000 0.0000
# 3 70.8246 56.9997 156.5134 0.0000 0.0000 0.0000
# 4 0.0000 0.0000 0.0000 33.1835 0.0000 0.0000
# 5 0.0000 0.0000 0.0000 0.0000 13.8046 0.0000
# 6 0.0000 0.0000 0.0000 0.0000 0.0000 10.6648
#
#
#
# Elastic Compliance Matrix: (Units=1/GPa)
#
#
# Indices 1 2 3 4 5 6 
#
# 1 0.029402 -0.014117 -0.008164 0.000000 0.000000 0.000000
# 2 -0.014117 0.065126 -0.017330 0.000000 0.000000 0.000000
# 3 -0.008164 -0.017330 0.016395 0.000000 0.000000 0.000000
# 4 0.000000 0.000000 0.000000 0.030135 0.000000 0.000000
# 5 0.000000 0.000000 0.000000 0.000000 0.072440 0.000000
# 6 0.000000 0.000000 0.000000 0.000000 0.000000 0.093767
#
#
# Mechanical properties :
#
#
# Convention : Reuss Voigt Hill
#
# Bulk Modulus (GPa) = 31.54348 65.34596 48.44472
# Shear Modulus (GPa) = 12.59275 18.36891 15.48083
#
# Velocity S-wave (km/s) = 2.76871 3.34394 3.06983
# Velocity P-wave (km/s) = 5.42428 7.39514 6.48502
#
# Compressibility (1/GPa) = 0.03170227
#
# Stress axis : x y z
#
# Youngs Moduli (GPa) = 34.01122 15.35474 60.99506
#
# Poissons Ratio (x) = 0.21676 0.49795
# Poissons Ratio (y) = 0.48013 1.05705
# Poissons Ratio (z) = 0.27766 0.26610
#
# Static dielectric constant tensor:
#      x y z
#    x 1.572990 0.000000 0.000000 
#    y 0.000000 1.561300 0.000000 
#    z 0.000000 0.000000 1.521180 
# 
# From -- ./inp_files/30930.got.cif
#   From: 2010.05.17/outbox.cif.g08.bks.cpg/sg59_16_cif.got.tgz:30930.got - 2010.06.03 14:40:33.
