data_PCOD9448536
_publ_section_title
;
Structure prediction by ZEFSAII (Michael W. Deem and Ramdas Pophale) SiO2 
 PCOD9448536
Probable space group: P M M N
;
_chemical_formula_sum "Si O2"
_cell_formula_units_Z 56
_cell_length_a 20.511978
_cell_length_b 7.879223
_cell_length_c 16.399987
_cell_angle_alpha 90.000000
_cell_angle_beta 90.000000
_cell_angle_gamma 90.000000
_cell_volume 2650.540460
_symmetry_space_group_name_H-M "P M M N"
_symmetry_group_IT_number 59
_space_group.IT_coordinate_system_code '2'
_symmetry_cell_setting 'orthorhombic'
loop_
_space_group_symop_operation_xyz
x,y,z
1/2-x,1/2-y,z
1/2+x,-y,-z
-x,1/2+y,-z
-x,-y,-z
1/2+x,1/2+y,-z
1/2-x,y,z
x,1/2-y,z
loop_
_atom_site_type_symbol
_atom_site_label
_atom_site_fract_x
_atom_site_fract_y
_atom_site_fract_z
Si Si1 0.676423 0.547368 0.018922
Si Si2 0.079883 0.447196 0.656761
Si Si3 0.825023 0.450180 0.203278
Si Si4 0.177875 0.953862 0.333326
Si Si5 0.676976 0.544651 0.477906
Si Si6 0.548847 0.049164 0.928131
Si Si7 0.954957 0.459261 0.746586
O O1 0.750000 0.487221 0.999570
O O2 0.677713 0.750000 0.025531
O O3 0.658285 0.478135 0.108452
O O4 0.621883 0.498972 0.954217
O O5 0.068298 0.250000 0.636338
O O6 0.126528 0.457564 0.735706
O O7 0.121015 0.522550 0.581975
O O8 0.010600 0.520200 0.684375
O O9 0.750000 0.508681 0.214026
O O10 0.827881 0.250000 0.220795
O O11 0.250000 0.019708 0.310650
O O12 0.179523 0.750000 0.325384
O O13 0.116786 0.014668 0.281041
O O14 0.166959 0.995305 0.428393
O O15 0.750000 0.486366 0.453378
O O16 0.677272 0.750000 0.472695
O O17 0.545890 0.250000 0.921778
O O18 0.531200 0.981441 0.838632
O O19 0.500000 0.000000 0.000000
O O20 0.956572 0.250000 0.745711
#
# Coordination Sequence:
#
# PCOD9448536 Si02
#       7
#     8   8   8   8   8   8   8
#     4  10  21  37  56  78 106 141 182 228 279 334
#     4  10  19  33  53  76 107 144 179 215 260 319
#     4  10  20  33  51  78 110 141 177 222 268 317
#     4   9  18  35  57  77 101 136 177 220 266 315
#     4   9  18  32  51  77 107 139 174 212 260 317
#     4  11  22  37  58  82 111 145 183 229 279 332
#     4   9  20  36  54  78 104 135 177 222 267 316
#
# _framework density 21.127765
#
# number of rings (size 3 to 8) (size 9 to 14) (size 15 to 20)
#    0.000    2.286    0.000    2.571    0.000    5.143 
#    0.000    5.714    0.000    1.714    0.000    0.000 
#    0.000    0.000    0.000    0.000    0.000    0.000 
#
# Total GULP energy -312719.717190 kJ/mol
# GULP energy per Si atom -5584.280664 kJ/mol
# Density = 2.107968 g / cm^3
# Si number density = 21.127765 Si / 1000 Ang^3
#
#
#
# Elastic Constant Matrix: (Units=GPa)
#
#
# Indices 1 2 3 4 5 6 
#
# 1 118.8213 6.6953 63.6022 0.0000 0.0000 0.0000
# 2 6.6953 25.7519 0.7434 0.0000 0.0000 0.0000
# 3 63.6022 0.7434 70.5036 0.0000 0.0000 0.0000
# 4 0.0000 0.0000 0.0000 23.5332 0.0000 0.0000
# 5 0.0000 0.0000 0.0000 0.0000 39.8658 0.0000
# 6 0.0000 0.0000 0.0000 0.0000 0.0000 14.5632
#
#
#
# Elastic Compliance Matrix: (Units=1/GPa)
#
#
# Indices 1 2 3 4 5 6 
#
# 1 0.016657 -0.003898 -0.014985 0.000000 0.000000 0.000000
# 2 -0.003898 0.039756 0.003097 0.000000 0.000000 0.000000
# 3 -0.014985 0.003097 0.027669 0.000000 0.000000 0.000000
# 4 0.000000 0.000000 0.000000 0.042493 0.000000 0.000000
# 5 0.000000 0.000000 0.000000 0.000000 0.025084 0.000000
# 6 0.000000 0.000000 0.000000 0.000000 0.000000 0.068666
#
#
# Mechanical properties :
#
#
# Convention : Reuss Voigt Hill
#
# Bulk Modulus (GPa) = 19.04387 39.68428 29.36408
# Shear Modulus (GPa) = 18.55964 25.19483 21.87724
#
# Velocity S-wave (km/s) = 2.96708 3.45700 3.22137
# Velocity P-wave (km/s) = 4.55755 5.89562 5.26923
#
# Compressibility (1/GPa) = 0.05251033
#
# Stress axis : x y z
#
# Youngs Moduli (GPa) = 60.03511 25.15338 36.14094
#
# Poissons Ratio (x) = 0.09805 0.54158
# Poissons Ratio (y) = 0.23402 -0.11194
# Poissons Ratio (z) = 0.89964 -0.07791
#
# Static dielectric constant tensor:
#      x y z
#    x 1.772990 0.000000 0.000000 
#    y 0.000000 1.764270 0.000000 
#    z 0.000000 0.000000 1.732630 
# 
# From -- ./inp_files/20950.got.cif
#   From: 2010.05.17/outbox.cif.g08.bks.cpg/sg59_11_cif.got.tgz:20950.got - 2010.06.03 14:40:33.
