data_PCOD9448857
_publ_section_title
;
Structure prediction by ZEFSAII (Michael W. Deem and Ramdas Pophale) SiO2 
 PCOD9448857
Probable space group: P M M N
;
_chemical_formula_sum "Si O2"
_cell_formula_units_Z 48
_cell_length_a 7.699533
_cell_length_b 10.112204
_cell_length_c 29.983338
_cell_angle_alpha 90.000000
_cell_angle_beta 90.000000
_cell_angle_gamma 90.000000
_cell_volume 2334.480161
_symmetry_space_group_name_H-M "P M M N"
_symmetry_group_IT_number 59
_space_group.IT_coordinate_system_code '2'
_symmetry_cell_setting 'orthorhombic'
loop_
_space_group_symop_operation_xyz
x,y,z
1/2-x,1/2-y,z
1/2+x,-y,-z
-x,1/2+y,-z
-x,-y,-z
1/2+x,1/2+y,-z
1/2-x,y,z
x,1/2-y,z
loop_
_atom_site_type_symbol
_atom_site_label
_atom_site_fract_x
_atom_site_fract_y
_atom_site_fract_z
Si Si1 0.541024 0.899647 0.381317
Si Si2 0.038057 0.400218 0.720204
Si Si3 0.962851 0.250000 0.036725
Si Si4 0.045052 0.099101 0.459631
Si Si5 0.455407 0.970408 0.895116
Si Si6 0.462616 0.599308 0.796289
Si Si7 0.458001 0.750000 0.065294
O O1 0.750000 0.892854 0.380487
O O2 0.480584 0.750000 0.394345
O O3 0.481550 0.926882 0.330641
O O4 0.495998 0.016585 0.414979
O O5 0.250000 0.404717 0.719874
O O6 0.988384 0.250000 0.731428
O O7 0.976966 0.501626 0.757529
O O8 0.750000 0.250000 0.034797
O O9 0.022263 0.123878 0.065445
O O10 0.023317 0.250000 0.985813
O O11 0.250000 0.114465 0.461652
O O12 0.970453 0.250000 0.461742
O O13 0.000000 0.000000 0.500000
O O14 0.250000 0.942333 0.892658
O O15 0.524393 0.939462 0.845838
O O16 0.482255 0.120102 0.909156
O O17 0.250000 0.593000 0.796665
O O18 0.511293 0.750000 0.787037
O O19 0.250000 0.750000 0.064070
#
# Coordination Sequence:
#
# PCOD9448857 Si02
#       7
#     8   8   4   8   8   8   4
#     4   9  18  34  55  81 113 145 176 214 262 318
#     4   8  15  27  46  76 111 138 164 208 264 314
#     4   9  18  35  55  75 103 133 169 217 266 313
#     4  11  24  39  56  81 111 144 185 229 269 312
#     4  10  19  34  55  78 101 131 173 219 263 311
#     4   9  16  27  47  76 105 131 165 214 266 312
#     4  11  23  35  49  73 105 139 171 211 262 319
#
# _framework density 20.561323000000002
#
# number of rings (size 3 to 8) (size 9 to 14) (size 15 to 20)
#    0.000    2.500    0.833    2.750    1.167    4.333 
#    0.000    2.917    0.000    1.000    0.000    0.000 
#    0.000    0.000    0.000    0.000    0.000    0.000 
#
# Total GULP energy -267868.865220 kJ/mol
# GULP energy per Si atom -5580.601359 kJ/mol
# Density = 2.051452 g / cm^3
# Si number density = 20.561323 Si / 1000 Ang^3
#
#
#
# Elastic Constant Matrix: (Units=GPa)
#
#
# Indices 1 2 3 4 5 6 
#
# 1 33.8682 -1.9491 6.1726 0.0000 0.0000 0.0000
# 2 -1.9491 190.5593 120.9225 0.0000 0.0000 0.0000
# 3 6.1726 120.9225 158.2832 0.0000 0.0000 0.0000
# 4 0.0000 0.0000 0.0000 39.3760 0.0000 0.0000
# 5 0.0000 0.0000 0.0000 0.0000 3.7415 0.0000
# 6 0.0000 0.0000 0.0000 0.0000 0.0000 -28.2670
#
#
#
# Elastic Compliance Matrix: (Units=1/GPa)
#
#
# Indices 1 2 3 4 5 6 
#
# 1 0.030143 0.002046 -0.002739 0.000000 0.000000 0.000000
# 2 0.002046 0.010324 -0.007967 0.000000 0.000000 0.000000
# 3 -0.002739 -0.007967 0.012511 0.000000 0.000000 0.000000
# 4 0.000000 0.000000 0.000000 0.025396 0.000000 0.000000
# 5 0.000000 0.000000 0.000000 0.000000 0.267271 0.000000
# 6 0.000000 0.000000 0.000000 0.000000 0.000000 -0.035377
#
#
# Mechanical properties :
#
#
# Convention : Reuss Voigt Hill
#
# Bulk Modulus (GPa) = 28.04320 70.33363 49.18841
# Shear Modulus (GPa) = 14.72862 20.14108 17.43485
#
# Velocity S-wave (km/s) = 2.67933 3.13319 2.91511
# Velocity P-wave (km/s) = 4.82081 6.88260 5.94182
#
# Compressibility (1/GPa) = 0.03565927
#
# Stress axis : x y z
#
# Youngs Moduli (GPa) = 33.17506 96.85812 79.92796
#
# Poissons Ratio (x) = -0.19819 0.21890
# Poissons Ratio (y) = -0.06788 0.63681
# Poissons Ratio (z) = 0.09086 0.77169
#
# Static dielectric constant tensor:
#      x y z
#    x 1.785400 0.000000 0.000000 
#    y 0.000000 1.716060 0.000000 
#    z 0.000000 0.000000 1.730250 
# 
# From -- ./inp_files/33043.got.cif
#   From: 2010.05.17/outbox.cif.g08.bks.cpg/sg59_17_cif.got.tgz:33043.got - 2010.06.03 14:40:33.
