data_PCOD9448262
_publ_section_title
;
Structure prediction by ZEFSAII (Michael W. Deem and Ramdas Pophale) SiO2 
 PCOD9448262
Probable space group: P M M N
;
_chemical_formula_sum "Si O2"
_cell_formula_units_Z 64
_cell_length_a 7.871542
_cell_length_b 28.768834
_cell_length_c 14.337341
_cell_angle_alpha 90.000000
_cell_angle_beta 90.000000
_cell_angle_gamma 90.000000
_cell_volume 3246.763777
_symmetry_space_group_name_H-M "P M M N"
_symmetry_group_IT_number 59
_space_group.IT_coordinate_system_code '2'
_symmetry_cell_setting 'orthorhombic'
loop_
_space_group_symop_operation_xyz
x,y,z
1/2-x,1/2-y,z
1/2+x,-y,-z
-x,1/2+y,-z
-x,-y,-z
1/2+x,1/2+y,-z
1/2-x,y,z
x,1/2-y,z
loop_
_atom_site_type_symbol
_atom_site_label
_atom_site_fract_x
_atom_site_fract_y
_atom_site_fract_z
Si Si1 0.555645 0.693624 0.620292
Si Si2 0.452551 0.987093 0.395141
Si Si3 0.050788 0.109490 0.071121
Si Si4 0.958998 0.803379 0.824560
Si Si5 0.546319 0.564535 0.117054
Si Si6 0.550095 0.197605 0.583874
Si Si7 0.548713 0.468375 0.206517
Si Si8 0.455730 0.890475 0.306469
O O1 0.750000 0.677269 0.613475
O O2 0.557720 0.750000 0.624151
O O3 0.484079 0.680240 0.721159
O O4 0.466379 0.681675 0.523811
O O5 0.250000 0.986780 0.388185
O O6 0.515077 0.935625 0.365132
O O7 0.500000 0.000000 0.500000
O O8 0.517408 0.022281 0.315563
O O9 0.250000 0.116405 0.050954
O O10 0.981314 0.159908 0.098928
O O11 0.034134 0.076457 0.160729
O O12 0.977238 0.083134 0.981121
O O13 0.750000 0.803646 0.821486
O O14 0.010260 0.750000 0.840383
O O15 0.750000 0.559490 0.109647
O O16 0.481735 0.514241 0.151497
O O17 0.507548 0.600153 0.200341
O O18 0.750000 0.201258 0.604215
O O19 0.476772 0.250000 0.592441
O O20 0.478539 0.157542 0.650085
O O21 0.750000 0.464658 0.191742
O O22 0.250000 0.889884 0.311030
#
# Coordination Sequence:
#
# PCOD9448262 Si02
#       8
#     8   8   8   8   8   8   8   8
#     4   8  14  26  44  65  89 119 154 189 227 274
#     4  10  20  35  53  74 102 133 164 199 243 296
#     4  10  19  32  52  76  98 124 164 208 247 290
#     4   8  15  29  48  70  98 129 158 192 239 293
#     4   9  19  34  51  72  98 127 161 204 251 295
#     4   9  17  30  48  70  95 124 159 197 237 281
#     4  10  20  34  51  73 101 131 164 203 247 293
#     4   9  19  34  51  70  95 129 163 196 239 291
#
# _framework density 19.711936999999999
#
# number of rings (size 3 to 8) (size 9 to 14) (size 15 to 20)
#    0.000    2.875    0.000    1.875    0.000    3.000 
#    0.000    3.750    0.000    1.875    0.000    0.000 
#    0.000    0.000    0.000    0.000    0.000    0.000 
#
# Total GULP energy -356759.311193 kJ/mol
# GULP energy per Si atom -5574.364237 kJ/mol
# Density = 1.966707 g / cm^3
# Si number density = 19.711937 Si / 1000 Ang^3
#
#
#
# Elastic Constant Matrix: (Units=GPa)
#
#
# Indices 1 2 3 4 5 6 
#
# 1 16.5445 -3.3992 -12.8664 0.0000 0.0000 0.0000
# 2 -3.3992 75.2167 52.2680 0.0000 0.0000 0.0000
# 3 -12.8664 52.2680 87.0859 0.0000 0.0000 0.0000
# 4 0.0000 0.0000 0.0000 24.8331 0.0000 0.0000
# 5 0.0000 0.0000 0.0000 0.0000 5.2443 0.0000
# 6 0.0000 0.0000 0.0000 0.0000 0.0000 9.6742
#
#
#
# Elastic Compliance Matrix: (Units=1/GPa)
#
#
# Indices 1 2 3 4 5 6 
#
# 1 0.070337 -0.006935 0.014554 0.000000 0.000000 0.000000
# 2 -0.006935 0.023491 -0.015124 0.000000 0.000000 0.000000
# 3 0.014554 -0.015124 0.022710 0.000000 0.000000 0.000000
# 4 0.000000 0.000000 0.000000 0.040269 0.000000 0.000000
# 5 0.000000 0.000000 0.000000 0.000000 0.190684 0.000000
# 6 0.000000 0.000000 0.000000 0.000000 0.000000 0.103367
#
#
# Mechanical properties :
#
#
# Convention : Reuss Voigt Hill
#
# Bulk Modulus (GPa) = 9.84944 27.87245 18.86095
# Shear Modulus (GPa) = 10.00581 17.47329 13.73955
#
# Velocity S-wave (km/s) = 2.25545 2.98053 2.64297
# Velocity P-wave (km/s) = 3.43369 5.10052 4.34773
#
# Compressibility (1/GPa) = 0.10152861
#
# Stress axis : x y z
#
# Youngs Moduli (GPa) = 14.21736 42.56969 44.03308
#
# Poissons Ratio (x) = 0.29522 -0.64086
# Poissons Ratio (y) = 0.09860 0.66594
# Poissons Ratio (z) = -0.20692 0.64381
#
# Static dielectric constant tensor:
#      x y z
#    x 1.709600 0.000000 0.000000 
#    y 0.000000 1.712690 0.000000 
#    z 0.000000 0.000000 1.695520 
# 
# From -- ./inp_files/14942.got.cif
#   From: 2010.05.17/outbox.cif.g08.bks.cpg/sg59_8_cif.got.tgz:14942.got - 2010.06.03 14:40:33.
