data_PCOD9448134
_publ_section_title
;
Structure prediction by ZEFSAII (Michael W. Deem and Ramdas Pophale) SiO2 
 PCOD9448134
Probable space group: P M M N
;
_chemical_formula_sum "Si O2"
_cell_formula_units_Z 64
_cell_length_a 24.855477
_cell_length_b 8.643162
_cell_length_c 16.691055
_cell_angle_alpha 90.000000
_cell_angle_beta 90.000000
_cell_angle_gamma 90.000000
_cell_volume 3585.737915
_symmetry_space_group_name_H-M "P M M N"
_symmetry_group_IT_number 59
_space_group.IT_coordinate_system_code '2'
_symmetry_cell_setting 'orthorhombic'
loop_
_space_group_symop_operation_xyz
x,y,z
1/2-x,1/2-y,z
1/2+x,-y,-z
-x,1/2+y,-z
-x,-y,-z
1/2+x,1/2+y,-z
1/2-x,y,z
x,1/2-y,z
loop_
_atom_site_type_symbol
_atom_site_label
_atom_site_fract_x
_atom_site_fract_y
_atom_site_fract_z
Si Si1 0.310979 0.935419 0.292303
Si Si2 0.401130 0.568169 0.871039
Si Si3 0.976321 0.563806 0.269582
Si Si4 0.942494 0.565235 0.972834
Si Si5 0.386378 0.432895 0.611864
Si Si6 0.084849 0.435599 0.207974
Si Si7 0.311145 0.062453 0.471752
Si Si8 0.687661 0.068586 0.255055
O O1 0.250000 0.978692 0.267088
O O2 0.314815 0.750000 0.292011
O O3 0.357804 0.005455 0.238220
O O4 0.317880 0.996278 0.383008
O O5 0.414114 0.750000 0.877793
O O6 0.444145 0.493846 0.809409
O O7 0.403022 0.491902 0.957589
O O8 0.343948 0.550179 0.827907
O O9 0.976817 0.750000 0.269413
O O10 0.941709 0.508245 0.347168
O O11 0.036453 0.500406 0.262680
O O12 0.945025 0.750000 0.972484
O O13 0.926893 0.513530 0.883569
O O14 0.000000 0.500000 0.000000
O O15 0.393869 0.250000 0.600271
O O16 0.358397 0.494122 0.531042
O O17 0.341914 0.464191 0.679912
O O18 0.083378 0.250000 0.210659
O O19 0.250000 0.020950 0.499739
O O20 0.313138 0.250000 0.468793
O O21 0.750000 0.032822 0.248733
O O22 0.681382 0.250000 0.278629
#
# Coordination Sequence:
#
# PCOD9448134 Si02
#       8
#     8   8   8   8   8   8   8   8
#     4  10  22  40  61  84 108 136 176 224 272 321
#     4  10  19  32  50  74 106 141 179 220 264 314
#     4  10  19  32  52  78 111 145 179 220 266 316
#     4  11  22  35  55  81 107 135 174 221 267 317
#     4   9  18  31  50  79 110 142 181 223 266 315
#     4  11  23  38  58  82 108 140 179 220 271 328
#     4   9  17  32  55  80 108 142 180 223 270 319
#     4   9  18  31  47  70 104 145 182 217 261 313
#
# _framework density 17.848488
#
# number of rings (size 3 to 8) (size 9 to 14) (size 15 to 20)
#    0.000    2.125    1.250    2.250    0.000    4.500 
#    0.000    2.500    0.000    2.250    0.000    0.000 
#    0.000    0.000    0.000    0.000    0.000    0.000 
#
# Total GULP energy -356959.362269 kJ/mol
# GULP energy per Si atom -5577.490035 kJ/mol
# Density = 1.780786 g / cm^3
# Si number density = 17.848488 Si / 1000 Ang^3
#
#
#
# Elastic Constant Matrix: (Units=GPa)
#
#
# Indices 1 2 3 4 5 6 
#
# 1 116.8136 25.7927 59.5191 0.0000 0.0000 0.0000
# 2 25.7927 28.4532 22.8619 0.0000 0.0000 0.0000
# 3 59.5191 22.8619 88.3733 0.0000 0.0000 0.0000
# 4 0.0000 0.0000 0.0000 22.6622 0.0000 0.0000
# 5 0.0000 0.0000 0.0000 0.0000 25.5269 0.0000
# 6 0.0000 0.0000 0.0000 0.0000 0.0000 20.1373
#
#
#
# Elastic Compliance Matrix: (Units=1/GPa)
#
#
# Indices 1 2 3 4 5 6 
#
# 1 0.013902 -0.006412 -0.007704 0.000000 0.000000 0.000000
# 2 -0.006412 0.047325 -0.007925 0.000000 0.000000 0.000000
# 3 -0.007704 -0.007925 0.018554 0.000000 0.000000 0.000000
# 4 0.000000 0.000000 0.000000 0.044126 0.000000 0.000000
# 5 0.000000 0.000000 0.000000 0.000000 0.039174 0.000000
# 6 0.000000 0.000000 0.000000 0.000000 0.000000 0.049659
#
#
# Mechanical properties :
#
#
# Convention : Reuss Voigt Hill
#
# Bulk Modulus (GPa) = 28.01089 49.99860 39.00474
# Shear Modulus (GPa) = 18.60660 22.02970 20.31815
#
# Velocity S-wave (km/s) = 3.23224 3.51702 3.37763
# Velocity P-wave (km/s) = 5.44588 6.67579 6.09195
#
# Compressibility (1/GPa) = 0.03570040
#
# Stress axis : x y z
#
# Youngs Moduli (GPa) = 71.93332 21.13048 53.89566
#
# Poissons Ratio (x) = 0.13548 0.41522
# Poissons Ratio (y) = 0.46122 0.42710
# Poissons Ratio (z) = 0.55418 0.16745
#
# Static dielectric constant tensor:
#      x y z
#    x 1.621360 0.000000 0.000000 
#    y 0.000000 1.608140 0.000000 
#    z 0.000000 0.000000 1.609670 
# 
# From -- ./inp_files/24684.got.cif
#   From: 2010.05.17/outbox.cif.g08.bks.cpg/sg59_13_cif.got.tgz:24684.got - 2010.06.03 14:40:33.
