data_PCOD9448668
_publ_section_title
;
Structure prediction by ZEFSAII (Michael W. Deem and Ramdas Pophale) SiO2 
 PCOD9448668
Probable space group: P M M N
;
_chemical_formula_sum "Si O2"
_cell_formula_units_Z 48
_cell_length_a 18.500614
_cell_length_b 7.645098
_cell_length_c 15.951414
_cell_angle_alpha 90.000000
_cell_angle_beta 90.000000
_cell_angle_gamma 90.000000
_cell_volume 2256.152158
_symmetry_space_group_name_H-M "P M M N"
_symmetry_group_IT_number 59
_space_group.IT_coordinate_system_code '2'
_symmetry_cell_setting 'orthorhombic'
loop_
_space_group_symop_operation_xyz
x,y,z
1/2-x,1/2-y,z
1/2+x,-y,-z
-x,1/2+y,-z
-x,-y,-z
1/2+x,1/2+y,-z
1/2-x,y,z
x,1/2-y,z
loop_
_atom_site_type_symbol
_atom_site_label
_atom_site_fract_x
_atom_site_fract_y
_atom_site_fract_z
Si Si1 0.831653 0.957964 0.173004
Si Si2 0.832303 0.960303 0.502270
Si Si3 0.084631 0.542337 0.996481
Si Si4 0.166445 0.964472 0.162774
Si Si5 0.582793 0.964901 0.336956
Si Si6 0.082465 0.540394 0.328068
O O1 0.750000 0.028780 0.165074
O O2 0.825534 0.750000 0.185422
O O3 0.873950 0.024689 0.254631
O O4 0.877580 0.983156 0.088957
O O5 0.750000 0.026774 0.502908
O O6 0.828889 0.750000 0.495756
O O7 0.876905 0.022456 0.421425
O O8 0.873281 0.002306 0.587979
O O9 0.091550 0.750000 0.998494
O O10 0.126123 0.474479 0.078766
O O11 0.000000 0.500000 0.000000
O O12 0.250000 0.018247 0.163867
O O13 0.165719 0.750000 0.162935
O O14 0.124264 0.024278 0.245705
O O15 0.582225 0.750000 0.337012
O O16 0.499762 0.024276 0.334223
O O17 0.078171 0.750000 0.319681
#
# Coordination Sequence:
#
# PCOD9448668 Si02
#       6
#     8   8   8   8   8   8
#     4  10  20  36  59  84 109 140 180 223 267 321
#     4  10  20  34  52  75 105 140 176 216 264 316
#     4  11  22  37  57  80 109 144 182 224 270 321
#     4   9  18  33  53  76 103 137 173 209 259 323
#     4   9  18  34  55  78 106 142 179 212 258 324
#     4  10  19  33  55  78 101 133 175 220 260 307
#
# _framework density 21.27516
#
# number of rings (size 3 to 8) (size 9 to 14) (size 15 to 20)
#    0.000    2.167    0.000    3.500    0.000    6.667 
#    0.000    5.000    0.000    6.000    0.000    0.000 
#    0.000    0.000    0.000    0.000    0.000    0.000 
#
# Total GULP energy -268295.549739 kJ/mol
# GULP energy per Si atom -5589.490620 kJ/mol
# Density = 2.122674 g / cm^3
# Si number density = 21.275160 Si / 1000 Ang^3
#
#
#
# Elastic Constant Matrix: (Units=GPa)
#
#
# Indices 1 2 3 4 5 6 
#
# 1 226.7273 2.0624 125.0282 0.0000 0.0000 0.0000
# 2 2.0624 38.5942 -2.9541 0.0000 0.0000 0.0000
# 3 125.0282 -2.9541 221.1450 0.0000 0.0000 0.0000
# 4 0.0000 0.0000 0.0000 28.5430 0.0000 0.0000
# 5 0.0000 0.0000 0.0000 0.0000 46.9826 0.0000
# 6 0.0000 0.0000 0.0000 0.0000 0.0000 477.5729
#
#
#
# Elastic Compliance Matrix: (Units=1/GPa)
#
#
# Indices 1 2 3 4 5 6 
#
# 1 0.006423 -0.000622 -0.003640 0.000000 0.000000 0.000000
# 2 -0.000622 0.025997 0.000699 0.000000 0.000000 0.000000
# 3 -0.003640 0.000699 0.006589 0.000000 0.000000 0.000000
# 4 0.000000 0.000000 0.000000 0.035035 0.000000 0.000000
# 5 0.000000 0.000000 0.000000 0.000000 0.021284 0.000000
# 6 0.000000 0.000000 0.000000 0.000000 0.000000 0.002094
#
#
# Mechanical properties :
#
#
# Convention : Reuss Voigt Hill
#
# Bulk Modulus (GPa) = 31.36359 81.63773 56.50066
# Shear Modulus (GPa) = 43.41140 134.77504 89.09322
#
# Velocity S-wave (km/s) = 4.52206 7.96781 6.47824
# Velocity P-wave (km/s) = 6.48377 11.09521 9.08689
#
# Compressibility (1/GPa) = 0.03188410
#
# Stress axis : x y z
#
# Youngs Moduli (GPa) = 155.67898 38.46546 151.76454
#
# Poissons Ratio (x) = 0.02392 0.55241
# Poissons Ratio (y) = 0.09681 -0.10606
# Poissons Ratio (z) = 0.56666 -0.02688
#
# Static dielectric constant tensor:
#      x y z
#    x 1.731560 0.000000 0.000000 
#    y 0.000000 1.816450 0.000000 
#    z 0.000000 0.000000 1.713010 
# 
# From -- ./inp_files/20417.got.cif
#   From: 2010.05.17/outbox.cif.g08.bks.cpg/sg59_11_cif.got.tgz:20417.got - 2010.06.03 14:40:33.
