data_PCOD9448539
_publ_section_title
;
Structure prediction by ZEFSAII (Michael W. Deem and Ramdas Pophale) SiO2 
 PCOD9448539
Probable space group: P M M N
;
_chemical_formula_sum "Si O2"
_cell_formula_units_Z 64
_cell_length_a 18.700430
_cell_length_b 7.453315
_cell_length_c 20.526769
_cell_angle_alpha 90.000000
_cell_angle_beta 90.000000
_cell_angle_gamma 90.000000
_cell_volume 2861.025075
_symmetry_space_group_name_H-M "P M M N"
_symmetry_group_IT_number 59
_space_group.IT_coordinate_system_code '2'
_symmetry_cell_setting 'orthorhombic'
loop_
_space_group_symop_operation_xyz
x,y,z
1/2-x,1/2-y,z
1/2+x,-y,-z
-x,1/2+y,-z
-x,-y,-z
1/2+x,1/2+y,-z
1/2-x,y,z
x,1/2-y,z
loop_
_atom_site_type_symbol
_atom_site_label
_atom_site_fract_x
_atom_site_fract_y
_atom_site_fract_z
Si Si1 0.668497 0.967663 0.901605
Si Si2 0.912477 0.966212 0.172226
Si Si3 0.419339 0.464754 0.975113
Si Si4 0.935379 0.041115 0.782342
Si Si5 0.671650 0.470378 0.675776
Si Si6 0.440395 0.968247 0.590657
Si Si7 0.900010 0.041280 0.551144
Si Si8 0.670066 0.036427 0.299967
O O1 0.750000 0.026722 0.891558
O O2 0.667913 0.750000 0.900847
O O3 0.615260 0.029659 0.845237
O O4 0.636071 0.029741 0.970472
O O5 0.917466 0.750000 0.167845
O O6 0.905658 0.032713 0.098058
O O7 0.987472 0.036847 0.201252
O O8 0.852072 0.006776 0.225065
O O9 0.411604 0.250000 0.972746
O O10 0.500000 0.500000 0.000000
O O11 0.947584 0.250000 0.766752
O O12 0.890524 0.962988 0.722956
O O13 0.750000 0.523907 0.699088
O O14 0.669910 0.250000 0.676393
O O15 0.656448 0.531962 0.602453
O O16 0.442475 0.750000 0.590937
O O17 0.407231 0.032228 0.521627
O O18 0.392328 0.030447 0.651322
O O19 0.522659 0.028434 0.586511
O O20 0.882542 0.250000 0.542211
O O21 0.750000 0.965795 0.313087
O O22 0.672538 0.250000 0.310596
#
# Coordination Sequence:
#
# PCOD9448539 Si02
#       8
#     8   8   8   8   8   8   8   8
#     4  10  21  35  52  77 107 138 171 210 261 317
#     4  10  21  36  57  82 105 136 178 221 265 317
#     4  10  20  36  57  80 106 137 175 219 264 316
#     4  10  19  33  53  77 104 135 173 214 256 306
#     4   9  17  28  45  72 103 132 164 205 250 294
#     4   9  18  33  53  76 102 134 172 218 267 312
#     4   9  17  31  53  77 101 133 175 217 259 314
#     4  10  22  38  54  77 110 145 182 225 274 326
#
# _framework density 22.369603999999999
#
# number of rings (size 3 to 8) (size 9 to 14) (size 15 to 20)
#    0.000    2.375    1.250    1.125    0.000    4.500 
#    0.000    4.375    0.000    1.125    0.000    3.500 
#    0.000    0.000    0.000    0.000    0.000    0.000 
#
# Total GULP energy -357433.886022 kJ/mol
# GULP energy per Si atom -5584.904469 kJ/mol
# Density = 2.231869 g / cm^3
# Si number density = 22.369604 Si / 1000 Ang^3
#
#
#
# Elastic Constant Matrix: (Units=GPa)
#
#
# Indices 1 2 3 4 5 6 
#
# 1 42.3409 -13.8920 8.4225 0.0000 0.0000 0.0000
# 2 -13.8920 67.6898 -11.1508 0.0000 0.0000 0.0000
# 3 8.4225 -11.1508 103.5788 0.0000 0.0000 0.0000
# 4 0.0000 0.0000 0.0000 10.6960 0.0000 0.0000
# 5 0.0000 0.0000 0.0000 0.0000 -42.1464 0.0000
# 6 0.0000 0.0000 0.0000 0.0000 0.0000 -58.3481
#
#
#
# Elastic Compliance Matrix: (Units=1/GPa)
#
#
# Indices 1 2 3 4 5 6 
#
# 1 0.025562 0.004992 -0.001541 0.000000 0.000000 0.000000
# 2 0.004992 0.016015 0.001318 0.000000 0.000000 0.000000
# 3 -0.001541 0.001318 0.009922 0.000000 0.000000 0.000000
# 4 0.000000 0.000000 0.000000 0.093493 0.000000 0.000000
# 5 0.000000 0.000000 0.000000 0.000000 -0.023727 0.000000
# 6 0.000000 0.000000 0.000000 0.000000 0.000000 -0.017139
#
#
# Mechanical properties :
#
#
# Convention : Reuss Voigt Hill
#
# Bulk Modulus (GPa) = 16.38333 20.04098 18.21215
# Shear Modulus (GPa) = 43.50321 -2.61105 20.44608
#
# Velocity S-wave (km/s) = 4.41471 -1.08156 3.02654
# Velocity P-wave (km/s) = 5.77287 2.72374 4.51358
#
# Compressibility (1/GPa) = 0.06103767
#
# Stress axis : x y z
#
# Youngs Moduli (GPa) = 39.12002 62.44146 100.78908
#
# Poissons Ratio (x) = -0.31173 0.15533
# Poissons Ratio (y) = -0.19530 -0.13286
# Poissons Ratio (z) = 0.06029 -0.08231
#
# Static dielectric constant tensor:
#      x y z
#    x 1.798160 0.000000 0.000000 
#    y 0.000000 1.932410 0.000000 
#    z 0.000000 0.000000 1.826860 
# 
# From -- ./inp_files/30762.got.cif
#   From: 2010.05.17/outbox.cif.g08.bks.cpg/sg59_16_cif.got.tgz:30762.got - 2010.06.03 14:40:33.
