data_PCOD9448070
_publ_section_title
;
Structure prediction by ZEFSAII (Michael W. Deem and Ramdas Pophale) SiO2 
 PCOD9448070
Probable space group: P M M N
;
_chemical_formula_sum "Si O2"
_cell_formula_units_Z 64
_cell_length_a 9.011018
_cell_length_b 29.195339
_cell_length_c 16.009753
_cell_angle_alpha 90.000000
_cell_angle_beta 90.000000
_cell_angle_gamma 90.000000
_cell_volume 4211.841420
_symmetry_space_group_name_H-M "P M M N"
_symmetry_group_IT_number 59
_space_group.IT_coordinate_system_code '2'
_symmetry_cell_setting 'orthorhombic'
loop_
_space_group_symop_operation_xyz
x,y,z
1/2-x,1/2-y,z
1/2+x,-y,-z
-x,1/2+y,-z
-x,-y,-z
1/2+x,1/2+y,-z
1/2-x,y,z
x,1/2-y,z
loop_
_atom_site_type_symbol
_atom_site_label
_atom_site_fract_x
_atom_site_fract_y
_atom_site_fract_z
Si Si1 0.071170 0.549938 0.998776
Si Si2 0.571520 0.446538 0.672926
Si Si3 0.927558 0.945415 0.682124
Si Si4 0.572568 0.550286 0.496009
Si Si5 0.571341 0.108586 0.838738
Si Si6 0.928426 0.697640 0.900623
Si Si7 0.927598 0.392070 0.165830
Si Si8 0.428370 0.301930 0.903300
O O1 0.250000 0.545668 0.999924
O O2 0.028900 0.577741 0.915475
O O3 0.025974 0.578355 0.080946
O O4 0.000000 0.500000 0.000000
O O5 0.750000 0.444908 0.662660
O O6 0.533065 0.500332 0.686822
O O7 0.495122 0.428927 0.588126
O O8 0.528899 0.417268 0.753773
O O9 0.750000 0.942300 0.695016
O O10 0.960244 0.928953 0.587314
O O11 0.010171 0.916722 0.752205
O O12 0.500000 0.500000 0.500000
O O13 0.750000 0.546419 0.488908
O O14 0.750000 0.111974 0.840225
O O15 0.502403 0.158558 0.849510
O O16 0.750000 0.693409 0.894175
O O17 0.967923 0.750000 0.877834
O O18 0.006158 0.658379 0.847673
O O19 0.967781 0.691302 0.998721
O O20 0.750000 0.389930 0.168515
O O21 0.250000 0.304971 0.897742
O O22 0.471787 0.250000 0.880329
#
# Coordination Sequence:
#
# PCOD9448070 Si02
#       8
#     8   8   8   8   8   8   8   8
#     4  10  21  33  43  61  92 128 162 190 221 265
#     4   9  18  31  48  69  95 127 160 195 235 277
#     4   9  18  32  48  66  93 129 159 189 233 281
#     4   9  17  30  48  68  92 122 157 197 239 278
#     4  10  19  32  47  67  96 126 157 193 234 279
#     4   9  18  33  51  68  89 121 158 195 237 283
#     4  11  21  31  46  70  95 122 158 198 234 271
#     4   9  18  32  49  69  91 118 157 200 237 276
#
# _framework density 15.195254
#
# number of rings (size 3 to 8) (size 9 to 14) (size 15 to 20)
#    0.000    2.500    1.250    3.000    0.000    6.000 
#    0.000    1.250    0.000    0.000    0.000    0.875 
#    0.000    5.000    0.000    0.000    0.000    0.000 
#
# Total GULP energy -356748.849713 kJ/mol
# GULP energy per Si atom -5574.200777 kJ/mol
# Density = 1.516067 g / cm^3
# Si number density = 15.195254 Si / 1000 Ang^3
#
#
#
# Elastic Constant Matrix: (Units=GPa)
#
#
# Indices 1 2 3 4 5 6 
#
# 1 25.3851 36.7673 47.5238 0.0000 0.0000 0.0000
# 2 36.7673 110.3064 72.4579 0.0000 0.0000 0.0000
# 3 47.5238 72.4579 143.4615 0.0000 0.0000 0.0000
# 4 0.0000 0.0000 0.0000 8.6073 0.0000 0.0000
# 5 0.0000 0.0000 0.0000 0.0000 24.7151 0.0000
# 6 0.0000 0.0000 0.0000 0.0000 0.0000 26.7345
#
#
#
# Elastic Compliance Matrix: (Units=1/GPa)
#
#
# Indices 1 2 3 4 5 6 
#
# 1 0.134560 -0.023302 -0.032806 0.000000 0.000000 0.000000
# 2 -0.023302 0.017602 -0.001171 0.000000 0.000000 0.000000
# 3 -0.032806 -0.001171 0.018429 0.000000 0.000000 0.000000
# 4 0.000000 0.000000 0.000000 0.116180 0.000000 0.000000
# 5 0.000000 0.000000 0.000000 0.000000 0.040461 0.000000
# 6 0.000000 0.000000 0.000000 0.000000 0.000000 0.037405
#
#
# Mechanical properties :
#
#
# Convention : Reuss Voigt Hill
#
# Bulk Modulus (GPa) = 17.84652 65.85012 41.84832
# Shear Modulus (GPa) = 10.04273 20.17164 15.10719
#
# Velocity S-wave (km/s) = 2.57361 3.64744 3.15652
# Velocity P-wave (km/s) = 4.53890 7.82102 6.39414
#
# Compressibility (1/GPa) = 0.05603332
#
# Stress axis : x y z
#
# Youngs Moduli (GPa) = 7.43164 56.81217 54.26095
#
# Poissons Ratio (x) = 1.32383 1.78008
# Poissons Ratio (y) = 0.17317 0.06354
# Poissons Ratio (z) = 0.24380 0.06653
#
# Static dielectric constant tensor:
#      x y z
#    x 1.506870 0.000000 0.000000 
#    y 0.000000 1.482960 0.000000 
#    z 0.000000 0.000000 1.513980 
# 
# From -- ./inp_files/21905.got.cif
#   From: 2010.05.17/outbox.cif.g08.bks.cpg/sg59_11_cif.got.tgz:21905.got - 2010.06.03 14:40:33.
