data_PCOD9448545
_publ_section_title
;
Structure prediction by ZEFSAII (Michael W. Deem and Ramdas Pophale) SiO2 
 PCOD9448545
Probable space group: P M M N
;
_chemical_formula_sum "Si O2"
_cell_formula_units_Z 56
_cell_length_a 7.476459
_cell_length_b 18.553961
_cell_length_c 18.055470
_cell_angle_alpha 90.000000
_cell_angle_beta 90.000000
_cell_angle_gamma 90.000000
_cell_volume 2504.617400
_symmetry_space_group_name_H-M "P M M N"
_symmetry_group_IT_number 59
_space_group.IT_coordinate_system_code '2'
_symmetry_cell_setting 'orthorhombic'
loop_
_space_group_symop_operation_xyz
x,y,z
1/2-x,1/2-y,z
1/2+x,-y,-z
-x,1/2+y,-z
-x,-y,-z
1/2+x,1/2+y,-z
1/2-x,y,z
x,1/2-y,z
loop_
_atom_site_type_symbol
_atom_site_label
_atom_site_fract_x
_atom_site_fract_y
_atom_site_fract_z
Si Si1 0.037727 0.917728 0.522582
Si Si2 0.956061 0.566329 0.252398
Si Si3 0.463904 0.918646 0.973128
Si Si4 0.530652 0.086774 0.194549
Si Si5 0.539895 0.830858 0.377470
Si Si6 0.968162 0.331101 0.336968
Si Si7 0.032591 0.832674 0.115381
O O1 0.250000 0.911268 0.524764
O O2 0.971076 0.889601 0.602210
O O3 0.972772 0.863857 0.458896
O O4 0.000000 0.000000 0.500000
O O5 0.750000 0.550412 0.273585
O O6 0.031884 0.489787 0.227676
O O7 0.038707 0.611250 0.319881
O O8 0.962097 0.617812 0.181230
O O9 0.250000 0.910079 0.970080
O O10 0.531704 0.905717 0.889974
O O11 0.528503 0.864768 0.036805
O O12 0.500000 0.000000 0.000000
O O13 0.750000 0.085383 0.191727
O O14 0.477993 0.146629 0.254153
O O15 0.750000 0.825082 0.358501
O O16 0.464438 0.750000 0.372683
O O17 0.750000 0.331722 0.337438
O O18 0.024764 0.250000 0.356314
O O19 0.250000 0.836046 0.117889
O O20 0.979355 0.750000 0.124991
#
# Coordination Sequence:
#
# PCOD9448545 Si02
#       7
#     8   8   8   8   8   8   8
#     4  11  22  37  58  83 112 146 187 232 280 334
#     4  10  19  34  55  78 106 142 184 223 264 324
#     4  10  19  33  53  77 106 140 178 221 268 323
#     4   9  17  30  52  78 103 135 177 221 265 317
#     4  10  21  36  55  81 113 146 181 226 277 329
#     4   9  18  33  54  81 110 139 177 228 277 323
#     4  10  21  34  49  75 110 141 173 223 281 328
#
# _framework density 22.358703999999999
#
# number of rings (size 3 to 8) (size 9 to 14) (size 15 to 20)
#    0.000    2.143    1.429    2.143    0.000    5.143 
#    0.000    2.857    0.000    0.857    0.000    0.000 
#    0.000    0.000    0.000    0.000    0.000    0.000 
#
# Total GULP energy -312889.838245 kJ/mol
# GULP energy per Si atom -5587.318540 kJ/mol
# Density = 2.230781 g / cm^3
# Si number density = 22.358704 Si / 1000 Ang^3
#
#
#
# Elastic Constant Matrix: (Units=GPa)
#
#
# Indices 1 2 3 4 5 6 
#
# 1 61.6447 -12.8510 -12.1430 0.0000 0.0000 0.0000
# 2 -12.8510 69.0179 5.4480 0.0000 0.0000 0.0000
# 3 -12.1430 5.4480 124.6725 0.0000 0.0000 0.0000
# 4 0.0000 0.0000 0.0000 31.9589 0.0000 0.0000
# 5 0.0000 0.0000 0.0000 0.0000 13.3165 0.0000
# 6 0.0000 0.0000 0.0000 0.0000 0.0000 -0.7809
#
#
#
# Elastic Compliance Matrix: (Units=1/GPa)
#
#
# Indices 1 2 3 4 5 6 
#
# 1 0.017166 0.003075 0.001538 0.000000 0.000000 0.000000
# 2 0.003075 0.015090 -0.000360 0.000000 0.000000 0.000000
# 3 0.001538 -0.000360 0.008187 0.000000 0.000000 0.000000
# 4 0.000000 0.000000 0.000000 0.031290 0.000000 0.000000
# 5 0.000000 0.000000 0.000000 0.000000 0.075095 0.000000
# 6 0.000000 0.000000 0.000000 0.000000 0.000000 -1.280571
#
#
# Mechanical properties :
#
#
# Convention : Reuss Voigt Hill
#
# Bulk Modulus (GPa) = 20.43007 24.02699 22.22853
# Shear Modulus (GPa) = -4.44076 27.22431 11.39177
#
# Velocity S-wave (km/s) = -1.41084 3.49322 2.25966
# Velocity P-wave (km/s) = 2.55016 5.19996 4.09530
#
# Compressibility (1/GPa) = 0.04894746
#
# Stress axis : x y z
#
# Youngs Moduli (GPa) = 58.25503 66.26930 122.15226
#
# Poissons Ratio (x) = -0.20377 -0.18782
# Poissons Ratio (y) = -0.17913 0.04396
# Poissons Ratio (z) = -0.08957 0.02385
#
# Static dielectric constant tensor:
#      x y z
#    x 1.837470 0.000000 0.000000 
#    y 0.000000 1.795950 0.000000 
#    z 0.000000 0.000000 1.773570 
# 
# From -- ./inp_files/21015.got.cif
#   From: 2010.05.17/outbox.cif.g08.bks.cpg/sg59_11_cif.got.tgz:21015.got - 2010.06.03 14:40:33.
