data_PCOD9448202
_publ_section_title
;
Structure prediction by ZEFSAII (Michael W. Deem and Ramdas Pophale) SiO2 
 PCOD9448202
Probable space group: P M M N
;
_chemical_formula_sum "Si O2"
_cell_formula_units_Z 64
_cell_length_a 7.429037
_cell_length_b 18.418136
_cell_length_c 20.653018
_cell_angle_alpha 90.000000
_cell_angle_beta 90.000000
_cell_angle_gamma 90.000000
_cell_volume 2825.932085
_symmetry_space_group_name_H-M "P M M N"
_symmetry_group_IT_number 59
_space_group.IT_coordinate_system_code '2'
_symmetry_cell_setting 'orthorhombic'
loop_
_space_group_symop_operation_xyz
x,y,z
1/2-x,1/2-y,z
1/2+x,-y,-z
-x,1/2+y,-z
-x,-y,-z
1/2+x,1/2+y,-z
1/2-x,y,z
x,1/2-y,z
loop_
_atom_site_type_symbol
_atom_site_label
_atom_site_fract_x
_atom_site_fract_y
_atom_site_fract_z
Si Si1 0.468464 0.590654 0.553527
Si Si2 0.529516 0.667602 0.900476
Si Si3 0.466971 0.169024 0.854220
Si Si4 0.037443 0.585846 0.269332
Si Si5 0.967893 0.330804 0.319590
Si Si6 0.458379 0.924714 0.412228
Si Si7 0.044981 0.440791 0.208326
Si Si8 0.464932 0.418666 0.974956
O O1 0.250000 0.586554 0.551235
O O2 0.518176 0.649377 0.607070
O O3 0.532133 0.512012 0.578811
O O4 0.535087 0.603735 0.480484
O O5 0.750000 0.668357 0.897888
O O6 0.471001 0.750000 0.887377
O O7 0.464626 0.608262 0.848533
O O8 0.474653 0.638591 0.970694
O O9 0.250000 0.168551 0.855971
O O10 0.526237 0.250000 0.873301
O O11 0.519543 0.151038 0.780772
O O12 0.532999 0.107752 0.904896
O O13 0.250000 0.570045 0.278593
O O14 0.963259 0.594566 0.341939
O O15 0.959387 0.515930 0.231475
O O16 0.750000 0.334608 0.315266
O O17 0.024870 0.250000 0.301624
O O18 0.044936 0.389654 0.271049
O O19 0.250000 0.901251 0.411451
O O20 0.250000 0.456966 0.187554
O O21 0.250000 0.413199 0.971933
O O22 0.500000 0.500000 0.000000
#
# Coordination Sequence:
#
# PCOD9448202 Si02
#       8
#     8   8   8   8   8   8   8   8
#     4   9  17  30  49  72  99 134 174 216 266 319
#     4   9  17  30  50  74  99 131 169 205 245 296
#     4  10  22  39  58  81 110 145 183 222 268 324
#     4  10  20  34  54  81 109 137 175 223 269 315
#     4  10  20  32  46  69 104 141 175 213 261 317
#     4   9  17  31  51  75 101 129 171 223 267 312
#     4  10  19  32  51  76 104 134 172 215 255 307
#     4  10  20  36  58  81 105 134 172 218 262 310
#
# _framework density 22.647394999999999
#
# number of rings (size 3 to 8) (size 9 to 14) (size 15 to 20)
#    0.000    2.375    1.250    1.500    0.000    5.000 
#    0.000    1.250    0.000    4.125    0.000    0.000 
#    0.000    0.000    0.000    0.000    0.000    0.000 
#
# Total GULP energy -357321.246117 kJ/mol
# GULP energy per Si atom -5583.144471 kJ/mol
# Density = 2.259585 g / cm^3
# Si number density = 22.647395 Si / 1000 Ang^3
#
#
#
# Elastic Constant Matrix: (Units=GPa)
#
#
# Indices 1 2 3 4 5 6 
#
# 1 71.9655 -6.8210 2.4237 0.0000 0.0000 0.0000
# 2 -6.8210 50.3098 18.8195 0.0000 0.0000 0.0000
# 3 2.4237 18.8195 152.7955 0.0000 0.0000 0.0000
# 4 0.0000 0.0000 0.0000 5.6256 0.0000 0.0000
# 5 0.0000 0.0000 0.0000 0.0000 7.5781 0.0000
# 6 0.0000 0.0000 0.0000 0.0000 0.0000 -3.9483
#
#
#
# Elastic Compliance Matrix: (Units=1/GPa)
#
#
# Indices 1 2 3 4 5 6 
#
# 1 0.014110 0.002093 -0.000482 0.000000 0.000000 0.000000
# 2 0.002093 0.021147 -0.002638 0.000000 0.000000 0.000000
# 3 -0.000482 -0.002638 0.006877 0.000000 0.000000 0.000000
# 4 0.000000 0.000000 0.000000 0.177758 0.000000 0.000000
# 5 0.000000 0.000000 0.000000 0.000000 0.131960 0.000000
# 6 0.000000 0.000000 0.000000 0.000000 0.000000 -0.253273
#
#
# Mechanical properties :
#
#
# Convention : Reuss Voigt Hill
#
# Bulk Modulus (GPa) = 24.94873 33.76838 29.35856
# Shear Modulus (GPa) = 43.86230 19.22765 31.54497
#
# Velocity S-wave (km/s) = 4.40562 2.91692 3.73617
# Velocity P-wave (km/s) = 6.07614 5.12713 5.62169
#
# Compressibility (1/GPa) = 0.04008219
#
# Stress axis : x y z
#
# Youngs Moduli (GPa) = 70.87092 47.28713 145.40720
#
# Poissons Ratio (x) = -0.09898 0.07003
# Poissons Ratio (y) = -0.14835 0.38357
# Poissons Ratio (z) = 0.03413 0.12474
#
# Static dielectric constant tensor:
#      x y z
#    x 1.957680 0.000000 0.000000 
#    y 0.000000 1.800680 0.000000 
#    z 0.000000 0.000000 1.861880 
# 
# From -- ./inp_files/29523.got.cif
#   From: 2010.05.17/outbox.cif.g08.bks.cpg/sg59_15_cif.got.tgz:29523.got - 2010.06.03 14:40:33.
