data_PCOD9448086
_publ_section_title
;
Structure prediction by ZEFSAII (Michael W. Deem and Ramdas Pophale) SiO2 
 PCOD9448086
Probable space group: P M M N
;
_chemical_formula_sum "Si O2"
_cell_formula_units_Z 64
_cell_length_a 9.342486
_cell_length_b 24.723810
_cell_length_c 15.791984
_cell_angle_alpha 90.000000
_cell_angle_beta 90.000000
_cell_angle_gamma 90.000000
_cell_volume 3647.661660
_symmetry_space_group_name_H-M "P M M N"
_symmetry_group_IT_number 59
_space_group.IT_coordinate_system_code '2'
_symmetry_cell_setting 'orthorhombic'
loop_
_space_group_symop_operation_xyz
x,y,z
1/2-x,1/2-y,z
1/2+x,-y,-z
-x,1/2+y,-z
-x,-y,-z
1/2+x,1/2+y,-z
1/2-x,y,z
x,1/2-y,z
loop_
_atom_site_type_symbol
_atom_site_label
_atom_site_fract_x
_atom_site_fract_y
_atom_site_fract_z
Si Si1 0.576495 0.813559 0.529920
Si Si2 0.421314 0.314407 0.279365
Si Si3 0.911304 0.973648 0.738413
Si Si4 0.412509 0.999971 0.585415
Si Si5 0.580525 0.393139 0.153045
Si Si6 0.921839 0.056831 0.976776
Si Si7 0.588375 0.097463 0.795062
Si Si8 0.586610 0.625863 0.361751
O O1 0.750000 0.818479 0.530522
O O2 0.542133 0.750000 0.521246
O O3 0.531783 0.831237 0.624883
O O4 0.525725 0.845566 0.446572
O O5 0.250000 0.323298 0.272131
O O6 0.444645 0.250000 0.273459
O O7 0.504104 0.345552 0.205328
O O8 0.750000 0.951835 0.735216
O O9 0.005323 0.946547 0.810223
O O10 0.901449 0.037189 0.755962
O O11 0.997298 0.965791 0.652325
O O12 0.250000 0.980630 0.575538
O O13 0.406706 0.061978 0.617217
O O14 0.500000 0.000000 0.500000
O O15 0.750000 0.392586 0.169730
O O16 0.559734 0.400018 0.052622
O O17 0.750000 0.045467 0.968051
O O18 0.970944 0.084674 0.888930
O O19 0.000000 0.000000 0.000000
O O20 0.750000 0.119195 0.803334
O O21 0.499309 0.131134 0.726070
O O22 0.750000 0.645087 0.349648
#
# Coordination Sequence:
#
# PCOD9448086 Si02
#       8
#     8   8   8   8   8   8   8   8
#     4   8  15  31  55  79 100 127 167 212 257 306
#     4   9  19  36  57  78 102 136 176 215 257 314
#     4  10  19  32  49  68  96 136 175 210 251 302
#     4  10  20  31  43  66 100 135 172 208 250 306
#     4  11  22  33  51  79 106 134 170 220 270 313
#     4  10  20  34  52  75 104 137 175 213 257 309
#     4   9  18  33  50  70 100 136 169 206 251 301
#     4   9  18  31  49  73  98 129 165 206 253 304
#
# _framework density 17.545487000000001
#
# number of rings (size 3 to 8) (size 9 to 14) (size 15 to 20)
#    0.000    2.500    1.250    1.875    1.750    2.250 
#    0.000    0.625    0.000    1.875    0.000    3.500 
#    0.000    0.000    0.000    0.000    0.000    0.000 
#
# Total GULP energy -356381.044854 kJ/mol
# GULP energy per Si atom -5568.453826 kJ/mol
# Density = 1.750555 g / cm^3
# Si number density = 17.545487 Si / 1000 Ang^3
#
#
#
# Elastic Constant Matrix: (Units=GPa)
#
#
# Indices 1 2 3 4 5 6 
#
# 1 70.2033 14.7933 70.4004 0.0000 0.0000 0.0000
# 2 14.7933 42.4117 24.5810 0.0000 0.0000 0.0000
# 3 70.4004 24.5810 142.3057 0.0000 0.0000 0.0000
# 4 0.0000 0.0000 0.0000 23.7491 0.0000 0.0000
# 5 0.0000 0.0000 0.0000 0.0000 28.2280 0.0000
# 6 0.0000 0.0000 0.0000 0.0000 0.0000 18.0312
#
#
#
# Elastic Compliance Matrix: (Units=1/GPa)
#
#
# Indices 1 2 3 4 5 6 
#
# 1 0.028414 -0.001960 -0.013718 0.000000 0.000000 0.000000
# 2 -0.001960 0.026337 -0.003580 0.000000 0.000000 0.000000
# 3 -0.013718 -0.003580 0.014432 0.000000 0.000000 0.000000
# 4 0.000000 0.000000 0.000000 0.042107 0.000000 0.000000
# 5 0.000000 0.000000 0.000000 0.000000 0.035426 0.000000
# 6 0.000000 0.000000 0.000000 0.000000 0.000000 0.055459
#
#
# Mechanical properties :
#
#
# Convention : Reuss Voigt Hill
#
# Bulk Modulus (GPa) = 32.60824 52.71890 42.66357
# Shear Modulus (GPa) = 19.92722 23.67807 21.80265
#
# Velocity S-wave (km/s) = 3.37374 3.67757 3.52893
# Velocity P-wave (km/s) = 5.81390 6.93866 6.40103
#
# Compressibility (1/GPa) = 0.03066709
#
# Stress axis : x y z
#
# Youngs Moduli (GPa) = 35.19375 37.96981 69.29028
#
# Poissons Ratio (x) = 0.07442 0.95054
# Poissons Ratio (y) = 0.06898 0.24803
# Poissons Ratio (z) = 0.48280 0.13592
#
# Static dielectric constant tensor:
#      x y z
#    x 1.608090 0.000000 0.000000 
#    y 0.000000 1.599040 0.000000 
#    z 0.000000 0.000000 1.608440 
# 
# From -- ./inp_files/21865.got.cif
#   From: 2010.05.17/outbox.cif.g08.bks.cpg/sg59_11_cif.got.tgz:21865.got - 2010.06.03 14:40:33.
