data_PCOD9448680
_publ_section_title
;
Structure prediction by ZEFSAII (Michael W. Deem and Ramdas Pophale) SiO2 
 PCOD9448680
Probable space group: P M M N
;
_chemical_formula_sum "Si O2"
_cell_formula_units_Z 56
_cell_length_a 7.569710
_cell_length_b 19.566322
_cell_length_c 17.216162
_cell_angle_alpha 90.000000
_cell_angle_beta 90.000000
_cell_angle_gamma 90.000000
_cell_volume 2549.909569
_symmetry_space_group_name_H-M "P M M N"
_symmetry_group_IT_number 59
_space_group.IT_coordinate_system_code '2'
_symmetry_cell_setting 'orthorhombic'
loop_
_space_group_symop_operation_xyz
x,y,z
1/2-x,1/2-y,z
1/2+x,-y,-z
-x,1/2+y,-z
-x,-y,-z
1/2+x,1/2+y,-z
1/2-x,y,z
x,1/2-y,z
loop_
_atom_site_type_symbol
_atom_site_label
_atom_site_fract_x
_atom_site_fract_y
_atom_site_fract_z
Si Si1 0.463359 0.556553 0.252033
Si Si2 0.036315 0.170386 0.491326
Si Si3 0.039262 0.327488 0.860972
Si Si4 0.553336 0.460030 0.577663
Si Si5 0.965106 0.671283 0.682796
Si Si6 0.461998 0.080799 0.003611
Si Si7 0.465906 0.420119 0.173847
O O1 0.250000 0.555122 0.255303
O O2 0.511340 0.630023 0.217970
O O3 0.534598 0.537308 0.337625
O O4 0.520556 0.497789 0.191960
O O5 0.250000 0.164809 0.496037
O O6 0.991031 0.250000 0.501726
O O7 0.981179 0.149167 0.403819
O O8 0.954883 0.119103 0.552711
O O9 0.250000 0.322802 0.871597
O O10 0.969679 0.250000 0.859655
O O11 0.968165 0.374037 0.932201
O O12 0.500000 0.500000 0.500000
O O13 0.750000 0.485884 0.591642
O O14 0.750000 0.669919 0.682406
O O15 0.018079 0.750000 0.692826
O O16 0.025638 0.625503 0.753893
O O17 0.250000 0.087480 0.002415
O O18 0.524862 0.103656 0.089104
O O19 0.500000 0.000000 0.000000
O O20 0.250000 0.418663 0.173861
#
# Coordination Sequence:
#
# PCOD9448680 Si02
#       7
#     8   8   8   8   8   8   8
#     4  10  21  37  56  78 105 142 186 228 271 326
#     4   9  18  34  55  77 106 145 184 224 274 330
#     4  10  22  38  55  81 115 146 181 229 280 327
#     4  11  23  37  56  82 112 143 184 236 283 336
#     4   8  14  26  47  76 106 135 170 214 262 312
#     4  10  19  33  55  79 107 142 178 219 268 326
#     4   9  16  28  50  76 102 133 173 217 260 310
#
# _framework density 21.961562000000001
#
# number of rings (size 3 to 8) (size 9 to 14) (size 15 to 20)
#    0.000    2.429    1.429    2.143    0.000    5.143 
#    0.000    5.714    0.000    0.000    0.000    0.000 
#    0.000    0.000    0.000    0.000    0.000    0.000 
#
# Total GULP energy -312537.133895 kJ/mol
# GULP energy per Si atom -5581.020248 kJ/mol
# Density = 2.191158 g / cm^3
# Si number density = 21.961562 Si / 1000 Ang^3
#
#
#
# Elastic Constant Matrix: (Units=GPa)
#
#
# Indices 1 2 3 4 5 6 
#
# 1 47.7524 0.1099 4.6046 0.0000 0.0000 0.0000
# 2 0.1099 84.1196 45.4902 0.0000 0.0000 0.0000
# 3 4.6046 45.4902 128.4555 0.0000 0.0000 0.0000
# 4 0.0000 0.0000 0.0000 37.8340 0.0000 0.0000
# 5 0.0000 0.0000 0.0000 0.0000 11.9650 0.0000
# 6 0.0000 0.0000 0.0000 0.0000 0.0000 17.8129
#
#
#
# Elastic Compliance Matrix: (Units=1/GPa)
#
#
# Indices 1 2 3 4 5 6 
#
# 1 0.021029 0.000470 -0.000920 0.000000 0.000000 0.000000
# 2 0.000470 0.014714 -0.005228 0.000000 0.000000 0.000000
# 3 -0.000920 -0.005228 0.009669 0.000000 0.000000 0.000000
# 4 0.000000 0.000000 0.000000 0.026431 0.000000 0.000000
# 5 0.000000 0.000000 0.000000 0.000000 0.083577 0.000000
# 6 0.000000 0.000000 0.000000 0.000000 0.000000 0.056139
#
#
# Mechanical properties :
#
#
# Convention : Reuss Voigt Hill
#
# Bulk Modulus (GPa) = 29.36271 40.08188 34.72230
# Shear Modulus (GPa) = 21.34312 27.53055 24.43684
#
# Velocity S-wave (km/s) = 3.12082 3.54443 3.33935
# Velocity P-wave (km/s) = 5.13664 5.91956 5.54194
#
# Compressibility (1/GPa) = 0.03405680
#
# Stress axis : x y z
#
# Youngs Moduli (GPa) = 47.55338 67.96143 103.42263
#
# Poissons Ratio (x) = -0.03196 0.09518
# Poissons Ratio (y) = -0.02236 0.54066
# Poissons Ratio (z) = 0.04376 0.35528
#
# Static dielectric constant tensor:
#      x y z
#    x 1.860200 0.000000 0.000000 
#    y 0.000000 1.789340 0.000000 
#    z 0.000000 0.000000 1.818820 
# 
# From -- ./inp_files/21058.got.cif
#   From: 2010.05.17/outbox.cif.g08.bks.cpg/sg59_11_cif.got.tgz:21058.got - 2010.06.03 14:40:33.
