data_PCOD9448976
_publ_section_title
;
Structure prediction by ZEFSAII (Michael W. Deem and Ramdas Pophale) SiO2 
 PCOD9448976
Probable space group: P M M N
;
_chemical_formula_sum "Si O2"
_cell_formula_units_Z 48
_cell_length_a 9.083733
_cell_length_b 28.492742
_cell_length_c 10.396998
_cell_angle_alpha 90.000000
_cell_angle_beta 90.000000
_cell_angle_gamma 90.000000
_cell_volume 2690.955813
_symmetry_space_group_name_H-M "P M M N"
_symmetry_group_IT_number 59
_space_group.IT_coordinate_system_code '2'
_symmetry_cell_setting 'orthorhombic'
loop_
_space_group_symop_operation_xyz
x,y,z
1/2-x,1/2-y,z
1/2+x,-y,-z
-x,1/2+y,-z
-x,-y,-z
1/2+x,1/2+y,-z
1/2-x,y,z
x,1/2-y,z
loop_
_atom_site_type_symbol
_atom_site_label
_atom_site_fract_x
_atom_site_fract_y
_atom_site_fract_z
Si Si1 0.076829 0.805419 0.051448
Si Si2 0.925715 0.447255 0.136443
Si Si3 0.573435 0.344329 0.228319
Si Si4 0.574979 0.455187 0.832987
Si Si5 0.072615 0.303949 0.482704
Si Si6 0.926162 0.865501 0.271479
O O1 0.250000 0.818247 0.067925
O O2 0.061033 0.750000 0.072677
O O3 0.037057 0.818079 0.904967
O O4 0.981705 0.834534 0.151719
O O5 0.750000 0.454622 0.148851
O O6 0.965252 0.399003 0.206960
O O7 0.010851 0.492816 0.185849
O O8 0.956115 0.442472 0.983303
O O9 0.750000 0.341200 0.245066
O O10 0.494806 0.321657 0.349554
O O11 0.750000 0.454607 0.815528
O O12 0.498635 0.416392 0.744844
O O13 0.250000 0.304934 0.474568
O O14 0.028049 0.250000 0.508451
O O15 0.028658 0.338141 0.599198
O O16 0.750000 0.869508 0.269116
#
# Coordination Sequence:
#
# PCOD9448976 Si02
#       6
#     8   8   8   8   8   8
#     4  10  20  35  56  83 113 142 182 237 287 334
#     4   9  18  34  56  84 117 146 179 227 283 338
#     4  10  20  37  59  84 113 146 185 231 282 336
#     4  10  19  34  57  85 116 146 184 231 282 335
#     4  10  23  41  57  78 113 153 192 235 280 331
#     4  11  22  37  57  81 113 151 191 233 282 334
#
# _framework density 17.837527999999999
#
# number of rings (size 3 to 8) (size 9 to 14) (size 15 to 20)
#    0.000    2.000    1.667    2.000    0.000    5.333 
#    0.000    0.833    0.000    0.000    0.000    0.000 
#    0.000    0.000    0.000    0.000    0.000    0.000 
#
# Total GULP energy -268054.649604 kJ/mol
# GULP energy per Si atom -5584.471867 kJ/mol
# Density = 1.779693 g / cm^3
# Si number density = 17.837528 Si / 1000 Ang^3
#
#
#
# Elastic Constant Matrix: (Units=GPa)
#
#
# Indices 1 2 3 4 5 6 
#
# 1 15.1128 8.7414 -0.5529 0.0000 0.0000 0.0000
# 2 8.7414 47.0962 -15.1907 0.0000 0.0000 0.0000
# 3 -0.5529 -15.1907 26.8876 0.0000 0.0000 0.0000
# 4 0.0000 0.0000 0.0000 30.5631 0.0000 0.0000
# 5 0.0000 0.0000 0.0000 0.0000 58.7431 0.0000
# 6 0.0000 0.0000 0.0000 0.0000 0.0000 29.5709
#
#
#
# Elastic Compliance Matrix: (Units=1/GPa)
#
#
# Indices 1 2 3 4 5 6 
#
# 1 0.075433 -0.016509 -0.007776 0.000000 0.000000 0.000000
# 2 -0.016509 0.029578 0.016371 0.000000 0.000000 0.000000
# 3 -0.007776 0.016371 0.046281 0.000000 0.000000 0.000000
# 4 0.000000 0.000000 0.000000 0.032719 0.000000 0.000000
# 5 0.000000 0.000000 0.000000 0.000000 0.017023 0.000000
# 6 0.000000 0.000000 0.000000 0.000000 0.000000 0.033817
#
#
# Mechanical properties :
#
#
# Convention : Reuss Voigt Hill
#
# Bulk Modulus (GPa) = 7.38204 8.34361 7.86282
# Shear Modulus (GPa) = 16.90134 30.18201 23.54168
#
# Velocity S-wave (km/s) = 3.08151 4.11792 3.63682
# Velocity P-wave (km/s) = 4.09981 5.22469 4.69605
#
# Compressibility (1/GPa) = 0.13546391
#
# Stress axis : x y z
#
# Youngs Moduli (GPa) = 13.25672 33.80922 21.60713
#
# Poissons Ratio (x) = 0.55816 0.16802
# Poissons Ratio (y) = 0.21886 -0.35373
# Poissons Ratio (z) = 0.10308 -0.55349
#
# Static dielectric constant tensor:
#      x y z
#    x 1.595710 0.000000 0.000000 
#    y 0.000000 1.608250 0.000000 
#    z 0.000000 0.000000 1.580380 
# 
# From -- ./inp_files/6246.got.cif
#   From: 2010.05.17/outbox.cif.g08.bks.cpg/sg59_4_cif.got.tgz:6246.got - 2010.06.03 14:40:33.
