data_PCOD9448561
_publ_section_title
;
Structure prediction by ZEFSAII (Michael W. Deem and Ramdas Pophale) SiO2 
 PCOD9448561
Probable space group: P M M N
;
_chemical_formula_sum "Si O2"
_cell_formula_units_Z 64
_cell_length_a 24.949116
_cell_length_b 7.673423
_cell_length_c 14.973549
_cell_angle_alpha 90.000000
_cell_angle_beta 90.000000
_cell_angle_gamma 90.000000
_cell_volume 2866.612893
_symmetry_space_group_name_H-M "P M M N"
_symmetry_group_IT_number 59
_space_group.IT_coordinate_system_code '2'
_symmetry_cell_setting 'orthorhombic'
loop_
_space_group_symop_operation_xyz
x,y,z
1/2-x,1/2-y,z
1/2+x,-y,-z
-x,1/2+y,-z
-x,-y,-z
1/2+x,1/2+y,-z
1/2-x,y,z
x,1/2-y,z
loop_
_atom_site_type_symbol
_atom_site_label
_atom_site_fract_x
_atom_site_fract_y
_atom_site_fract_z
Si Si1 0.037049 0.541307 0.084256
Si Si2 0.657376 0.461441 0.955342
Si Si3 0.383631 0.044403 0.684421
Si Si4 0.190184 0.539066 0.847069
Si Si5 0.609322 0.447042 0.629175
Si Si6 0.689356 0.544401 0.473908
Si Si7 0.807779 0.546403 0.764991
Si Si8 0.996905 0.464736 0.717755
O O1 0.040088 0.750000 0.091543
O O2 0.096675 0.478009 0.061988
O O3 0.015469 0.478559 0.180268
O O4 0.000000 0.500000 0.000000
O O5 0.658983 0.250000 0.954365
O O6 0.690321 0.526225 0.870932
O O7 0.678357 0.517618 0.051737
O O8 0.389277 0.250000 0.665087
O O9 0.343568 0.968504 0.610003
O O10 0.444215 0.975411 0.688236
O O11 0.354850 0.024295 0.779437
O O12 0.250000 0.482413 0.819656
O O13 0.189167 0.750000 0.845970
O O14 0.600670 0.250000 0.598616
O O15 0.650235 0.528329 0.558716
O O16 0.642298 0.449591 0.721818
O O17 0.551250 0.523865 0.652707
O O18 0.750000 0.473625 0.485816
O O19 0.695623 0.750000 0.457270
O O20 0.750000 0.482411 0.731218
O O21 0.812514 0.750000 0.741730
O O22 0.995945 0.250000 0.717630
#
# Coordination Sequence:
#
# PCOD9448561 Si02
#       8
#     8   8   8   8   8   8   8   8
#     4  10  19  33  53  79 113 152 194 240 281 331
#     4  10  20  36  56  80 114 157 197 235 290 350
#     4  10  21  39  63  85 113 155 195 237 294 351
#     4  10  21  36  55  83 119 154 194 247 294 338
#     4  11  22  39  62  86 115 152 190 233 289 350
#     4  10  22  40  60  86 118 150 190 240 292 348
#     4  11  23  37  55  83 117 150 189 239 287 339
#     4   9  19  37  58  84 117 149 189 240 286 337
#
# _framework density 22.326001999999999
#
# number of rings (size 3 to 8) (size 9 to 14) (size 15 to 20)
#    0.000    1.875    1.250    2.625    0.000    6.000 
#    0.000    1.250    0.000    0.000    0.000    0.000 
#    0.000    0.000    0.000    0.000    0.000    0.000 
#
# Total GULP energy -357576.661770 kJ/mol
# GULP energy per Si atom -5587.135340 kJ/mol
# Density = 2.227519 g / cm^3
# Si number density = 22.326002 Si / 1000 Ang^3
#
#
#
# Elastic Constant Matrix: (Units=GPa)
#
#
# Indices 1 2 3 4 5 6 
#
# 1 196.8969 14.0827 51.5594 0.0000 0.0000 0.0000
# 2 14.0827 36.2292 -2.6407 0.0000 0.0000 0.0000
# 3 51.5594 -2.6407 88.9331 0.0000 0.0000 0.0000
# 4 0.0000 0.0000 0.0000 -9.3865 0.0000 0.0000
# 5 0.0000 0.0000 0.0000 0.0000 26.0132 0.0000
# 6 0.0000 0.0000 0.0000 0.0000 0.0000 -2.8646
#
#
#
# Elastic Compliance Matrix: (Units=1/GPa)
#
#
# Indices 1 2 3 4 5 6 
#
# 1 0.006240 -0.002695 -0.003698 0.000000 0.000000 0.000000
# 2 -0.002695 0.028826 0.002418 0.000000 0.000000 0.000000
# 3 -0.003698 0.002418 0.013460 0.000000 0.000000 0.000000
# 4 0.000000 0.000000 0.000000 -0.106536 0.000000 0.000000
# 5 0.000000 0.000000 0.000000 0.000000 0.038442 0.000000
# 6 0.000000 0.000000 0.000000 0.000000 0.000000 -0.349090
#
#
# Mechanical properties :
#
#
# Convention : Reuss Voigt Hill
#
# Bulk Modulus (GPa) = 24.64438 49.78466 37.21452
# Shear Modulus (GPa) = -14.40155 20.02296 2.81070
#
# Velocity S-wave (km/s) = -2.54255 2.99799 1.12324
# Velocity P-wave (km/s) = 1.56299 5.85929 4.28802
#
# Compressibility (1/GPa) = 0.04057720
#
# Stress axis : x y z
#
# Youngs Moduli (GPa) = 160.26150 34.69103 74.29469
#
# Poissons Ratio (x) = 0.09349 0.27471
# Poissons Ratio (y) = 0.43190 -0.17967
# Poissons Ratio (z) = 0.59258 -0.08390
#
# Static dielectric constant tensor:
#      x y z
#    x 1.837730 0.000000 0.000000 
#    y 0.000000 1.845720 0.000000 
#    z 0.000000 0.000000 1.805820 
# 
# From -- ./inp_files/24735.got.cif
#   From: 2010.05.17/outbox.cif.g08.bks.cpg/sg59_13_cif.got.tgz:24735.got - 2010.06.03 14:40:33.
