data_PCOD9448519
_publ_section_title
;
Structure prediction by ZEFSAII (Michael W. Deem and Ramdas Pophale) SiO2 
 PCOD9448519
Probable space group: P M M N
;
_chemical_formula_sum "Si O2"
_cell_formula_units_Z 56
_cell_length_a 8.508593
_cell_length_b 23.868281
_cell_length_c 15.927114
_cell_angle_alpha 90.000000
_cell_angle_beta 90.000000
_cell_angle_gamma 90.000000
_cell_volume 3234.565729
_symmetry_space_group_name_H-M "P M M N"
_symmetry_group_IT_number 59
_space_group.IT_coordinate_system_code '2'
_symmetry_cell_setting 'orthorhombic'
loop_
_space_group_symop_operation_xyz
x,y,z
1/2-x,1/2-y,z
1/2+x,-y,-z
-x,1/2+y,-z
-x,-y,-z
1/2+x,1/2+y,-z
1/2-x,y,z
x,1/2-y,z
loop_
_atom_site_type_symbol
_atom_site_label
_atom_site_fract_x
_atom_site_fract_y
_atom_site_fract_z
Si Si1 0.563251 0.937198 0.006027
Si Si2 0.441059 0.750000 0.085328
Si Si3 0.938327 0.368505 0.839253
Si Si4 0.441650 0.750000 0.890390
Si Si5 0.061283 0.446603 0.309199
Si Si6 0.561171 0.925954 0.323606
Si Si7 0.939108 0.563363 0.507139
Si Si8 0.561721 0.372681 0.155974
O O1 0.750000 0.936933 0.996679
O O2 0.514453 0.911258 0.094871
O O3 0.487970 0.900393 0.931987
O O4 0.500000 0.000000 0.000000
O O5 0.250000 0.750000 0.083475
O O6 0.489752 0.693641 0.132894
O O7 0.493193 0.750000 0.988105
O O8 0.750000 0.371887 0.847167
O O9 0.988297 0.386260 0.746508
O O10 0.250000 0.750000 0.891557
O O11 0.491388 0.807788 0.846679
O O12 0.250000 0.451833 0.307457
O O13 0.012885 0.418888 0.398995
O O14 0.991602 0.509619 0.306747
O O15 0.006924 0.409124 0.231711
O O16 0.750000 0.923934 0.318403
O O17 0.510606 0.909573 0.418843
O O18 0.750000 0.563352 0.506113
O O19 0.000000 0.500000 0.500000
O O20 0.750000 0.373807 0.161850
#
# Coordination Sequence:
#
# PCOD9448519 Si02
#       8
#     8   4   8   4   8   8   8   8
#     4  12  24  37  52  75 105 138 170 208 255 308
#     4   9  18  36  58  75  96 133 177 216 258 306
#     4  11  21  36  56  77 102 135 173 215 259 307
#     4   9  18  36  58  75  96 133 177 216 258 306
#     4  10  19  33  52  79 109 139 173 211 258 309
#     4  10  19  33  52  79 109 139 173 211 258 309
#     4   8  16  30  50  73 104 139 171 208 252 306
#     4  11  21  36  56  77 102 135 173 215 259 307
#
# _framework density 17.312988000000001
#
# number of rings (size 3 to 8) (size 9 to 14) (size 15 to 20)
#    0.000    1.857    1.429    3.857    0.000    1.143 
#    0.000    3.571    0.000    0.857    0.000    6.000 
#    0.000    0.000    0.000    0.000    0.000    0.000 
#
# Total GULP energy -312412.128644 kJ/mol
# GULP energy per Si atom -5578.788011 kJ/mol
# Density = 1.727358 g / cm^3
# Si number density = 17.312988 Si / 1000 Ang^3
#
#
#
# Elastic Constant Matrix: (Units=GPa)
#
#
# Indices 1 2 3 4 5 6 
#
# 1 23.9617 7.3138 -3.7579 0.0000 0.0000 0.0000
# 2 7.3138 45.0246 -18.1957 0.0000 0.0000 0.0000
# 3 -3.7579 -18.1957 58.5283 0.0000 0.0000 0.0000
# 4 0.0000 0.0000 0.0000 6.3855 0.0000 0.0000
# 5 0.0000 0.0000 0.0000 0.0000 17.2259 0.0000
# 6 0.0000 0.0000 0.0000 0.0000 0.0000 13.1513
#
#
#
# Elastic Compliance Matrix: (Units=1/GPa)
#
#
# Indices 1 2 3 4 5 6 
#
# 1 0.043935 -0.006858 0.000689 0.000000 0.000000 0.000000
# 2 -0.006858 0.026472 0.007789 0.000000 0.000000 0.000000
# 3 0.000689 0.007789 0.019552 0.000000 0.000000 0.000000
# 4 0.000000 0.000000 0.000000 0.156606 0.000000 0.000000
# 5 0.000000 0.000000 0.000000 0.000000 0.058052 0.000000
# 6 0.000000 0.000000 0.000000 0.000000 0.000000 0.076038
#
#
# Mechanical properties :
#
#
# Convention : Reuss Voigt Hill
#
# Bulk Modulus (GPa) = 10.72986 10.91501 10.82243
# Shear Modulus (GPa) = 12.24048 16.82949 14.53499
#
# Velocity S-wave (km/s) = 2.66185 3.12119 2.90063
# Velocity P-wave (km/s) = 3.95706 4.39401 4.18125
#
# Compressibility (1/GPa) = 0.09319787
#
# Stress axis : x y z
#
# Youngs Moduli (GPa) = 22.76102 37.77558 51.14671
#
# Poissons Ratio (x) = 0.25908 -0.03522
# Poissons Ratio (y) = 0.15611 -0.39841
# Poissons Ratio (z) = -0.01568 -0.29425
#
# Static dielectric constant tensor:
#      x y z
#    x 1.592070 0.000000 0.000000 
#    y 0.000000 1.565930 0.000000 
#    z 0.000000 0.000000 1.603020 
# 
# From -- ./inp_files/21175.got.cif
#   From: 2010.05.17/outbox.cif.g08.bks.cpg/sg59_11_cif.got.tgz:21175.got - 2010.06.03 14:40:33.
