data_PCOD9448003
_publ_section_title
;
Structure prediction by ZEFSAII (Michael W. Deem and Ramdas Pophale) SiO2 
 PCOD9448003
Probable space group: P M M N
;
_chemical_formula_sum "Si O2"
_cell_formula_units_Z 64
_cell_length_a 9.155773
_cell_length_b 14.167589
_cell_length_c 24.897671
_cell_angle_alpha 90.000000
_cell_angle_beta 90.000000
_cell_angle_gamma 90.000000
_cell_volume 3229.607091
_symmetry_space_group_name_H-M "P M M N"
_symmetry_group_IT_number 59
_space_group.IT_coordinate_system_code '2'
_symmetry_cell_setting 'orthorhombic'
loop_
_space_group_symop_operation_xyz
x,y,z
1/2-x,1/2-y,z
1/2+x,-y,-z
-x,1/2+y,-z
-x,-y,-z
1/2+x,1/2+y,-z
1/2-x,y,z
x,1/2-y,z
loop_
_atom_site_type_symbol
_atom_site_label
_atom_site_fract_x
_atom_site_fract_y
_atom_site_fract_z
Si Si1 0.082141 0.865592 0.972757
Si Si2 0.080304 0.136224 0.135103
Si Si3 0.074601 0.857445 0.190171
Si Si4 0.582693 0.363679 0.463642
Si Si5 0.426055 0.045343 0.363513
Si Si6 0.427633 0.643339 0.417168
Si Si7 0.072767 0.456041 0.245648
Si Si8 0.916731 0.634951 0.080049
O O1 0.250000 0.894466 0.977376
O O2 0.079301 0.750000 0.972657
O O3 0.011418 0.895728 0.916435
O O4 0.991246 0.896302 0.024805
O O5 0.250000 0.106302 0.128672
O O6 0.078493 0.250000 0.135934
O O7 0.024568 0.099879 0.192635
O O8 0.250000 0.857411 0.184698
O O9 0.028177 0.750000 0.202042
O O10 0.006737 0.888553 0.133416
O O11 0.036145 0.934541 0.234656
O O12 0.750000 0.397978 0.458851
O O13 0.586204 0.250000 0.463750
O O14 0.491232 0.398391 0.413321
O O15 0.524194 0.388864 0.523109
O O16 0.250000 0.052903 0.365037
O O17 0.478092 0.075646 0.304342
O O18 0.465599 0.935804 0.374192
O O19 0.250000 0.646875 0.419830
O O20 0.478183 0.750000 0.406198
O O21 0.250000 0.448278 0.246474
O O22 0.750000 0.602985 0.083956
O O23 0.915593 0.750000 0.078322
#
# Coordination Sequence:
#
# PCOD9448003 Si02
#       8
#     8   8   8   8   8   8   8   8
#     4   9  16  27  46  72  97 119 150 195 242 287
#     4   9  17  31  49  65  88 125 159 189 233 286
#     4   9  17  31  50  69  93 126 159 194 237 283
#     4   9  18  33  51  72 102 138 169 200 248 305
#     4  10  19  31  51  77 101 129 169 214 251 287
#     4   8  15  29  50  76 105 135 166 202 248 301
#     4   9  19  33  48  71  99 125 160 202 241 283
#     4   9  16  27  46  72  98 123 154 192 237 291
#
# _framework density 19.816651
#
# number of rings (size 3 to 8) (size 9 to 14) (size 15 to 20)
#    0.000    3.000    0.000    1.875    0.000    4.250 
#    0.000    6.250    0.000    2.625    0.000    0.000 
#    0.000    0.000    0.000    0.000    0.000    0.000 
#
# Total GULP energy -356993.346491 kJ/mol
# GULP energy per Si atom -5578.021039 kJ/mol
# Density = 1.977155 g / cm^3
# Si number density = 19.816651 Si / 1000 Ang^3
#
#
#
# Elastic Constant Matrix: (Units=GPa)
#
#
# Indices 1 2 3 4 5 6 
#
# 1 31.7537 -1.1367 20.5586 0.0000 0.0000 0.0000
# 2 -1.1367 18.4737 -4.4115 0.0000 0.0000 0.0000
# 3 20.5586 -4.4115 91.7756 0.0000 0.0000 0.0000
# 4 0.0000 0.0000 0.0000 21.9804 0.0000 0.0000
# 5 0.0000 0.0000 0.0000 0.0000 23.9092 0.0000
# 6 0.0000 0.0000 0.0000 0.0000 0.0000 11.4047
#
#
#
# Elastic Compliance Matrix: (Units=1/GPa)
#
#
# Indices 1 2 3 4 5 6 
#
# 1 0.036836 0.000300 -0.008237 0.000000 0.000000 0.000000
# 2 0.000300 0.054762 0.002565 0.000000 0.000000 0.000000
# 3 -0.008237 0.002565 0.012865 0.000000 0.000000 0.000000
# 4 0.000000 0.000000 0.000000 0.045495 0.000000 0.000000
# 5 0.000000 0.000000 0.000000 0.000000 0.041825 0.000000
# 6 0.000000 0.000000 0.000000 0.000000 0.000000 0.087683
#
#
# Mechanical properties :
#
#
# Convention : Reuss Voigt Hill
#
# Bulk Modulus (GPa) = 10.67032 19.11376 14.89204
# Shear Modulus (GPa) = 15.55450 19.92502 17.73976
#
# Velocity S-wave (km/s) = 2.80468 3.17435 2.99523
# Velocity P-wave (km/s) = 3.98554 4.80641 4.41510
#
# Compressibility (1/GPa) = 0.09371790
#
# Stress axis : x y z
#
# Youngs Moduli (GPa) = 27.14717 18.26084 77.73220
#
# Poissons Ratio (x) = -0.00547 0.64030
# Poissons Ratio (y) = -0.00813 -0.19940
# Poissons Ratio (z) = 0.22362 -0.04684
#
# Static dielectric constant tensor:
#      x y z
#    x 1.714420 0.000000 0.000000 
#    y 0.000000 1.751120 0.000000 
#    z 0.000000 0.000000 1.677340 
# 
# From -- ./inp_files/31436.got.cif
#   From: 2010.05.17/outbox.cif.g08.bks.cpg/sg59_16_cif.got.tgz:31436.got - 2010.06.03 14:40:33.
