data_PCOD9448553
_publ_section_title
;
Structure prediction by ZEFSAII (Michael W. Deem and Ramdas Pophale) SiO2 
 PCOD9448553
Probable space group: P M M N
;
_chemical_formula_sum "Si O2"
_cell_formula_units_Z 64
_cell_length_a 8.691543
_cell_length_b 19.893267
_cell_length_c 21.006320
_cell_angle_alpha 90.000000
_cell_angle_beta 90.000000
_cell_angle_gamma 90.000000
_cell_volume 3632.059644
_symmetry_space_group_name_H-M "P M M N"
_symmetry_group_IT_number 59
_space_group.IT_coordinate_system_code '2'
_symmetry_cell_setting 'orthorhombic'
loop_
_space_group_symop_operation_xyz
x,y,z
1/2-x,1/2-y,z
1/2+x,-y,-z
-x,1/2+y,-z
-x,-y,-z
1/2+x,1/2+y,-z
1/2-x,y,z
x,1/2-y,z
loop_
_atom_site_type_symbol
_atom_site_label
_atom_site_fract_x
_atom_site_fract_y
_atom_site_fract_z
Si Si1 0.066137 0.463053 0.182907
Si Si2 0.565649 0.825319 0.249364
Si Si3 0.935320 0.536347 0.306588
Si Si4 0.067324 0.038353 0.939380
Si Si5 0.935551 0.035412 0.437696
Si Si6 0.064214 0.674372 0.618143
Si Si7 0.066062 0.826535 0.108163
Si Si8 0.064737 0.174394 0.240160
O O1 0.250000 0.467932 0.174928
O O2 0.021294 0.384924 0.192160
O O3 0.016280 0.498595 0.248404
O O4 0.986283 0.499421 0.124098
O O5 0.750000 0.827270 0.238697
O O6 0.524582 0.750000 0.270895
O O7 0.528279 0.884885 0.297800
O O8 0.486285 0.837514 0.181320
O O9 0.750000 0.527838 0.300008
O O10 0.980769 0.505501 0.374124
O O11 0.250000 0.039149 0.942604
O O12 0.006548 0.114587 0.933468
O O13 0.000000 0.000000 0.000000
O O14 0.750000 0.034913 0.441157
O O15 0.986169 0.112748 0.426346
O O16 0.000000 0.000000 0.500000
O O17 0.250000 0.673719 0.619602
O O18 0.014154 0.750000 0.599587
O O19 0.006216 0.662033 0.690062
O O20 0.250000 0.830964 0.104997
O O21 0.019473 0.750000 0.091132
O O22 0.250000 0.172276 0.246741
O O23 0.020463 0.250000 0.220336
#
# Coordination Sequence:
#
# PCOD9448553 Si02
#       8
#     8   8   8   8   8   8   8   8
#     4  11  21  34  56  84 112 143 180 225 278 332
#     4   9  17  30  51  79 109 143 181 224 277 329
#     4  10  19  33  53  78 107 140 181 230 275 327
#     4  12  25  41  60  83 115 153 193 235 281 333
#     4  10  21  35  51  75 108 144 185 227 276 329
#     4   9  17  31  52  76 103 137 178 223 270 325
#     4  10  20  35  57  86 117 146 183 230 278 334
#     4   9  18  32  52  81 113 142 176 221 272 328
#
# _framework density 17.620854999999999
#
# number of rings (size 3 to 8) (size 9 to 14) (size 15 to 20)
#    0.000    2.000    2.500    1.875    0.000    2.250 
#    0.000    1.250    0.000    3.000    0.000    0.000 
#    0.000    0.000    0.000    0.000    0.000    0.000 
#
# Total GULP energy -357092.040378 kJ/mol
# GULP energy per Si atom -5579.563131 kJ/mol
# Density = 1.758075 g / cm^3
# Si number density = 17.620855 Si / 1000 Ang^3
#
#
#
# Elastic Constant Matrix: (Units=GPa)
#
#
# Indices 1 2 3 4 5 6 
#
# 1 36.6999 49.4716 33.5309 0.0000 0.0000 0.0000
# 2 49.4716 173.5463 77.9929 0.0000 0.0000 0.0000
# 3 33.5309 77.9929 101.5094 0.0000 0.0000 0.0000
# 4 0.0000 0.0000 0.0000 28.9457 0.0000 0.0000
# 5 0.0000 0.0000 0.0000 0.0000 29.0100 0.0000
# 6 0.0000 0.0000 0.0000 0.0000 0.0000 23.3773
#
#
#
# Elastic Compliance Matrix: (Units=1/GPa)
#
#
# Indices 1 2 3 4 5 6 
#
# 1 0.048364 -0.010092 -0.008222 0.000000 0.000000 0.000000
# 2 -0.010092 0.010907 -0.005047 0.000000 0.000000 0.000000
# 3 -0.008222 -0.005047 0.016445 0.000000 0.000000 0.000000
# 4 0.000000 0.000000 0.000000 0.034547 0.000000 0.000000
# 5 0.000000 0.000000 0.000000 0.000000 0.034471 0.000000
# 6 0.000000 0.000000 0.000000 0.000000 0.000000 0.042776
#
#
# Mechanical properties :
#
#
# Convention : Reuss Voigt Hill
#
# Bulk Modulus (GPa) = 34.48884 70.41626 52.45255
# Shear Modulus (GPa) = 20.50061 26.31730 23.40896
#
# Velocity S-wave (km/s) = 3.41461 3.86882 3.64879
# Velocity P-wave (km/s) = 5.92970 7.74633 6.89808
#
# Compressibility (1/GPa) = 0.02899488
#
# Stress axis : x y z
#
# Youngs Moduli (GPa) = 20.67668 91.68498 60.81024
#
# Poissons Ratio (x) = 0.92526 0.49997
# Poissons Ratio (y) = 0.20866 0.30688
# Poissons Ratio (z) = 0.17000 0.46270
#
# Static dielectric constant tensor:
#      x y z
#    x 1.593420 0.000000 0.000000 
#    y 0.000000 1.648200 0.000000 
#    z 0.000000 0.000000 1.547530 
# 
# From -- ./inp_files/29387.got.cif
#   From: 2010.05.17/outbox.cif.g08.bks.cpg/sg59_15_cif.got.tgz:29387.got - 2010.06.03 14:40:33.
