data_PCOD9448665
_publ_section_title
;
Structure prediction by ZEFSAII (Michael W. Deem and Ramdas Pophale) SiO2 
 PCOD9448665
Probable space group: P M M N
;
_chemical_formula_sum "Si O2"
_cell_formula_units_Z 64
_cell_length_a 8.829593
_cell_length_b 20.496723
_cell_length_c 20.527033
_cell_angle_alpha 90.000000
_cell_angle_beta 90.000000
_cell_angle_gamma 90.000000
_cell_volume 3714.935670
_symmetry_space_group_name_H-M "P M M N"
_symmetry_group_IT_number 59
_space_group.IT_coordinate_system_code '2'
_symmetry_cell_setting 'orthorhombic'
loop_
_space_group_symop_operation_xyz
x,y,z
1/2-x,1/2-y,z
1/2+x,-y,-z
-x,1/2+y,-z
-x,-y,-z
1/2+x,1/2+y,-z
1/2-x,y,z
x,1/2-y,z
loop_
_atom_site_type_symbol
_atom_site_label
_atom_site_fract_x
_atom_site_fract_y
_atom_site_fract_z
Si Si1 0.071354 0.393028 0.692531
Si Si2 0.070442 0.952803 0.674880
Si Si3 0.566490 0.066507 0.470969
Si Si4 0.069840 0.435319 0.186799
Si Si5 0.432252 0.823224 0.428258
Si Si6 0.432181 0.325186 0.952340
Si Si7 0.433294 0.423067 0.837132
Si Si8 0.431237 0.825558 0.905429
O O1 0.250000 0.378287 0.688557
O O2 0.050438 0.468755 0.672444
O O3 0.024089 0.390055 0.768074
O O4 0.984093 0.348274 0.642133
O O5 0.250000 0.940709 0.684531
O O6 0.022763 0.925653 0.604715
O O7 0.982763 0.928248 0.738172
O O8 0.750000 0.062133 0.472370
O O9 0.516254 0.125861 0.516753
O O10 0.500000 0.000000 0.500000
O O11 0.250000 0.436899 0.182788
O O12 0.003598 0.504800 0.162156
O O13 0.004679 0.376688 0.143742
O O14 0.250000 0.822980 0.429983
O O15 0.487069 0.750000 0.440226
O O16 0.250000 0.329379 0.960408
O O17 0.467280 0.250000 0.933502
O O18 0.476639 0.376990 0.897144
O O19 0.510312 0.338525 0.021359
O O20 0.250000 0.430074 0.836501
O O21 0.250000 0.831563 0.903360
O O22 0.471223 0.750000 0.890125
#
# Coordination Sequence:
#
# PCOD9448665 Si02
#       8
#     8   8   8   8   8   8   8   8
#     4   9  17  31  51  74 101 136 177 215 254 304
#     4   9  18  34  54  77 104 133 173 222 266 314
#     4  10  19  33  55  77 101 136 178 221 263 315
#     4  11  22  35  55  82 110 140 176 223 270 318
#     4  10  21  34  48  73 108 140 171 213 264 316
#     4   9  18  34  56  80 106 140 182 225 268 316
#     4   9  19  35  54  78 111 144 177 219 265 317
#     4  10  21  38  59  80 105 140 179 220 270 327
#
# _framework density 17.227754999999998
#
# number of rings (size 3 to 8) (size 9 to 14) (size 15 to 20)
#    0.000    2.375    1.250    2.250    0.000    5.000 
#    0.000    1.875    0.000    3.750    0.000    0.000 
#    0.000    0.000    0.000    0.000    0.000    0.000 
#
# Total GULP energy -357023.960435 kJ/mol
# GULP energy per Si atom -5578.499382 kJ/mol
# Density = 1.718854 g / cm^3
# Si number density = 17.227755 Si / 1000 Ang^3
#
#
#
# Elastic Constant Matrix: (Units=GPa)
#
#
# Indices 1 2 3 4 5 6 
#
# 1 34.3663 47.7320 49.7415 0.0000 0.0000 0.0000
# 2 47.7320 126.4998 109.8062 0.0000 0.0000 0.0000
# 3 49.7415 109.8062 151.0723 0.0000 0.0000 0.0000
# 4 0.0000 0.0000 0.0000 22.6657 0.0000 0.0000
# 5 0.0000 0.0000 0.0000 0.0000 29.8779 0.0000
# 6 0.0000 0.0000 0.0000 0.0000 0.0000 19.8827
#
#
#
# Elastic Compliance Matrix: (Units=1/GPa)
#
#
# Indices 1 2 3 4 5 6 
#
# 1 0.066148 -0.016403 -0.009857 0.000000 0.000000 0.000000
# 2 -0.016403 0.025487 -0.013124 0.000000 0.000000 0.000000
# 3 -0.009857 -0.013124 0.019404 0.000000 0.000000 0.000000
# 4 0.000000 0.000000 0.000000 0.044120 0.000000 0.000000
# 5 0.000000 0.000000 0.000000 0.000000 0.033470 0.000000
# 6 0.000000 0.000000 0.000000 0.000000 0.000000 0.050295
#
#
# Mechanical properties :
#
#
# Convention : Reuss Voigt Hill
#
# Bulk Modulus (GPa) = 30.98839 80.72197 55.85518
# Shear Modulus (GPa) = 15.22310 21.46250 18.34280
#
# Velocity S-wave (km/s) = 2.97583 3.53343 3.26655
# Velocity P-wave (km/s) = 5.46205 7.97523 6.83514
#
# Compressibility (1/GPa) = 0.03227015
#
# Stress axis : x y z
#
# Youngs Moduli (GPa) = 15.11756 39.23622 51.53602
#
# Poissons Ratio (x) = 0.64361 0.50799
# Poissons Ratio (y) = 0.24798 0.67636
# Poissons Ratio (z) = 0.14901 0.51493
#
# Static dielectric constant tensor:
#      x y z
#    x 1.583530 0.000000 0.000000 
#    y 0.000000 1.567100 0.000000 
#    z 0.000000 0.000000 1.575300 
# 
# From -- ./inp_files/26228.got.cif
#   From: 2010.05.17/outbox.cif.g08.bks.cpg/sg59_14_cif.got.tgz:26228.got - 2010.06.03 14:40:33.
