data_PCOD9448957
_publ_section_title
;
Structure prediction by ZEFSAII (Michael W. Deem and Ramdas Pophale) SiO2 
 PCOD9448957
Probable space group: P M M N
;
_chemical_formula_sum "Si O2"
_cell_formula_units_Z 64
_cell_length_a 21.904882
_cell_length_b 26.770413
_cell_length_c 5.356486
_cell_angle_alpha 90.000000
_cell_angle_beta 90.000000
_cell_angle_gamma 90.000000
_cell_volume 3141.058056
_symmetry_space_group_name_H-M "P M M N"
_symmetry_group_IT_number 59
_space_group.IT_coordinate_system_code '2'
_symmetry_cell_setting 'orthorhombic'
loop_
_space_group_symop_operation_xyz
x,y,z
1/2-x,1/2-y,z
1/2+x,-y,-z
-x,1/2+y,-z
-x,-y,-z
1/2+x,1/2+y,-z
1/2-x,y,z
x,1/2-y,z
loop_
_atom_site_type_symbol
_atom_site_label
_atom_site_fract_x
_atom_site_fract_y
_atom_site_fract_z
Si Si1 0.822055 0.456918 0.399634
Si Si2 0.575490 0.109180 0.298750
Si Si3 0.473434 0.560131 0.198766
Si Si4 0.363575 0.193015 0.122210
Si Si5 0.872111 0.990712 0.901738
Si Si6 0.912815 0.618393 0.250841
Si Si7 0.181248 0.400899 0.346182
Si Si8 0.489395 0.307028 0.427989
O O1 0.750000 0.455124 0.368249
O O2 0.855027 0.403118 0.369628
O O3 0.837938 0.480527 0.669951
O O4 0.851812 0.488049 0.170129
O O5 0.540304 0.076242 0.513385
O O6 0.548499 0.164596 0.325355
O O7 0.561669 0.091574 0.016888
O O8 0.442360 0.506017 0.163094
O O9 0.543505 0.574959 0.146214
O O10 0.344536 0.250000 0.086547
O O11 0.368934 0.157996 0.883673
O O12 0.321709 0.158528 0.295787
O O13 0.432500 0.192842 0.233994
O O14 0.845343 0.934690 0.878158
O O15 0.870615 0.591514 0.450597
O O16 0.963038 0.657593 0.356984
O O17 0.250000 0.415852 0.408207
O O18 0.500068 0.250000 0.503501
#
# Coordination Sequence:
#
# PCOD9448957 Si02
#       8
#     8   8   8   8   8   8   8   8
#     4  10  19  34  57  82 115 157 196 230 274 341
#     4   9  17  31  52  84 116 147 185 234 283 343
#     4   9  18  35  58  85 117 143 183 232 295 348
#     4  10  21  38  59  80 104 143 189 242 298 346
#     4  10  22  38  59  86 115 151 191 239 285 342
#     4  10  20  36  59  82 113 145 186 241 297 352
#     4  11  25  40  55  79 112 151 195 240 286 346
#     4   9  17  32  55  81 109 140 183 237 291 344
#
# _framework density 20.375298999999998
#
# number of rings (size 3 to 8) (size 9 to 14) (size 15 to 20)
#    0.000    2.250    1.250    1.500    1.750    1.750 
#    0.000    0.625    0.000    0.375    0.000    0.000 
#    0.000    6.500    0.000    0.000    0.000    1.375 
#
# Total GULP energy -356510.762473 kJ/mol
# GULP energy per Si atom -5570.480664 kJ/mol
# Density = 2.032892 g / cm^3
# Si number density = 20.375299 Si / 1000 Ang^3
#
#
#
# Elastic Constant Matrix: (Units=GPa)
#
#
# Indices 1 2 3 4 5 6 
#
# 1 81.2855 45.9483 1.2361 0.0000 0.0000 0.0000
# 2 45.9483 113.5754 8.1772 0.0000 0.0000 0.0000
# 3 1.2361 8.1772 61.4448 0.0000 0.0000 0.0000
# 4 0.0000 0.0000 0.0000 18.3150 0.0000 0.0000
# 5 0.0000 0.0000 0.0000 0.0000 8.8476 0.0000
# 6 0.0000 0.0000 0.0000 0.0000 0.0000 0.1699
#
#
#
# Elastic Compliance Matrix: (Units=1/GPa)
#
#
# Indices 1 2 3 4 5 6 
#
# 1 0.015968 -0.006499 0.000544 0.000000 0.000000 0.000000
# 2 -0.006499 0.011535 -0.001404 0.000000 0.000000 0.000000
# 3 0.000544 -0.001404 0.016451 0.000000 0.000000 0.000000
# 4 0.000000 0.000000 0.000000 0.054600 0.000000 0.000000
# 5 0.000000 0.000000 0.000000 0.000000 0.113025 0.000000
# 6 0.000000 0.000000 0.000000 0.000000 0.000000 5.884639
#
#
# Mechanical properties :
#
#
# Convention : Reuss Voigt Hill
#
# Bulk Modulus (GPa) = 34.20668 40.78098 37.49383
# Shear Modulus (GPa) = 0.81690 18.86279 9.83985
#
# Velocity S-wave (km/s) = 0.63388 3.04594 2.19995
# Velocity P-wave (km/s) = 4.16659 5.69462 4.98945
#
# Compressibility (1/GPa) = 0.02923405
#
# Stress axis : x y z
#
# Youngs Moduli (GPa) = 62.62603 86.69180 60.78764
#
# Poissons Ratio (x) = 0.56342 -0.03305
# Poissons Ratio (y) = 0.40701 0.08537
# Poissons Ratio (z) = -0.03405 0.12175
#
# Static dielectric constant tensor:
#      x y z
#    x 1.734950 0.000000 0.000000 
#    y 0.000000 1.746680 0.000000 
#    z 0.000000 0.000000 1.843320 
# 
# From -- ./inp_files/3539.got.cif
#   From: 2010.05.17/outbox.cif.g08.bks.cpg/sg59_2_cif.got.tgz:3539.got - 2010.06.03 14:40:33.
