data_PCOD9448740
_publ_section_title
;
Structure prediction by ZEFSAII (Michael W. Deem and Ramdas Pophale) SiO2 
 PCOD9448740
Probable space group: P M M N
;
_chemical_formula_sum "Si O2"
_cell_formula_units_Z 48
_cell_length_a 19.644517
_cell_length_b 7.747228
_cell_length_c 15.628984
_cell_angle_alpha 90.000000
_cell_angle_beta 90.000000
_cell_angle_gamma 90.000000
_cell_volume 2378.583704
_symmetry_space_group_name_H-M "P M M N"
_symmetry_group_IT_number 59
_space_group.IT_coordinate_system_code '2'
_symmetry_cell_setting 'orthorhombic'
loop_
_space_group_symop_operation_xyz
x,y,z
1/2-x,1/2-y,z
1/2+x,-y,-z
-x,1/2+y,-z
-x,-y,-z
1/2+x,1/2+y,-z
1/2-x,y,z
x,1/2-y,z
loop_
_atom_site_type_symbol
_atom_site_label
_atom_site_fract_x
_atom_site_fract_y
_atom_site_fract_z
Si Si1 0.576984 0.455796 0.527289
Si Si2 0.424389 0.541954 0.280274
Si Si3 0.673247 0.955546 0.370744
Si Si4 0.923128 0.957722 0.027267
Si Si5 0.327086 0.042592 0.124661
Si Si6 0.074618 0.038246 0.779247
O O1 0.500000 0.500000 0.500000
O O2 0.582412 0.250000 0.529275
O O3 0.589100 0.522229 0.623594
O O4 0.630332 0.518673 0.457036
O O5 0.427481 0.750000 0.283922
O O6 0.367638 0.494609 0.211517
O O7 0.498773 0.482786 0.248309
O O8 0.750000 0.025643 0.375643
O O9 0.678351 0.750000 0.358027
O O10 0.629060 0.022388 0.290733
O O11 0.917368 0.750000 0.028805
O O12 0.910649 0.018815 0.124031
O O13 0.871032 0.024357 0.955692
O O14 0.000000 0.000000 0.000000
O O15 0.250000 0.976094 0.126064
O O16 0.323916 0.250000 0.116174
O O17 0.074592 0.250000 0.778663
#
# Coordination Sequence:
#
# PCOD9448740 Si02
#       6
#     8   8   8   8   8   8
#     4  11  22  37  59  84 113 146 188 235 279 332
#     4  10  20  36  58  81 107 143 188 228 267 326
#     4  10  21  38  59  84 115 148 184 229 282 336
#     4  10  19  33  56  81 108 142 182 225 270 321
#     4  10  22  37  53  81 117 145 177 226 279 327
#     4   9  17  33  56  82 109 140 184 228 267 323
#
# _framework density 20.180077000000001
#
# number of rings (size 3 to 8) (size 9 to 14) (size 15 to 20)
#    0.000    2.000    3.333    0.500    0.000    3.333 
#    0.000    7.500    0.000    0.000    0.000    2.333 
#    0.000    0.000    0.000    0.000    0.000    0.000 
#
# Total GULP energy -268085.344579 kJ/mol
# GULP energy per Si atom -5585.111345 kJ/mol
# Density = 2.013415 g / cm^3
# Si number density = 20.180077 Si / 1000 Ang^3
#
#
#
# Elastic Constant Matrix: (Units=GPa)
#
#
# Indices 1 2 3 4 5 6 
#
# 1 209.6667 1.8844 130.3967 0.0000 0.0000 0.0000
# 2 1.8844 27.8940 1.9900 0.0000 0.0000 0.0000
# 3 130.3967 1.9900 236.7955 0.0000 0.0000 0.0000
# 4 0.0000 0.0000 0.0000 19.3284 0.0000 0.0000
# 5 0.0000 0.0000 0.0000 0.0000 30.7140 0.0000
# 6 0.0000 0.0000 0.0000 0.0000 0.0000 20.6876
#
#
#
# Elastic Compliance Matrix: (Units=1/GPa)
#
#
# Indices 1 2 3 4 5 6 
#
# 1 0.007255 -0.000205 -0.003993 0.000000 0.000000 0.000000
# 2 -0.000205 0.035877 -0.000189 0.000000 0.000000 0.000000
# 3 -0.003993 -0.000189 0.006424 0.000000 0.000000 0.000000
# 4 0.000000 0.000000 0.000000 0.051737 0.000000 0.000000
# 5 0.000000 0.000000 0.000000 0.000000 0.032558 0.000000
# 6 0.000000 0.000000 0.000000 0.000000 0.000000 0.048338
#
#
# Mechanical properties :
#
#
# Convention : Reuss Voigt Hill
#
# Bulk Modulus (GPa) = 24.52075 82.54427 53.53251
# Shear Modulus (GPa) = 24.44297 36.81834 30.63066
#
# Velocity S-wave (km/s) = 3.48407 4.27604 3.90021
# Velocity P-wave (km/s) = 5.32563 8.08529 6.84596
#
# Compressibility (1/GPa) = 0.04078178
#
# Stress axis : x y z
#
# Youngs Moduli (GPa) = 137.83859 27.87274 155.67468
#
# Poissons Ratio (x) = 0.00572 0.62166
# Poissons Ratio (y) = 0.02828 0.02935
# Poissons Ratio (z) = 0.55043 0.00525
#
# Static dielectric constant tensor:
#      x y z
#    x 1.676230 0.000000 0.000000 
#    y 0.000000 1.761530 0.000000 
#    z 0.000000 0.000000 1.698370 
# 
# From -- ./inp_files/15761.got.cif
#   From: 2010.05.17/outbox.cif.g08.bks.cpg/sg59_8_cif.got.tgz:15761.got - 2010.06.03 14:40:33.
